#------------------------------------------------------------------------------
#$Date: 2016-03-24 00:14:39 +0200 (Thu, 24 Mar 2016) $
#$Revision: 179528 $
#$URL: svn://www.crystallography.net/cod/cif/4/34/25/4342583.cif $
#------------------------------------------------------------------------------
#
# This file is available in the Crystallography Open Database (COD),
# http://www.crystallography.net/
#
# All data on this site have been placed in the public domain by the
# contributors.
#
data_4342583
loop_
_publ_author_name
'Oliynyk, Anton O.'
'Stoyko, Stanislav S.'
'Mar, Arthur'
_publ_section_title
;
 Many Metals Make the Cut: Quaternary Rare-Earth Germanides RE4M2InGe4 (M
 = Fe, Co, Ni, Ru, Rh, Ir) and RE4RhInGe4 Derived from Excision of Slabs
 in RE2InGe2.
;
_journal_issue                   6
_journal_name_full               'Inorganic chemistry'
_journal_page_first              2780
_journal_page_last               2792
_journal_paper_doi               10.1021/ic502955h
_journal_volume                  54
_journal_year                    2015
_chemical_formula_structural     'Nd4 Fe2 In Ge4'
_chemical_formula_sum            'Fe2 Ge4 In Nd4'
_chemical_formula_weight         1093.84
_chemical_name_common            'neodymium iron indium germanide (4/2/1/4)'
_chemical_name_systematic        'neodymium iron indium germanide (4/2/1/4)'
_space_group_crystal_system      monoclinic
_space_group_IT_number           12
_space_group_name_Hall           '-C 2y'
_space_group_name_H-M_alt        'C 1 2/m 1'
_symmetry_space_group_name_Hall  '-C 2y'
_symmetry_space_group_name_H-M   'C 1 2/m 1'
_atom_sites_solution_primary     direct
_atom_sites_solution_secondary   difmap
_audit_creation_method           SHELXL-2013
_cell_angle_alpha                90
_cell_angle_beta                 107.0650(9)
_cell_angle_gamma                90
_cell_formula_units_Z            2
_cell_length_a                   15.9354(10)
_cell_length_b                   4.3102(3)
_cell_length_c                   7.2004(5)
_cell_measurement_reflns_used    3036
_cell_measurement_temperature    173(2)
_cell_measurement_theta_max      32.58
_cell_measurement_theta_min      4.92
_cell_volume                     472.78(6)
_computing_cell_refinement       'Bruker SAINT 8.27B (Bruker, 2011)'
_computing_data_collection       'Bruker APEX 2 (Bruker, 2008)'
_computing_data_reduction        'Bruker SAINT 8.27B'
_computing_molecular_graphics    'ATOMS 5.1 (Dowty, 1999)'
_computing_publication_material  'Bruker SHELXTL'
_computing_structure_refinement  'Bruker SHELXTL'
_computing_structure_solution    'Bruker SHELXTL'
_diffrn_ambient_temperature      173(2)
_diffrn_measured_fraction_theta_full 1.000
_diffrn_measured_fraction_theta_max 0.978
_diffrn_measurement_device_type  'Bruker PLATFORM/SMART APEX II CCD'
_diffrn_measurement_method       '\w and \f scans'
_diffrn_radiation_type           MoK\a
_diffrn_radiation_wavelength     0.71073
_diffrn_reflns_av_R_equivalents  0.0256
_diffrn_reflns_av_unetI/netI     0.0218
_diffrn_reflns_Laue_measured_fraction_full 1.000
_diffrn_reflns_Laue_measured_fraction_max 0.978
_diffrn_reflns_limit_h_max       24
_diffrn_reflns_limit_h_min       -24
_diffrn_reflns_limit_k_max       6
_diffrn_reflns_limit_k_min       -6
_diffrn_reflns_limit_l_max       11
_diffrn_reflns_limit_l_min       -10
_diffrn_reflns_number            3336
_diffrn_reflns_point_group_measured_fraction_full 1.000
_diffrn_reflns_point_group_measured_fraction_max 0.978
_diffrn_reflns_theta_full        25.242
_diffrn_reflns_theta_max         33.180
_diffrn_reflns_theta_min         2.674
_diffrn_source                   'fine-focus sealed tube'
_exptl_absorpt_coefficient_mu    39.312
_exptl_absorpt_correction_T_max  0.4949
_exptl_absorpt_correction_T_min  0.1334
_exptl_absorpt_correction_type   numerical
_exptl_absorpt_process_details   'Bruker SHELXTL (Sheldrick, 2013)'
_exptl_crystal_colour            grey
_exptl_crystal_density_diffrn    7.684
_exptl_crystal_density_method    'not measured'
_exptl_crystal_description       irregular
_exptl_crystal_F_000             938
_exptl_crystal_size_max          0.074
_exptl_crystal_size_mid          0.050
_exptl_crystal_size_min          0.034
_refine_diff_density_max         1.682
_refine_diff_density_min         -0.989
_refine_diff_density_rms         0.274
_refine_ls_extinction_coef       0.00030(6)
_refine_ls_extinction_expression Fc^*^=kFc[1+0.001xFc^2^\l^3^/sin(2\q)]^-1/4^
_refine_ls_extinction_method     SHELXL
_refine_ls_goodness_of_fit_ref   1.068
_refine_ls_hydrogen_treatment    undef
_refine_ls_matrix_type           full
_refine_ls_number_parameters     37
_refine_ls_number_reflns         982
_refine_ls_number_restraints     0
_refine_ls_restrained_S_all      1.068
_refine_ls_R_factor_all          0.0217
_refine_ls_R_factor_gt           0.0168
_refine_ls_shift/su_max          0.001
_refine_ls_shift/su_mean         0.000
_refine_ls_structure_factor_coef Fsqd
_refine_ls_weighting_details
'w=1/[\s^2^(Fo^2^)+(0.0175P)^2^] where P=(Fo^2^+2Fc^2^)/3'
_refine_ls_weighting_scheme      calc
_refine_ls_wR_factor_gt          0.0361
_refine_ls_wR_factor_ref         0.0373
_reflns_Friedel_coverage         0.000
_reflns_number_gt                879
_reflns_number_total             982
_reflns_threshold_expression     'I > 2\s(I)'
_cod_data_source_file            ic502955h_si_002.cif
_cod_data_source_block           Nd4Fe2InGe4
_cod_depositor_comments
'Adding full bibliography for 4342570--4342590.cif.'
_cod_database_code               4342583
#BEGIN Tags that were not found in dictionaries:
_shelx_space_group_comment
;
The symmetry employed for this shelxl refinement is uniquely defined
by the following loop, which should always be used as a source of
symmetry information in preference to the above space-group names.
They are only intended as comments.
;
_shelx_estimated_absorpt_t_min   0.159
_shelx_estimated_absorpt_t_max   0.348
_shelxl_version_number           2013-4
_shelx_res_file
;
TITL Nd4Fe2InGe4 C2/m lsf final refinement
CELL 0.71073  15.93540   4.31020   7.20040  90.0000 107.0650  90.0000
ZERR    2.00   0.00100   0.00030   0.00050   0.0000   0.0009   0.0000
LATT  7
SYMM -X, Y, -Z
SFAC FE GE IN ND
UNIT 4 8 2 8
TEMP -100
SIZE 0.034 0.05 0.074

L.S. 4
ACTA

WGHT    0.017500
EXTI    0.000301
FVAR       0.04550
ND1   4    0.347545    0.000000    0.062146    10.50000    0.00718    0.00595 =
         0.00852    0.00000    0.00274    0.00000
ND2   4    0.588231    0.000000    0.378459    10.50000    0.00697    0.00512 =
         0.00940    0.00000    0.00376    0.00000
FE    1    0.217630    0.000000    0.627620    10.50000    0.00683    0.00576 =
         0.01025    0.00000    0.00338    0.00000
IN    3    0.000000    0.000000    0.000000     0.24669    0.00942    0.00707 =
         0.01074    0.00000    0.00460    0.00000
GE1   2    0.065897    0.000000    0.654214    10.50000    0.00690    0.00571 =
         0.00896    0.00000    0.00317    0.00000
GE2   2    0.209129    0.000000    0.275647    10.50000    0.00896    0.00480 =
         0.00974    0.00000    0.00448    0.00000
HKLF 4

REM  Nd4Fe2InGe4 C2/m lsf final refinement
REM R1 =  0.0168 for     879 Fo > 4sig(Fo)  and  0.0217 for all     982 data
REM     37 parameters refined using      0 restraints

END

WGHT      0.0175      0.0000

REM Highest difference peak  1.682,  deepest hole -0.989,  1-sigma level  0.274
Q1    1   0.0455  0.0000  0.0723  10.50000  0.05    1.68
Q2    1   0.3060  0.0000 -0.0205  10.50000  0.05    1.64
Q3    1   0.6221  0.0000  0.4770  10.50000  0.05    1.62
Q4    1   0.3844  0.0000  0.1657  10.50000  0.05    1.53
Q5    1   0.1185  0.0000  0.7540  10.50000  0.05    1.48
Q6    1   0.5810  0.0000  0.4808  10.50000  0.05    1.46
Q7    1   0.1707  0.0000  0.1867  10.50000  0.05    1.22
Q8    1   0.5679  0.0000  0.2707  10.50000  0.05    1.22
Q9    1   0.5404  0.0000  0.3117  10.50000  0.05    1.21
Q10   1   0.2467  0.0000  0.3233  10.50000  0.05    1.04
Q11   1   0.4336  0.0000  0.1793  10.50000  0.05    1.00
Q12   1   0.0211  0.0000  0.5585  10.50000  0.05    0.99
Q13   1   0.1928  0.0000  0.0756  10.50000  0.05    0.96
Q14   1   0.0688  0.0000  0.2047  10.50000  0.05    0.94
Q15   1   0.0691  0.0000  0.5580  10.50000  0.05    0.94
Q16   1   0.5229  0.0000  0.5025  10.50000  0.05    0.94
Q17   1   0.2623  0.0855 -0.0879  11.00000  0.05    0.75
Q18   1   0.4230  0.0000  0.2863  10.50000  0.05    0.74
Q19   1   0.2678  0.1779  0.4374  11.00000  0.05    0.74
Q20   1   0.5178  0.0000  0.1898  10.50000  0.05    0.73
;
_shelx_res_checksum              23106
_shelx_hkl_file
;
   2  -2 -10    0.37    0.63
   4  -2 -10    0.91    0.46
   6  -2 -10    2.89    0.58
  10  -2 -10   44.44    2.29
  -1  -1 -10    2.18    0.71
   1  -1 -10    0.37    0.43
   3  -1 -10    0.65    0.42
   5  -1 -10   35.98    1.37
   7  -1 -10    2.97    0.52
   9  -1 -10   12.48    0.90
  11  -1 -10    0.35    0.68
  13  -1 -10   38.14    2.14
  -2   0 -10    7.03    1.05
   0   0 -10    4.84    0.62
   2   0 -10    0.31    0.38
   4   0 -10    1.44    0.45
   6   0 -10    3.12    0.53
   8   0 -10   67.71    1.92
  10   0 -10   57.56    1.76
  12   0 -10    7.73    0.77
  14   0 -10    4.69    1.04
   1   1 -10    0.00    0.32
   3   1 -10    0.50    0.33
   5   1 -10   36.88    1.33
   7   1 -10    1.77    0.42
   9   1 -10   11.02    0.86
  11   1 -10    0.19    0.41
  13   1 -10   35.63    1.43
  15   1 -10    1.30    0.70
   2   2 -10   -0.59    0.62
   4   2 -10    1.25    0.50
   6   2 -10    1.58    0.49
   8   2 -10   57.56    1.89
  10   2 -10   47.91    1.65
  12   2 -10    8.07    1.20
   1  -3  -9    6.74    0.64
   3  -3  -9    7.10    0.66
   5  -3  -9   20.53    1.23
   7  -3  -9   13.92    1.12
   9  -3  -9    1.63    0.58
  11  -3  -9   27.91    1.44
  13  -3  -9   45.55    2.39
  -4  -2  -9   10.93    0.76
  -2  -2  -9    3.24    0.48
   0  -2  -9   36.57    1.17
   2  -2  -9   36.03    1.15
   4  -2  -9   20.94    0.89
   6  -2  -9    4.05    0.51
   8  -2  -9    1.31    0.50
  10  -2  -9    2.70    0.59
  12  -2  -9    0.10    0.56
  14  -2  -9    2.03    0.79
  16  -2  -9   98.83    3.79
  -5  -1  -9    8.01    0.77
  -3  -1  -9    5.48    0.65
  -1  -1  -9   94.52    2.36
   1  -1  -9   10.25    0.82
   3  -1  -9    8.75    0.76
   5  -1  -9   29.53    1.18
   7  -1  -9   18.39    0.94
   9  -1  -9    1.33    0.43
  11  -1  -9   40.95    2.09
  13  -1  -9   56.44    2.55
  15  -1  -9   18.92    1.72
  17  -1  -9    2.34    0.85
  -6   0  -9    5.95    0.69
  -4   0  -9   14.88    0.98
  -2   0  -9    4.24    0.58
   0   0  -9   40.31    1.17
   2   0  -9   42.17    1.20
   4   0  -9   22.21    0.86
   6   0  -9    3.52    0.45
   8   0  -9    2.67    0.41
  10   0  -9    2.12    0.46
  12   0  -9    0.64    0.39
  14   0  -9    0.54    0.68
  16   0  -9  120.63    4.18
  18   0  -9    0.39    0.67
  -5   1  -9    7.13    0.78
  -3   1  -9    4.85    0.65
  -1   1  -9   94.80    1.94
   1   1  -9   10.95    0.68
   3   1  -9   10.54    0.67
   5   1  -9   29.30    0.98
   7   1  -9   18.27    0.80
   9   1  -9    2.85    0.44
  11   1  -9   41.01    1.44
  13   1  -9   55.79    1.77
  15   1  -9   19.95    1.11
  17   1  -9    0.93    0.74
  -4   2  -9   13.69    1.04
  -2   2  -9    3.09    0.58
   0   2  -9   34.30    1.38
   2   2  -9   34.18    1.40
   4   2  -9   20.72    1.09
   6   2  -9    2.54    0.53
   8   2  -9    1.78    0.40
  10   2  -9    2.07    0.52
  12   2  -9    0.86    0.46
  14   2  -9    0.65    0.45
  16   2  -9  107.15    2.66
   1   3  -9    8.67    0.88
   3   3  -9    8.24    0.83
   5   3  -9   21.69    1.21
   7   3  -9   15.47    1.16
   9   3  -9    0.58    0.53
  11   3  -9   27.42    1.84
   0  -4  -8    6.61    0.85
   2  -4  -8   19.90    1.24
   4  -4  -8   11.34    1.05
   6  -4  -8    6.07    0.84
   8  -4  -8    9.77    1.64
  10  -4  -8   50.61    3.13
  -5  -3  -8   14.67    1.12
  -3  -3  -8    6.26    0.76
  -1  -3  -8    1.02    0.39
   1  -3  -8    7.68    0.65
   3  -3  -8    9.35    0.69
   5  -3  -8   73.95    2.20
   7  -3  -8   46.62    1.77
   9  -3  -8    5.35    0.77
  11  -3  -8   23.00    1.67
  13  -3  -8    0.51    0.68
  15  -3  -8   10.05    1.30
  -8  -2  -8    1.60    0.57
  -6  -2  -8   64.29    1.63
  -4  -2  -8    5.79    0.58
  -2  -2  -8   -0.01    0.30
   0  -2  -8    9.43    0.66
   2  -2  -8   33.71    1.06
   4  -2  -8   19.44    0.82
   6  -2  -8   12.79    0.73
   8  -2  -8   14.87    1.06
  10  -2  -8   74.38    2.84
  12  -2  -8    1.08    0.64
  14  -2  -8    0.10    0.57
  16  -2  -8    5.37    0.98
  18  -2  -8    0.82    0.76
  -9  -1  -8   -0.27    0.40
  -7  -1  -8   14.74    1.00
  -5  -1  -8   20.20    1.01
  -3  -1  -8    7.69    0.60
  -1  -1  -8    2.47    0.41
   1  -1  -8   13.34    0.73
   3  -1  -8   14.65    0.75
   5  -1  -8  101.54    1.93
   7  -1  -8   66.45    1.48
   9  -1  -8    7.59    0.68
  11  -1  -8   34.19    1.81
  13  -1  -8    0.22    0.56
  15  -1  -8   11.53    1.30
  17  -1  -8    3.22    0.83
  19  -1  -8   78.23    3.14
 -10   0  -8   65.15    1.91
  -8   0  -8    2.02    0.47
  -6   0  -8   73.18    1.95
  -4   0  -8    4.94    0.59
  -2   0  -8   -0.18    0.26
   0   0  -8   13.62    0.74
   2   0  -8   41.69    1.14
   4   0  -8   22.53    0.82
   6   0  -8   14.54    0.73
   8   0  -8   18.56    0.77
  10   0  -8   84.88    2.06
  12   0  -8    0.37    0.34
  14   0  -8    0.47    0.36
  16   0  -8    6.51    1.02
  18   0  -8    1.01    0.70
  20   0  -8    0.24    0.71
  -9   1  -8    0.11    0.43
  -7   1  -8   16.06    1.02
  -5   1  -8   20.64    0.84
  -3   1  -8    7.69    0.58
  -1   1  -8    1.85    0.34
   1   1  -8   13.86    0.70
   3   1  -8   15.81    0.71
   5   1  -8   99.00    1.92
   7   1  -8   64.50    1.48
   9   1  -8    7.46    0.57
  11   1  -8   31.74    1.22
  13   1  -8   -0.21    0.32
  15   1  -8   11.04    0.85
  17   1  -8    3.16    0.58
  19   1  -8   76.50    3.16
  -8   2  -8    1.62    0.53
  -6   2  -8   67.22    1.98
  -4   2  -8    4.36    0.62
  -2   2  -8    0.39    0.37
   0   2  -8    9.72    0.81
   2   2  -8   33.15    1.31
   4   2  -8   17.23    0.77
   6   2  -8   11.90    0.71
   8   2  -8   15.60    0.78
  10   2  -8   73.40    1.65
  12   2  -8    0.76    0.41
  14   2  -8   -0.44    0.35
  16   2  -8    7.20    0.75
  18   2  -8    1.38    0.52
  -5   3  -8   14.01    1.32
  -3   3  -8    6.53    0.67
  -1   3  -8    2.14    0.49
   1   3  -8    9.04    0.88
   3   3  -8    9.47    0.90
   5   3  -8   71.08    2.17
   7   3  -8   52.59    1.81
   9   3  -8    5.87    0.76
  11   3  -8   27.30    1.72
  13   3  -8   -0.09    0.52
  15   3  -8   10.17    0.88
  17   3  -8    4.87    0.99
   0   4  -8    6.03    0.70
   2   4  -8   22.72    1.13
   4   4  -8   10.60    0.88
   6   4  -8   11.42    1.01
   8   4  -8   11.10    1.02
  10   4  -8   54.46    1.97
  -6  -4  -7    0.46    0.64
  -4  -4  -7   48.62    1.81
  -2  -4  -7   19.94    1.21
   0  -4  -7   26.56    1.32
   2  -4  -7   21.52    1.21
   4  -4  -7   11.47    0.99
   6  -4  -7    6.67    1.41
   8  -4  -7   13.70    1.79
  -9  -3  -7    2.04    0.58
  -7  -3  -7   26.43    1.32
  -5  -3  -7    3.84    0.64
  -3  -3  -7   32.24    1.40
  -1  -3  -7    2.08    0.52
   1  -3  -7   49.70    1.33
   3  -3  -7    0.77    0.34
   5  -3  -7    0.07    0.39
   7  -3  -7    4.36    0.60
   9  -3  -7    0.43    0.55
  11  -3  -7    2.90    0.79
  13  -3  -7   58.82    2.54
 -10  -2  -7    2.31    0.58
  -8  -2  -7    0.42    0.43
  -6  -2  -7    1.84    0.37
  -4  -2  -7   69.33    1.58
  -2  -2  -7   29.64    0.97
   0  -2  -7   38.97    1.10
   2  -2  -7   35.08    1.03
   4  -2  -7   15.96    0.73
   6  -2  -7   13.32    0.72
   8  -2  -7   22.98    1.41
  10  -2  -7   94.16    3.26
  12  -2  -7   13.16    1.28
  14  -2  -7   33.78    1.88
  16  -2  -7    3.89    0.91
  18  -2  -7   18.46    1.65
  20  -2  -7    1.48    0.82
 -13  -1  -7    1.88    0.95
 -11  -1  -7    9.42    0.91
  -9  -1  -7    2.85    0.44
  -7  -1  -7   36.10    1.11
  -5  -1  -7    3.83    0.44
  -3  -1  -7   45.13    1.19
  -1  -1  -7    2.81    0.37
   1  -1  -7   66.90    1.45
   3  -1  -7    1.67    0.32
   5  -1  -7    0.08    0.23
   7  -1  -7    6.76    0.60
   9  -1  -7   -0.27    0.28
  11  -1  -7    2.34    0.42
  13  -1  -7   79.06    2.82
  15  -1  -7   13.40    1.28
  17  -1  -7   74.56    2.89
  19  -1  -7   -0.05    0.60
  21  -1  -7    4.12    0.98
 -12   0  -7   12.89    0.94
 -10   0  -7    1.57    0.47
  -8   0  -7    0.56    0.35
  -6   0  -7    1.63    0.33
  -4   0  -7   85.79    1.74
  -2   0  -7   34.71    1.01
   0   0  -7   48.36    1.20
   2   0  -7   45.50    1.15
   4   0  -7   22.01    0.67
   6   0  -7   16.91    0.60
   8   0  -7   25.64    0.86
  10   0  -7  115.80    2.11
  12   0  -7   14.79    0.79
  14   0  -7   38.35    1.27
  16   0  -7    6.98    1.01
  18   0  -7   27.84    1.70
  20   0  -7    2.59    0.82
 -11   1  -7   11.10    0.89
  -9   1  -7    3.53    0.54
  -7   1  -7   36.53    1.06
  -5   1  -7    4.97    0.48
  -3   1  -7   47.32    1.18
  -1   1  -7    3.43    0.40
   1   1  -7   70.30    1.46
   3   1  -7    1.12    0.28
   5   1  -7    0.13    0.23
   7   1  -7    6.26    0.50
   9   1  -7    0.56    0.27
  11   1  -7    2.10    0.41
  13   1  -7   76.96    1.93
  15   1  -7   15.96    0.85
  17   1  -7   74.27    1.96
  19   1  -7   -0.11    0.57
  21   1  -7    3.05    0.88
 -10   2  -7    1.62    0.62
  -8   2  -7    0.27    0.37
  -6   2  -7    1.47    0.41
  -4   2  -7   68.70    1.66
  -2   2  -7   28.27    1.03
   0   2  -7   37.23    1.17
   2   2  -7   36.59    1.02
   4   2  -7   17.48    0.72
   6   2  -7   12.90    0.67
   8   2  -7   21.35    0.81
  10   2  -7   96.54    1.90
  12   2  -7   13.09    0.86
  14   2  -7   33.30    1.23
  16   2  -7    4.68    0.61
  18   2  -7   21.27    1.07
  20   2  -7    3.93    0.91
  -9   3  -7    2.37    0.72
  -7   3  -7   27.99    1.62
  -5   3  -7    2.91    0.51
  -3   3  -7   32.47    1.19
  -1   3  -7    2.14    0.45
   1   3  -7   48.77    1.46
   3   3  -7    0.76    0.37
   5   3  -7    0.15    0.37
   7   3  -7    3.46    0.57
   9   3  -7    0.30    0.38
  11   3  -7    2.96    0.50
  13   3  -7   59.54    1.71
  15   3  -7   12.94    0.90
  17   3  -7   56.30    1.76
  -4   4  -7   47.47    2.17
  -2   4  -7   18.43    1.52
   0   4  -7   28.17    1.20
   2   4  -7   23.55    1.11
   4   4  -7   10.93    0.84
   6   4  -7    8.04    0.75
   8   4  -7   13.52    1.06
  10   4  -7   62.79    2.03
  12   4  -7    6.82    1.06
  14   4  -7   21.84    1.57
   3   5  -7    0.02    0.58
   5   5  -7   -0.51    0.63
   1  -5  -6    2.89    1.11
   3  -5  -6    1.48    1.00
   5  -5  -6   38.48    2.75
   7  -5  -6   33.59    2.66
   9  -5  -6   20.80    2.38
  -8  -4  -6    8.44    0.93
  -6  -4  -6   -0.10    0.45
  -4  -4  -6    7.79    0.80
  -2  -4  -6   24.25    1.21
   0  -4  -6    0.98    0.45
   2  -4  -6    9.53    0.87
   4  -4  -6   97.61    2.58
   6  -4  -6   17.43    1.94
   8  -4  -6   15.05    1.79
 -11  -3  -6    9.76    0.95
  -9  -3  -6   77.89    2.35
  -7  -3  -6    0.92    0.46
  -5  -3  -6   32.78    1.37
  -3  -3  -6    4.02    0.57
  -1  -3  -6   75.96    2.13
   1  -3  -6    4.32    0.45
   3  -3  -6    4.42    0.44
   5  -3  -6   65.66    1.94
   7  -3  -6   58.86    2.31
   9  -3  -6   36.64    1.85
  11  -3  -6    8.91    1.06
  13  -3  -6   40.44    2.00
 -12  -2  -6   15.78    1.16
 -10  -2  -6   27.61    1.30
  -8  -2  -6   11.60    0.93
  -6  -2  -6    0.73    0.28
  -4  -2  -6   12.33    0.65
  -2  -2  -6   43.02    1.12
   0  -2  -6    1.72    0.32
   2  -2  -6   16.50    0.67
   4  -2  -6  167.72    2.72
   6  -2  -6   40.18    1.20
   8  -2  -6   21.68    1.36
  10  -2  -6    6.62    0.89
  12  -2  -6   69.02    2.60
  14  -2  -6   10.28    1.11
  16  -2  -6   36.23    1.87
  18  -2  -6   22.62    1.58
  20  -2  -6   92.56    3.40
 -15  -1  -6   10.97    1.73
 -13  -1  -6   27.99    1.39
 -11  -1  -6   11.50    0.97
  -9  -1  -6  106.33    2.09
  -7  -1  -6    0.33    0.25
  -5  -1  -6   43.20    1.12
  -3  -1  -6    3.70    0.39
  -1  -1  -6  113.00    1.99
   1  -1  -6    5.88    0.45
   3  -1  -6    5.25    0.44
   5  -1  -6   97.56    2.09
   7  -1  -6   76.04    1.77
   9  -1  -6   52.30    1.41
  11  -1  -6   12.40    0.70
  13  -1  -6   53.51    2.16
  15  -1  -6    4.64    0.81
  17  -1  -6    0.80    0.56
  19  -1  -6    7.52    1.06
  21  -1  -6   41.09    2.16
 -14   0  -6    4.09    0.92
 -12   0  -6   20.38    0.87
 -10   0  -6   31.09    1.01
  -8   0  -6   14.35    0.75
  -6   0  -6    0.73    0.23
  -4   0  -6   16.28    0.60
  -2   0  -6   56.03    1.10
   0   0  -6    2.26    0.28
   2   0  -6   19.47    0.61
   4   0  -6  205.99    2.69
   6   0  -6   49.49    1.15
   8   0  -6   26.44    0.82
  10   0  -6    5.37    0.45
  12   0  -6   85.82    1.95
  14   0  -6   11.41    0.75
  16   0  -6   44.33    2.02
  18   0  -6   26.33    1.58
  20   0  -6  105.08    3.62
  22   0  -6   -0.59    0.60
 -11   1  -6   13.05    0.91
  -9   1  -6  110.02    2.02
  -7   1  -6    0.32    0.24
  -5   1  -6   45.30    1.01
  -3   1  -6    3.96    0.39
  -1   1  -6  114.12    1.97
   1   1  -6    6.21    0.46
   3   1  -6    4.88    0.41
   5   1  -6   98.62    1.80
   7   1  -6   77.88    1.51
   9   1  -6   54.02    1.21
  11   1  -6   11.94    0.70
  13   1  -6   55.69    1.51
  15   1  -6    4.16    0.50
  17   1  -6    0.42    0.34
  19   1  -6   10.55    1.22
  21   1  -6   42.79    2.19
 -12   2  -6   20.12    2.27
 -10   2  -6   28.07    1.52
  -8   2  -6   13.74    0.77
  -6   2  -6    0.62    0.33
  -4   2  -6   13.64    0.75
  -2   2  -6   42.25    1.23
   0   2  -6    1.49    0.28
   2   2  -6   17.01    0.62
   4   2  -6  168.86    2.40
   6   2  -6   38.11    1.00
   8   2  -6   23.14    0.78
  10   2  -6    5.06    0.44
  12   2  -6   69.59    1.75
  14   2  -6   11.20    0.76
  16   2  -6   38.36    1.30
  18   2  -6   23.54    1.06
  20   2  -6   92.45    2.32
 -11   3  -6    8.79    1.61
  -9   3  -6   79.31    2.60
  -7   3  -6    0.44    0.52
  -5   3  -6   33.89    1.14
  -3   3  -6    2.96    0.44
  -1   3  -6   78.29    1.79
   1   3  -6    4.15    0.49
   3   3  -6    4.03    0.48
   5   3  -6   66.17    1.61
   7   3  -6   55.04    1.43
   9   3  -6   40.33    1.07
  11   3  -6    9.14    0.59
  13   3  -6   37.88    1.27
  15   3  -6    2.46    0.48
  17   3  -6    0.29    0.38
  19   3  -6    6.85    0.73
  -8   4  -6    8.45    1.09
  -6   4  -6    0.38    0.61
  -4   4  -6    8.50    1.02
  -2   4  -6   25.59    1.44
   0   4  -6    1.13    0.40
   2   4  -6    8.89    0.71
   4   4  -6   99.58    2.17
   6   4  -6   22.23    1.00
   8   4  -6   15.94    0.98
  10   4  -6    2.92    0.55
  12   4  -6   41.02    2.03
  14   4  -6    4.93    0.93
  16   4  -6   23.51    1.63
  -1   5  -6   40.44    1.89
   1   5  -6    2.80    0.74
   3   5  -6    1.90    0.50
   5   5  -6   34.41    1.47
   7   5  -6   31.59    1.44
   9   5  -6   20.41    1.20
  -7  -5  -5   15.23    2.69
  -5  -5  -5   12.55    1.40
  -3  -5  -5    5.32    1.00
  -1  -5  -5   55.18    2.42
   1  -5  -5   37.33    1.96
   3  -5  -5   13.10    1.35
   5  -5  -5   13.00    1.32
   7  -5  -5   35.33    1.86
   9  -5  -5    4.49    0.89
  11  -5  -5   27.41    2.39
  13  -5  -5    0.11    0.77
 -12  -4  -5    7.93    1.86
 -10  -4  -5    3.26    0.62
  -8  -4  -5   19.00    1.06
  -6  -4  -5   74.70    1.95
  -4  -4  -5   -0.27    0.33
  -2  -4  -5   53.34    1.51
   0  -4  -5    6.38    0.60
   2  -4  -5    0.22    0.32
   4  -4  -5    0.30    0.44
   6  -4  -5   13.19    1.15
   8  -4  -5    8.46    1.31
  10  -4  -5   54.91    2.89
  12  -4  -5   18.84    1.78
  14  -4  -5   38.58    2.62
  16  -4  -5    0.33    0.81
  18  -4  -5   11.78    1.89
 -13  -3  -5    5.93    0.70
 -11  -3  -5    2.21    0.47
  -9  -3  -5    1.99    0.48
  -7  -3  -5   30.58    1.16
  -5  -3  -5   22.04    0.96
  -3  -3  -5   11.69    0.77
  -1  -3  -5  107.29    2.22
   1  -3  -5   75.57    1.73
   3  -3  -5   29.59    0.98
   5  -3  -5   25.86    1.07
   7  -3  -5   68.47    1.85
   9  -3  -5    9.32    0.78
  11  -3  -5   56.63    1.73
  13  -3  -5    0.63    0.61
  15  -3  -5   90.89    3.98
  17  -3  -5    4.07    1.05
  19  -3  -5    2.27    1.02
  21  -3  -5    8.71    1.68
 -14  -2  -5   32.37    1.27
 -12  -2  -5   14.91    0.94
 -10  -2  -5    6.12    0.60
  -8  -2  -5   31.03    1.09
  -6  -2  -5  116.05    2.37
  -4  -2  -5    0.10    0.20
  -2  -2  -5   81.37    1.45
   0  -2  -5   10.75    0.53
   2  -2  -5    0.41    0.20
   4  -2  -5    2.60    0.32
   6  -2  -5   21.92    0.68
   8  -2  -5   16.10    0.79
  10  -2  -5   88.06    2.15
  12  -2  -5   24.86    1.03
  14  -2  -5   57.20    1.71
  16  -2  -5    2.15    0.51
  18  -2  -5   18.72    1.09
  20  -2  -5   18.02    1.25
  22  -2  -5    9.64    1.73
 -15  -1  -5   32.50    1.47
 -13  -1  -5   13.23    0.88
 -11  -1  -5    1.91    0.41
  -9  -1  -5    3.08    0.35
  -7  -1  -5   44.56    0.99
  -5  -1  -5   29.05    0.76
  -3  -1  -5   15.17    0.55
  -1  -1  -5  157.91    2.20
   1  -1  -5  119.98    1.76
   3  -1  -5   43.74    0.86
   5  -1  -5   43.38    0.94
   7  -1  -5  101.64    1.70
   9  -1  -5   13.93    0.54
  11  -1  -5   76.81    1.45
  13  -1  -5    1.12    0.33
  15  -1  -5  130.72    2.89
  17  -1  -5    6.20    0.68
  19  -1  -5    1.45    0.49
  21  -1  -5    9.51    0.97
  23  -1  -5    7.17    0.91
 -16   0  -5    0.66    0.90
 -14   0  -5   36.05    1.52
 -12   0  -5   19.34    0.71
 -10   0  -5    6.73    0.47
  -8   0  -5   39.42    0.83
  -6   0  -5  139.12    1.83
  -4   0  -5    0.09    0.16
  -2   0  -5   98.06    1.53
   0   0  -5   14.33    0.50
   2   0  -5    1.14    0.22
   4   0  -5    3.21    0.33
   6   0  -5   28.13    0.78
   8   0  -5   18.84    0.52
  10   0  -5  103.65    1.74
  12   0  -5   30.92    0.97
  14   0  -5   70.07    1.65
  16   0  -5    1.52    0.54
  18   0  -5   22.34    1.41
  20   0  -5   20.49    1.45
  22   0  -5   11.67    1.34
 -11   1  -5    2.39    0.29
  -9   1  -5    3.19    0.29
  -7   1  -5   42.31    0.87
  -5   1  -5   29.17    0.68
  -3   1  -5   15.04    0.51
  -1   1  -5  157.88    1.96
   1   1  -5  120.50    1.57
   3   1  -5   45.87    0.84
   5   1  -5   42.61    0.98
   7   1  -5  100.67    1.74
   9   1  -5   14.42    0.58
  11   1  -5   77.07    1.72
  13   1  -5    0.89    0.29
  15   1  -5  126.48    2.54
  17   1  -5    5.37    0.55
  19   1  -5    0.86    0.53
  21   1  -5    8.46    1.14
  23   1  -5    6.71    1.12
 -14   2  -5   28.22    1.86
 -12   2  -5   14.41    1.13
 -10   2  -5    6.37    0.62
  -8   2  -5   31.26    0.87
  -6   2  -5  117.90    2.21
  -4   2  -5    0.04    0.25
  -2   2  -5   81.67    1.36
   0   2  -5   10.84    0.48
   2   2  -5    0.59    0.21
   4   2  -5    2.44    0.29
   6   2  -5   23.27    0.65
   8   2  -5   15.36    0.59
  10   2  -5   89.49    1.61
  12   2  -5   26.20    0.94
  14   2  -5   57.96    1.53
  16   2  -5    2.14    0.40
  18   2  -5   19.78    0.94
  20   2  -5   17.75    0.97
  22   2  -5    8.73    1.18
 -13   3  -5    9.92    1.04
 -11   3  -5    1.60    0.45
  -9   3  -5    1.45    0.42
  -7   3  -5   30.09    1.13
  -5   3  -5   21.62    0.86
  -3   3  -5   12.41    0.73
  -1   3  -5  109.43    2.10
   1   3  -5   77.95    1.65
   3   3  -5   33.20    0.99
   5   3  -5   27.41    0.91
   7   3  -5   69.42    1.25
   9   3  -5   10.26    0.56
  11   3  -5   55.29    1.23
  13   3  -5    0.16    0.28
  15   3  -5   89.30    2.12
  17   3  -5    3.09    0.51
  19   3  -5    1.11    0.45
  21   3  -5    6.23    1.03
 -10   4  -5    2.50    0.54
  -8   4  -5   16.94    1.32
  -6   4  -5   72.13    2.37
  -4   4  -5    0.10    0.43
  -2   4  -5   52.04    1.38
   0   4  -5    6.59    0.58
   2   4  -5    0.39    0.28
   4   4  -5    1.37    0.34
   6   4  -5   11.03    0.72
   8   4  -5    7.77    0.70
  10   4  -5   51.47    1.62
  12   4  -5   15.34    1.35
  14   4  -5   37.19    1.92
  16   4  -5    1.44    0.62
  -7   5  -5   18.19    2.03
  -5   5  -5   11.00    1.13
  -3   5  -5    6.03    0.86
  -1   5  -5   56.60    2.09
   1   5  -5   37.83    1.66
   3   5  -5   16.09    0.93
   5   5  -5   13.44    0.99
   7   5  -5   34.99    1.41
   9   5  -5    3.92    0.61
  11   5  -5   32.26    1.37
  -2  -6  -4    5.05    1.38
   0  -6  -4    9.32    1.27
   2  -6  -4   22.40    1.88
   4  -6  -4    9.56    1.26
   6  -6  -4   59.00    3.69
  -9  -5  -4    0.72    0.77
  -7  -5  -4    1.55    0.75
  -5  -5  -4    6.61    1.09
  -3  -5  -4    0.72    0.65
  -1  -5  -4   -0.02    0.58
   1  -5  -4   58.78    2.40
   3  -5  -4   -0.76    0.49
   5  -5  -4   36.57    1.87
   7  -5  -4    0.92    0.61
   9  -5  -4   38.44    2.73
  11  -5  -4   18.71    2.24
  13  -5  -4    3.43    1.18
 -12  -4  -4   45.55    1.59
 -10  -4  -4    5.86    0.67
  -8  -4  -4   54.52    1.63
  -6  -4  -4   22.43    1.01
  -4  -4  -4   16.10    0.87
  -2  -4  -4   11.79    0.73
   0  -4  -4   20.70    0.87
   2  -4  -4   48.96    1.93
   4  -4  -4   20.63    1.25
   6  -4  -4  131.20    4.99
   8  -4  -4    1.17    0.71
  10  -4  -4    8.72    1.32
  12  -4  -4    2.16    0.88
  14  -4  -4   13.93    1.91
  16  -4  -4    7.92    1.54
  18  -4  -4   17.34    2.33
 -15  -3  -4   20.53    1.67
 -13  -3  -4    3.98    0.60
 -11  -3  -4   53.96    1.63
  -9  -3  -4    1.08    0.38
  -7  -3  -4    3.82    0.50
  -5  -3  -4   19.63    0.85
  -3  -3  -4    1.49    0.32
  -1  -3  -4    0.32    0.24
   1  -3  -4  115.61    2.18
   3  -3  -4    0.17    0.24
   5  -3  -4   67.81    1.77
   7  -3  -4    2.32    0.43
   9  -3  -4   69.78    1.87
  11  -3  -4   40.53    2.31
  13  -3  -4    4.59    1.01
  15  -3  -4   21.70    1.83
  17  -3  -4   61.37    3.37
  19  -3  -4   11.51    1.87
  21  -3  -4   45.86    3.37
 -16  -2  -4   20.02    1.60
 -14  -2  -4    7.92    0.72
 -12  -2  -4   64.78    1.73
 -10  -2  -4    8.46    0.68
  -8  -2  -4   91.87    2.02
  -6  -2  -4   39.58    1.17
  -4  -2  -4   32.58    0.81
  -2  -2  -4   25.28    0.68
   0  -2  -4   36.71    0.80
   2  -2  -4   89.73    1.39
   4  -2  -4   36.65    0.83
   6  -2  -4  236.80    3.30
   8  -2  -4    1.76    0.38
  10  -2  -4   16.22    0.77
  12  -2  -4    5.02    0.55
  14  -2  -4   18.65    0.93
  16  -2  -4   11.57    0.90
  18  -2  -4   29.44    1.33
  20  -2  -4    4.74    1.27
  22  -2  -4   32.18    2.85
 -17  -1  -4    1.18    0.66
 -15  -1  -4   30.08    1.18
 -13  -1  -4    4.40    0.52
 -11  -1  -4   76.44    1.80
  -9  -1  -4    2.09    0.37
  -7  -1  -4    4.65    0.36
  -5  -1  -4   29.94    0.75
  -3  -1  -4    3.61    0.30
  -1  -1  -4    0.49    0.18
   1  -1  -4  174.26    2.29
   3  -1  -4    0.44    0.16
   5  -1  -4  110.78    1.75
   7  -1  -4    5.75    0.35
   9  -1  -4   99.82    1.64
  11  -1  -4   65.99    1.26
  13  -1  -4    5.71    0.57
  15  -1  -4   32.50    1.21
  17  -1  -4   84.18    2.28
  19  -1  -4   17.93    1.11
  21  -1  -4   68.38    2.21
  23  -1  -4   21.33    1.36
 -18   0  -4    0.39    0.60
 -16   0  -4   21.33    1.45
 -14   0  -4   10.59    0.77
 -12   0  -4   77.55    1.78
 -10   0  -4   11.10    0.46
  -8   0  -4  109.10    1.36
  -6   0  -4   47.85    0.85
  -4   0  -4   40.06    0.74
  -2   0  -4   31.60    0.61
   0   0  -4   48.51    0.87
   2   0  -4  115.43    1.57
   4   0  -4   47.86    0.96
   6   0  -4  300.29    3.57
   8   0  -4    2.14    0.25
  10   0  -4   19.43    0.57
  12   0  -4    6.23    0.46
  14   0  -4   21.37    0.77
  16   0  -4   13.13    1.00
  18   0  -4   34.07    1.67
  20   0  -4    4.22    0.81
  22   0  -4   36.56    1.93
 -17   1  -4    0.41    0.73
 -15   1  -4   30.81    2.21
 -13   1  -4    4.59    0.52
 -11   1  -4   77.64    1.07
  -9   1  -4    1.76    0.20
  -7   1  -4    4.57    0.27
  -5   1  -4   31.06    0.56
  -3   1  -4    3.86    0.28
  -1   1  -4    0.84    0.17
   1   1  -4  176.71    2.05
   3   1  -4    0.43    0.13
   5   1  -4  109.57    1.73
   7   1  -4    5.25    0.35
   9   1  -4  100.70    1.62
  11   1  -4   64.46    1.46
  13   1  -4    5.93    0.49
  15   1  -4   32.97    1.04
  17   1  -4   89.09    1.98
  19   1  -4   20.58    1.37
  21   1  -4   66.72    2.73
  23   1  -4   21.57    1.59
 -16   2  -4   19.85    1.48
 -14   2  -4    9.60    0.88
 -12   2  -4   66.42    1.95
 -10   2  -4    9.45    0.65
  -8   2  -4   92.83    1.55
  -6   2  -4   38.89    0.89
  -4   2  -4   31.43    0.64
  -2   2  -4   23.38    0.60
   0   2  -4   36.68    0.76
   2   2  -4   88.67    1.34
   4   2  -4   35.49    0.74
   6   2  -4  232.92    2.90
   8   2  -4    1.63    0.25
  10   2  -4   15.16    0.55
  12   2  -4    4.31    0.45
  14   2  -4   19.25    0.80
  16   2  -4   11.82    0.76
  18   2  -4   30.34    1.12
  20   2  -4    2.48    0.49
  22   2  -4   32.13    1.92
 -15   3  -4   24.63    1.35
 -13   3  -4    3.65    0.66
 -11   3  -4   55.87    1.51
  -9   3  -4    0.77    0.32
  -7   3  -4    3.70    0.44
  -5   3  -4   19.51    0.64
  -3   3  -4    1.55    0.27
  -1   3  -4    0.81    0.25
   1   3  -4  116.94    2.04
   3   3  -4    0.49    0.24
   5   3  -4   71.10    1.17
   7   3  -4    2.63    0.27
   9   3  -4   66.14    1.31
  11   3  -4   41.02    0.99
  13   3  -4    3.80    0.45
  15   3  -4   22.37    0.93
  17   3  -4   63.21    1.72
  19   3  -4   14.38    0.94
  21   3  -4   54.60    1.72
 -12   4  -4   43.95    1.74
 -10   4  -4    6.23    0.64
  -8   4  -4   54.37    1.53
  -6   4  -4   22.78    0.94
  -4   4  -4   17.24    0.88
  -2   4  -4   13.29    0.70
   0   4  -4   20.69    0.78
   2   4  -4   49.82    1.22
   4   4  -4   22.48    0.81
   6   4  -4  130.18    2.34
   8   4  -4    1.05    0.36
  10   4  -4    8.21    0.69
  12   4  -4    1.59    0.58
  14   4  -4   10.16    1.13
  16   4  -4    5.57    0.62
  18   4  -4   20.91    1.05
  -9   5  -4    0.32    0.83
  -7   5  -4    1.37    0.45
  -5   5  -4    9.23    0.95
  -3   5  -4    0.39    0.45
  -1   5  -4    0.07    0.42
   1   5  -4   60.21    1.95
   3   5  -4    0.06    0.29
   5   5  -4   35.92    1.35
   7   5  -4    0.78    0.40
   9   5  -4   33.64    1.35
  11   5  -4   21.45    1.09
  13   5  -4    1.39    0.69
   0   6  -4   10.66    1.52
  -2  -6  -3    6.90    1.80
   0  -6  -3   58.17    4.12
   2  -6  -3   -0.07    1.00
   4  -6  -3   29.11    2.78
   6  -6  -3    7.53    1.73
 -11  -5  -3    3.07    0.96
  -9  -5  -3   21.89    1.69
  -7  -5  -3   20.45    1.71
  -5  -5  -3  106.76    3.53
  -3  -5  -3    7.52    1.06
  -1  -5  -3    3.37    0.78
   1  -5  -3    0.66    0.60
   3  -5  -3    3.62    0.77
   5  -5  -3    1.86    0.69
   7  -5  -3    3.07    0.77
   9  -5  -3   82.46    4.25
  11  -5  -3   33.64    2.69
  13  -5  -3    0.01    0.88
 -14  -4  -3   18.53    1.67
 -12  -4  -3    4.20    0.96
 -10  -4  -3   21.98    1.06
  -8  -4  -3    7.77    0.69
  -6  -4  -3    0.01    0.29
  -4  -4  -3   66.09    1.62
  -2  -4  -3   25.92    0.91
   0  -4  -3  156.80    3.96
   2  -4  -3    0.48    0.45
   4  -4  -3   68.26    2.25
   6  -4  -3   20.95    1.74
   8  -4  -3   45.87    2.64
  10  -4  -3    0.81    0.68
  12  -4  -3   94.68    4.35
  14  -4  -3   49.82    3.17
  16  -4  -3    9.46    1.79
  18  -4  -3   13.76    2.25
 -17  -3  -3   21.16    1.71
 -15  -3  -3   31.55    1.79
 -13  -3  -3    0.42    0.36
 -11  -3  -3    6.67    0.66
  -9  -3  -3   39.67    1.26
  -7  -3  -3   44.22    1.27
  -5  -3  -3  215.99    3.63
  -3  -3  -3   16.61    0.74
  -1  -3  -3   11.76    0.61
   1  -3  -3    1.86    0.32
   3  -3  -3   12.44    0.67
   5  -3  -3    5.05    0.50
   7  -3  -3    3.49    0.46
   9  -3  -3  169.87    5.66
  11  -3  -3   71.64    3.30
  13  -3  -3   -0.73    0.42
  15  -3  -3   20.68    2.24
  17  -3  -3   26.52    2.31
  19  -3  -3    6.59    1.55
  21  -3  -3    0.24    1.11
 -18  -2  -3    7.82    1.03
 -16  -2  -3    0.51    0.54
 -14  -2  -3   28.80    1.12
 -12  -2  -3    5.31    0.56
 -10  -2  -3   36.58    1.17
  -8  -2  -3   12.37    0.69
  -6  -2  -3    0.30    0.25
  -4  -2  -3  116.59    2.12
  -2  -2  -3   47.26    1.12
   0  -2  -3  299.40    3.59
   2  -2  -3    2.46    0.24
   4  -2  -3  135.63    1.99
   6  -2  -3   40.07    0.79
   8  -2  -3   71.66    1.69
  10  -2  -3    2.53    0.40
  12  -2  -3  159.30    3.23
  14  -2  -3   91.52    2.25
  16  -2  -3   17.25    0.99
  18  -2  -3   27.61    2.38
  20  -2  -3   23.08    2.76
  22  -2  -3    3.00    1.36
 -19  -1  -3    7.38    1.09
 -17  -1  -3   35.83    1.87
 -15  -1  -3   46.40    2.00
 -13  -1  -3    0.23    0.30
 -11  -1  -3   12.16    0.75
  -9  -1  -3   57.10    1.39
  -7  -1  -3   64.71    1.17
  -5  -1  -3  344.06    4.18
  -3  -1  -3   26.43    0.62
  -1  -1  -3   22.82    0.55
   1  -1  -3    3.23    0.23
   3  -1  -3   22.18    0.54
   5  -1  -3    7.27    0.33
   7  -1  -3    4.48    0.29
   9  -1  -3  263.12    4.68
  11  -1  -3  109.26    2.33
  13  -1  -3    0.72    0.36
  15  -1  -3   27.63    1.33
  17  -1  -3   33.16    1.56
  19  -1  -3    7.30    0.93
  21  -1  -3    2.22    0.59
  23  -1  -3   -0.05    0.50
 -20   0  -3   49.05    3.23
 -18   0  -3    6.42    0.98
 -16   0  -3    0.79    0.57
 -14   0  -3   35.81    1.66
 -12   0  -3    7.86    0.47
 -10   0  -3   46.78    0.78
  -8   0  -3   13.36    0.37
  -6   0  -3    0.14    0.11
  -4   0  -3  146.07    1.47
  -2   0  -3   63.34    0.89
   0   0  -3  400.04    4.08
   2   0  -3    3.34    0.28
   4   0  -3  190.41    2.28
   6   0  -3   64.73    1.08
   8   0  -3   89.36    1.35
  10   0  -3    2.00    0.26
  12   0  -3  196.00    3.22
  14   0  -3  111.97    2.12
  16   0  -3   20.23    1.21
  18   0  -3   27.30    1.48
  20   0  -3   23.44    1.46
  22   0  -3    1.33    0.63
  24   0  -3   24.75    1.73
 -19   1  -3    5.30    1.31
 -17   1  -3   36.23    2.61
 -15   1  -3   45.09    1.59
 -13   1  -3   -0.07    0.23
 -11   1  -3   11.74    0.38
  -9   1  -3   58.96    0.81
  -7   1  -3   66.04    0.85
  -5   1  -3  345.86    3.10
  -3   1  -3   26.40    0.47
  -1   1  -3   22.61    0.45
   1   1  -3    3.26    0.23
   3   1  -3   22.24    0.50
   5   1  -3    7.89    0.32
   7   1  -3    4.11    0.26
   9   1  -3  264.16    3.48
  11   1  -3  108.11    2.04
  13   1  -3    0.62    0.25
  15   1  -3   27.63    0.93
  17   1  -3   32.64    1.06
  19   1  -3    6.70    0.94
  21   1  -3    1.40    0.65
  23   1  -3    0.97    0.67
 -18   2  -3    7.06    1.07
 -16   2  -3    0.25    0.46
 -14   2  -3   30.43    1.22
 -12   2  -3    5.89    0.60
 -10   2  -3   37.25    1.04
  -8   2  -3   10.89    0.47
  -6   2  -3    0.12    0.12
  -4   2  -3  113.92    1.38
  -2   2  -3   47.57    0.73
   0   2  -3  295.81    3.40
   2   2  -3    1.99    0.19
   4   2  -3  135.15    1.73
   6   2  -3   39.84    0.75
   8   2  -3   71.06    1.24
  10   2  -3    2.11    0.26
  12   2  -3  157.35    2.84
  14   2  -3   91.53    1.96
  16   2  -3   17.94    0.80
  18   2  -3   24.32    1.00
  20   2  -3   20.87    1.00
  22   2  -3    0.20    0.61
 -17   3  -3   30.36    1.86
 -15   3  -3   34.52    1.41
 -13   3  -3    0.30    0.34
 -11   3  -3    7.82    0.61
  -9   3  -3   39.69    1.12
  -7   3  -3   40.89    1.11
  -5   3  -3  222.63    3.40
  -3   3  -3   16.92    0.54
  -1   3  -3   12.59    0.48
   1   3  -3    1.59    0.26
   3   3  -3   11.34    0.51
   5   3  -3    5.22    0.31
   7   3  -3    2.79    0.26
   9   3  -3  165.22    2.47
  11   3  -3   72.91    1.37
  13   3  -3    0.09    0.24
  15   3  -3   20.65    0.88
  17   3  -3   23.41    1.00
  19   3  -3    5.36    0.63
  21   3  -3    1.87    0.50
 -14   4  -3   22.03    1.30
 -12   4  -3    3.39    0.59
 -10   4  -3   22.20    0.93
  -8   4  -3    8.08    0.62
  -6   4  -3    0.00    0.25
  -4   4  -3   67.37    1.54
  -2   4  -3   24.57    0.71
   0   4  -3  155.32    2.55
   2   4  -3    0.98    0.26
   4   4  -3   64.71    1.37
   6   4  -3   18.13    0.84
   8   4  -3   41.61    1.31
  10   4  -3    0.33    0.30
  12   4  -3   94.11    2.08
  14   4  -3   53.09    1.52
  16   4  -3   11.55    0.84
  18   4  -3   14.50    0.98
  -9   5  -3   22.53    1.01
  -7   5  -3   19.98    0.93
  -5   5  -3  111.05    2.32
  -3   5  -3    9.12    0.84
  -1   5  -3    3.01    0.54
   1   5  -3    0.68    0.40
   3   5  -3    5.20    0.49
   5   5  -3    2.81    0.48
   7   5  -3    2.61    0.48
   9   5  -3   86.81    2.21
  11   5  -3   37.46    1.39
  13   5  -3    0.91    0.60
  -4   6  -3   32.26    2.16
  -2   6  -3   11.19    1.02
   0   6  -3   70.36    2.23
   2   6  -3    1.21    0.75
   4   6  -3   29.71    2.05
   6   6  -3    8.39    0.86
   8   6  -3   21.01    1.20
  -4  -6  -2    3.17    1.52
  -2  -6  -2   24.84    3.05
   0  -6  -2    1.43    1.24
   2  -6  -2    9.06    1.84
   4  -6  -2    4.92    1.52
   6  -6  -2   50.83    3.67
   8  -6  -2    7.35    1.82
 -13  -5  -2    5.60    1.32
 -11  -5  -2   46.18    2.39
  -9  -5  -2   22.82    1.67
  -7  -5  -2    7.21    1.06
  -5  -5  -2    0.95    0.63
  -3  -5  -2    0.30    0.55
  -1  -5  -2   66.93    2.44
   1  -5  -2   25.46    1.51
   3  -5  -2  158.51    4.16
   5  -5  -2    0.63    0.57
   7  -5  -2    0.67    0.75
   9  -5  -2    0.32    0.82
  11  -5  -2    2.11    1.06
  13  -5  -2   -0.77    0.81
 -16  -4  -2    2.27    0.86
 -14  -4  -2   46.09    2.26
 -12  -4  -2   35.39    2.00
 -10  -4  -2   29.06    1.74
  -8  -4  -2   15.31    0.83
  -6  -4  -2   -0.06    0.28
  -4  -4  -2    4.63    0.46
  -2  -4  -2   70.33    2.34
   0  -4  -2    6.42    0.81
   2  -4  -2   16.18    1.21
   4  -4  -2    5.93    1.13
   6  -4  -2  122.18    4.81
   8  -4  -2   18.78    1.77
  10  -4  -2   -0.30    0.54
  12  -4  -2   11.47    1.70
  14  -4  -2   27.48    2.48
  16  -4  -2   14.33    2.20
  18  -4  -2   31.73    3.02
 -17  -3  -2   33.97    1.90
 -15  -3  -2   41.97    2.05
 -13  -3  -2    6.42    0.94
 -11  -3  -2   86.73    2.01
  -9  -3  -2   47.45    1.34
  -7  -3  -2   19.17    0.80
  -5  -3  -2    2.77    0.37
  -3  -3  -2    0.27    0.22
  -1  -3  -2  146.03    2.47
   1  -3  -2   57.88    1.21
   3  -3  -2  340.48    5.74
   5  -3  -2    2.19    0.33
   7  -3  -2    0.55    0.53
   9  -3  -2    0.50    0.50
  11  -3  -2    3.54    0.90
  13  -3  -2   -0.03    0.57
  15  -3  -2   66.24    3.65
  17  -3  -2   11.55    1.92
  19  -3  -2   21.60    2.76
 -18  -2  -2   26.38    1.74
 -16  -2  -2    4.52    0.75
 -14  -2  -2   65.74    2.43
 -12  -2  -2   60.78    1.57
 -10  -2  -2   44.89    1.26
  -8  -2  -2   33.46    1.02
  -6  -2  -2    0.12    0.21
  -4  -2  -2    9.66    0.51
  -2  -2  -2  140.44    2.28
   0  -2  -2   10.86    0.48
   2  -2  -2   23.21    0.75
   4  -2  -2   11.29    0.54
   6  -2  -2  258.13    4.41
   8  -2  -2   37.70    1.06
  10  -2  -2   -0.03    0.22
  12  -2  -2   17.99    0.82
  14  -2  -2   49.77    1.51
  16  -2  -2   18.73    2.22
  18  -2  -2   55.01    3.60
  20  -2  -2   70.26    4.48
  22  -2  -2    0.34    1.12
 -19  -1  -2    0.36    0.61
 -17  -1  -2   42.90    2.00
 -15  -1  -2   64.32    2.37
 -13  -1  -2    9.73    1.02
 -11  -1  -2  132.14    2.44
  -9  -1  -2   69.99    1.17
  -7  -1  -2   29.14    0.62
  -5  -1  -2    4.97    0.29
  -3  -1  -2    0.32    0.12
  -1  -1  -2  259.27    3.05
   1  -1  -2  113.09    1.58
   3  -1  -2  605.18    7.37
   5  -1  -2    4.83    0.24
   7  -1  -2    0.96    0.14
   9  -1  -2    0.64    0.26
  11  -1  -2    5.54    0.60
  13  -1  -2    1.82    0.43
  15  -1  -2   99.67    2.88
  17  -1  -2   20.27    1.20
  19  -1  -2   24.21    1.40
  21  -1  -2    3.05    0.73
  23  -1  -2   13.43    2.47
 -20   0  -2    2.84    1.25
 -18   0  -2   33.84    1.81
 -16   0  -2    4.34    0.80
 -14   0  -2   80.64    1.77
 -12   0  -2   78.27    1.65
 -10   0  -2   57.53    0.96
  -8   0  -2   44.38    0.62
  -6   0  -2    0.50    0.10
  -4   0  -2   11.90    0.27
  -2   0  -2  191.66    1.75
   0   0  -2   15.95    0.33
   2   0  -2   30.33    0.60
   4   0  -2   17.03    0.41
   6   0  -2  346.62    4.30
   8   0  -2   47.12    0.96
  10   0  -2    0.23    0.15
  12   0  -2   23.22    0.70
  14   0  -2   59.72    1.31
  16   0  -2   24.71    1.28
  18   0  -2   67.54    2.43
  20   0  -2   89.64    3.01
  22   0  -2    0.67    0.64
  24   0  -2    0.72    0.66
 -19   1  -2    0.21    0.90
 -17   1  -2   44.55    1.60
 -15   1  -2   60.81    1.84
 -13   1  -2    7.95    0.55
 -11   1  -2  128.33    1.76
  -9   1  -2   70.63    0.86
  -7   1  -2   30.82    0.48
  -5   1  -2    4.73    0.20
  -3   1  -2    0.36    0.09
  -1   1  -2  261.57    2.39
   1   1  -2  109.99    1.35
   3   1  -2  593.87    6.30
   5   1  -2    4.74    0.24
   7   1  -2    0.74    0.13
   9   1  -2    0.52    0.16
  11   1  -2    6.26    0.43
  13   1  -2    1.81    0.30
  15   1  -2   98.31    1.99
  17   1  -2   19.46    0.81
  19   1  -2   24.07    1.44
  21   1  -2    3.38    0.72
  23   1  -2   17.86    1.60
 -20   2  -2    1.35    0.68
 -18   2  -2   27.69    1.61
 -16   2  -2    3.99    0.74
 -14   2  -2   68.43    1.79
 -12   2  -2   62.01    1.62
 -10   2  -2   44.82    1.08
  -8   2  -2   33.08    0.68
  -6   2  -2   -0.10    0.13
  -4   2  -2    9.95    0.36
  -2   2  -2  139.11    1.79
   0   2  -2   11.67    0.28
   2   2  -2   23.73    0.45
   4   2  -2   11.66    0.33
   6   2  -2  248.50    2.88
   8   2  -2   34.74    0.66
  10   2  -2   -0.03    0.16
  12   2  -2   18.86    0.72
  14   2  -2   48.50    1.29
  16   2  -2   20.74    0.84
  18   2  -2   58.60    1.59
  20   2  -2   78.35    1.97
  22   2  -2    0.84    0.59
 -17   3  -2   34.23    1.90
 -15   3  -2   43.04    1.51
 -13   3  -2    6.19    0.66
 -11   3  -2   88.48    1.78
  -9   3  -2   46.72    1.16
  -7   3  -2   18.09    0.67
  -5   3  -2    2.94    0.27
  -3   3  -2    0.27    0.16
  -1   3  -2  145.75    1.95
   1   3  -2   57.46    1.11
   3   3  -2  333.25    3.78
   5   3  -2    1.72    0.19
   7   3  -2    0.29    0.16
   9   3  -2    0.46    0.19
  11   3  -2    4.16    0.35
  13   3  -2    0.63    0.28
  15   3  -2   66.70    1.70
  17   3  -2   15.77    0.88
  19   3  -2   20.97    1.01
  21   3  -2    2.72    0.54
 -16   4  -2    2.13    0.55
 -14   4  -2   44.32    1.63
 -12   4  -2   35.24    1.38
 -10   4  -2   28.73    0.98
  -8   4  -2   15.89    0.72
  -6   4  -2    0.11    0.22
  -4   4  -2    5.17    0.46
  -2   4  -2   71.31    1.24
   0   4  -2    5.62    0.38
   2   4  -2   13.48    0.57
   4   4  -2    5.91    0.43
   6   4  -2  120.42    2.52
   8   4  -2   19.03    0.84
  10   4  -2    0.05    0.22
  12   4  -2   11.42    0.61
  14   4  -2   30.74    1.11
  16   4  -2   15.85    0.92
  18   4  -2   39.06    1.41
 -11   5  -2   45.55    1.71
  -9   5  -2   24.01    0.99
  -7   5  -2    9.15    0.70
  -5   5  -2    1.23    0.35
  -3   5  -2    0.29    0.30
  -1   5  -2   66.46    1.94
   1   5  -2   25.27    1.12
   3   5  -2  153.95    2.60
   5   5  -2    0.86    0.36
   7   5  -2    0.13    0.33
   9   5  -2   -0.45    0.33
  11   5  -2    1.60    0.48
  13   5  -2    0.80    0.60
  -6   6  -2    0.34    0.39
  -4   6  -2    1.33    0.54
  -2   6  -2   32.78    1.46
   0   6  -2    3.50    0.63
   2   6  -2    7.01    1.15
   4   6  -2    2.53    0.83
   6   6  -2   55.82    1.81
   8   6  -2    9.69    0.87
  -6  -6  -1   55.47    4.43
  -4  -6  -1    1.31    1.27
  -2  -6  -1    0.99    1.15
   0  -6  -1   -0.04    0.98
   2  -6  -1   -0.35    0.86
   4  -6  -1   -0.41    0.85
   6  -6  -1   66.00    4.22
   8  -6  -1   -0.71    0.91
 -13  -5  -1   -0.44    1.51
 -11  -5  -1   20.89    1.57
  -9  -5  -1    1.11    0.65
  -7  -5  -1   19.10    1.39
  -5  -5  -1    3.50    0.78
  -3  -5  -1  118.54    3.40
  -1  -5  -1    0.11    0.49
   1  -5  -1    1.30    0.88
   3  -5  -1    1.44    0.87
   5  -5  -1   44.31    2.96
   7  -5  -1    1.38    0.88
   9  -5  -1   66.86    3.91
  11  -5  -1   63.08    4.00
  13  -5  -1    9.78    1.96
 -16  -4  -1    1.24    0.71
 -14  -4  -1   -0.85    0.57
 -12  -4  -1   10.97    1.20
 -10  -4  -1   20.07    1.44
  -8  -4  -1  106.30    3.22
  -6  -4  -1  119.49    3.29
  -4  -4  -1    0.76    0.48
  -2  -4  -1    1.17    0.48
   0  -4  -1   -0.10    0.39
   2  -4  -1    0.76    0.45
   4  -4  -1    0.09    0.52
   6  -4  -1  148.02    5.49
   8  -4  -1    0.61    0.65
  10  -4  -1   28.22    2.25
  12  -4  -1   37.18    2.72
  14  -4  -1    6.67    1.53
  16  -4  -1    5.85    1.52
  18  -4  -1    1.55    1.20
 -19  -3  -1    5.82    1.03
 -17  -3  -1    6.52    0.97
 -15  -3  -1    0.33    0.57
 -13  -3  -1    0.25    0.51
 -11  -3  -1   39.67    1.80
  -9  -3  -1    0.91    0.50
  -7  -3  -1   37.41    1.07
  -5  -3  -1    7.77    0.51
  -3  -3  -1  253.38    3.22
  -1  -3  -1    0.73    0.20
   1  -3  -1    0.66    0.16
   3  -3  -1    1.74    0.22
   5  -3  -1  106.63    3.89
   7  -3  -1    4.81    0.98
   9  -3  -1  137.68    5.02
  11  -3  -1  143.57    5.51
  13  -3  -1   19.39    1.90
  15  -3  -1    0.54    0.72
  17  -3  -1   -0.48    0.78
  19  -3  -1   19.24    2.78
 -20  -2  -1   66.39    2.70
 -18  -2  -1   22.96    1.60
 -16  -2  -1    2.22    0.66
 -14  -2  -1    0.51    0.48
 -12  -2  -1   19.79    1.27
 -10  -2  -1   40.16    1.69
  -8  -2  -1  199.59    3.28
  -6  -2  -1  221.74    3.47
  -4  -2  -1    3.05    0.28
  -2  -2  -1    2.30    0.23
   0  -2  -1    0.63    0.14
   2  -2  -1    0.00    0.13
   4  -2  -1    0.06    0.15
   6  -2  -1  292.98    8.06
   8  -2  -1    0.18    0.19
  10  -2  -1   49.61    1.31
  12  -2  -1   68.63    1.76
  14  -2  -1    8.98    1.52
  16  -2  -1    7.60    1.56
  18  -2  -1    0.62    0.93
  20  -2  -1    2.54    1.34
  22  -2  -1   11.85    2.39
 -21  -1  -1    0.23    0.97
 -19  -1  -1    7.59    1.06
 -17  -1  -1    9.37    1.07
 -15  -1  -1    0.53    0.44
 -13  -1  -1    0.75    0.42
 -11  -1  -1   55.25    1.23
  -9  -1  -1    2.79    0.23
  -7  -1  -1   55.61    0.90
  -5  -1  -1   15.91    0.53
  -3  -1  -1  458.69    6.24
  -1  -1  -1    1.63    0.18
   1  -1  -1    2.01    0.14
   3  -1  -1    5.33    0.33
   5  -1  -1  189.03    3.11
   7  -1  -1    8.44    0.50
   9  -1  -1  211.27    4.71
  11  -1  -1  216.03    5.02
  13  -1  -1   27.40    1.19
  15  -1  -1    0.64    0.35
  17  -1  -1    0.38    0.35
  19  -1  -1   26.93    1.46
  21  -1  -1   54.13    2.33
 -22   0  -1    0.94    1.08
 -20   0  -1   78.49    4.52
 -18   0  -1   29.42    2.64
 -16   0  -1    1.38    0.31
 -14   0  -1    0.21    0.22
 -12   0  -1   21.99    0.77
 -10   0  -1   49.41    0.93
  -8   0  -1  259.29    2.83
  -6   0  -1  310.64    2.69
  -4   0  -1    4.62    0.15
  -2   0  -1    2.76    0.11
   0   0  -1    1.07    0.09
   2   0  -1    0.16    0.07
   4   0  -1    0.27    0.11
   6   0  -1  405.26    5.76
   8   0  -1    0.10    0.12
  10   0  -1   62.10    1.21
  12   0  -1   91.98    1.70
  14   0  -1   13.60    0.58
  16   0  -1    8.36    0.86
  18   0  -1    0.86    0.46
  20   0  -1    2.86    0.69
  22   0  -1   21.19    1.44
 -21   1  -1    0.33    1.14
 -19   1  -1    5.96    0.75
 -17   1  -1   11.34    0.91
 -15   1  -1    0.07    0.27
 -13   1  -1    0.81    0.23
 -11   1  -1   57.59    1.04
  -9   1  -1    2.57    0.24
  -7   1  -1   56.02    0.78
  -5   1  -1   15.79    0.28
  -3   1  -1  461.79    4.39
  -1   1  -1    2.03    0.14
   1   1  -1    0.82    0.09
   3   1  -1    4.34    0.18
   5   1  -1  175.61    2.03
   7   1  -1    7.77    0.27
   9   1  -1  213.31    2.78
  11   1  -1  224.59    2.94
  13   1  -1   28.45    0.86
  15   1  -1    0.66    0.25
  17   1  -1   -0.08    0.24
  19   1  -1   27.20    1.51
  21   1  -1   56.14    2.41
  23   1  -1   26.89    1.75
 -20   2  -1   67.44    2.73
 -18   2  -1   23.67    1.48
 -16   2  -1    1.36    0.50
 -14   2  -1    0.18    0.25
 -12   2  -1   19.80    0.80
 -10   2  -1   41.14    0.96
  -8   2  -1  202.37    2.40
  -6   2  -1  221.61    3.17
  -4   2  -1    3.17    0.20
  -2   2  -1    2.60    0.18
   0   2  -1    0.43    0.11
   2   2  -1    0.05    0.08
   4   2  -1    0.02    0.08
   6   2  -1  280.91    3.15
   8   2  -1    0.13    0.14
  10   2  -1   49.01    0.95
  12   2  -1   71.21    1.57
  14   2  -1   11.32    0.65
  16   2  -1    7.64    0.60
  18   2  -1   -0.06    0.29
  20   2  -1    2.49    0.47
  22   2  -1   21.30    1.54
 -19   3  -1    6.08    1.02
 -17   3  -1    8.09    0.77
 -15   3  -1    0.00    0.30
 -13   3  -1    0.18    0.27
 -11   3  -1   38.45    1.24
  -9   3  -1    1.58    0.27
  -7   3  -1   39.14    0.95
  -5   3  -1    9.23    0.50
  -3   3  -1  258.21    3.67
  -1   3  -1    1.01    0.16
   1   3  -1    0.77    0.16
   3   3  -1    1.36    0.16
   5   3  -1   98.24    1.35
   7   3  -1    3.89    0.31
   9   3  -1  135.51    2.08
  11   3  -1  148.14    2.29
  13   3  -1   21.56    0.85
  15   3  -1    0.91    0.33
  17   3  -1   -0.10    0.31
  19   3  -1   18.48    0.95
  21   3  -1   42.18    2.08
 -16   4  -1    1.71    0.51
 -14   4  -1    0.13    0.35
 -12   4  -1   11.85    0.89
 -10   4  -1   23.45    0.84
  -8   4  -1  111.50    2.05
  -6   4  -1  116.24    2.11
  -4   4  -1    1.66    0.29
  -2   4  -1    2.41    0.26
   0   4  -1    0.02    0.16
   2   4  -1   -0.04    0.18
   4   4  -1    0.25    0.20
   6   4  -1  139.88    2.80
   8   4  -1    0.30    0.20
  10   4  -1   30.49    0.85
  12   4  -1   39.15    1.01
  14   4  -1    8.73    0.71
  16   4  -1    5.31    0.61
  18   4  -1    0.50    0.41
 -13   5  -1    0.21    0.41
 -11   5  -1   20.58    1.11
  -9   5  -1    0.69    0.33
  -7   5  -1   21.51    0.86
  -5   5  -1    3.43    0.43
  -3   5  -1  114.37    2.22
  -1   5  -1    0.26    0.27
   1   5  -1    0.54    0.33
   3   5  -1    0.45    0.26
   5   5  -1   43.27    1.40
   7   5  -1    1.50    0.40
   9   5  -1   71.98    1.94
  11   5  -1   77.25    2.04
  13   5  -1    8.79    1.13
  -8   6  -1   52.94    1.90
  -6   6  -1   56.45    1.96
  -4   6  -1    0.96    0.50
  -2   6  -1    0.69    0.46
   0   6  -1    0.03    0.41
   2   6  -1    0.73    0.64
   4   6  -1    0.13    0.59
   6   6  -1   66.58    2.02
   8   6  -1    0.04    0.45
  -8  -6   0    2.40    1.72
  -6  -6   0    2.17    1.56
  -4  -6   0    3.20    1.40
  -2  -6   0    0.73    1.24
   0  -6   0  193.10    8.10
   2  -6   0    0.29    0.94
   4  -6   0    6.87    1.75
   6  -6   0    1.25    1.05
   8  -6   0    1.87    1.22
 -13  -5   0    7.77    2.38
 -11  -5   0    6.70    2.26
  -9  -5   0   16.90    2.82
  -7  -5   0   18.68    2.78
  -5  -5   0   60.95    3.91
  -3  -5   0   21.43    2.51
  -1  -5   0    4.23    1.26
   1  -5   0    3.82    1.13
   3  -5   0   21.45    2.40
   5  -5   0   68.59    3.65
   7  -5   0   23.38    2.17
   9  -5   0   15.96    2.20
  11  -5   0    7.45    1.63
  13  -5   0    8.24    1.78
 -18  -4   0   -0.64    0.76
 -16  -4   0   31.98    1.89
 -14  -4   0   82.30    3.47
 -12  -4   0   24.12    1.50
 -10  -4   0    4.13    0.73
  -8  -4   0    5.91    0.82
  -6  -4   0    3.34    0.62
  -4  -4   0    9.60    0.89
  -2  -4   0    0.38    0.37
   0  -4   0  451.00    8.73
   2  -4   0    0.71    0.42
   4  -4   0    8.06    1.30
   6  -4   0    2.66    0.83
   8  -4   0    4.56    1.10
  10  -4   0    3.68    1.07
  12  -4   0   23.01    2.23
  14  -4   0   82.03    4.47
  16  -4   0   29.39    2.83
 -19  -3   0    5.63    0.96
 -17  -3   0   59.68    2.43
 -15  -3   0   60.67    2.32
 -13  -3   0   16.87    1.23
 -11  -3   0   15.07    1.10
  -9  -3   0   39.45    1.63
  -7  -3   0   52.53    1.80
  -5  -3   0  139.90    2.40
  -3  -3   0   47.11    1.12
  -1  -3   0    5.96    0.64
   1  -3   0    6.68    0.63
   3  -3   0   46.36    2.29
   5  -3   0  140.77    4.86
   7  -3   0   52.58    2.64
   9  -3   0   37.96    2.28
  11  -3   0   14.40    1.78
  13  -3   0   16.69    2.08
  15  -3   0   53.24    3.56
  17  -3   0   58.59    4.02
  19  -3   0    5.99    1.82
 -20  -2   0   14.15    1.41
 -18  -2   0    0.49    0.52
 -16  -2   0   48.59    2.03
 -14  -2   0  133.97    3.65
 -12  -2   0   38.52    1.65
 -10  -2   0    8.71    0.88
  -8  -2   0   11.23    0.43
  -6  -2   0    5.26    0.31
  -4  -2   0   14.16    0.39
  -2  -2   0    0.03    0.09
   0  -2   0  981.69   15.26
   2  -2   0    0.24    0.30
   4  -2   0   14.98    1.04
   6  -2   0    5.46    0.34
   8  -2   0   11.52    0.51
  10  -2   0    9.40    0.54
  12  -2   0   38.13    2.50
  14  -2   0  127.91    5.66
  16  -2   0   43.11    3.32
  18  -2   0   -0.16    0.87
  20  -2   0   13.17    2.40
 -21  -1   0   34.81    3.14
 -19  -1   0    7.85    1.05
 -17  -1   0   77.90    2.69
 -15  -1   0   83.36    2.62
 -13  -1   0   22.26    0.75
 -11  -1   0   20.89    0.68
  -9  -1   0   62.65    1.25
  -7  -1   0   89.96    1.56
  -5  -1   0  254.40    3.02
  -3  -1   0   88.75    1.14
  -1  -1   0    9.92    0.29
   1  -1   0    9.43    0.63
   3  -1   0   88.81    1.54
   5  -1   0  256.22    4.21
   7  -1   0   89.91    1.43
   9  -1   0   65.02    1.13
  11  -1   0   20.61    0.57
  13  -1   0   20.65    1.02
  15  -1   0   82.33    2.50
  17  -1   0   76.89    2.57
  19  -1   0    8.22    0.98
 -22   0   0    0.05    1.03
 -20   0   0   18.18    2.58
 -18   0   0    0.28    0.33
 -16   0   0   60.18    1.76
 -14   0   0  167.61    2.93
 -12   0   0   45.94    1.12
 -10   0   0   10.63    0.37
  -8   0   0   13.41    0.36
  -6   0   0    7.30    0.24
  -4   0   0   18.08    0.34
  -2   0   0    0.37    0.06
   2   0   0    0.11    0.04
   4   0   0   18.18    0.33
   6   0   0    7.29    0.23
   8   0   0   14.30    0.34
  10   0   0   10.86    0.32
  12   0   0   45.83    1.04
  14   0   0  169.86    2.88
  16   0   0   57.76    2.10
  18   0   0    0.51    0.43
  20   0   0   19.02    1.33
  22   0   0    0.72    0.58
 -21   1   0   32.13    1.56
 -19   1   0    7.58    0.83
 -17   1   0   77.31    2.24
 -15   1   0   84.34    2.24
 -13   1   0   21.42    0.70
 -11   1   0   21.15    0.65
  -9   1   0   63.05    1.02
  -7   1   0   88.01    1.48
  -5   1   0  252.92    3.01
  -3   1   0   87.73    1.25
  -1   1   0    9.44    0.20
   1   1   0    9.20    0.21
   3   1   0   87.51    1.19
   5   1   0  253.18    3.18
   7   1   0   91.14    1.31
   9   1   0   62.20    1.03
  11   1   0   20.74    0.53
  13   1   0   21.22    0.75
  15   1   0   82.28    1.79
  17   1   0   83.14    1.84
  19   1   0    8.04    0.98
  21   1   0   35.00    1.88
 -22   2   0    0.33    0.58
 -20   2   0   17.88    1.32
 -18   2   0    0.28    0.44
 -16   2   0   49.69    1.44
 -14   2   0  139.52    2.78
 -12   2   0   39.75    1.15
 -10   2   0    8.32    0.43
  -8   2   0   11.31    0.42
  -6   2   0    5.17    0.31
  -4   2   0   14.06    0.31
  -2   2   0    0.19    0.08
   0   2   0  976.98   10.30
   2   2   0    0.03    0.08
   4   2   0   13.72    0.32
   6   2   0    5.00    0.21
   8   2   0   10.86    0.41
  10   2   0    7.80    0.41
  12   2   0   39.46    0.88
  14   2   0  138.00    2.63
  16   2   0   49.37    1.38
  18   2   0    0.65    0.32
  20   2   0   19.39    0.95
 -19   3   0    6.05    0.98
 -17   3   0   62.76    1.82
 -15   3   0   59.65    1.70
 -13   3   0   16.62    0.82
 -11   3   0   14.33    0.72
  -9   3   0   38.28    0.93
  -7   3   0   50.86    1.09
  -5   3   0  138.01    2.18
  -3   3   0   45.54    0.76
  -1   3   0    5.91    0.29
   1   3   0    5.91    0.23
   3   3   0   45.25    0.74
   5   3   0  140.28    1.76
   7   3   0   52.40    1.02
   9   3   0   36.91    0.86
  11   3   0   13.13    0.54
  13   3   0   15.32    0.74
  15   3   0   59.21    1.59
  17   3   0   60.63    1.70
  19   3   0    5.27    0.65
 -18   4   0    1.32    0.75
 -16   4   0   34.95    1.40
 -14   4   0   82.34    2.21
 -12   4   0   25.77    1.09
 -10   4   0    3.57    0.40
  -8   4   0    5.49    0.46
  -6   4   0    3.07    0.34
  -4   4   0    8.88    0.52
  -2   4   0    0.15    0.15
   0   4   0  455.22    5.19
   2   4   0    0.30    0.19
   4   4   0    8.80    0.46
   6   4   0    2.47    0.29
   8   4   0    6.44    0.44
  10   4   0    4.68    0.41
  12   4   0   25.00    0.82
  14   4   0   80.46    2.01
  16   4   0   32.66    1.25
  18   4   0    0.29    0.52
 -13   5   0    9.86    0.92
 -11   5   0    6.87    0.74
  -9   5   0   18.18    0.84
  -7   5   0   20.92    0.83
  -5   5   0   59.67    1.45
  -3   5   0   20.56    0.80
  -1   5   0    3.20    0.49
   1   5   0    3.94    0.52
   3   5   0   21.39    0.94
   5   5   0   62.86    1.72
   7   5   0   22.22    1.02
   9   5   0   19.81    0.99
  11   5   0    8.22    0.78
  13   5   0   13.05    1.33
 -10   6   0    1.91    0.83
  -8   6   0    2.23    0.60
  -6   6   0    0.87    0.47
  -4   6   0    5.52    0.72
  -2   6   0    0.30    0.41
   0   6   0  197.37    4.23
   2   6   0    0.56    0.61
   4   6   0    5.24    1.05
   6   6   0    2.14    0.55
   8   6   0    1.95    0.58
  -8  -6   1   -0.23    1.42
  -6  -6   1   70.04    4.87
  -4  -6   1    0.34    1.12
  -2  -6   1    1.17    1.10
   0  -6   1   -0.15    0.93
   2  -6   1    0.26    0.96
   4  -6   1    0.98    1.12
   6  -6   1   56.65    3.87
 -13  -5   1   12.85    2.87
 -11  -5   1   65.21    5.06
  -9  -5   1   64.22    4.67
  -7  -5   1    0.53    1.11
  -5  -5   1   47.04    3.31
  -3  -5   1    0.58    0.93
  -1  -5   1   -0.14    0.70
   1  -5   1    0.02    0.42
   3  -5   1  111.20    5.09
   5  -5   1    2.73    1.07
   7  -5   1   19.11    2.28
   9  -5   1    0.84    0.94
  11  -5   1   21.43    2.60
  13  -5   1   -0.46    0.92
 -18  -4   1   -1.38    1.16
 -16  -4   1    5.19    1.89
 -14  -4   1    4.72    1.79
 -12  -4   1   32.92    3.82
 -10  -4   1   29.19    3.31
  -8  -4   1   -0.03    0.87
  -6  -4   1  147.64    6.04
  -4  -4   1    0.37    0.41
  -2  -4   1    0.35    0.37
   0  -4   1    0.37    0.65
   2  -4   1    2.67    0.83
   4  -4   1    1.77    0.77
   6  -4   1  114.67    4.72
   8  -4   1  102.47    4.58
  10  -4   1   23.40    2.08
  12  -4   1   10.29    1.75
  14  -4   1   -0.01    0.85
  16  -4   1   -0.34    0.95
 -21  -3   1   45.97    2.69
 -19  -3   1   19.22    1.59
 -17  -3   1   -0.54    0.51
 -15  -3   1    1.14    0.54
 -13  -3   1   21.49    1.31
 -11  -3   1  150.92    3.82
  -9  -3   1  138.64    3.42
  -7  -3   1    4.51    0.42
  -5  -3   1  104.75    1.93
  -3  -3   1    1.61    0.31
  -1  -3   1    1.04    0.25
   1  -3   1    0.52    0.31
   3  -3   1  265.50    7.78
   5  -3   1    8.93    1.20
   7  -3   1   39.29    2.24
   9  -3   1    1.23    0.66
  11  -3   1   36.52    2.46
  13  -3   1   -0.03    0.64
  15  -3   1   -0.07    0.74
  17  -3   1    9.53    2.03
  19  -3   1    5.27    1.81
 -22  -2   1   15.69    2.58
 -20  -2   1    2.18    0.68
 -18  -2   1    0.32    0.52
 -16  -2   1    7.09    0.89
 -14  -2   1   13.48    1.14
 -12  -2   1   71.52    1.49
 -10  -2   1   49.26    1.13
  -8  -2   1    0.47    0.19
  -6  -2   1  283.62    4.17
  -4  -2   1   -0.18    0.16
  -2  -2   1    0.15    0.15
   0  -2   1    0.73    0.22
   2  -2   1    2.47    0.50
   4  -2   1    2.92    0.58
   6  -2   1  230.81    3.85
   8  -2   1  198.71    3.59
  10  -2   1   42.24    2.41
  12  -2   1   15.72    1.90
  14  -2   1    0.39    0.77
  16  -2   1    1.13    0.95
  18  -2   1   22.36    2.92
  20  -2   1   59.08    4.20
 -23  -1   1   23.85    3.18
 -21  -1   1   60.36    4.15
 -19  -1   1   24.00    3.03
 -17  -1   1    0.12    0.44
 -15  -1   1    1.16    0.28
 -13  -1   1   27.58    0.84
 -11  -1   1  221.46    3.48
  -9  -1   1  213.74    3.28
  -7  -1   1    7.84    0.37
  -5  -1   1  183.57    2.71
  -3  -1   1    4.82    0.28
  -1  -1   1    1.02    0.14
   1  -1   1    1.61    0.33
   3  -1   1  473.21   11.96
   5  -1   1   16.43    0.57
   7  -1   1   54.50    1.49
   9  -1   1    3.00    0.25
  11  -1   1   56.13    1.15
  13  -1   1    0.06    0.28
  15  -1   1    0.07    0.32
  17  -1   1    9.57    0.97
 -22   0   1   14.69    2.43
 -20   0   1    2.60    0.55
 -18   0   1    0.30    0.33
 -16   0   1    9.10    0.77
 -14   0   1   14.72    0.80
 -12   0   1   90.65    1.58
 -10   0   1   62.41    1.14
  -8   0   1    0.01    0.10
  -6   0   1  397.66    5.34
  -4   0   1    0.11    0.11
  -2   0   1    0.02    0.07
   0   0   1    0.89    0.17
   6   0   1  311.92    6.39
   8   0   1  261.76    3.33
  10   0   1   47.72    0.88
  12   0   1   21.61    0.70
  14   0   1    0.13    0.20
  16   0   1    2.23    0.53
  18   0   1   27.80    1.52
  20   0   1   74.98    2.84
  22   0   1    0.08    0.61
 -21   1   1   56.99    2.05
 -19   1   1   25.64    1.29
 -17   1   1    0.31    0.34
 -15   1   1    1.14    0.36
 -13   1   1   27.61    0.79
 -11   1   1  225.04    3.34
  -9   1   1  211.50    3.12
  -7   1   1    7.79    0.25
  -5   1   1  181.61    2.42
  -3   1   1    4.42    0.21
  -1   1   1    1.40    0.10
   1   1   1    1.77    0.14
   3   1   1  465.78    5.75
   5   1   1   16.52    0.38
   7   1   1   55.71    0.90
   9   1   1    2.39    0.22
  11   1   1   55.94    1.04
  13   1   1    0.29    0.22
  15   1   1    0.02    0.22
  17   1   1    9.82    0.69
  19   1   1    6.85    0.95
  21   1   1   -0.61    0.48
 -22   2   1   20.50    1.52
 -20   2   1    3.26    0.76
 -18   2   1    0.57    0.44
 -16   2   1    8.33    0.66
 -14   2   1   11.10    0.62
 -12   2   1   72.47    1.67
 -10   2   1   49.15    0.97
  -8   2   1    0.22    0.14
  -6   2   1  279.30    3.80
  -4   2   1   -0.01    0.07
  -2   2   1    0.24    0.08
   0   2   1    0.68    0.10
   2   2   1    2.67    0.16
   4   2   1    2.79    0.21
   6   2   1  228.52    3.02
   8   2   1  200.60    3.43
  10   2   1   41.15    0.89
  12   2   1   18.50    0.60
  14   2   1   -0.06    0.22
  16   2   1    1.75    0.37
  18   2   1   25.50    1.05
  20   2   1   69.05    1.90
 -19   3   1   18.30    1.44
 -17   3   1    0.23    0.34
 -15   3   1    0.89    0.33
 -13   3   1   20.89    0.90
 -11   3   1  150.87    2.99
  -9   3   1  135.84    2.19
  -7   3   1    3.38    0.32
  -5   3   1   99.62    1.68
  -3   3   1    1.60    0.17
  -1   3   1    1.34    0.16
   1   3   1    0.90    0.15
   3   3   1  260.87    3.52
   5   3   1    8.52    0.40
   7   3   1   37.42    0.86
   9   3   1    1.57    0.26
  11   3   1   38.94    0.95
  13   3   1    0.39    0.27
  15   3   1    0.38    0.30
  17   3   1    6.89    0.70
  19   3   1    5.63    0.67
 -18   4   1   -0.41    0.35
 -16   4   1    4.98    0.66
 -14   4   1    9.47    0.81
 -12   4   1   37.54    1.32
 -10   4   1   31.52    0.92
  -8   4   1    0.29    0.21
  -6   4   1  143.56    2.38
  -4   4   1    0.52    0.21
  -2   4   1    0.17    0.19
   0   4   1    0.03    0.19
   2   4   1    1.93    0.28
   4   4   1    1.41    0.21
   6   4   1  115.55    1.92
   8   4   1  111.19    1.90
  10   4   1   25.35    0.80
  12   4   1   11.62    0.65
  14   4   1   -0.20    0.31
  16   4   1    1.41    0.44
 -15   5   1    0.53    0.44
 -13   5   1   11.67    0.95
 -11   5   1   71.62    2.06
  -9   5   1   68.89    1.60
  -7   5   1    1.81    0.35
  -5   5   1   46.87    1.53
  -3   5   1    0.15    0.31
  -1   5   1    0.29    0.32
   1   5   1    0.10    0.31
   3   5   1  121.27    2.59
   5   5   1    3.22    0.48
   7   5   1   21.17    1.00
   9   5   1    1.04    0.43
  11   5   1   22.90    1.10
  13   5   1    0.52    0.62
  -8   6   1    0.46    0.48
  -6   6   1   72.32    2.20
  -4   6   1   -0.08    0.40
  -2   6   1    0.02    0.39
   0   6   1    0.55    0.63
   2   6   1    1.99    0.79
   4   6   1    1.57    0.80
   6   6   1   53.19    2.76
   8   6   1   56.11    2.41
  -8  -6   2    8.02    2.22
  -6  -6   2   49.96    4.06
  -4  -6   2    3.26    1.46
  -2  -6   2    7.56    1.83
   0  -6   2    2.84    1.38
   2  -6   2   32.75    2.91
   4  -6   2    1.79    0.74
   6  -6   2    0.12    0.62
 -15  -5   2   39.07    4.57
 -13  -5   2   -0.37    1.53
 -11  -5   2    1.02    1.53
  -9  -5   2    0.47    1.21
  -7  -5   2    1.57    1.25
  -5  -5   2   -0.64    0.85
  -3  -5   2  151.26    6.40
  -1  -5   2   25.79    1.40
   1  -5   2   64.28    2.21
   3  -5   2    0.06    0.44
   5  -5   2    0.93    0.83
   7  -5   2    7.54    1.51
   9  -5   2   25.74    2.38
  11  -5   2   41.69    3.18
  13  -5   2    2.84    1.34
 -18  -4   2   36.31    4.06
 -16  -4   2   14.01    2.75
 -12  -4   2   10.45    2.36
 -10  -4   2    0.26    1.09
  -8  -4   2   16.71    2.34
  -6  -4   2  122.93    3.13
  -4  -4   2    5.24    0.74
  -2  -4   2   15.15    1.10
   0  -4   2    7.25    0.77
   2  -4   2   72.29    3.36
   4  -4   2    5.18    1.07
   6  -4   2    0.18    0.62
   8  -4   2   19.36    1.82
  10  -4   2   26.80    2.22
  12  -4   2   34.62    2.71
  14  -4   2   48.94    3.37
  16  -4   2    1.44    1.21
 -21  -3   2    2.38    1.35
 -19  -3   2   21.12    1.47
 -17  -3   2   15.76    1.33
 -15  -3   2   71.15    2.35
 -13  -3   2    1.37    0.48
 -11  -3   2    4.67    0.63
  -9  -3   2    0.15    0.24
  -7  -3   2    0.16    0.24
  -5  -3   2    1.99    0.31
  -3  -3   2  328.22    9.79
  -1  -3   2   58.30    1.66
   1  -3   2  145.93    4.88
   3  -3   2   -0.03    0.43
   5  -3   2    2.91    0.78
   7  -3   2   17.23    1.48
   9  -3   2   47.27    2.60
  11  -3   2   80.04    3.89
  13  -3   2    6.67    1.41
  15  -3   2   38.64    3.00
  17  -3   2   28.08    2.71
 -22  -2   2    1.67    1.24
 -20  -2   2   78.14    4.67
 -18  -2   2   56.72    2.14
 -16  -2   2   20.47    1.26
 -14  -2   2   48.10    1.23
 -12  -2   2   18.57    0.70
 -10  -2   2    0.84    0.24
  -8  -2   2   36.95    0.80
  -6  -2   2  251.12    3.80
  -4  -2   2   11.93    0.45
  -2  -2   2   23.49    0.90
   0  -2   2   11.91    0.60
   2  -2   2  142.74    4.33
   4  -2   2    9.22    0.99
   6  -2   2    0.18    0.16
   8  -2   2   33.91    1.98
  10  -2   2   45.52    2.53
  12  -2   2   62.56    3.31
  14  -2   2   66.10    3.65
  16  -2   2    4.02    1.22
  18  -2   2   23.51    2.79
  20  -2   2    0.86    1.05
 -23  -1   2   18.54    2.75
 -21  -1   2    2.63    1.37
 -19  -1   2   27.16    3.06
 -17  -1   2   21.30    1.04
 -15  -1   2   97.15    2.43
 -13  -1   2    1.86    0.37
 -11  -1   2    6.15    0.45
  -9  -1   2    0.59    0.19
  -7  -1   2    0.81    0.15
  -5  -1   2    4.57    0.27
  -3  -1   2  570.78    9.83
  -1  -1   2  111.25    2.15
   1  -1   2  261.39    6.81
   3  -1   2    0.36    0.26
   9  -1   2   70.18    1.98
  11  -1   2  129.71    2.28
  13  -1   2    8.46    0.79
  15  -1   2   61.81    2.18
 -22   0   2    0.51    1.10
 -20   0   2   85.24    2.48
 -18   0   2   70.35    2.09
 -16   0   2   24.19    1.13
 -14   0   2   58.38    1.71
 -12   0   2   22.75    0.64
 -10   0   2    0.12    0.13
  -8   0   2   47.61    0.92
  -6   0   2  352.13    4.73
  -4   0   2   17.32    0.46
  -2   0   2   29.74    0.87
   0   0   2   13.87    0.70
   2   0   2  190.61    4.33
   8   0   2   44.18    1.07
  10   0   2   55.62    1.30
  12   0   2   76.20    1.62
  14   0   2   79.41    1.74
  16   0   2    3.99    0.69
  18   0   2   32.20    1.72
  20   0   2    2.07    0.71
 -23   1   2   17.76    1.23
 -21   1   2    3.87    0.67
 -19   1   2   26.61    1.35
 -17   1   2   17.71    1.04
 -15   1   2   97.67    1.86
 -13   1   2    1.79    0.27
 -11   1   2    6.66    0.42
  -9   1   2    0.70    0.17
  -7   1   2    0.72    0.12
  -5   1   2    4.62    0.24
  -3   1   2  590.26    7.47
  -1   1   2  110.22    1.57
   1   1   2  260.24    3.41
   3   1   2    0.30    0.17
   5   1   2    5.63    0.23
   7   1   2   30.96    0.70
   9   1   2   67.57    1.49
  11   1   2  129.82    2.01
  13   1   2    9.11    0.61
  15   1   2   60.80    1.57
  17   1   2   44.04    1.36
  19   1   2    0.74    0.52
  21   1   2    3.55    0.86
 -22   2   2    0.24    0.54
 -20   2   2   74.68    2.94
 -18   2   2   60.11    2.40
 -16   2   2   20.96    0.89
 -14   2   2   48.99    1.36
 -12   2   2   19.04    0.76
 -10   2   2    0.17    0.14
  -8   2   2   33.11    0.74
  -6   2   2  249.99    3.43
  -4   2   2   12.15    0.30
  -2   2   2   24.12    0.45
   0   2   2   11.48    0.30
   2   2   2  140.38    2.01
   4   2   2    9.10    0.36
   6   2   2    0.31    0.15
   8   2   2   32.53    0.97
  10   2   2   46.62    1.22
  12   2   2   59.94    1.24
  14   2   2   67.55    1.69
  16   2   2    3.53    0.48
  18   2   2   28.51    1.15
  20   2   2    2.09    0.75
 -19   3   2   21.54    1.51
 -17   3   2   14.67    0.85
 -15   3   2   66.57    1.82
 -13   3   2    0.50    0.29
 -11   3   2    4.71    0.49
  -9   3   2    0.29    0.18
  -7   3   2    0.54    0.19
  -5   3   2    1.90    0.24
  -3   3   2  336.26    3.81
  -1   3   2   55.92    0.89
   1   3   2  149.96    2.21
   3   3   2    0.54    0.20
   5   3   2    2.54    0.28
   7   3   2   19.14    0.78
   9   3   2   47.90    1.33
  11   3   2   87.60    1.63
  13   3   2    6.42    0.59
  15   3   2   42.27    1.39
  17   3   2   33.57    1.31
 -18   4   2   38.70    1.50
 -16   4   2   16.01    1.08
 -14   4   2   27.40    1.19
 -12   4   2   11.72    0.84
 -10   4   2    0.53    0.29
  -8   4   2   19.83    0.71
  -6   4   2  121.80    2.10
  -4   4   2    7.23    0.47
  -2   4   2   14.28    0.74
   0   4   2    5.89    0.41
   2   4   2   73.95    1.40
   4   4   2    6.03    0.55
   6   4   2    0.40    0.29
   8   4   2   17.31    0.67
  10   4   2   27.11    0.87
  12   4   2   34.01    1.02
  14   4   2   42.79    1.45
  16   4   2    2.79    0.78
 -15   5   2   42.14    1.61
 -13   5   2    0.76    0.41
 -11   5   2    2.85    0.54
  -9   5   2   -0.12    0.26
  -7   5   2   -0.09    0.30
  -5   5   2    0.83    0.37
  -3   5   2  154.28    3.36
  -1   5   2   26.32    1.11
   1   5   2   69.94    1.89
   3   5   2    0.67    0.36
   5   5   2    0.99    0.41
   7   5   2    7.67    0.74
   9   5   2   25.82    1.15
  11   5   2   49.66    1.63
  -8   6   2    9.36    0.93
  -6   6   2   56.03    1.91
  -4   6   2    3.33    0.63
  -2   6   2    7.78    0.83
   0   6   2    2.84    0.87
   2   6   2   36.46    2.18
   4   6   2    2.12    0.86
  -8  -6   3   20.52    3.05
  -6  -6   3    7.48    2.09
  -4  -6   3   28.64    3.16
  -2  -6   3    0.46    1.20
   0  -6   3   71.35    4.23
   2  -6   3    9.74    1.19
   4  -6   3   32.39    1.81
 -15  -5   3    9.49    2.62
 -13  -5   3    1.77    1.75
 -11  -5   3   35.55    4.01
  -9  -5   3   78.62    5.09
  -7  -5   3    4.09    1.52
  -5  -5   3    1.47    1.08
  -3  -5   3    4.50    0.80
  -1  -5   3    0.91    0.59
   1  -5   3    4.23    0.77
   3  -5   3    8.67    1.00
   5  -5   3  110.22    3.12
   7  -5   3   20.68    2.34
   9  -5   3   19.21    2.34
  11  -5   3    2.85    1.28
 -18  -4   3   13.61    2.48
 -16  -4   3   13.21    2.57
 -14  -4   3   57.77    4.42
 -10  -4   3    0.84    1.17
  -8  -4   3   45.27    1.82
  -6  -4   3   20.54    1.29
  -4  -4   3   68.46    2.22
  -2  -4   3    1.46    0.53
   0  -4   3  156.51    3.64
   2  -4   3   24.13    1.18
   4  -4   3   67.35    3.24
   6  -4   3   -0.37    0.57
   8  -4   3    8.55    1.41
  10  -4   3   22.10    2.05
  12  -4   3    2.31    1.11
  14  -4   3   16.78    2.30
 -21  -3   3    3.34    1.46
 -19  -3   3    4.36    1.54
 -17  -3   3   20.98    2.76
 -15  -3   3   22.58    2.86
 -13  -3   3   -0.12    1.03
 -11  -3   3   76.12    2.22
  -9  -3   3  167.32    4.67
  -7  -3   3    3.91    0.68
  -5  -3   3    6.47    0.76
  -3  -3   3   13.58    0.99
  -1  -3   3    2.39    0.49
   1  -3   3   12.95    0.85
   3  -3   3   17.98    1.40
   5  -3   3  216.34    6.83
   7  -3   3   40.86    2.30
   9  -3   3   44.03    2.45
  11  -3   3    9.18    1.45
  13  -3   3    0.13    0.68
  15  -3   3   29.08    2.46
  17  -3   3   26.63    2.45
 -22  -2   3    1.11    1.16
 -20  -2   3   15.44    2.43
 -18  -2   3   26.66    2.92
 -16  -2   3   17.53    0.96
 -14  -2   3   92.27    2.38
 -12  -2   3  157.85    3.51
 -10  -2   3    1.71    0.31
  -8  -2   3   72.77    1.30
  -6  -2   3   42.03    1.46
  -4  -2   3  136.53    2.97
  -2  -2   3    2.20    0.40
   0  -2   3  300.16    5.38
   2  -2   3   46.90    1.97
   4  -2   3  115.07    3.78
   6  -2   3    0.31    0.42
   8  -2   3    9.21    1.24
  10  -2   3   38.36    2.27
  12  -2   3    5.48    1.12
  14  -2   3   26.97    2.21
  16  -2   3   -0.37    0.69
  18  -2   3    6.16    1.42
 -23  -1   3    1.60    1.28
 -21  -1   3    1.92    1.22
 -19  -1   3    6.97    0.75
 -17  -1   3   33.05    1.32
 -15  -1   3   29.28    1.19
 -13  -1   3    0.12    0.29
 -11  -1   3  108.53    1.85
  -9  -1   3  273.84    3.95
  -7  -1   3    4.61    0.41
  -5  -1   3    8.37    0.56
  -3  -1   3   22.47    0.85
  -1  -1   3    3.50    0.33
   1  -1   3   22.61    0.73
   3  -1   3   26.67    1.23
  11  -1   3   11.64    0.83
  13  -1   3    0.15    0.35
 -24   0   3   27.27    3.43
 -22   0   3    2.17    0.59
 -20   0   3   26.29    1.32
 -18   0   3   29.73    1.28
 -16   0   3   21.67    1.07
 -14   0   3  112.49    2.65
 -12   0   3  195.91    3.00
 -10   0   3    1.91    0.25
  -8   0   3   87.81    1.51
  -6   0   3   64.68    1.20
  -4   0   3  188.09    3.38
  -2   0   3    3.43    0.46
   0   0   3  390.55    6.66
   2   0   3   64.59    1.60
   4   0   3  143.07    2.82
   8   0   3   12.09    1.01
  10   0   3   47.53    1.11
  12   0   3    8.47    0.50
  14   0   3   35.45    1.12
  16   0   3    0.52    0.47
  18   0   3    7.30    1.01
  20   0   3   49.15    2.41
 -23   1   3    0.36    0.46
 -21   1   3    1.63    0.55
 -19   1   3    5.56    0.71
 -17   1   3   31.83    1.35
 -15   1   3   27.50    0.85
 -13   1   3   -0.10    0.17
 -11   1   3  108.25    1.88
  -9   1   3  262.30    3.60
  -7   1   3    4.63    0.28
  -5   1   3    7.19    0.33
  -3   1   3   21.30    0.55
  -1   1   3    3.40    0.27
   1   1   3   23.26    0.62
   3   1   3   27.36    0.72
   5   1   3  348.08    4.72
   7   1   3   65.33    1.29
   9   1   3   58.66    1.44
  11   1   3   12.34    0.65
  13   1   3    0.45    0.27
  15   1   3   47.38    1.39
  17   1   3   37.70    1.31
  19   1   3    6.66    1.03
 -22   2   3    0.85    0.59
 -20   2   3   21.44    1.48
 -18   2   3   20.93    1.41
 -16   2   3   16.49    0.80
 -14   2   3   89.46    2.08
 -12   2   3  157.06    3.04
 -10   2   3    1.43    0.21
  -8   2   3   70.71    1.26
  -6   2   3   38.58    0.83
  -4   2   3  132.46    2.02
  -2   2   3    2.46    0.22
   0   2   3  297.02    3.96
   2   2   3   48.22    0.94
   4   2   3  112.32    1.79
   6   2   3    0.01    0.18
   8   2   3   13.26    0.65
  10   2   3   37.67    1.15
  12   2   3    5.65    0.54
  14   2   3   28.32    1.09
  16   2   3    1.03    0.38
  18   2   3    5.89    0.70
 -19   3   3    5.29    0.95
 -17   3   3   20.89    1.00
 -15   3   3   17.95    0.90
 -13   3   3    0.06    0.24
 -11   3   3   69.66    1.78
  -9   3   3  166.43    2.59
  -7   3   3    3.13    0.30
  -5   3   3    5.07    0.36
  -3   3   3   12.59    0.39
  -1   3   3    2.09    0.26
   1   3   3   11.47    0.48
   3   3   3   17.22    0.58
   5   3   3  217.43    3.15
   7   3   3   42.37    1.24
   9   3   3   39.11    1.24
  11   3   3    7.61    0.65
  13   3   3    0.63    0.33
  15   3   3   34.62    1.30
  17   3   3   27.97    1.24
 -18   4   3   14.19    1.07
 -16   4   3   11.14    0.91
 -14   4   3   49.86    1.61
 -12   4   3   89.95    2.26
 -10   4   3    1.22    0.34
  -8   4   3   43.36    1.08
  -6   4   3   19.31    0.69
  -4   4   3   63.99    1.74
  -2   4   3    0.91    0.34
   0   4   3  158.37    2.48
   2   4   3   24.31    0.76
   4   4   3   65.25    1.69
   6   4   3   -0.05    0.27
   8   4   3    8.06    0.69
  10   4   3   24.39    0.85
  12   4   3    3.19    0.43
  14   4   3   19.01    1.06
 -15   5   3   10.12    1.27
 -13   5   3    0.70    0.41
 -11   5   3   35.84    1.38
  -9   5   3   87.02    3.33
  -7   5   3    2.84    0.52
  -5   5   3    2.16    0.48
  -3   5   3    5.06    0.62
  -1   5   3    0.82    0.38
   1   5   3    3.64    0.52
   3   5   3   10.75    0.77
   5   5   3  111.01    2.57
   7   5   3   19.86    1.02
   9   5   3   22.60    1.10
  11   5   3    4.49    0.63
  -6   6   3    8.58    0.89
  -4   6   3   27.75    1.33
  -2   6   3    0.11    0.45
   0   6   3   65.35    3.08
   2   6   3    8.52    1.31
   0  -6   4   10.53    1.71
   2  -6   4    5.01    1.32
  -5  -5   4   37.55    2.39
  -3  -5   4    0.84    0.87
  -1  -5   4   61.86    3.06
   1  -5   4   -0.01    0.72
   3  -5   4    0.50    0.76
   5  -5   4    6.06    1.21
   7  -5   4    2.05    0.82
 -16  -4   4    5.80    1.79
 -14  -4   4    6.82    1.93
 -12  -4   4    3.48    1.68
 -10  -4   4    5.78    0.86
  -8  -4   4    2.21    0.69
  -6  -4   4  137.09    3.51
  -4  -4   4   21.74    1.30
  -2  -4   4   49.81    1.86
   0  -4   4   18.64    1.20
   2  -4   4   15.01    1.11
   4  -4   4   16.81    1.08
   6  -4   4   22.73    1.23
 -21  -3   4   50.17    3.67
 -19  -3   4   11.28    1.98
 -17  -3   4   53.76    3.74
 -15  -3   4   22.53    2.74
 -13  -3   4    3.88    0.70
 -11  -3   4   40.80    1.68
  -9  -3   4   72.08    2.27
  -7  -3   4    3.50    0.68
  -5  -3   4   69.85    2.15
  -3  -3   4    0.54    0.42
  -1  -3   4  116.31    2.81
   1  -3   4    0.67    0.35
   3  -3   4    2.32    0.46
   5  -3   4   19.27    0.99
   7  -3   4    3.09    0.83
   9  -3   4    0.79    0.63
  11  -3   4   57.05    2.99
  13  -3   4    2.90    1.02
 -22  -2   4   35.13    3.03
 -20  -2   4    4.39    1.47
 -18  -2   4   31.34    1.35
 -16  -2   4   10.77    0.90
 -14  -2   4   18.95    1.03
 -12  -2   4    3.80    0.63
 -10  -2   4   16.69    0.80
  -8  -2   4    2.60    0.46
  -6  -2   4  244.70    4.80
  -4  -2   4   35.15    1.30
  -2  -2   4   89.52    2.17
   0  -2   4   37.93    1.21
   2  -2   4   24.92    0.97
   4  -2   4   32.75    1.14
   6  -2   4   40.56    2.00
   8  -2   4   97.67    3.64
  10  -2   4    6.75    1.12
  12  -2   4   64.17    3.16
  14  -2   4    9.25    1.49
  16  -2   4   16.98    2.02
 -23  -1   4   15.00    2.29
 -21  -1   4   66.79    2.17
 -19  -1   4   18.87    1.11
 -17  -1   4   88.24    2.41
 -15  -1   4   32.27    1.30
 -13  -1   4    7.19    0.67
 -11  -1   4   67.54    1.40
  -9  -1   4  101.14    1.89
  -7  -1   4    5.03    0.47
  -5  -1   4  115.27    2.08
  -3  -1   4    0.41    0.35
  -1  -1   4  175.38    4.86
   1  -1   4    0.86    0.21
   3  -1   4    3.55    0.40
   5  -1   4   30.40    1.04
  17  -1   4    1.03    0.73
 -24   0   4   13.49    1.19
 -22   0   4   33.76    1.58
 -20   0   4    4.24    0.67
 -18   0   4   33.77    1.38
 -16   0   4   11.63    0.90
 -14   0   4   21.10    0.98
 -12   0   4    5.61    0.42
 -10   0   4   20.85    0.66
  -8   0   4    2.80    0.30
  -6   0   4  309.15    5.30
  -4   0   4   42.50    1.37
  -2   0   4  106.92    2.52
   0   0   4   47.98    1.49
   2   0   4   30.64    1.16
   4   0   4   39.83    1.29
   6   0   4   47.67    1.41
   8   0   4  110.57    2.03
  10   0   4   10.07    0.84
  12   0   4   75.70    1.85
  14   0   4    8.46    0.69
  16   0   4   26.21    1.60
  18   0   4    0.05    0.59
 -23   1   4   16.94    1.58
 -21   1   4   68.26    2.26
 -19   1   4   20.05    1.17
 -17   1   4   85.22    2.37
 -15   1   4   32.04    0.93
 -13   1   4    5.96    0.51
 -11   1   4   65.93    1.58
  -9   1   4   99.54    1.63
  -7   1   4    7.04    0.40
  -5   1   4  113.28    1.84
  -3   1   4    0.40    0.21
  -1   1   4  185.17    2.77
   1   1   4    0.68    0.27
   3   1   4    3.62    0.42
   5   1   4   33.24    1.24
   7   1   4    4.56    0.56
   9   1   4    1.72    0.36
  11   1   4   80.35    1.92
  13   1   4    6.14    0.84
  15   1   4   30.79    1.18
  17   1   4    0.74    0.43
 -22   2   4   33.82    1.97
 -20   2   4    2.98    0.75
 -16   2   4   11.10    0.78
 -14   2   4   18.34    0.83
 -12   2   4    4.04    0.47
 -10   2   4   14.27    0.52
  -8   2   4    1.86    0.26
  -6   2   4  230.93    3.36
  -4   2   4   35.19    0.82
  -2   2   4   90.79    1.52
   0   2   4   37.81    0.82
   2   2   4   22.23    0.92
   4   2   4   31.75    0.85
   6   2   4   39.66    0.97
   8   2   4   92.93    2.12
  10   2   4    9.70    0.72
  12   2   4   65.97    1.77
  14   2   4    9.27    0.77
  16   2   4   23.52    1.11
 -19   3   4   16.20    1.53
 -17   3   4   62.13    1.83
 -15   3   4   22.05    1.00
 -13   3   4    3.18    0.46
 -11   3   4   41.03    1.29
  -9   3   4   66.12    1.68
  -7   3   4    2.46    0.30
  -5   3   4   70.35    1.28
  -3   3   4    0.40    0.16
  -1   3   4  113.11    1.90
   1   3   4    0.30    0.21
   3   3   4    2.04    0.30
   5   3   4   19.19    0.85
   7   3   4    3.16    0.45
   9   3   4    0.91    0.34
  11   3   4   57.82    1.68
  13   3   4    2.93    0.52
  15   3   4   21.02    1.10
 -18   4   4   20.58    1.12
 -16   4   4    6.89    0.74
 -14   4   4   12.68    0.93
 -12   4   4    1.58    0.40
 -10   4   4    6.51    0.64
  -8   4   4    1.47    0.29
  -6   4   4  129.65    2.89
  -4   4   4   20.20    0.95
  -2   4   4   50.62    1.52
   0   4   4   19.48    0.70
   2   4   4   12.62    0.62
   4   4   4   16.76    0.84
   6   4   4   21.96    0.98
   8   4   4   57.40    1.69
  10   4   4    5.64    0.66
  12   4   4   43.21    1.27
 -15   5   4   13.59    1.49
 -13   5   4    2.18    0.53
 -11   5   4   20.41    1.59
  -9   5   4   34.62    2.03
  -7   5   4    1.24    0.44
  -5   5   4   37.96    1.43
  -3   5   4    0.12    0.36
  -1   5   4   61.03    1.85
   1   5   4   -0.39    0.52
   3   5   4    0.78    0.40
   5   5   4    9.96    0.82
   7   5   4    2.40    0.53
   9   5   4    1.23    0.49
  -6   6   4   64.07    2.99
  -4   6   4   11.29    1.01
  -2   6   4   25.60    1.28
  -7  -5   5   36.45    2.43
  -5  -5   5   13.15    1.72
  -3  -5   5   15.36    1.92
  -1  -5   5   37.34    2.48
   1  -5   5   58.02    3.05
   3  -5   5    6.19    1.34
   5  -5   5   11.07    1.60
 -10  -4   5   59.85    2.82
  -8  -4   5   10.37    1.44
  -6  -4   5   10.30    1.42
  -4  -4   5    1.40    0.81
  -2  -4   5   -0.19    0.62
   0  -4   5    4.97    1.09
   2  -4   5   49.12    2.56
   4  -4   5    0.01    0.65
   6  -4   5   71.29    3.18
   8  -4   5   20.25    1.89
  10  -4   5    5.11    1.14
 -15  -3   5   89.80    3.29
 -13  -3   5   -0.35    0.55
 -11  -3   5   56.62    2.59
  -9  -3   5    9.87    1.32
  -7  -3   5   68.38    3.01
  -5  -3   5   26.17    1.83
  -3  -3   5   28.71    1.92
  -1  -3   5   76.46    3.13
   1  -3   5  106.78    3.83
   3  -3   5   11.16    1.28
   5  -3   5   23.78    1.62
   7  -3   5   33.40    1.90
   9  -3   5    3.23    0.87
  11  -3   5    1.50    0.75
  13  -3   5   10.01    1.37
 -18  -2   5   18.70    1.38
 -16  -2   5    0.98    0.56
 -14  -2   5   55.49    2.40
 -12  -2   5   26.20    1.68
 -10  -2   5   88.40    2.29
  -8  -2   5   14.15    1.04
  -6  -2   5   23.27    1.24
  -4  -2   5   -0.15    0.56
  -2  -2   5    0.48    0.59
   0  -2   5   12.49    1.32
   2  -2   5   82.30    3.01
   4  -2   5    0.95    0.56
   6  -2   5  114.64    3.76
   8  -2   5   32.57    1.77
  10  -2   5    5.04    0.90
  12  -2   5   18.43    1.41
 -21  -1   5   11.53    1.25
 -19  -1   5    0.92    0.53
 -17  -1   5    6.27    0.91
 -15  -1   5  123.49    3.91
 -13  -1   5    0.00    0.43
 -11  -1   5   80.37    1.99
  -9  -1   5   14.64    0.94
  -7  -1   5  102.76    2.55
  -5  -1   5   45.64    1.61
  -3  -1   5   44.70    1.60
  -1  -1   5  121.41    2.90
   1  -1   5  153.55    3.42
   3  -1   5   15.78    1.16
   5  -1   5   30.42    1.53
   7  -1   5   42.82    1.91
   9  -1   5    3.12    0.68
  11  -1   5    2.24    0.54
 -24   0   5   16.18    1.61
 -22   0   5    9.55    1.16
 -20   0   5   19.35    1.12
 -18   0   5   22.30    1.14
 -16   0   5    1.35    0.42
 -14   0   5   71.14    1.50
 -12   0   5   31.07    0.89
 -10   0   5  106.83    1.91
  -8   0   5   18.55    0.96
  -6   0   5   29.61    1.22
  -4   0   5    3.59    0.59
  -2   0   5    1.43    0.51
   0   0   5   13.22    0.97
   2   0   5  103.83    2.48
   4   0   5    0.08    0.36
   6   0   5  136.01    2.99
   8   0   5   39.12    1.49
  10   0   5    6.69    0.74
  12   0   5   20.11    0.98
  14   0   5   37.28    1.31
  16   0   5    0.78    0.61
 -23   1   5    8.03    1.19
 -21   1   5    8.37    1.18
 -19   1   5    0.87    0.54
 -17   1   5    5.72    0.89
 -15   1   5  123.35    2.68
 -13   1   5    1.52    0.33
 -11   1   5   78.51    1.88
  -9   1   5   15.64    0.61
  -7   1   5  102.30    1.86
  -5   1   5   46.69    1.16
  -3   1   5   45.89    1.20
  -1   1   5  117.86    2.23
   1   1   5  154.66    2.73
   3   1   5   13.19    1.00
   5   1   5   26.75    1.22
   7   1   5   42.64    1.51
   9   1   5    3.22    0.47
  11   1   5    2.74    0.48
  13   1   5   12.72    1.21
  15   1   5   29.32    1.23
  17   1   5   22.94    1.57
 -22   2   5    7.48    1.16
 -20   2   5   18.29    1.47
 -18   2   5   18.97    1.44
 -16   2   5    1.69    0.38
 -14   2   5   57.96    1.63
 -12   2   5   24.84    0.99
 -10   2   5   90.27    1.64
  -8   2   5   15.73    0.61
  -6   2   5   21.85    0.72
  -4   2   5    2.21    0.31
  -2   2   5    0.71    0.25
   0   2   5   11.62    0.82
   2   2   5   84.30    2.12
   4   2   5    0.62    0.26
   6   2   5  120.62    2.15
   8   2   5   32.94    1.22
  10   2   5    5.29    0.61
  12   2   5   16.40    0.98
  14   2   5   33.61    1.81
 -19   3   5    0.25    0.39
 -17   3   5    3.97    0.59
 -15   3   5   87.62    2.26
 -13   3   5    0.40    0.32
 -11   3   5   53.59    1.59
  -9   3   5    9.86    0.58
  -7   3   5   64.62    1.38
  -5   3   5   27.46    0.65
  -3   3   5   29.73    0.84
  -1   3   5   76.16    1.51
   1   3   5  111.47    1.97
   3   3   5   11.86    0.62
   5   3   5   23.10    1.00
   7   3   5   33.62    1.23
   9   3   5    1.43    0.45
  11   3   5    1.03    0.45
  13   3   5    7.75    1.09
 -18   4   5   12.97    1.47
 -16   4   5    1.55    0.47
 -14   4   5   36.56    1.42
 -12   4   5   17.71    0.95
 -10   4   5   52.56    1.61
  -8   4   5    7.86    0.74
  -6   4   5   10.86    0.84
  -4   4   5    0.97    0.38
  -2   4   5    0.46    0.35
   0   4   5    6.09    0.49
   2   4   5   49.62    1.23
   4   4   5    0.26    0.33
   6   4   5   69.47    1.97
   8   4   5   18.72    1.03
  10   4   5    4.50    0.67
  12   4   5   11.80    1.47
 -11   5   5   30.85    2.00
  -9   5   5    5.03    0.96
  -7   5   5   37.55    1.49
  -5   5   5   11.77    0.97
  -3   5   5   15.68    1.03
  -1   5   5   39.51    1.50
   1   5   5   60.20    2.79
   3   5   5    6.41    0.72
   5   5   5   13.23    0.97
   7   5   5   18.14    1.56
  -7  -5   6   31.85    2.39
  -5  -5   6   37.57    2.51
  -3  -5   6    2.90    1.06
  -1  -5   6    2.06    1.01
   1  -5   6   34.33    2.54
 -12  -4   6   42.99    2.53
 -10  -4   6    3.37    1.08
  -8  -4   6   12.43    1.69
  -6  -4   6   22.12    2.07
  -4  -4   6  105.31    4.19
  -2  -4   6    9.84    1.45
   0  -4   6    1.13    0.78
   2  -4   6   26.93    2.00
   4  -4   6    6.72    1.29
   6  -4   6   -0.07    0.76
   8  -4   6   10.72    1.56
 -17  -3   6   -0.07    0.66
 -15  -3   6    2.44    0.91
 -13  -3   6   38.41    2.27
 -11  -3   6    8.51    1.32
  -9  -3   6   40.46    1.66
  -7  -3   6   55.54    2.06
  -5  -3   6   69.44    3.07
  -3  -3   6    4.23    1.00
  -1  -3   6    4.25    1.00
   1  -3   6   76.17    3.26
   3  -3   6    3.14    0.86
   5  -3   6   31.09    2.03
   7  -3   6    0.33    0.66
   9  -3   6   82.88    3.48
  11  -3   6    6.80    1.24
 -20  -2   6   89.80    3.41
 -18  -2   6   23.23    1.66
 -16  -2   6   37.28    2.09
 -14  -2   6    8.70    1.23
 -12  -2   6   69.77    3.04
 -10  -2   6    3.69    0.65
  -8  -2   6   24.76    1.27
  -6  -2   6   41.20    1.64
  -4  -2   6  169.06    3.88
  -2  -2   6   15.07    1.16
   0  -2   6    1.89    0.70
   2  -2   6   40.90    2.17
   4  -2   6   13.14    1.41
   6  -2   6    1.47    0.64
   8  -2   6   12.03    1.39
  10  -2   6   25.86    1.79
  12  -2   6   17.17    1.68
 -23  -1   6    2.73    0.82
 -21  -1   6   40.61    2.17
 -19  -1   6    6.50    1.04
 -17  -1   6    0.31    0.55
 -15  -1   6    4.45    0.90
 -13  -1   6   55.09    1.68
 -11  -1   6   11.23    0.93
  -9  -1   6   53.99    1.81
  -7  -1   6   80.05    2.29
  -5  -1   6  107.05    2.71
  -3  -1   6    4.89    0.70
  -1  -1   6    5.85    0.75
   1  -1   6  112.49    2.84
   3  -1   6    4.16    0.65
   5  -1   6   43.10    1.63
   7  -1   6    0.28    0.45
   9  -1   6  113.73    2.90
  11  -1   6   13.30    1.15
 -22   0   6    0.09    0.54
 -20   0   6  103.50    3.77
 -18   0   6   23.15    1.59
 -16   0   6   45.61    2.19
 -14   0   6   12.90    0.80
 -12   0   6   90.80    2.26
 -10   0   6    5.01    0.66
  -8   0   6   26.48    1.26
  -6   0   6   48.32    1.75
  -4   0   6  199.56    4.30
  -2   0   6   19.73    1.21
   0   0   6    2.11    0.55
   2   0   6   56.87    1.79
   4   0   6   17.37    1.02
   6   0   6    0.24    0.44
   8   0   6   12.83    1.01
  10   0   6   28.70    1.88
  12   0   6   19.35    1.05
  14   0   6    2.68    0.75
 -21   1   6   41.07    2.23
 -19   1   6    6.57    1.06
 -17   1   6    0.91    0.58
 -15   1   6    4.45    0.56
 -13   1   6   56.68    1.66
 -11   1   6   12.92    0.89
  -9   1   6   56.49    1.37
  -7   1   6   77.80    1.71
  -5   1   6   99.48    2.08
  -3   1   6    6.01    0.59
  -1   1   6    5.19    0.58
   1   1   6  110.84    2.28
   3   1   6    4.29    0.68
   5   1   6   43.33    1.62
   7   1   6    0.25    0.42
   9   1   6  105.97    2.58
  11   1   6   14.11    1.00
  13   1   6   29.22    1.72
  15   1   6   11.43    0.95
 -20   2   6   87.68    3.57
 -18   2   6   21.68    1.07
 -16   2   6   38.14    1.39
 -14   2   6    9.97    0.80
 -12   2   6   70.23    1.93
 -10   2   6    4.96    0.60
  -8   2   6   23.52    0.83
  -6   2   6   39.90    1.10
  -4   2   6  174.93    2.88
  -2   2   6   15.45    1.08
   0   2   6    1.78    0.52
   2   2   6   46.94    1.66
   4   2   6   14.54    1.08
   6   2   6    0.71    0.38
   8   2   6   12.10    0.91
  10   2   6   26.80    1.22
  12   2   6   15.30    1.08
 -19   3   6    6.89    0.79
 -17   3   6    0.61    0.37
 -15   3   6    2.66    0.54
 -13   3   6   37.81    1.41
 -11   3   6    8.44    0.75
  -9   3   6   37.50    1.07
  -7   3   6   55.97    1.71
  -5   3   6   66.53    1.94
  -3   3   6    4.70    0.45
  -1   3   6    5.21    0.49
   1   3   6   77.67    1.67
   3   3   6    2.84    0.43
   5   3   6   33.28    1.31
   7   3   6    0.52    0.42
   9   3   6   82.40    2.28
  11   3   6    8.80    0.87
 -16   4   6   25.50    1.28
 -14   4   6    7.61    0.81
 -12   4   6   42.21    1.54
 -10   4   6    1.56    0.66
  -8   4   6   16.54    1.03
  -6   4   6   22.37    1.12
  -4   4   6  101.20    2.61
  -2   4   6   10.37    0.89
   0   4   6    0.52    0.33
   2   4   6   23.53    1.14
   4   4   6    7.28    0.76
   6   4   6    0.02    0.45
   8   4   6    9.44    0.92
  -9   5   6   23.77    1.82
  -7   5   6   34.12    1.49
  -5   5   6   35.64    1.53
  -3   5   6    2.27    0.58
  -1   5   6    2.86    0.64
   1   5   6   41.01    2.44
  -7  -5   7    1.67    1.08
  -5  -5   7    0.32    0.89
 -14  -4   7   22.94    2.27
 -12  -4   7    6.61    1.37
 -10  -4   7   61.42    3.20
  -8  -4   7   11.99    1.72
  -6  -4   7    7.07    1.06
  -4  -4   7    8.01    1.41
  -2  -4   7   23.08    2.26
   0  -4   7   27.59    2.17
   2  -4   7   19.16    2.05
   4  -4   7   47.71    2.86
 -17  -3   7   53.67    2.81
 -15  -3   7   11.30    1.61
 -13  -3   7   52.68    2.90
 -11  -3   7    1.83    0.88
  -9  -3   7    0.38    0.55
  -7  -3   7    3.14    0.72
  -5  -3   7    0.20    0.52
  -3  -3   7    1.20    0.63
  -1  -3   7   51.68    2.74
   1  -3   7    3.39    1.00
   3  -3   7   35.67    2.29
   5  -3   7    3.59    1.02
   7  -3   7   28.95    2.13
   9  -3   7    2.70    1.09
 -20  -2   7    2.07    0.87
 -18  -2   7   22.86    1.78
 -16  -2   7    4.74    1.04
 -14  -2   7   29.90    2.12
 -12  -2   7   10.29    1.48
 -10  -2   7   99.63    2.73
  -8  -2   7   22.61    1.27
  -6  -2   7   12.27    1.08
  -4  -2   7   17.30    1.26
  -2  -2   7   34.88    1.56
   0  -2   7   37.66    1.67
   2  -2   7   26.81    1.44
   4  -2   7   66.29    2.31
   6  -2   7    1.87    0.68
   8  -2   7    0.54    0.66
  10  -2   7    2.90    1.30
 -21  -1   7    5.13    1.06
 -19  -1   7    0.06    0.60
 -17  -1   7   67.71    3.09
 -15  -1   7   14.84    1.62
 -13  -1   7   77.77    2.26
 -11  -1   7    1.95    0.60
  -9  -1   7    0.22    0.46
  -7  -1   7    7.30    0.86
  -5  -1   7    0.46    0.50
  -3  -1   7    1.40    0.52
  -1  -1   7   67.69    2.09
   1  -1   7    3.58    0.62
   3  -1   7   42.61    1.66
   5  -1   7    4.19    0.68
   7  -1   7   29.38    2.20
   9  -1   7    2.61    1.00
  11  -1   7    8.23    1.32
 -20   0   7    1.90    0.79
 -18   0   7   22.43    1.73
 -16   0   7    5.60    1.04
 -14   0   7   38.36    1.47
 -12   0   7   12.69    1.00
 -10   0   7  119.34    2.46
  -8   0   7   24.00    1.32
  -6   0   7   14.15    1.18
  -4   0   7   20.28    1.27
  -2   0   7   43.97    1.71
   0   0   7   51.95    1.79
   2   0   7   35.02    1.44
   4   0   7   79.88    2.43
   6   0   7    1.71    0.55
   8   0   7    1.25    0.54
  10   0   7    1.89    0.86
  12   0   7   13.37    1.35
 -21   1   7    4.60    1.02
 -19   1   7   -0.25    0.55
 -17   1   7   74.37    3.19
 -15   1   7   16.10    1.04
 -13   1   7   75.73    2.19
 -11   1   7    3.22    0.61
  -9   1   7    0.17    0.34
  -7   1   7    7.02    0.67
  -5   1   7    0.27    0.42
  -3   1   7    1.15    0.46
  -1   1   7   66.12    1.75
   1   1   7    2.85    0.63
   3   1   7   44.11    1.76
   5   1   7    5.79    0.78
   7   1   7   36.00    1.56
   9   1   7    2.04    0.53
  11   1   7   10.03    0.89
 -20   2   7    1.55    0.79
 -18   2   7   21.33    1.16
 -16   2   7    3.67    0.61
 -14   2   7   34.82    1.41
 -12   2   7   12.08    0.98
 -10   2   7  101.12    2.59
  -8   2   7   22.27    0.93
  -6   2   7   15.25    0.90
  -4   2   7   17.79    1.27
  -2   2   7   35.83    1.62
   0   2   7   41.42    1.73
   2   2   7   29.70    1.47
   4   2   7   68.16    2.24
   6   2   7    1.45    0.47
   8   2   7    1.06    0.45
  10   2   7    1.03    0.54
  12   2   7    8.66    1.41
 -19   3   7   -0.27    0.61
 -17   3   7   56.11    1.95
 -15   3   7   11.61    1.02
 -13   3   7   55.71    1.87
 -11   3   7    1.39    0.48
  -9   3   7    0.29    0.44
  -7   3   7    4.05    0.69
  -5   3   7    0.26    0.43
  -3   3   7    1.05    0.50
  -1   3   7   52.06    1.41
   1   3   7    1.84    0.43
   3   3   7   34.97    1.18
   5   3   7    2.74    0.59
   7   3   7   26.06    1.28
   9   3   7    3.07    1.02
 -16   4   7    2.91    0.92
 -14   4   7   22.30    1.85
 -12   4   7    8.96    1.36
 -10   4   7   62.48    3.03
  -8   4   7   13.70    1.12
  -6   4   7    7.86    0.87
  -4   4   7    9.74    0.96
  -2   4   7   25.69    1.35
   0   4   7   25.55    1.05
   2   4   7   20.21    1.19
   4   4   7   48.09    1.78
  -7   5   7    2.97    1.00
  -5   5   7   -0.44    0.51
  -3   5   7    0.25    0.74
 -12  -4   8    0.36    0.98
 -10  -4   8   51.59    3.06
  -8  -4   8    9.83    1.65
  -6  -4   8    8.52    1.11
  -4  -4   8    9.31    1.17
  -2  -4   8   20.37    1.63
   0  -4   8    6.68    1.06
 -17  -3   8    1.12    0.92
 -15  -3   8    9.40    1.60
 -13  -3   8   -0.11    0.80
 -11  -3   8   22.90    2.22
  -9  -3   8    5.25    0.86
  -7  -3   8   50.52    2.03
  -5  -3   8   69.54    2.43
  -3  -3   8   11.83    1.19
  -1  -3   8    8.00    1.04
   1  -3   8    2.25    0.78
   3  -3   8    7.76    1.08
   5  -3   8   14.33    1.41
 -18  -2   8    0.73    0.87
 -16  -2   8    5.88    1.24
 -14  -2   8   -0.60    0.72
 -12  -2   8    2.81    1.01
 -10  -2   8   71.53    2.36
  -8  -2   8   13.63    1.18
  -6  -2   8   11.35    1.08
  -4  -2   8   16.89    1.27
  -2  -2   8   36.24    1.59
   0  -2   8    9.79    1.00
   2  -2   8    0.86    0.55
   4  -2   8    5.21    0.87
   6  -2   8   62.01    2.33
   8  -2   8    1.61    1.20
 -19  -1   8   66.92    3.35
 -17  -1   8    1.70    0.91
 -15  -1   8   12.59    1.59
 -13  -1   8    1.39    0.57
 -11  -1   8   34.26    1.62
  -9  -1   8    6.94    0.89
  -7  -1   8   66.30    2.21
  -5  -1   8   98.74    2.76
  -3  -1   8   12.40    1.08
  -1  -1   8   13.62    1.11
   1  -1   8    1.32    0.51
   3  -1   8    8.55    0.88
   5  -1   8   16.96    1.91
   7  -1   8   16.83    1.91
   9  -1   8    0.31    0.56
 -20   0   8   -0.14    0.69
 -18   0   8    1.53    0.84
 -16   0   8    7.79    1.30
 -14   0   8    0.28    0.49
 -12   0   8   -0.01    0.46
 -10   0   8   84.05    2.09
  -8   0   8   17.56    1.08
  -6   0   8   15.05    1.27
  -4   0   8   21.46    1.33
  -2   0   8   47.95    1.80
   0   0   8   12.35    0.86
   2   0   8    0.19    0.45
   4   0   8    5.85    0.80
   6   0   8   70.44    2.32
   8   0   8    1.73    0.61
  10   0   8   61.67    3.12
 -19   1   8   76.60    3.53
 -17   1   8    2.89    0.87
 -15   1   8   10.19    1.00
 -13   1   8    0.00    0.46
 -11   1   8   32.24    1.53
  -9   1   8    7.12    0.74
  -7   1   8   62.58    1.80
  -5   1   8   96.20    2.33
  -3   1   8   14.11    1.25
  -1   1   8   12.46    1.17
   1   1   8    2.69    0.65
   3   1   8    7.46    0.90
   5   1   8   21.56    1.34
   7   1   8   17.21    1.82
   9   1   8    0.01    0.45
 -18   2   8    0.22    0.50
 -16   2   8    6.38    0.87
 -14   2   8   -0.05    0.49
 -12   2   8    0.14    0.50
 -10   2   8   75.03    2.35
  -8   2   8   13.95    0.96
  -6   2   8   11.53    1.15
  -4   2   8   17.41    1.41
  -2   2   8   33.65    1.71
   0   2   8   10.27    1.10
   2   2   8    0.75    0.58
   4   2   8    4.75    0.80
   6   2   8   63.96    2.06
   8   2   8    2.68    0.62
 -15   3   8    7.01    0.90
 -13   3   8   -0.06    0.52
 -11   3   8   24.89    2.00
  -9   3   8    6.48    1.34
  -7   3   8   51.03    2.04
  -5   3   8   70.52    2.45
  -3   3   8   12.58    1.22
  -1   3   8    9.04    0.78
   1   3   8    0.96    0.48
   3   3   8    5.69    0.80
   5   3   8   15.58    1.19
 -10   4   8   52.94    2.99
  -8   4   8    8.49    1.56
  -6   4   8    9.05    1.06
  -4   4   8   13.04    1.24
  -2   4   8   23.54    1.62
   0   4   8    7.47    0.79
   2   4   8   -0.47    0.70
  -9  -3   9    1.76    0.74
  -7  -3   9   12.92    1.19
  -5  -3   9   15.64    1.35
  -3  -3   9    6.69    0.98
  -1  -3   9    5.30    0.91
   1  -3   9   71.95    3.46
 -14  -2   9    0.83    0.95
 -12  -2   9   -0.16    0.82
 -10  -2   9    2.77    0.73
  -8  -2   9    1.70    0.64
  -6  -2   9    2.99    0.73
  -4  -2   9   18.09    1.36
  -2  -2   9   33.10    1.61
   0  -2   9   31.52    1.59
   2  -2   9    3.63    0.79
   4  -2   9   11.85    1.17
 -17  -1   9    0.82    0.91
 -15  -1   9   20.50    2.11
 -13  -1   9   57.02    2.17
 -11  -1   9   38.55    1.80
  -9  -1   9    1.89    0.69
  -7  -1   9   19.65    1.39
  -5  -1   9   29.21    1.49
  -3  -1   9    9.00    0.99
  -1  -1   9    8.60    0.95
   1  -1   9   95.98    2.74
   3  -1   9    5.28    1.20
   5  -1   9    9.68    1.05
   7  -1   9    3.19    1.14
 -18   0   9   -0.70    0.72
 -16   0   9  117.17    4.71
 -14   0   9    0.89    0.62
 -12   0   9    0.29    0.57
 -10   0   9    2.17    0.72
  -8   0   9    3.23    0.61
  -6   0   9    4.51    0.65
  -4   0   9   20.51    1.17
  -2   0   9   41.44    1.41
   0   0   9   37.34    1.70
   2   0   9    3.67    0.71
   4   0   9   12.94    1.19
   6   0   9    5.77    0.85
 -17   1   9    1.07    0.90
 -15   1   9   17.12    1.35
 -13   1   9   54.88    2.16
 -11   1   9   35.81    1.77
  -9   1   9    2.51    0.60
  -7   1   9   16.82    1.12
  -5   1   9   26.92    1.66
  -3   1   9    8.46    1.05
  -1   1   9    9.94    1.11
   1   1   9   94.82    2.90
   3   1   9    3.82    0.77
   5   1   9    6.01    0.89
 -16   2   9  104.58    3.09
 -14   2   9    0.95    0.66
 -12   2   9   -0.40    0.58
 -10   2   9    1.14    1.01
  -8   2   9    1.95    0.74
  -6   2   9    2.07    0.83
  -4   2   9   18.96    1.57
  -2   2   9   33.04    1.82
   0   2   9   32.12    1.73
   2   2   9    2.64    0.77
   4   2   9   12.73    1.69
 -11   3   9   30.66    2.47
  -9   3   9    1.81    1.10
  -7   3   9   12.46    1.32
  -5   3   9   19.40    1.62
  -3   3   9    7.17    1.11
  -1   3   9    7.36    0.79
   1   3   9   69.78    2.26
 -10  -2  10   47.38    2.90
  -8  -2  10   54.83    2.13
  -6  -2  10    2.23    0.70
  -4  -2  10    1.31    0.64
  -2  -2  10    0.38    0.80
   0  -2  10    1.77    0.98
 -13  -1  10   35.69    2.52
 -11  -1  10    0.63    0.67
  -9  -1  10   13.14    1.26
  -7  -1  10    3.26    0.78
  -5  -1  10   37.23    1.70
  -3  -1  10    0.29    0.52
  -1  -1  10    0.17    0.54
   1  -1  10    1.11    0.88
 -14   0  10    4.39    0.88
 -12   0  10    9.34    1.12
 -10   0  10   56.52    3.11
  -8   0  10   68.31    2.00
  -6   0  10    2.87    0.61
  -4   0  10    1.21    0.65
  -2   0  10    0.25    0.56
   0   0  10    4.59    0.84
 -15   1  10   -0.71    0.95
 -13   1  10   35.92    1.87
 -11   1  10    0.95    0.74
  -9   1  10   12.90    1.33
  -7   1  10    3.11    0.84
  -5   1  10   37.14    1.86
  -3   1  10    0.45    0.63
  -1   1  10    0.20    0.62
   1   1  10    1.88    1.02
 -10   2  10   40.26    3.01
  -8   2  10   51.99    3.32
  -6   2  10    2.77    0.90
  -4   2  10    1.49    0.81
  -2   2  10    0.41    0.71
  -8   0  11    0.15    0.63
   0   0   0    0.00    0.00
;
_shelx_hkl_checksum              88043
#END Tags that were not found in dictionaries
loop_
_space_group_symop_operation_xyz
'x, y, z'
'-x, y, -z'
'x+1/2, y+1/2, z'
'-x+1/2, y+1/2, -z'
'-x, -y, -z'
'x, -y, z'
'-x+1/2, -y+1/2, -z'
'x+1/2, -y+1/2, z'
loop_
_atom_site_label
_atom_site_type_symbol
_atom_site_fract_x
_atom_site_fract_y
_atom_site_fract_z
_atom_site_U_iso_or_equiv
_atom_site_adp_type
_atom_site_occupancy
_atom_site_site_symmetry_order
_atom_site_calc_flag
_atom_site_refinement_flags_posn
_atom_site_refinement_flags_adp
_atom_site_refinement_flags_occupancy
Nd1 Nd 0.34754(2) 0.0000 0.06215(4) 0.00712(7) Uani 1 2 d S T P
Nd2 Nd 0.58823(2) 0.0000 0.37846(4) 0.00687(7) Uani 1 2 d S T P
Fe Fe 0.21763(4) 0.0000 0.62762(10) 0.00743(14) Uani 1 2 d S T P
In In 0.0000 0.0000 0.0000 0.00872(15) Uani 0.987(2) 4 d S T .
Ge1 Ge 0.06590(3) 0.0000 0.65421(7) 0.00701(11) Uani 1 2 d S T P
Ge2 Ge 0.20913(3) 0.0000 0.27565(7) 0.00746(11) Uani 1 2 d S T P
loop_
_atom_site_aniso_label
_atom_site_aniso_U_11
_atom_site_aniso_U_22
_atom_site_aniso_U_33
_atom_site_aniso_U_23
_atom_site_aniso_U_13
_atom_site_aniso_U_12
Nd1 0.00718(12) 0.00595(12) 0.00852(11) 0.000 0.00274(8) 0.000
Nd2 0.00697(12) 0.00512(12) 0.00940(12) 0.000 0.00376(9) 0.000
Fe 0.0068(3) 0.0058(3) 0.0102(3) 0.000 0.0034(2) 0.000
In 0.0094(2) 0.0071(2) 0.0107(2) 0.000 0.00460(17) 0.000
Ge1 0.0069(2) 0.0057(2) 0.0090(2) 0.000 0.00317(18) 0.000
Ge2 0.0090(2) 0.0048(2) 0.0097(2) 0.000 0.00448(18) 0.000
loop_
_atom_type_symbol
_atom_type_description
_atom_type_scat_dispersion_real
_atom_type_scat_dispersion_imag
_atom_type_scat_source
Fe Fe 0.3463 0.8444 'International Tables Vol C Tables 4.2.6.8 and 6.1.1.4'
Ge Ge 0.1547 1.8001 'International Tables Vol C Tables 4.2.6.8 and 6.1.1.4'
In In -0.7276 1.3100 'International Tables Vol C Tables 4.2.6.8 and 6.1.1.4'
Nd Nd -0.1943 3.0179 'International Tables Vol C Tables 4.2.6.8 and 6.1.1.4'
loop_
_geom_angle_atom_site_label_1
_geom_angle_atom_site_label_2
_geom_angle_atom_site_label_3
_geom_angle
_geom_angle_site_symmetry_1
_geom_angle_site_symmetry_3
Ge1 Nd1 Ge1 91.417(16) 7_556 7_546
Ge1 Nd1 Ge2 84.999(14) 7_556 .
Ge1 Nd1 Ge2 84.999(14) 7_546 .
Ge1 Nd1 Ge2 167.400(16) 7_556 7_545
Ge1 Nd1 Ge2 90.257(11) 7_546 7_545
Ge2 Nd1 Ge2 107.589(12) . 7_545
Ge1 Nd1 Ge2 90.257(11) 7_556 7
Ge1 Nd1 Ge2 167.400(16) 7_546 7
Ge2 Nd1 Ge2 107.589(12) . 7
Ge2 Nd1 Ge2 85.463(15) 7_545 7
Ge1 Nd1 Fe 134.287(8) 7_556 1_554
Ge1 Nd1 Fe 134.287(8) 7_546 1_554
Ge2 Nd1 Fe 97.883(18) . 1_554
Ge2 Nd1 Fe 45.201(9) 7_545 1_554
Ge2 Nd1 Fe 45.201(9) 7 1_554
Ge1 Nd1 In 55.138(10) 7_556 3
Ge1 Nd1 In 110.046(12) 7_546 3
Ge2 Nd1 In 136.508(6) . 3
Ge2 Nd1 In 112.696(12) 7_545 3
Ge2 Nd1 In 61.251(9) 7 3
Fe Nd1 In 98.887(11) 1_554 3
Ge1 Nd1 In 110.046(12) 7_556 3_545
Ge1 Nd1 In 55.138(10) 7_546 3_545
Ge2 Nd1 In 136.508(6) . 3_545
Ge2 Nd1 In 61.251(9) 7_545 3_545
Ge2 Nd1 In 112.696(12) 7 3_545
Fe Nd1 In 98.887(12) 1_554 3_545
In Nd1 In 79.391(8) 3 3_545
Ge1 Nd1 Fe 44.263(15) 7_556 7_556
Ge1 Nd1 Fe 99.888(15) 7_546 7_556
Ge2 Nd1 Fe 43.608(10) . 7_556
Ge2 Nd1 Fe 147.320(16) 7_545 7_556
Ge2 Nd1 Fe 90.001(13) 7 7_556
Fe Nd1 Fe 113.468(14) 1_554 7_556
In Nd1 Fe 92.969(10) 3 7_556
In Nd1 Fe 147.569(14) 3_545 7_556
Ge1 Nd1 Fe 99.888(15) 7_556 7_546
Ge1 Nd1 Fe 44.263(15) 7_546 7_546
Ge2 Nd1 Fe 43.608(10) . 7_546
Ge2 Nd1 Fe 90.001(13) 7_545 7_546
Ge2 Nd1 Fe 147.320(16) 7 7_546
Fe Nd1 Fe 113.468(14) 1_554 7_546
In Nd1 Fe 147.569(14) 3 7_546
In Nd1 Fe 92.969(9) 3_545 7_546
Fe Nd1 Fe 76.661(16) 7_556 7_546
Ge1 Nd1 Nd2 113.876(12) 7_556 5_655
Ge1 Nd1 Nd2 113.876(12) 7_546 5_655
Ge2 Nd1 Nd2 151.747(14) . 5_655
Ge2 Nd1 Nd2 54.330(10) 7_545 5_655
Ge2 Nd1 Nd2 54.330(10) 7 5_655
Fe Nd1 Nd2 53.864(14) 1_554 5_655
In Nd1 Nd2 58.824(5) 3 5_655
In Nd1 Nd2 58.824(5) 3_545 5_655
Fe Nd1 Nd2 141.322(8) 7_556 5_655
Fe Nd1 Nd2 141.322(8) 7_546 5_655
Ge1 Nd1 Nd1 140.552(16) 7_556 7_545
Ge1 Nd1 Nd1 86.089(10) 7_546 7_545
Ge2 Nd1 Nd1 55.555(10) . 7_545
Ge2 Nd1 Nd1 52.034(10) 7_545 7_545
Ge2 Nd1 Nd1 100.457(13) 7 7_545
Fe Nd1 Nd1 60.254(12) 1_554 7_545
In Nd1 Nd1 159.034(12) 3 7_545
In Nd1 Nd1 100.596(6) 3_545 7_545
Fe Nd1 Nd1 97.431(14) 7_556 7_545
Fe Nd1 Nd1 53.214(12) 7_546 7_545
Nd2 Nd1 Nd1 102.947(10) 5_655 7_545
Ge1 Nd2 Ge1 91.008(16) 3 3_545
Ge1 Nd2 Fe 108.608(14) 3 5_656
Ge1 Nd2 Fe 108.608(14) 3_545 5_656
Ge1 Nd2 Ge2 82.143(12) 3 3
Ge1 Nd2 Ge2 148.035(16) 3_545 3
Fe Nd2 Ge2 46.380(9) 5_656 3
Ge1 Nd2 Ge2 148.035(16) 3 3_545
Ge1 Nd2 Ge2 82.143(12) 3_545 3_545
Fe Nd2 Ge2 46.380(9) 5_656 3_545
Ge2 Nd2 Ge2 87.339(15) 3 3_545
Ge1 Nd2 Fe 47.320(15) 3 3
Ge1 Nd2 Fe 107.282(16) 3_545 3
Fe Nd2 Fe 61.342(17) 5_656 3
Ge2 Nd2 Fe 46.917(16) 3 3
Ge2 Nd2 Fe 105.115(16) 3_545 3
Ge1 Nd2 Fe 107.282(16) 3 3_545
Ge1 Nd2 Fe 47.320(15) 3_545 3_545
Fe Nd2 Fe 61.342(17) 5_656 3_545
Ge2 Nd2 Fe 105.115(16) 3 3_545
Ge2 Nd2 Fe 46.917(16) 3_545 3_545
Fe Nd2 Fe 86.224(19) 3 3_545
Ge1 Nd2 Ge1 106.896(10) 3 7_546
Ge1 Nd2 Ge1 48.468(17) 3_545 7_546
Fe Nd2 Ge1 137.683(7) 5_656 7_546
Ge2 Nd2 Ge1 162.624(16) 3 7_546
Ge2 Nd2 Ge1 91.786(11) 3_545 7_546
Fe Nd2 Ge1 148.800(17) 3 7_546
Fe Nd2 Ge1 86.653(13) 3_545 7_546
Ge1 Nd2 Ge1 48.468(17) 3 7_556
Ge1 Nd2 Ge1 106.896(10) 3_545 7_556
Fe Nd2 Ge1 137.683(7) 5_656 7_556
Ge2 Nd2 Ge1 91.786(11) 3 7_556
Ge2 Nd2 Ge1 162.624(16) 3_545 7_556
Fe Nd2 Ge1 86.653(13) 3 7_556
Fe Nd2 Ge1 148.800(17) 3_545 7_556
Ge1 Nd2 Ge1 83.902(14) 7_546 7_556
Ge1 Nd2 In 150.362(13) 3 3_545
Ge1 Nd2 In 88.516(9) 3_545 3_545
Fe Nd2 In 99.572(12) 5_656 3_545
Ge2 Nd2 In 112.489(12) 3 3_545
Ge2 Nd2 In 61.056(10) 3_545 3_545
Fe Nd2 In 158.008(15) 3 3_545
Fe Nd2 In 93.994(11) 3_545 3_545
Ge1 Nd2 In 52.913(9) 7_546 3_545
Ge1 Nd2 In 103.640(11) 7_556 3_545
Ge1 Nd2 In 88.516(10) 3 3
Ge1 Nd2 In 150.362(13) 3_545 3
Fe Nd2 In 99.572(12) 5_656 3
Ge2 Nd2 In 61.056(10) 3 3
Ge2 Nd2 In 112.489(12) 3_545 3
Fe Nd2 In 93.994(11) 3 3
Fe Nd2 In 158.008(15) 3_545 3
Ge1 Nd2 In 103.640(11) 7_546 3
Ge1 Nd2 In 52.913(9) 7_556 3
In Nd2 In 77.719(7) 3_545 3
Ge1 Nd2 Ge2 77.964(13) 3 5_656
Ge1 Nd2 Ge2 77.964(13) 3_545 5_656
Fe Nd2 Ge2 44.393(16) 5_656 5_656
Ge2 Nd2 Ge2 70.074(13) 3 5_656
Ge2 Nd2 Ge2 70.074(14) 3_545 5_656
Fe Nd2 Ge2 43.304(9) 3 5_656
Fe Nd2 Ge2 43.304(9) 3_545 5_656
Ge1 Nd2 Ge2 125.742(11) 7_546 5_656
Ge1 Nd2 Ge2 125.742(11) 7_556 5_656
In Nd2 Ge2 130.618(7) 3_545 5_656
In Nd2 Ge2 130.618(7) 3 5_656
Ge2 Fe Ge2 122.98(3) 7_556 7_546
Ge2 Fe Ge1 111.81(2) 7_556 .
Ge2 Fe Ge1 111.81(2) 7_546 .
Ge2 Fe Ge2 99.66(2) 7_556 .
Ge2 Fe Ge2 99.66(2) 7_546 .
Ge1 Fe Ge2 108.32(3) . .
Ge2 Fe Nd2 67.116(18) 7_556 5_656
Ge2 Fe Nd2 67.116(18) 7_546 5_656
Ge1 Fe Nd2 176.54(3) . 5_656
Ge2 Fe Nd2 75.14(2) . 5_656
Ge2 Fe Nd2 159.95(3) 7_556 3_445
Ge2 Fe Nd2 74.826(13) 7_546 3_445
Ge1 Fe Nd2 63.546(15) . 3_445
Ge2 Fe Nd2 65.861(16) . 3_445
Nd2 Fe Nd2 118.657(17) 5_656 3_445
Ge2 Fe Nd2 74.826(13) 7_556 3_455
Ge2 Fe Nd2 159.95(3) 7_546 3_455
Ge1 Fe Nd2 63.546(15) . 3_455
Ge2 Fe Nd2 65.861(16) . 3_455
Nd2 Fe Nd2 118.657(17) 5_656 3_455
Nd2 Fe Nd2 86.224(19) 3_445 3_455
Ge2 Fe Nd1 66.769(18) 7_556 1_556
Ge2 Fe Nd1 66.769(18) 7_546 1_556
Ge1 Fe Nd1 106.83(3) . 1_556
Ge2 Fe Nd1 144.84(3) . 1_556
Nd2 Fe Nd1 69.706(16) 5_656 1_556
Nd2 Fe Nd1 133.044(13) 3_445 1_556
Nd2 Fe Nd1 133.044(13) 3_455 1_556
Ge2 Fe Nd1 58.636(16) 7_556 7_556
Ge2 Fe Nd1 124.72(3) 7_546 7_556
Ge1 Fe Nd1 57.891(14) . 7_556
Ge2 Fe Nd1 135.624(15) . 7_556
Nd2 Fe Nd1 119.719(17) 5_656 7_556
Nd2 Fe Nd1 121.38(2) 3_445 7_556
Nd2 Fe Nd1 70.913(11) 3_455 7_556
Nd1 Fe Nd1 66.531(14) 1_556 7_556
Ge2 Fe Nd1 124.72(3) 7_556 7_546
Ge2 Fe Nd1 58.636(16) 7_546 7_546
Ge1 Fe Nd1 57.891(14) . 7_546
Ge2 Fe Nd1 135.624(15) . 7_546
Nd2 Fe Nd1 119.719(17) 5_656 7_546
Nd2 Fe Nd1 70.913(11) 3_445 7_546
Nd2 Fe Nd1 121.38(2) 3_455 7_546
Nd1 Fe Nd1 66.531(14) 1_556 7_546
Nd1 Fe Nd1 76.662(16) 7_556 7_546
Ge1 In Ge1 180.000(16) 5_556 1_554
Ge1 In Nd1 56.210(7) 5_556 3_445
Ge1 In Nd1 123.790(7) 1_554 3_445
Ge1 In Nd1 123.790(7) 5_556 7
Ge1 In Nd1 56.210(7) 1_554 7
Nd1 In Nd1 180.0 3_445 7
Ge1 In Nd1 123.790(7) 5_556 7_545
Ge1 In Nd1 56.210(7) 1_554 7_545
Nd1 In Nd1 100.610(8) 3_445 7_545
Nd1 In Nd1 79.390(8) 7 7_545
Ge1 In Nd1 56.210(7) 5_556 3_455
Ge1 In Nd1 123.790(7) 1_554 3_455
Nd1 In Nd1 79.390(8) 3_445 3_455
Nd1 In Nd1 100.610(8) 7 3_455
Nd1 In Nd1 180.0 7_545 3_455
Ge1 In Nd2 59.899(8) 5_556 3_455
Ge1 In Nd2 120.101(8) 1_554 3_455
Nd1 In Nd2 116.012(6) 3_445 3_455
Nd1 In Nd2 63.988(7) 7 3_455
Nd1 In Nd2 111.279(7) 7_545 3_455
Nd1 In Nd2 68.721(6) 3_455 3_455
Ge1 In Nd2 120.101(8) 5_556 7_545
Ge1 In Nd2 59.899(8) 1_554 7_545
Nd1 In Nd2 63.988(7) 3_445 7_545
Nd1 In Nd2 116.012(6) 7 7_545
Nd1 In Nd2 68.721(6) 7_545 7_545
Nd1 In Nd2 111.279(7) 3_455 7_545
Nd2 In Nd2 180.0 3_455 7_545
Ge1 In Nd2 59.899(8) 5_556 3_445
Ge1 In Nd2 120.101(8) 1_554 3_445
Nd1 In Nd2 68.721(6) 3_445 3_445
Nd1 In Nd2 111.279(7) 7 3_445
Nd1 In Nd2 63.989(7) 7_545 3_445
Nd1 In Nd2 116.011(6) 3_455 3_445
Nd2 In Nd2 77.719(7) 3_455 3_445
Nd2 In Nd2 102.281(7) 7_545 3_445
Ge1 In Nd2 120.101(8) 5_556 7
Ge1 In Nd2 59.899(8) 1_554 7
Nd1 In Nd2 111.279(7) 3_445 7
Nd1 In Nd2 68.721(6) 7 7
Nd1 In Nd2 116.011(6) 7_545 7
Nd1 In Nd2 63.989(7) 3_455 7
Nd2 In Nd2 102.281(7) 3_455 7
Nd2 In Nd2 77.719(7) 7_545 7
Nd2 In Nd2 180.0 3_445 7
Fe Ge1 Ge1 120.07(3) . 5_556
Fe Ge1 In 131.03(2) . 1_556
Ge1 Ge1 In 108.89(3) 5_556 1_556
Fe Ge1 Nd1 77.846(16) . 7_556
Ge1 Ge1 Nd1 132.976(10) 5_556 7_556
In Ge1 Nd1 68.653(12) 1_556 7_556
Fe Ge1 Nd1 77.846(16) . 7_546
Ge1 Ge1 Nd1 132.976(10) 5_556 7_546
In Ge1 Nd1 68.653(12) 1_556 7_546
Nd1 Ge1 Nd1 91.417(16) 7_556 7_546
Fe Ge1 Nd2 69.134(15) . 3_445
Ge1 Ge1 Nd2 69.886(16) 5_556 3_445
In Ge1 Nd2 133.563(9) 1_556 3_445
Nd1 Ge1 Nd2 146.87(2) 7_556 3_445
Nd1 Ge1 Nd2 79.417(9) 7_546 3_445
Fe Ge1 Nd2 69.134(15) . 3_455
Ge1 Ge1 Nd2 69.886(16) 5_556 3_455
In Ge1 Nd2 133.563(9) 1_556 3_455
Nd1 Ge1 Nd2 79.417(9) 7_556 3_455
Nd1 Ge1 Nd2 146.87(2) 7_546 3_455
Nd2 Ge1 Nd2 91.007(16) 3_445 3_455
Fe Ge1 Nd2 137.162(8) . 7_546
Ge1 Ge1 Nd2 61.646(15) 5_556 7_546
In Ge1 Nd2 67.188(10) 1_556 7_546
Nd1 Ge1 Nd2 135.691(19) 7_556 7_546
Nd1 Ge1 Nd2 76.030(9) 7_546 7_546
Nd2 Ge1 Nd2 73.105(10) 3_445 7_546
Nd2 Ge1 Nd2 131.532(17) 3_455 7_546
Fe Ge1 Nd2 137.162(8) . 7_556
Ge1 Ge1 Nd2 61.646(15) 5_556 7_556
In Ge1 Nd2 67.188(11) 1_556 7_556
Nd1 Ge1 Nd2 76.030(9) 7_556 7_556
Nd1 Ge1 Nd2 135.690(19) 7_546 7_556
Nd2 Ge1 Nd2 131.532(17) 3_445 7_556
Nd2 Ge1 Nd2 73.105(10) 3_455 7_556
Nd2 Ge1 Nd2 83.900(14) 7_546 7_556
Fe Ge2 Fe 122.98(3) 7_556 7_546
Fe Ge2 Fe 80.34(2) 7_556 .
Fe Ge2 Fe 80.34(2) 7_546 .
Fe Ge2 Nd1 77.75(2) 7_556 .
Fe Ge2 Nd1 77.75(2) 7_546 .
Fe Ge2 Nd1 133.04(3) . .
Fe Ge2 Nd2 144.57(3) 7_556 3_445
Fe Ge2 Nd2 66.503(17) 7_546 3_445
Fe Ge2 Nd2 67.221(15) . 3_445
Nd1 Ge2 Nd2 135.300(8) . 3_445
Fe Ge2 Nd2 66.503(17) 7_556 3_455
Fe Ge2 Nd2 144.57(3) 7_546 3_455
Fe Ge2 Nd2 67.221(15) . 3_455
Nd1 Ge2 Nd2 135.300(8) . 3_455
Nd2 Ge2 Nd2 87.341(15) 3_445 3_455
Fe Ge2 Nd1 144.93(2) 7_556 7_545
Fe Ge2 Nd1 68.031(17) 7_546 7_545
Fe Ge2 Nd1 134.073(11) . 7_545
Nd1 Ge2 Nd1 72.410(12) . 7_545
Nd2 Ge2 Nd1 69.910(9) 3_445 7_545
Nd2 Ge2 Nd1 126.414(18) 3_455 7_545
Fe Ge2 Nd1 68.031(17) 7_556 7
Fe Ge2 Nd1 144.93(2) 7_546 7
Fe Ge2 Nd1 134.072(11) . 7
Nd1 Ge2 Nd1 72.410(12) . 7
Nd2 Ge2 Nd1 126.414(18) 3_445 7
Nd2 Ge2 Nd1 69.910(9) 3_455 7
Nd1 Ge2 Nd1 85.463(15) 7_545 7
Fe Ge2 Nd2 61.869(17) 7_556 5_656
Fe Ge2 Nd2 61.869(17) 7_546 5_656
Fe Ge2 Nd2 60.47(2) . 5_656
Nd1 Ge2 Nd2 72.572(14) . 5_656
Nd2 Ge2 Nd2 109.925(13) 3_445 5_656
Nd2 Ge2 Nd2 109.925(13) 3_455 5_656
Nd1 Ge2 Nd2 123.247(12) 7_545 5_656
Nd1 Ge2 Nd2 123.246(12) 7 5_656
loop_
_geom_bond_atom_site_label_1
_geom_bond_atom_site_label_2
_geom_bond_distance
_geom_bond_site_symmetry_2
Nd1 Ge1 3.0108(4) 7_556
Nd1 Ge1 3.0108(4) 7_546
Nd1 Ge2 3.0362(6) .
Nd1 Ge2 3.1760(4) 7_545
Nd1 Ge2 3.1760(4) 7
Nd1 Fe 3.2053(7) 1_554
Nd1 In 3.3742(3) 3
Nd1 In 3.3742(3) 3_545
Nd1 Fe 3.4749(6) 7_556
Nd1 Fe 3.4749(6) 7_546
Nd1 Nd2 3.6080(4) 5_655
Nd1 Nd1 3.6711(5) 7_545
Nd2 Ge1 3.0213(4) 3
Nd2 Ge1 3.0213(4) 3_545
Nd2 Fe 3.1068(7) 5_656
Nd2 Ge2 3.1211(4) 3
Nd2 Ge2 3.1211(4) 3_545
Nd2 Fe 3.1534(5) 3
Nd2 Fe 3.1534(5) 3_545
Nd2 Ge1 3.2238(4) 7_546
Nd2 Ge1 3.2238(4) 7_556
Nd2 In 3.4349(3) 3_545
Nd2 In 3.4349(3) 3
Nd2 Ge2 3.4511(6) 5_656
Fe Ge2 2.4525(4) 7_556
Fe Ge2 2.4525(4) 7_546
Fe Ge1 2.4809(8) .
Fe Ge2 2.4980(9) .
Fe Nd2 3.1068(7) 5_656
Fe Nd2 3.1534(5) 3_445
Fe Nd2 3.1534(5) 3_455
Fe Nd1 3.2052(7) 1_556
Fe Nd1 3.4748(6) 7_556
Fe Nd1 3.4748(6) 7_546
In Ge1 2.9726(5) 5_556
In Ge1 2.9726(5) 1_554
In Nd1 3.3742(3) 3_445
In Nd1 3.3742(3) 7
In Nd1 3.3742(3) 7_545
In Nd1 3.3742(3) 3_455
In Nd2 3.4349(3) 3_455
In Nd2 3.4349(3) 7_545
In Nd2 3.4349(3) 3_445
In Nd2 3.4349(3) 7
Ge1 Ge1 2.5701(10) 5_556
Ge1 In 2.9726(5) 1_556
Ge1 Nd1 3.0108(4) 7_556
Ge1 Nd1 3.0108(4) 7_546
Ge1 Nd2 3.0213(4) 3_445
Ge1 Nd2 3.0213(4) 3_455
Ge1 Nd2 3.2239(4) 7_546
Ge1 Nd2 3.2239(4) 7_556
Ge2 Fe 2.4525(4) 7_556
Ge2 Fe 2.4525(4) 7_546
Ge2 Nd2 3.1210(4) 3_445
Ge2 Nd2 3.1210(4) 3_455
Ge2 Nd1 3.1760(4) 7_545
Ge2 Nd1 3.1760(4) 7
Ge2 Nd2 3.4511(6) 5_656
