#------------------------------------------------------------------------------
#$Date: 2016-03-24 00:14:39 +0200 (Thu, 24 Mar 2016) $
#$Revision: 179528 $
#$URL: svn://www.crystallography.net/cod/cif/4/34/25/4342572.cif $
#------------------------------------------------------------------------------
#
# This file is available in the Crystallography Open Database (COD),
# http://www.crystallography.net/
#
# All data on this site have been placed in the public domain by the
# contributors.
#
data_4342572
loop_
_publ_author_name
'Oliynyk, Anton O.'
'Stoyko, Stanislav S.'
'Mar, Arthur'
_publ_section_title
;
 Many Metals Make the Cut: Quaternary Rare-Earth Germanides RE4M2InGe4 (M
 = Fe, Co, Ni, Ru, Rh, Ir) and RE4RhInGe4 Derived from Excision of Slabs
 in RE2InGe2.
;
_journal_issue                   6
_journal_name_full               'Inorganic chemistry'
_journal_page_first              2780
_journal_page_last               2792
_journal_paper_doi               10.1021/ic502955h
_journal_volume                  54
_journal_year                    2015
_chemical_formula_structural     'Pr4 Ru2 In Ge4'
_chemical_formula_sum            'Ge4 In Pr4 Ru2'
_chemical_formula_weight         1170.96
_chemical_name_common
'praseodymium ruthenium indium germanide (4/2/1/4)'
_chemical_name_systematic
'praseodymium ruthenium indium germanide (4/2/1/4)'
_space_group_crystal_system      monoclinic
_space_group_IT_number           12
_space_group_name_Hall           '-C 2y'
_space_group_name_H-M_alt        'C 1 2/m 1'
_symmetry_space_group_name_Hall  '-C 2y'
_symmetry_space_group_name_H-M   'C 1 2/m 1'
_atom_sites_solution_primary     direct
_atom_sites_solution_secondary   difmap
_audit_creation_method           SHELXL-2013
_cell_angle_alpha                90
_cell_angle_beta                 106.254(4)
_cell_angle_gamma                90
_cell_formula_units_Z            2
_cell_length_a                   16.083(5)
_cell_length_b                   4.3605(13)
_cell_length_c                   7.190(2)
_cell_measurement_reflns_used    806
_cell_measurement_temperature    173(2)
_cell_measurement_theta_max      29.27
_cell_measurement_theta_min      6.13
_cell_volume                     484.1(2)
_computing_cell_refinement       'Bruker SAINT 8.27B (Bruker, 2011)'
_computing_data_collection       'Bruker APEX 2 (Bruker, 2008)'
_computing_data_reduction        'Bruker SAINT 8.27B'
_computing_molecular_graphics    'ATOMS 5.1 (Dowty, 1999)'
_computing_publication_material  'Bruker SHELXTL'
_computing_structure_refinement  'Bruker SHELXTL'
_computing_structure_solution    'Bruker SHELXTL'
_diffrn_ambient_temperature      173(2)
_diffrn_measured_fraction_theta_full 1.000
_diffrn_measured_fraction_theta_max 0.976
_diffrn_measurement_device_type  'Bruker PLATFORM/SMART APEX II CCD'
_diffrn_measurement_method       '\w and \f scans'
_diffrn_radiation_type           MoK\a
_diffrn_radiation_wavelength     0.71073
_diffrn_reflns_av_R_equivalents  0.0609
_diffrn_reflns_av_unetI/netI     0.0513
_diffrn_reflns_Laue_measured_fraction_full 1.000
_diffrn_reflns_Laue_measured_fraction_max 0.976
_diffrn_reflns_limit_h_max       24
_diffrn_reflns_limit_h_min       -24
_diffrn_reflns_limit_k_max       6
_diffrn_reflns_limit_k_min       -6
_diffrn_reflns_limit_l_max       10
_diffrn_reflns_limit_l_min       -11
_diffrn_reflns_number            3430
_diffrn_reflns_point_group_measured_fraction_full 1.000
_diffrn_reflns_point_group_measured_fraction_max 0.976
_diffrn_reflns_theta_full        25.242
_diffrn_reflns_theta_max         33.075
_diffrn_reflns_theta_min         2.638
_diffrn_source                   'fine-focus sealed tube'
_exptl_absorpt_coefficient_mu    37.195
_exptl_absorpt_correction_T_max  0.6326
_exptl_absorpt_correction_T_min  0.0590
_exptl_absorpt_correction_type   numerical
_exptl_absorpt_process_details   'Bruker SHELXTL (Sheldrick, 2013)'
_exptl_crystal_colour            grey
_exptl_crystal_density_diffrn    8.033
_exptl_crystal_density_method    'not measured'
_exptl_crystal_description       irregular
_exptl_crystal_F_000             1002
_exptl_crystal_size_max          0.118
_exptl_crystal_size_mid          0.026
_exptl_crystal_size_min          0.020
_refine_diff_density_max         3.714
_refine_diff_density_min         -2.322
_refine_diff_density_rms         0.646
_refine_ls_extinction_method     none
_refine_ls_goodness_of_fit_ref   1.018
_refine_ls_hydrogen_treatment    undef
_refine_ls_matrix_type           full
_refine_ls_number_parameters     36
_refine_ls_number_reflns         996
_refine_ls_number_restraints     0
_refine_ls_restrained_S_all      1.018
_refine_ls_R_factor_all          0.0510
_refine_ls_R_factor_gt           0.0349
_refine_ls_shift/su_max          0.000
_refine_ls_shift/su_mean         0.000
_refine_ls_structure_factor_coef Fsqd
_refine_ls_weighting_details
'w=1/[\s^2^(Fo^2^)+(0.0388P)^2^] where P=(Fo^2^+2Fc^2^)/3'
_refine_ls_weighting_scheme      calc
_refine_ls_wR_factor_gt          0.0749
_refine_ls_wR_factor_ref         0.0812
_reflns_Friedel_coverage         0.000
_reflns_number_gt                783
_reflns_number_total             996
_reflns_threshold_expression     'I > 2\s(I)'
_cod_data_source_file            ic502955h_si_004.cif
_cod_data_source_block           Pr4Ru2InGe4
_cod_depositor_comments
'Adding full bibliography for 4342570--4342590.cif.'
_cod_database_code               4342572
#BEGIN Tags that were not found in dictionaries:
_shelx_space_group_comment
;
The symmetry employed for this shelxl refinement is uniquely defined
by the following loop, which should always be used as a source of
symmetry information in preference to the above space-group names.
They are only intended as comments.
;
_shelx_estimated_absorpt_t_min   0.097
_shelx_estimated_absorpt_t_max   0.523
_shelxl_version_number           2013-4
_shelx_res_file
;
TITL Pr4Ru2InGe4 C2/m lsf final refinement
CELL 0.71073  16.08320   4.36050   7.19010  90.0000 106.2537  90.0000
ZERR    2.00   0.00480   0.00130   0.00210   0.0000   0.0043   0.0000
LATT  7
SYMM -X, Y, -Z
SFAC GE RU IN PR
UNIT 8 4 2 8
TEMP -100
SIZE 0.02 0.026 0.118

L.S. 4
ACTA

WGHT    0.038800
FVAR       0.03823
PR1   4    0.349467    0.000000    0.062405    10.50000    0.00701    0.00719 =
         0.01017    0.00000    0.00270    0.00000
PR2   4    0.588300    0.000000    0.380070    10.50000    0.00625    0.00532 =
         0.01147    0.00000    0.00344    0.00000
RU    2    0.218330    0.000000    0.627142    10.50000    0.00615    0.00533 =
         0.01043    0.00000    0.00288    0.00000
IN    3    0.000000    0.000000    0.000000     0.23986    0.00966    0.00799 =
         0.01149    0.00000    0.00419    0.00000
GE1   1    0.065228    0.000000    0.654439    10.50000    0.00603    0.00738 =
         0.01048    0.00000    0.00251    0.00000
GE2   1    0.210136    0.000000    0.274707    10.50000    0.00954    0.00550 =
         0.01183    0.00000    0.00419    0.00000
HKLF 4

REM  Pr4Ru2InGe4 C2/m lsf final refinement
REM R1 =  0.0349 for     783 Fo > 4sig(Fo)  and  0.0510 for all     996 data
REM     36 parameters refined using      0 restraints

END

WGHT      0.0388      0.0000

REM Highest difference peak  3.714,  deepest hole -2.322,  1-sigma level  0.646
Q1    1   0.3206  0.0000 -0.0539  10.50000  0.05    3.71
Q2    1   0.6201  0.0000  0.4997  10.50000  0.05    3.51
Q3    1   0.5644  0.0000  0.2523  10.50000  0.05    3.50
Q4    1   0.1904  0.0000  0.5286  10.50000  0.05    2.96
Q5    1   0.0348  0.0000  0.1014  10.50000  0.05    2.90
Q6    1   0.3838  0.0000  0.0151  10.50000  0.05    2.88
Q7    1   0.3901  0.0000  0.1947  10.50000  0.05    2.86
Q8    1   0.0422  0.0000  0.5354  10.50000  0.05    2.67
Q9    1   0.4113  0.0000  0.2957  10.50000  0.05    2.47
Q10   1   0.2160  0.0000  0.8656  10.50000  0.05    2.37
Q11   1   0.6169  0.0000  0.3145  10.50000  0.05    2.29
Q12   1   0.3187  0.0000  0.1263  10.50000  0.05    2.28
Q13   1   0.2329  0.0000  0.4658  10.50000  0.05    2.25
Q14   1   0.2684  0.0000  0.7132  10.50000  0.05    2.18
Q15   1   0.0817  0.0000 -0.0253  10.50000  0.05    2.16
Q16   1   0.1705  0.0000  0.3234  10.50000  0.05    1.96
Q17   1   0.1827  0.0000  0.1689  10.50000  0.05    1.93
Q18   1   0.3501  0.0000  0.2449  10.50000  0.05    1.89
Q19   1   0.2872  0.1067  0.0687  11.00000  0.05    1.89
Q20   1   0.1098  0.0000  0.7560  10.50000  0.05    1.86
;
_shelx_res_checksum              62609
_shelx_hkl_file
;
   8   0 -11    1.36    2.43
   2  -2 -10    0.43    1.67
   4  -2 -10    5.14    1.74
   6  -2 -10   -2.46    1.47
   8  -2 -10   19.86    2.60
  10  -2 -10   43.56    3.64
  12  -2 -10    5.59    2.89
  -1  -1 -10    0.86    1.44
   1  -1 -10    0.32    1.31
   3  -1 -10    0.68    1.40
   5  -1 -10   27.53    2.81
   7  -1 -10    1.24    1.35
   9  -1 -10   10.38    2.00
  11  -1 -10    1.52    1.51
  13  -1 -10   17.90    2.49
  15  -1 -10    2.72    2.58
  -2   0 -10    5.30    2.58
   0   0 -10    0.88    2.26
   2   0 -10    0.52    2.14
   4   0 -10    0.95    1.33
   6   0 -10    1.00    1.36
   8   0 -10   24.45    2.74
  10   0 -10   51.61    3.84
  12   0 -10    6.53    1.84
  14   0 -10    2.26    1.68
  -1   1 -10   -1.31    2.41
   1   1 -10   -0.42    2.42
   3   1 -10   -0.74    2.26
   5   1 -10   25.09    4.06
   7   1 -10    1.43    2.49
   9   1 -10    7.19    2.89
  11   1 -10    0.41    1.36
  13   1 -10   15.97    2.39
  15   1 -10    0.08    2.19
   2   2 -10    2.81    3.17
   4   2 -10    3.65    3.04
   6   2 -10   -0.09    2.65
  -3  -3  -9    1.22    2.48
  -1  -3  -9   55.93    4.12
   1  -3  -9    2.59    1.48
   3  -3  -9    0.22    1.43
   5  -3  -9   20.00    2.11
   7  -3  -9   13.62    1.84
   9  -3  -9    2.06    1.39
  11  -3  -9   17.72    2.59
  13  -3  -9   33.97    4.86
  -4  -2  -9    4.02    2.03
  -2  -2  -9    8.22    2.41
   0  -2  -9   28.00    2.80
   2  -2  -9   21.11    2.44
   4  -2  -9   11.42    1.85
   6  -2  -9    3.80    1.56
   8  -2  -9    3.96    1.59
  10  -2  -9    2.83    1.50
  12  -2  -9    3.91    1.61
  14  -2  -9    1.08    2.15
  16  -2  -9   74.12    7.43
  -7  -1  -9    5.79    2.90
  -5  -1  -9    5.42    1.62
  -3  -1  -9    2.72    1.37
  -1  -1  -9   69.58    3.69
   1  -1  -9    4.22    1.43
   3  -1  -9    1.10    1.16
   5  -1  -9   30.19    2.75
   7  -1  -9   14.64    2.10
   9  -1  -9    3.16    1.33
  11  -1  -9   20.35    2.38
  13  -1  -9   39.00    3.23
  15  -1  -9    9.57    2.00
  17  -1  -9    1.64    2.08
  -4   0  -9   11.98    2.94
  -2   0  -9    5.24    2.41
   0   0  -9   34.58    2.81
   2   0  -9   25.02    2.46
   4   0  -9   12.26    1.88
   6   0  -9    3.27    1.26
   8   0  -9    3.71    1.39
  10   0  -9    3.52    1.37
  12   0  -9    1.31    1.28
  14   0  -9    2.97    1.41
  16   0  -9   90.86    6.66
  18   0  -9    1.86    1.68
  -7   1  -9    4.13    2.05
  -3   1  -9    3.16    2.38
   1   1  -9    5.13    2.35
   3   1  -9    1.93    2.09
   5   1  -9   28.60    3.90
   7   1  -9   13.70    2.04
   9   1  -9    3.73    1.45
  11   1  -9   19.66    2.37
  13   1  -9   38.62    3.15
  15   1  -9   12.12    2.03
  17   1  -9   -0.51    1.44
  -4   2  -9    4.38    2.22
   2   2  -9    9.15    3.20
   4   2  -9    7.37    3.08
   6   2  -9    4.73    2.89
   8   2  -9    0.54    2.27
  10   2  -9    4.10    2.30
  12   2  -9    3.66    2.58
  14   2  -9   -0.91    2.18
  16   2  -9   83.43    7.44
  -1   3  -9   69.16    7.19
   3   3  -9   -2.34    3.12
   5   3  -9   19.99    4.43
   7   3  -9   13.58    3.76
   9   3  -9    1.04    2.71
  11   3  -9   18.40    3.75
   0  -4  -8    8.05    1.98
   2  -4  -8    4.53    1.80
   4  -4  -8    9.40    2.05
   6  -4  -8    9.03    2.07
   8  -4  -8    6.48    2.05
  10  -4  -8   29.60    3.24
  12  -4  -8   -0.72    2.11
  -7  -3  -8    0.58    2.47
  -5  -3  -8   12.13    2.13
  -3  -3  -8    0.45    1.37
  -1  -3  -8    0.56    1.18
   1  -3  -8    5.66    1.61
   3  -3  -8    9.32    1.88
   5  -3  -8   51.34    3.69
   7  -3  -8   18.02    1.98
   9  -3  -8   -0.36    1.09
  11  -3  -8   20.78    2.55
  13  -3  -8    1.62    1.45
  15  -3  -8    5.40    1.91
  17  -3  -8   -0.90    2.37
  -8  -2  -8    0.36    1.29
  -6  -2  -8   42.08    3.27
  -4  -2  -8    7.70    1.64
  -2  -2  -8    1.69    1.20
   0  -2  -8   13.56    1.88
   2  -2  -8   13.44    1.85
   4  -2  -8   19.06    1.76
   6  -2  -8    9.55    1.35
   8  -2  -8   13.69    1.62
  10  -2  -8   47.91    2.75
  12  -2  -8    0.87    1.04
  14  -2  -8    1.85    1.39
  16  -2  -8   -1.11    1.34
  18  -2  -8    1.01    2.11
  -9  -1  -8    1.52    1.69
  -7  -1  -8    1.14    1.53
  -5  -1  -8   21.98    3.05
  -3  -1  -8    7.31    2.00
  -1  -1  -8   -0.29    0.92
   1  -1  -8    8.64    1.57
   3  -1  -8   15.80    1.89
   5  -1  -8   77.72    3.73
   7  -1  -8   30.60    2.63
   9  -1  -8    2.57    1.14
  11  -1  -8   32.18    2.71
  13  -1  -8   -1.61    0.99
  15  -1  -8    7.49    1.67
  17  -1  -8   -0.63    1.69
  19  -1  -8   55.32    6.11
  -6   0  -8   47.64    4.85
  -4   0  -8   11.59    2.86
  -2   0  -8    1.51    1.09
   0   0  -8   13.27    1.77
   2   0  -8   16.66    1.85
   4   0  -8   25.69    2.35
   6   0  -8    8.38    1.40
   8   0  -8   17.65    1.96
  10   0  -8   61.72    3.51
  12   0  -8    0.73    1.05
  14   0  -8    1.06    1.16
  16   0  -8    0.66    1.25
  18   0  -8    1.95    1.93
  20   0  -8    0.03    1.74
  -9   1  -8    0.02    1.43
  -7   1  -8    3.12    1.86
  -3   1  -8    9.65    2.51
  -1   1  -8   -1.39    1.80
   1   1  -8   13.03    2.73
   3   1  -8   12.91    1.74
   5   1  -8   79.85    3.65
   7   1  -8   27.47    2.42
   9   1  -8    0.70    1.04
  11   1  -8   30.22    2.55
  13   1  -8    0.86    1.13
  15   1  -8    7.91    1.71
  17   1  -8    2.61    1.45
  19   1  -8   58.74    4.04
  -8   2  -8    0.54    1.59
  -6   2  -8   35.79    4.73
  -2   2  -8    1.89    2.59
   0   2  -8   12.69    3.36
   2   2  -8   17.96    3.48
   4   2  -8   16.12    3.22
   6   2  -8    6.64    2.57
   8   2  -8    9.67    2.64
  12   2  -8   -0.03    1.28
  14   2  -8    3.37    1.54
  16   2  -8    0.54    1.44
  18   2  -8   -1.30    1.44
  -5   3  -8   11.36    2.93
  -3   3  -8    2.02    1.81
  -1   3  -8    2.17    2.08
   1   3  -8    4.47    3.84
   3   3  -8    7.64    3.36
   7   3  -8   26.11    4.11
   9   3  -8   -1.52    2.18
  11   3  -8   28.06    4.04
  13   3  -8   -1.29    2.05
  15   3  -8    3.49    2.45
   0   4  -8   10.19    3.30
   2   4  -8    5.83    2.78
   4   4  -8   16.44    2.96
   6   4  -8    8.90    2.41
   8   4  -8    7.67    2.42
  10   4  -8   38.24    4.91
   1  -5  -7   22.02    4.08
   3  -5  -7    0.25    2.14
   5  -5  -7   -1.02    1.93
   7  -5  -7    2.21    2.34
  -6  -4  -7   -1.31    2.38
  -4  -4  -7   33.37    3.39
  -2  -4  -7   16.77    2.48
   0  -4  -7   18.89    2.51
   2  -4  -7    9.18    1.95
   4  -4  -7    2.10    1.50
   6  -4  -7   12.11    2.05
   8  -4  -7    3.17    1.60
  10  -4  -7   41.75    3.58
  12  -4  -7    3.93    1.80
  14  -4  -7   20.38    2.93
  -9  -3  -7    1.60    1.51
  -7  -3  -7   28.52    2.97
  -5  -3  -7    0.97    1.22
  -3  -3  -7   14.89    2.08
  -1  -3  -7   -0.81    0.96
   1  -3  -7   39.11    3.09
   3  -3  -7   -0.76    1.01
   5  -3  -7    1.64    1.09
   7  -3  -7    4.15    1.42
   9  -3  -7    1.81    1.01
  11  -3  -7    2.48    1.33
  13  -3  -7   28.86    2.88
  15  -3  -7   15.66    2.41
  17  -3  -7   42.31    3.69
  19  -3  -7    0.75    2.22
 -12  -2  -7    1.88    2.06
 -10  -2  -7   -1.53    1.67
  -8  -2  -7    1.32    1.12
  -6  -2  -7    0.29    1.00
  -4  -2  -7   47.70    3.30
  -2  -2  -7   25.54    2.36
   0  -2  -7   35.12    2.69
   2  -2  -7   11.58    1.65
   4  -2  -7    5.13    1.25
   6  -2  -7   11.96    1.37
   8  -2  -7    7.30    1.21
  10  -2  -7   69.28    2.85
  12  -2  -7    4.24    1.07
  14  -2  -7   32.78    2.95
  16  -2  -7    2.68    1.48
  18  -2  -7   10.81    2.01
  20  -2  -7    2.54    1.63
 -11  -1  -7    7.84    2.33
  -9  -1  -7    1.23    1.04
  -7  -1  -7   38.46    2.80
  -5  -1  -7    0.36    0.84
  -3  -1  -7   20.68    1.95
  -1  -1  -7    0.97    0.86
   1  -1  -7   46.86    2.69
   3  -1  -7    1.50    0.71
   5  -1  -7   -0.21    0.67
   7  -1  -7    5.94    1.00
   9  -1  -7   -0.42    0.67
  11  -1  -7    4.33    0.96
  13  -1  -7   33.37    2.08
  15  -1  -7   21.94    1.82
  17  -1  -7   55.44    3.73
  19  -1  -7    3.75    2.07
  21  -1  -7    3.50    2.36
  -8   0  -7    2.09    1.96
  -6   0  -7    0.74    0.94
  -4   0  -7   54.11    2.96
  -2   0  -7   34.39    2.42
   0   0  -7   45.28    2.85
   2   0  -7   16.97    1.75
   4   0  -7    5.08    1.19
   6   0  -7   18.38    1.82
   8   0  -7   10.78    1.52
  10   0  -7   81.29    3.56
  12   0  -7    5.69    1.26
  14   0  -7   30.21    2.44
  16   0  -7    4.66    1.38
  18   0  -7   12.56    2.89
  20   0  -7    7.18    2.58
  -9   1  -7    1.57    1.38
  -5   1  -7   -0.02    1.90
  -3   1  -7   21.54    3.15
  -1   1  -7   -0.63    1.59
   1   1  -7   47.86    2.74
   3   1  -7    1.34    0.94
   5   1  -7   -0.44    0.76
   7   1  -7   11.26    1.48
   9   1  -7   -0.75    0.89
  11   1  -7    4.82    1.25
  13   1  -7   31.98    2.59
  15   1  -7   22.78    2.30
  17   1  -7   49.00    3.48
  19   1  -7   -1.36    1.17
  21   1  -7    8.07    2.57
 -12   2  -7    1.85    1.78
 -10   2  -7   -0.54    1.29
  -8   2  -7    0.47    1.23
  -6   2  -7    0.26    1.31
  -2   2  -7   15.97    3.64
   0   2  -7   28.59    4.16
   2   2  -7   15.05    2.97
   4   2  -7    1.61    1.85
   6   2  -7   11.12    2.65
   8   2  -7    8.22    1.44
  10   2  -7   73.48    3.55
  12   2  -7    3.19    1.29
  14   2  -7   30.65    2.70
  16   2  -7    2.14    1.35
  18   2  -7    8.74    1.86
  20   2  -7    4.71    1.70
  -9   3  -7    0.97    1.70
  -7   3  -7   42.94    5.06
  -5   3  -7   -0.21    1.40
  -3   3  -7   18.59    3.39
  -1   3  -7    0.67    1.60
   1   3  -7   42.38    4.89
   3   3  -7   -2.86    1.94
   5   3  -7   -1.10    1.79
   7   3  -7    8.19    2.41
   9   3  -7    1.59    1.90
  11   3  -7    2.60    2.04
  13   3  -7   26.52    3.72
  15   3  -7   14.73    2.99
  17   3  -7   40.00    3.33
  19   3  -7   -0.54    2.03
  -4   4  -7   33.97    4.83
  -2   4  -7   20.07    3.98
   0   4  -7   27.46    4.48
   2   4  -7    7.62    2.76
   4   4  -7    3.56    1.63
   6   4  -7    9.76    2.07
   8   4  -7    0.99    2.03
  10   4  -7   47.87    5.00
  12   4  -7   -0.21    1.99
  14   4  -7   13.84    3.24
   1   5  -7   25.97    4.77
   3   5  -7    0.35    2.24
   7   5  -7    2.24    2.77
  -3  -5  -6    1.22    1.56
  -1  -5  -6   42.97    3.78
   1  -5  -6   -1.52    1.39
   3  -5  -6   -0.59    1.37
   5  -5  -6   30.08    2.98
   7  -5  -6   15.98    3.71
   9  -5  -6   21.16    4.20
  -8  -4  -6    1.83    2.37
  -6  -4  -6    0.77    1.44
  -4  -4  -6    3.46    1.51
  -2  -4  -6   18.60    2.42
   0  -4  -6    1.86    1.27
   2  -4  -6    1.04    1.28
   4  -4  -6   85.43    4.27
   6  -4  -6   19.30    2.26
   8  -4  -6    1.28    1.30
  10  -4  -6    8.24    1.86
  12  -4  -6   42.22    3.59
  14  -4  -6    2.37    2.39
  16  -4  -6   15.53    3.81
 -13  -3  -6    9.82    3.47
 -11  -3  -6    7.74    1.95
  -9  -3  -6   66.02    4.43
  -7  -3  -6    0.68    1.33
  -5  -3  -6   19.36    2.33
  -3  -3  -6   -0.52    0.94
  -1  -3  -6   72.22    3.74
   1  -3  -6    1.51    1.04
   3  -3  -6   -0.36    0.91
   5  -3  -6   59.65    3.47
   7  -3  -6   35.10    2.86
   9  -3  -6   28.14    2.04
  11  -3  -6    9.23    1.66
  13  -3  -6   30.25    2.93
  15  -3  -6    5.71    1.70
  17  -3  -6    1.38    1.49
  19  -3  -6    0.32    1.65
 -14  -2  -6    1.36    1.42
 -12  -2  -6   16.80    2.29
 -10  -2  -6   32.37    2.96
  -8  -2  -6    1.36    1.11
  -6  -2  -6    2.79    1.18
  -4  -2  -6   11.38    1.65
  -2  -2  -6   33.24    2.57
   0  -2  -6    1.74    0.96
   2  -2  -6    8.52    1.31
   4  -2  -6  135.00    4.93
   6  -2  -6   31.95    2.39
   8  -2  -6    8.37    1.15
  10  -2  -6   12.67    1.32
  12  -2  -6   65.89    2.61
  14  -2  -6    3.29    1.23
  16  -2  -6   27.57    2.61
  18  -2  -6   21.20    2.46
  20  -2  -6   65.82    4.47
  22  -2  -6   -0.59    1.91
 -15  -1  -6   18.08    3.80
 -13  -1  -6   17.58    3.41
 -11  -1  -6   11.93    1.81
  -9  -1  -6   73.26    3.77
  -7  -1  -6    1.06    0.96
  -5  -1  -6   33.96    2.46
  -3  -1  -6   -0.03    0.70
  -1  -1  -6  105.45    4.03
   1  -1  -6    1.04    0.76
   3  -1  -6    0.14    0.73
   5  -1  -6   81.47    2.70
   7  -1  -6   48.95    2.15
   9  -1  -6   39.74    2.02
  11  -1  -6    7.86    1.05
  13  -1  -6   47.71    2.17
  15  -1  -6    4.68    1.29
  17  -1  -6    2.64    1.22
  19  -1  -6    0.60    1.24
  21  -1  -6   36.41    3.30
  23  -1  -6    0.98    2.26
 -16   0  -6   13.51    3.26
 -14   0  -6    1.38    1.90
 -12   0  -6   24.41    3.68
 -10   0  -6   33.55    3.88
  -6   0  -6    5.78    1.10
  -4   0  -6   11.63    1.33
  -2   0  -6   44.72    1.91
   0   0  -6    2.45    0.73
   2   0  -6    6.31    0.86
   4   0  -6  151.64    3.97
   6   0  -6   38.63    1.75
   8   0  -6    8.42    0.97
  10   0  -6   14.48    1.24
  12   0  -6   74.06    2.67
  14   0  -6    4.55    0.94
  16   0  -6   27.73    1.93
  18   0  -6   22.54    3.50
  20   0  -6   88.93    6.49
  22   0  -6    0.58    2.02
 -15   1  -6   16.18    3.44
 -11   1  -6    7.58    1.93
  -9   1  -6   71.95    5.15
  -5   1  -6   34.75    3.69
  -3   1  -6   -0.08    1.47
  -1   1  -6  103.91    3.92
   1   1  -6    1.04    0.74
   3   1  -6   -0.34    0.68
   5   1  -6   81.38    3.31
   7   1  -6   51.44    2.74
   9   1  -6   42.81    2.47
  11   1  -6   13.76    1.57
  13   1  -6   37.99    2.73
  15   1  -6    7.24    1.41
  17   1  -6    3.96    1.23
  19   1  -6    0.96    1.26
  21   1  -6   55.84    5.62
 -12   2  -6   15.98    2.92
 -10   2  -6   19.32    3.22
  -8   2  -6    3.64    1.55
  -6   2  -6    3.41    1.54
  -4   2  -6    6.43    3.19
  -2   2  -6   28.93    4.12
   0   2  -6   -0.24    1.77
   2   2  -6    6.09    2.14
   4   2  -6  129.35    6.80
   6   2  -6   35.39    2.35
   8   2  -6    7.37    1.33
  10   2  -6   13.18    1.65
  12   2  -6   60.03    3.16
  14   2  -6    2.78    1.15
  16   2  -6   25.52    2.41
  18   2  -6   20.18    2.25
  20   2  -6   62.40    3.99
 -11   3  -6    2.49    1.87
  -9   3  -6   61.77    6.06
  -7   3  -6    0.86    1.43
  -5   3  -6   19.28    3.25
  -3   3  -6    0.78    1.21
  -1   3  -6   75.91    3.86
   1   3  -6    3.24    1.97
   3   3  -6    1.53    1.80
   5   3  -6   59.10    4.39
   7   3  -6   32.17    3.61
   9   3  -6   26.85    3.35
  11   3  -6    7.63    2.21
  13   3  -6   29.13    2.54
  15   3  -6    5.59    1.51
  17   3  -6    1.08    1.32
  19   3  -6   -1.95    1.31
  -8   4  -6    4.35    2.18
  -6   4  -6    1.70    1.95
  -4   4  -6    5.37    2.10
  -2   4  -6   18.60    3.48
   0   4  -6    1.05    1.63
   2   4  -6    5.76    1.51
   4   4  -6   80.62    4.03
   6   4  -6   15.29    2.01
   8   4  -6    5.23    2.05
  10   4  -6    6.16    2.20
  12   4  -6   33.61    4.12
  14   4  -6    1.35    2.05
  16   4  -6   16.95    3.40
  -3   5  -6    1.68    2.38
  -1   5  -6   53.57    6.10
   1   5  -6    2.00    2.15
   3   5  -6    0.48    2.00
   5   5  -6   27.46    4.02
   7   5  -6   28.64    3.97
   9   5  -6   12.77    3.16
  11   5  -6    3.61    2.51
  -7  -5  -5    9.71    2.35
  -5  -5  -5    9.54    1.72
  -3  -5  -5    2.81    1.38
  -1  -5  -5   41.41    2.89
   1  -5  -5   31.07    2.50
   3  -5  -5    1.72    1.17
   5  -5  -5   16.42    3.44
   7  -5  -5    9.44    3.12
   9  -5  -5    3.86    2.73
  11  -5  -5   20.62    4.31
  13  -5  -5   -0.66    2.46
 -12  -4  -5    6.34    3.02
 -10  -4  -5    5.66    1.96
  -8  -4  -5   19.54    2.73
  -6  -4  -5   64.94    4.28
  -4  -4  -5    1.95    1.09
  -2  -4  -5   21.63    2.02
   0  -4  -5   10.16    1.38
   2  -4  -5   -0.15    0.75
   4  -4  -5   -0.44    0.77
   6  -4  -5   14.52    1.86
   8  -4  -5   11.10    1.82
  10  -4  -5   42.18    3.27
  12  -4  -5    6.84    1.78
  14  -4  -5    9.35    3.04
  16  -4  -5    1.32    2.58
 -13  -3  -5   12.58    2.33
 -11  -3  -5    1.15    1.39
  -9  -3  -5    4.61    1.51
  -7  -3  -5   18.38    2.26
  -5  -3  -5   13.94    1.91
  -3  -3  -5    6.57    1.38
  -1  -3  -5   86.73    3.27
   1  -3  -5   69.53    2.73
   3  -3  -5    8.62    1.12
   5  -3  -5   33.92    2.05
   7  -3  -5   31.92    2.59
   9  -3  -5    1.94    1.07
  11  -3  -5   42.04    3.07
  13  -3  -5    3.25    1.24
  15  -3  -5   85.42    4.21
  17  -3  -5    2.61    1.33
  19  -3  -5    5.29    2.72
 -16  -2  -5    0.19    1.30
 -14  -2  -5   18.16    2.48
 -12  -2  -5   16.05    2.24
 -10  -2  -5    1.49    1.19
  -8  -2  -5   28.51    2.58
  -6  -2  -5  103.66    4.55
  -4  -2  -5    1.62    0.95
  -2  -2  -5   38.62    2.03
   0  -2  -5   13.20    1.20
   2  -2  -5   -0.12    0.57
   4  -2  -5    0.22    0.77
   6  -2  -5   21.77    1.89
   8  -2  -5   22.15    1.55
  10  -2  -5   78.11    2.70
  12  -2  -5   10.43    1.50
  14  -2  -5   22.25    2.19
  16  -2  -5    8.96    1.53
  18  -2  -5   14.77    2.06
  20  -2  -5   17.97    2.37
  22  -2  -5    1.27    1.59
 -17  -1  -5   15.43    3.57
 -15  -1  -5   20.56    3.76
 -13  -1  -5   23.73    2.62
 -11  -1  -5   -0.01    0.98
  -9  -1  -5    4.21    1.27
  -7  -1  -5   25.42    1.81
  -5  -1  -5   23.90    1.65
  -3  -1  -5    5.61    1.08
  -1  -1  -5  126.89    3.56
   1  -1  -5  103.77    2.96
   3  -1  -5   13.83    1.34
   5  -1  -5   50.32    1.91
   7  -1  -5   44.17    1.83
   9  -1  -5    1.75    0.67
  11  -1  -5   52.09    2.04
  13  -1  -5    4.62    0.82
  15  -1  -5   96.72    4.23
  17  -1  -5    2.66    1.16
  19  -1  -5    2.67    1.29
  21  -1  -5    2.87    1.45
  23  -1  -5   -0.79    1.41
 -18   0  -5    7.62    2.73
 -16   0  -5    0.19    1.57
 -14   0  -5   25.24    3.73
 -12   0  -5   22.00    3.25
 -10   0  -5    6.41    1.79
  -4   0  -5    2.63    0.77
  -2   0  -5   43.36    2.06
   0   0  -5   16.73    0.95
   2   0  -5    0.28    0.47
   4   0  -5    1.87    0.55
   6   0  -5   29.67    1.39
   8   0  -5   24.99    1.42
  10   0  -5   95.91    2.85
  12   0  -5   10.88    1.10
  14   0  -5   29.68    1.82
  16   0  -5    7.39    1.13
  18   0  -5   18.01    2.09
  20   0  -5   23.37    2.54
  22   0  -5    1.20    1.40
  24   0  -5   22.92    4.15
 -17   1  -5   15.80    3.40
 -15   1  -5   17.60    3.28
 -11   1  -5    0.65    1.09
  -9   1  -5    3.33    1.33
  -7   1  -5   28.62    2.22
  -5   1  -5   20.10    1.71
  -3   1  -5    5.91    1.05
  -1   1  -5  122.35    4.18
   1   1  -5   98.95    3.56
   3   1  -5   14.73    1.36
   5   1  -5   48.39    2.28
   7   1  -5   44.48    2.23
   9   1  -5    2.45    0.84
  11   1  -5   49.84    2.50
  13   1  -5    5.51    1.14
  15   1  -5  104.87    4.14
  17   1  -5    2.80    1.12
  19   1  -5   -0.27    1.32
  21   1  -5    2.26    1.86
  23   1  -5    0.56    1.91
 -14   2  -5   17.93    3.14
 -12   2  -5   17.36    2.89
 -10   2  -5    6.84    1.89
  -8   2  -5   26.60    3.42
  -6   2  -5  113.62    6.57
  -4   2  -5    2.03    1.11
  -2   2  -5   42.91    3.91
   0   2  -5   12.48    2.32
   2   2  -5   -0.38    1.40
   4   2  -5    1.26    0.79
   6   2  -5   22.57    1.74
   8   2  -5   21.80    1.83
  10   2  -5   77.56    3.31
  12   2  -5   10.71    1.44
  14   2  -5   20.33    1.99
  16   2  -5    7.09    1.37
  18   2  -5   10.92    1.71
  20   2  -5   19.64    2.30
  22   2  -5    2.17    2.13
 -15   3  -5   14.72    3.26
 -13   3  -5   13.50    3.04
 -11   3  -5    2.05    1.55
  -9   3  -5    1.23    1.46
  -7   3  -5   15.61    2.77
  -5   3  -5   13.12    2.66
  -3   3  -5    6.24    1.93
  -1   3  -5   94.71    3.92
   1   3  -5   63.07    3.22
   3   3  -5    7.62    1.92
   5   3  -5   24.55    3.00
   7   3  -5   29.23    3.15
   9   3  -5    1.99    0.96
  11   3  -5   35.43    2.57
  13   3  -5    2.57    1.07
  15   3  -5   85.31    3.94
  17   3  -5    0.79    1.16
  19   3  -5    2.48    1.49
  21   3  -5    1.54    1.50
 -10   4  -5    2.78    2.06
  -8   4  -5   16.28    3.39
  -6   4  -5   71.34    6.75
  -4   4  -5   -0.55    1.41
  -2   4  -5   23.87    3.55
   0   4  -5    4.78    1.90
   2   4  -5    0.06    1.01
   4   4  -5   -0.14    0.94
   6   4  -5   12.79    1.67
   8   4  -5   10.11    2.31
  10   4  -5   40.50    4.21
  12   4  -5    2.82    1.87
  14   4  -5   12.93    2.77
  16   4  -5    4.14    2.36
  -7   5  -5    7.45    3.00
  -5   5  -5    9.28    3.02
  -3   5  -5    1.37    1.86
  -1   5  -5   46.30    5.25
   1   5  -5   32.33    4.27
   3   5  -5    1.87    1.94
   5   5  -5   15.11    3.06
   7   5  -5   13.24    2.99
   9   5  -5   -1.92    1.87
  11   5  -5   17.14    3.19
  13   5  -5    4.00    2.39
  -2  -6  -4    6.10    3.00
   0  -6  -4   11.59    2.42
   2  -6  -4    8.74    2.22
   4  -6  -4    4.32    2.08
   8  -6  -4    1.72    2.53
  -9  -5  -4    2.24    1.85
  -7  -5  -4   -1.06    1.56
  -5  -5  -4    3.63    1.69
  -3  -5  -4    2.60    1.20
  -1  -5  -4   -0.44    0.93
   1  -5  -4   34.33    2.48
   3  -5  -4   -0.91    1.13
   5  -5  -4   35.38    3.21
   7  -5  -4    1.23    1.42
   9  -5  -4   13.30    2.28
  11  -5  -4   16.74    2.72
  13  -5  -4    1.48    2.58
 -12  -4  -4   25.43    3.18
 -10  -4  -4    4.66    1.78
  -8  -4  -4   39.90    3.53
  -6  -4  -4   19.63    2.43
  -4  -4  -4   10.16    1.78
  -2  -4  -4   15.82    1.65
   0  -4  -4   22.16    1.87
   2  -4  -4   20.51    1.72
   4  -4  -4    6.57    1.15
   6  -4  -4   97.72    3.50
   8  -4  -4    1.54    0.84
  10  -4  -4    2.78    1.21
  12  -4  -4    5.35    1.53
  14  -4  -4   13.73    3.31
  16  -4  -4   15.16    3.65
  18  -4  -4    6.43    3.17
 -15  -3  -4   12.79    2.32
 -13  -3  -4    0.17    1.39
 -11  -3  -4   56.08    4.05
  -9  -3  -4    1.30    1.18
  -7  -3  -4   -0.04    0.93
  -5  -3  -4    5.85    1.31
  -3  -3  -4    0.07    0.83
  -1  -3  -4    0.35    0.68
   1  -3  -4   64.65    2.57
   3  -3  -4   -0.21    0.59
   5  -3  -4   67.67    2.52
   7  -3  -4    5.55    0.97
   9  -3  -4   31.95    2.01
  11  -3  -4   41.24    2.40
  13  -3  -4    0.72    0.79
  15  -3  -4   18.17    2.16
  17  -3  -4   33.51    4.57
  19  -3  -4   17.01    3.76
  21  -3  -4   42.71    5.64
 -16  -2  -4   33.47    5.05
 -14  -2  -4    3.60    2.35
 -12  -2  -4   35.47    3.42
 -10  -2  -4    6.33    1.70
  -8  -2  -4   63.46    2.79
  -6  -2  -4   25.02    2.17
  -4  -2  -4   17.33    1.72
  -2  -2  -4   30.13    2.12
   0  -2  -4   44.38    1.92
   2  -2  -4   45.51    1.83
   4  -2  -4   11.01    0.99
   6  -2  -4  171.58    4.49
   8  -2  -4   -0.57    0.46
  10  -2  -4    5.21    0.72
  12  -2  -4    6.70    1.06
  14  -2  -4   21.74    1.81
  16  -2  -4   10.13    1.69
  18  -2  -4   15.11    1.99
  20  -2  -4    9.15    1.83
  22  -2  -4   35.16    3.28
 -19  -1  -4   12.92    3.23
 -17  -1  -4    0.44    1.29
 -15  -1  -4   21.82    2.65
 -13  -1  -4    0.25    1.04
 -11  -1  -4   64.66    3.47
  -9  -1  -4   -0.53    0.76
  -7  -1  -4   -0.85    0.71
  -5  -1  -4    9.04    1.29
  -3  -1  -4    3.11    0.65
  -1  -1  -4    1.16    0.39
   1  -1  -4  109.35    2.98
   3  -1  -4    0.80    0.38
   5  -1  -4   96.00    2.26
   7  -1  -4    7.59    0.67
   9  -1  -4   50.19    1.66
  11  -1  -4   63.03    2.02
  13  -1  -4    0.90    0.56
  15  -1  -4   31.87    2.44
  17  -1  -4   46.08    3.24
  19  -1  -4   26.21    2.55
  21  -1  -4   51.15    3.73
  23  -1  -4   13.05    2.22
 -18   0  -4   -0.32    1.56
 -16   0  -4   28.62    4.07
 -14   0  -4    2.53    1.57
 -12   0  -4   46.28    4.64
 -10   0  -4    5.90    1.06
  -2   0  -4   37.25    1.76
   0   0  -4   51.13    2.00
   2   0  -4   52.74    1.69
   4   0  -4   15.86    0.94
   6   0  -4  206.81    4.70
   8   0  -4    0.24    0.46
  10   0  -4    6.13    0.67
  12   0  -4   11.56    0.91
  14   0  -4   22.01    1.31
  16   0  -4   11.18    1.19
  18   0  -4   14.78    1.93
  20   0  -4    8.37    1.63
  22   0  -4   28.04    2.88
  24   0  -4    7.10    2.02
 -17   1  -4    0.17    1.73
 -13   1  -4    1.76    1.18
 -11   1  -4   62.70    4.17
  -9   1  -4   -0.02    0.80
  -7   1  -4   -0.13    0.70
  -5   1  -4   11.65    2.15
  -3   1  -4    5.22    0.86
  -1   1  -4    0.41    0.54
   1   1  -4  111.65    3.52
   3   1  -4    0.75    0.53
   5   1  -4   97.06    3.24
   7   1  -4    8.33    0.79
   9   1  -4   51.56    1.88
  11   1  -4   64.45    2.26
  13   1  -4    0.69    0.63
  15   1  -4   29.56    1.84
  17   1  -4   49.15    2.42
  19   1  -4   21.33    2.38
  21   1  -4   48.76    3.68
  23   1  -4    9.62    2.04
 -14   2  -4    1.42    1.56
 -12   2  -4   36.62    3.91
 -10   2  -4    6.01    1.67
  -8   2  -4   57.91    4.22
  -6   2  -4   32.01    3.43
  -4   2  -4   15.44    1.65
  -2   2  -4   33.58    2.95
   0   2  -4   44.75    3.00
   2   2  -4   45.34    1.94
   4   2  -4   13.52    1.21
   6   2  -4  170.96    5.14
   8   2  -4   -0.43    0.69
  10   2  -4    6.94    1.12
  12   2  -4    6.42    1.15
  14   2  -4   21.35    1.90
  16   2  -4    9.32    1.43
  18   2  -4   12.88    1.78
  20   2  -4    7.36    1.62
  22   2  -4   36.60    4.71
 -15   3  -4   16.24    3.28
 -13   3  -4   -0.10    1.47
 -11   3  -4   47.74    5.01
  -9   3  -4    0.61    1.29
  -7   3  -4    0.07    1.05
  -5   3  -4    5.32    1.74
  -3   3  -4    3.33    1.02
  -1   3  -4    0.70    0.79
   1   3  -4   65.92    3.00
   3   3  -4   -0.07    0.78
   5   3  -4   64.47    3.82
   7   3  -4    4.17    0.95
   9   3  -4   29.22    2.13
  11   3  -4   42.44    2.71
  13   3  -4    1.07    0.96
  15   3  -4   16.44    1.90
  17   3  -4   34.62    2.80
  19   3  -4   18.12    2.17
  21   3  -4   39.08    3.26
 -12   4  -4   22.14    3.95
 -10   4  -4    4.66    2.32
  -8   4  -4   44.25    5.29
  -6   4  -4   15.56    3.07
  -4   4  -4    7.95    2.17
  -2   4  -4   17.28    3.05
   0   4  -4   25.62    2.14
   2   4  -4   21.56    1.99
   4   4  -4    5.07    1.19
   6   4  -4   95.40    3.79
   8   4  -4    0.42    1.37
  10   4  -4   -0.46    1.35
  12   4  -4    5.37    2.04
  14   4  -4    9.90    1.73
  16   4  -4    7.72    1.71
  18   4  -4    5.60    1.70
  -9   5  -4    1.48    2.40
  -7   5  -4   -1.46    1.69
  -5   5  -4    3.32    2.26
  -3   5  -4    0.89    1.79
  -1   5  -4    0.37    1.62
   1   5  -4   38.38    4.47
   3   5  -4    1.14    1.23
   5   5  -4   34.89    3.93
   7   5  -4    2.25    2.00
   9   5  -4   10.11    2.57
  11   5  -4   25.68    3.65
  13   5  -4    1.14    2.04
  -2   6  -4    8.65    3.16
   6   6  -4   51.97    5.09
  -4  -6  -3   21.33    2.85
  -2  -6  -3    4.45    1.87
   0  -6  -3   60.90    4.39
   2  -6  -3   -0.31    1.59
   4  -6  -3   27.03    3.23
   6  -6  -3    9.36    2.23
   8  -6  -3    8.50    2.29
 -11  -5  -3    0.82    1.83
  -9  -5  -3   17.50    2.75
  -7  -5  -3   23.52    2.86
  -5  -5  -3   99.65    5.02
  -3  -5  -3    1.25    1.05
  -1  -5  -3    6.75    1.27
   1  -5  -3    4.12    1.37
   3  -5  -3    2.06    1.35
   5  -5  -3    2.44    1.39
   7  -5  -3    0.45    1.12
   9  -5  -3   70.42    4.49
  11  -5  -3   34.97    3.51
  13  -5  -3   -0.67    1.52
  15  -5  -3   -0.50    1.72
 -14  -4  -3   14.65    2.77
 -12  -4  -3    5.54    1.83
 -10  -4  -3   25.94    2.87
  -8  -4  -3    1.43    1.24
  -6  -4  -3   -0.81    0.99
  -4  -4  -3   40.72    3.17
  -2  -4  -3   13.36    1.81
   0  -4  -3  122.20    3.98
   2  -4  -3    2.68    0.87
   4  -4  -3   66.44    2.66
   6  -4  -3   23.13    1.77
   8  -4  -3   15.83    2.01
  10  -4  -3    0.15    1.04
  12  -4  -3   74.89    4.14
  14  -4  -3   45.74    3.84
  16  -4  -3   17.34    2.61
  18  -4  -3   12.16    2.71
 -17  -3  -3    9.36    2.30
 -15  -3  -3   27.64    3.30
 -13  -3  -3    0.09    1.34
 -11  -3  -3    5.04    1.54
  -9  -3  -3   22.20    2.44
  -7  -3  -3   38.57    2.97
  -5  -3  -3  187.49    6.60
  -3  -3  -3    2.73    1.04
  -1  -3  -3   16.97    1.78
   1  -3  -3    4.52    0.82
   3  -3  -3   10.28    1.08
   5  -3  -3    2.20    0.69
   7  -3  -3    0.88    0.61
   9  -3  -3  142.78    4.14
  11  -3  -3   65.48    2.63
  13  -3  -3    0.00    0.71
  15  -3  -3    4.73    1.46
  17  -3  -3   30.18    3.28
  19  -3  -3    1.86    1.90
  21  -3  -3    0.49    2.52
 -18  -2  -3    1.60    1.76
 -16  -2  -3    2.28    1.58
 -14  -2  -3   34.06    3.30
 -12  -2  -3   17.58    2.38
 -10  -2  -3   50.44    3.48
  -8  -2  -3    5.50    1.17
  -6  -2  -3   -0.39    0.55
  -4  -2  -3   70.40    2.36
  -2  -2  -3   26.03    1.22
   0  -2  -3  223.18    6.86
   2  -2  -3    7.47    0.79
   4  -2  -3  125.86    3.42
   6  -2  -3   41.90    1.30
   8  -2  -3   28.24    1.27
  10  -2  -3    7.20    0.72
  12  -2  -3  106.02    3.39
  14  -2  -3   78.08    3.07
  16  -2  -3   20.19    1.87
  18  -2  -3   23.84    2.18
  20  -2  -3   20.71    2.11
  22  -2  -3   -0.35    2.02
 -19  -1  -3   16.53    2.52
 -17  -1  -3   12.10    2.05
 -15  -1  -3   33.86    3.09
 -13  -1  -3    0.89    1.01
 -11  -1  -3    4.57    1.21
  -9  -1  -3   35.69    2.73
  -7  -1  -3   56.02    2.84
  -5  -1  -3  281.64    8.24
  -3  -1  -3    7.89    0.76
  -1  -1  -3   29.98    1.14
   1  -1  -3    5.58    0.57
   3  -1  -3   19.56    0.96
   5  -1  -3    4.97    0.83
   7  -1  -3    0.27    0.35
   9  -1  -3  211.51    4.48
  11  -1  -3   93.16    2.49
  13  -1  -3    1.56    0.78
  15  -1  -3    7.84    1.20
  17  -1  -3   41.38    2.56
  19  -1  -3    5.38    1.13
  21  -1  -3    0.89    1.02
  23  -1  -3    1.32    1.35
 -20   0  -3   27.69    4.26
 -18   0  -3    4.29    1.97
 -16   0  -3    0.97    1.50
 -14   0  -3   34.51    4.04
 -12   0  -3   20.23    2.91
 -10   0  -3   53.55    2.50
  -8   0  -3    3.35    1.02
   0   0  -3  315.58    8.15
   2   0  -3   10.87    0.70
   4   0  -3  165.29    3.72
   6   0  -3   56.75    1.44
   8   0  -3   37.82    1.24
  10   0  -3    9.95    0.77
  12   0  -3  140.96    3.28
  14   0  -3  101.29    2.73
  16   0  -3   23.57    1.85
  18   0  -3   28.20    2.09
  20   0  -3   22.35    2.01
  22   0  -3   -1.27    1.09
  24   0  -3    6.97    1.96
 -19   1  -3   16.79    3.29
 -17   1  -3   11.09    2.80
 -15   1  -3   27.73    3.70
 -13   1  -3   -0.58    0.89
 -11   1  -3    4.46    1.39
  -9   1  -3   33.05    3.10
  -7   1  -3   58.79    2.64
  -5   1  -3  268.49   10.67
  -3   1  -3    5.56    0.75
  -1   1  -3   33.44    1.40
   1   1  -3    5.64    0.67
   3   1  -3   22.79    1.22
   5   1  -3    4.25    0.51
   7   1  -3   -0.32    0.38
   9   1  -3  221.85    5.11
  11   1  -3   97.40    2.81
  13   1  -3    0.63    0.64
  15   1  -3    8.24    1.03
  17   1  -3   45.54    2.36
  19   1  -3    2.20    1.19
  21   1  -3   -0.37    1.07
  23   1  -3    1.28    1.53
 -18   2  -3    2.34    2.00
 -14   2  -3   32.23    3.74
 -12   2  -3   14.82    2.50
 -10   2  -3   44.83    3.59
  -8   2  -3    5.01    1.43
  -6   2  -3   -0.46    0.80
  -4   2  -3   71.71    2.78
  -2   2  -3   25.90    1.74
   0   2  -3  224.85    5.93
   2   2  -3    6.32    0.76
   4   2  -3  128.45    3.84
   6   2  -3   41.01    1.46
   8   2  -3   28.16    1.44
  10   2  -3    7.26    0.93
  12   2  -3  105.08    3.24
  14   2  -3   76.26    2.84
  16   2  -3   20.67    1.70
  18   2  -3   25.33    1.91
  20   2  -3   17.56    2.35
  22   2  -3    0.92    1.39
 -17   3  -3   12.88    2.98
 -15   3  -3   39.07    4.74
 -13   3  -3    1.08    1.50
 -11   3  -3    4.95    1.89
  -9   3  -3   24.93    3.43
  -7   3  -3   43.46    4.24
  -5   3  -3  188.41    9.22
  -3   3  -3    3.55    0.97
  -1   3  -3   17.60    1.60
   1   3  -3    3.72    0.91
   3   3  -3   10.89    1.28
   5   3  -3    2.12    0.64
   7   3  -3    0.55    0.53
   9   3  -3  141.75    4.69
  11   3  -3   61.19    2.90
  13   3  -3   -0.65    0.80
  15   3  -3    3.28    1.13
  17   3  -3   29.17    2.58
  19   3  -3    2.48    1.31
  21   3  -3    1.36    1.33
 -14   4  -3   20.27    3.93
 -12   4  -3   15.46    3.38
 -10   4  -3   30.94    4.37
  -8   4  -3    2.55    1.69
  -6   4  -3    1.25    1.43
  -4   4  -3   49.07    4.79
  -2   4  -3    9.16    2.10
   0   4  -3  119.52    4.37
   2   4  -3    3.34    0.97
   4   4  -3   62.01    2.84
   6   4  -3   24.26    2.93
   8   4  -3   16.13    2.57
  10   4  -3    7.23    1.96
  12   4  -3   69.53    3.37
  14   4  -3   46.77    3.28
  16   4  -3   12.99    2.00
  18   4  -3   14.21    2.16
 -11   5  -3    3.89    2.48
  -9   5  -3   15.04    3.61
  -7   5  -3   20.79    4.06
  -5   5  -3  110.83    7.49
  -3   5  -3    1.35    1.65
  -1   5  -3    8.78    2.35
   1   5  -3    2.90    1.73
   3   5  -3    2.42    1.84
   5   5  -3    1.02    1.71
   7   5  -3    0.20    1.63
   9   5  -3   69.80    4.98
  11   5  -3   34.29    3.96
  13   5  -3   -0.99    1.81
  15   5  -3    1.17    2.08
  -4   6  -3   19.92    4.23
  -2   6  -3    1.44    2.27
   6   6  -3   10.26    2.84
   8   6  -3    6.40    2.56
  -8  -6  -2    5.17    3.02
  -6  -6  -2    0.11    1.73
  -4  -6  -2   -0.45    1.50
  -2  -6  -2   20.95    2.62
   0  -6  -2    0.74    1.57
   2  -6  -2    2.24    1.65
   4  -6  -2    4.24    1.88
   6  -6  -2   38.04    5.34
   8  -6  -2    2.25    1.85
  10  -6  -2    1.73    2.87
 -13  -5  -2    2.15    3.15
 -11  -5  -2   32.10    3.53
  -9  -5  -2   16.01    2.46
  -7  -5  -2    9.41    2.02
  -5  -5  -2    1.71    1.28
  -3  -5  -2    0.63    1.19
  -1  -5  -2   63.98    3.58
   1  -5  -2   25.00    2.55
   3  -5  -2   81.85    4.16
   5  -5  -2    2.32    1.36
   7  -5  -2   -0.07    1.12
   9  -5  -2    0.09    1.33
  11  -5  -2    2.73    1.59
  13  -5  -2    3.34    1.68
  15  -5  -2   42.05    4.06
 -16  -4  -2    2.28    2.02
 -14  -4  -2   23.68    3.13
 -12  -4  -2   29.57    3.13
 -10  -4  -2   31.10    2.96
  -8  -4  -2   20.39    2.29
  -6  -4  -2    0.80    1.05
  -4  -4  -2    1.67    1.05
  -2  -4  -2   38.20    2.85
   0  -4  -2    2.37    0.80
   2  -4  -2    6.58    0.97
   4  -4  -2   11.01    1.20
   6  -4  -2  119.12    4.99
   8  -4  -2    7.26    1.40
  10  -4  -2    1.59    1.10
  12  -4  -2    4.34    1.47
  14  -4  -2   12.18    2.14
  16  -4  -2    8.76    2.19
  18  -4  -2   19.33    3.09
 -19  -3  -2    2.47    2.59
 -17  -3  -2   33.46    3.87
 -15  -3  -2   56.68    4.61
 -13  -3  -2    3.19    1.40
 -11  -3  -2   53.07    2.92
  -9  -3  -2   27.52    1.92
  -7  -3  -2   13.16    1.26
  -5  -3  -2    3.21    0.75
  -3  -3  -2    0.67    0.56
  -1  -3  -2  136.22    3.65
   1  -3  -2   57.91    1.78
   3  -3  -2  195.59    4.22
   5  -3  -2    5.53    0.65
   7  -3  -2    0.23    0.41
   9  -3  -2    0.23    0.46
  11  -3  -2    0.10    0.46
  13  -3  -2    5.90    1.02
  15  -3  -2   57.16    2.78
  17  -3  -2    4.51    1.75
  19  -3  -2   12.84    2.68
  21  -3  -2   -0.25    2.01
 -20  -2  -2    3.92    1.89
 -18  -2  -2   16.40    2.63
 -16  -2  -2    6.49    1.87
 -14  -2  -2   47.33    3.84
 -12  -2  -2   50.20    3.68
 -10  -2  -2   43.25    2.99
  -8  -2  -2   39.86    2.41
  -6  -2  -2    2.78    0.76
  -4  -2  -2    2.26    0.53
  -2  -2  -2   80.24    2.37
   0  -2  -2    8.16    0.66
   2  -2  -2    9.34    0.58
   4  -2  -2   20.74    0.91
   6  -2  -2  211.93    4.34
   8  -2  -2   13.22    0.72
  10  -2  -2    1.01    0.47
  12  -2  -2    5.48    0.72
  14  -2  -2   28.89    1.97
  16  -2  -2   13.64    1.56
  18  -2  -2   22.98    2.08
  20  -2  -2   80.46    5.03
  22  -2  -2    0.33    1.51
 -21  -1  -2    4.08    1.68
 -19  -1  -2   -0.10    1.26
 -17  -1  -2   41.92    3.57
 -15  -1  -2   59.78    4.12
 -13  -1  -2    1.88    1.10
 -11  -1  -2   72.53    3.83
  -9  -1  -2   38.70    2.80
  -7  -1  -2   27.56    2.01
  -5  -1  -2    6.88    0.93
  -3  -1  -2    1.40    0.44
  -1  -1  -2  223.35    5.06
   1  -1  -2  111.78    2.83
   3  -1  -2  341.63    7.45
   5  -1  -2   10.77    0.75
   7  -1  -2    0.10    0.29
   9  -1  -2    0.98    0.37
  11  -1  -2   -0.03    0.38
  13  -1  -2    9.49    1.16
  15  -1  -2   80.30    3.08
  17  -1  -2    9.40    1.25
  19  -1  -2   13.79    1.55
  21  -1  -2    1.24    0.99
  23  -1  -2   19.02    2.08
 -20   0  -2    6.11    2.26
 -18   0  -2   28.81    3.94
 -16   0  -2    5.86    1.92
 -14   0  -2   45.18    4.43
 -12   0  -2   55.28    4.24
 -10   0  -2   51.02    2.25
  -8   0  -2   51.64    2.92
   0   0  -2    9.18    0.70
   2   0  -2   12.50    0.62
   4   0  -2   29.08    0.87
   6   0  -2  296.48    5.61
   8   0  -2   20.09    0.97
  10   0  -2    1.80    0.46
  12   0  -2    7.29    0.73
  14   0  -2   30.07    1.44
  16   0  -2   19.24    1.63
  18   0  -2   28.56    2.13
  20   0  -2   83.10    3.68
  22   0  -2    0.16    1.06
  24   0  -2    0.01    1.11
 -21   1  -2    3.30    2.07
 -19   1  -2   -0.36    1.47
 -17   1  -2   48.60    5.08
 -15   1  -2   53.89    5.12
 -13   1  -2    0.37    0.94
 -11   1  -2   78.84    4.62
  -9   1  -2   45.18    2.98
  -7   1  -2   26.26    1.57
  -5   1  -2    6.48    0.85
  -3   1  -2    1.97    0.73
  -1   1  -2  234.49    5.78
   1   1  -2  120.57    3.15
   3   1  -2  349.82    8.61
   5   1  -2   11.77    0.73
   7   1  -2   -0.13    0.35
   9   1  -2    1.89    0.54
  11   1  -2    0.11    0.50
  13   1  -2    9.03    1.02
  15   1  -2   78.78    2.68
  17   1  -2    8.43    1.08
  19   1  -2   12.01    1.74
  21   1  -2   -0.29    1.05
  23   1  -2   16.50    2.35
 -20   2  -2    3.72    2.20
 -18   2  -2   18.12    3.42
 -16   2  -2    5.20    1.86
 -14   2  -2   43.58    4.40
 -12   2  -2   55.61    4.03
 -10   2  -2   35.58    3.64
  -8   2  -2   41.79    3.13
  -6   2  -2    3.43    1.14
  -4   2  -2    2.89    0.63
  -2   2  -2   84.73    2.86
   0   2  -2    7.73    0.87
   2   2  -2    7.65    0.67
   4   2  -2   21.74    1.23
   6   2  -2  216.77    4.81
   8   2  -2   13.61    1.03
  10   2  -2    1.27    0.62
  12   2  -2    3.00    0.79
  14   2  -2   24.88    1.70
  16   2  -2   17.90    1.52
  18   2  -2   22.22    1.79
  20   2  -2   83.11    4.29
  22   2  -2   -0.90    1.25
 -17   3  -2   24.43    3.97
 -15   3  -2   54.34    5.48
 -13   3  -2    0.59    1.31
 -11   3  -2   47.90    4.84
  -9   3  -2   28.12    3.46
  -7   3  -2   18.28    2.70
  -5   3  -2    4.22    1.42
  -3   3  -2    0.28    0.65
  -1   3  -2  124.80    4.25
   1   3  -2   57.96    2.46
   3   3  -2  199.97    4.66
   5   3  -2    6.72    0.71
   7   3  -2    0.19    0.45
   9   3  -2    0.73    0.63
  11   3  -2    0.85    0.62
  13   3  -2    3.31    0.89
  15   3  -2   54.52    2.65
  17   3  -2    5.40    1.27
  19   3  -2    9.68    1.49
  21   3  -2    1.23    1.87
 -16   4  -2    3.96    2.42
 -14   4  -2   26.65    4.24
 -12   4  -2   27.35    4.09
 -10   4  -2   21.81    3.72
  -8   4  -2   29.06    3.92
  -6   4  -2    0.24    1.20
  -4   4  -2    0.91    1.22
  -2   4  -2   40.13    4.10
   0   4  -2    3.79    0.94
   2   4  -2    3.81    1.02
   4   4  -2   11.99    1.37
   6   4  -2  122.01    5.99
   8   4  -2    8.11    1.26
  10   4  -2    1.28    0.95
  12   4  -2    4.51    1.26
  14   4  -2   12.95    1.82
  16   4  -2   12.16    1.65
  18   4  -2   10.53    1.90
 -11   5  -2   31.90    4.84
  -9   5  -2   20.71    3.79
  -7   5  -2    6.82    2.48
  -5   5  -2    2.88    1.75
  -3   5  -2   -0.96    1.24
  -1   5  -2   62.28    5.59
   1   5  -2   27.18    2.29
   3   5  -2   85.32    4.94
   5   5  -2    0.22    1.47
   7   5  -2    0.29    1.51
   9   5  -2    1.47    1.60
  11   5  -2    1.54    1.86
  13   5  -2    4.62    2.13
  15   5  -2   32.60    4.24
  -6   6  -2    0.19    2.09
  -4   6  -2    1.03    2.02
  -2   6  -2   25.46    3.87
   4   6  -2    3.86    2.21
   6   6  -2   51.34    4.99
   8   6  -2    1.90    2.21
  -6  -6  -1   46.92    5.96
  -4  -6  -1    5.33    2.56
  -2  -6  -1    0.97    1.90
   0  -6  -1    2.73    2.01
   2  -6  -1   -0.48    1.84
   4  -6  -1    0.65    1.82
   6  -6  -1   27.83    4.76
   8  -6  -1    0.36    2.13
 -15  -5  -1    0.07    3.23
 -13  -5  -1   -0.23    1.74
 -11  -5  -1   29.99    3.27
  -9  -5  -1   -0.63    1.34
  -7  -5  -1    9.84    1.87
  -5  -5  -1    0.98    1.15
  -3  -5  -1   77.93    3.94
  -1  -5  -1    1.78    1.15
   1  -5  -1    1.33    1.09
   3  -5  -1    2.46    1.24
   5  -5  -1   40.27    3.35
   7  -5  -1    0.73    1.21
   9  -5  -1   38.15    3.37
  11  -5  -1   66.43    4.56
  13  -5  -1    4.05    1.86
  15  -5  -1    2.31    2.00
 -18  -4  -1    2.80    2.87
 -16  -4  -1   -0.56    1.31
 -14  -4  -1   -2.28    1.07
 -12  -4  -1   10.22    1.49
 -10  -4  -1   12.37    1.49
  -8  -4  -1   62.31    2.66
  -6  -4  -1  109.14    3.52
  -4  -4  -1    7.32    1.02
  -2  -4  -1   -1.16    0.52
   0  -4  -1    1.22    0.53
   2  -4  -1   -0.27    0.53
   4  -4  -1    0.42    0.64
   6  -4  -1   87.99    3.20
   8  -4  -1    0.55    0.73
  10  -4  -1   33.38    2.20
  12  -4  -1   34.53    2.40
  14  -4  -1    3.12    1.09
  16  -4  -1    7.99    2.03
  18  -4  -1    2.13    2.06
 -19  -3  -1    1.59    1.85
 -17  -3  -1    1.50    1.69
 -15  -3  -1   -1.32    1.14
 -13  -3  -1    0.53    1.02
 -11  -3  -1   47.71    2.98
  -9  -3  -1    0.49    0.64
  -7  -3  -1   18.63    1.40
  -5  -3  -1    4.50    0.79
  -3  -3  -1  169.01    4.35
  -1  -3  -1    2.45    0.62
   1  -3  -1   -0.12    0.37
   3  -3  -1    5.54    0.63
   5  -3  -1   97.70    2.57
   7  -3  -1    4.93    0.65
   9  -3  -1   76.05    2.75
  11  -3  -1  109.30    3.73
  13  -3  -1   10.26    1.29
  15  -3  -1    2.82    0.92
  17  -3  -1    1.31    1.03
  19  -3  -1   15.66    2.94
  21  -3  -1   31.36    3.90
 -20  -2  -1   55.43    4.65
 -18  -2  -1    5.46    1.83
 -16  -2  -1    1.37    1.24
 -14  -2  -1   -0.85    0.95
 -12  -2  -1   15.68    1.97
 -10  -2  -1   22.83    2.07
  -8  -2  -1  123.61    4.43
  -6  -2  -1  185.38    5.70
  -4  -2  -1   10.43    0.83
  -2  -2  -1    0.80    0.36
   0  -2  -1    4.72    0.54
   2  -2  -1    0.13    0.26
   4  -2  -1    0.26    0.28
   6  -2  -1  169.60    3.71
   8  -2  -1    1.70    0.45
  10  -2  -1   49.81    1.68
  12  -2  -1   60.63    2.00
  14  -2  -1    7.30    0.89
  16  -2  -1   11.89    2.18
  18  -2  -1    2.45    1.46
  20  -2  -1    2.31    1.68
  22  -2  -1    9.97    2.18
 -21  -1  -1   -0.58    1.27
 -19  -1  -1    2.40    1.31
 -17  -1  -1    2.53    1.19
 -15  -1  -1    1.75    1.06
 -13  -1  -1   -0.40    0.80
 -11  -1  -1   68.23    3.76
  -9  -1  -1    0.44    0.74
  -7  -1  -1   28.50    1.78
  -5  -1  -1   10.51    1.01
  -3  -1  -1  278.06    7.66
  -1  -1  -1    4.75    0.44
   1  -1  -1    1.46    0.25
   3  -1  -1   14.88    0.63
   5  -1  -1  166.03    3.40
   7  -1  -1   12.29    0.75
   9  -1  -1  119.78    2.89
  11  -1  -1  176.92    4.89
  13  -1  -1   18.20    1.55
  15  -1  -1    4.13    0.89
  17  -1  -1    2.05    0.88
  19  -1  -1   26.64    2.14
  21  -1  -1   37.16    2.69
  23  -1  -1    9.99    2.13
 -22   0  -1    0.79    1.75
 -20   0  -1   55.99    5.85
 -18   0  -1    5.85    1.95
 -16   0  -1    0.79    1.09
 -14   0  -1    0.09    0.94
 -12   0  -1   20.91    1.65
 -10   0  -1   24.13    1.51
  -8   0  -1  165.29    4.81
  -6   0  -1  261.03    9.62
  -4   0  -1   15.43    1.21
   0   0  -1    7.35    0.42
   2   0  -1    0.53    0.18
   4   0  -1    0.59    0.30
   6   0  -1  241.25    4.74
   8   0  -1    3.30    0.45
  10   0  -1   62.14    1.78
  12   0  -1   74.60    2.11
  14   0  -1    6.37    0.99
  16   0  -1   14.01    1.45
  18   0  -1    1.79    0.87
  20   0  -1    4.40    1.17
  22   0  -1    9.24    1.49
  24   0  -1   -0.92    1.36
 -21   1  -1    1.82    1.71
 -19   1  -1    0.31    1.41
 -17   1  -1    2.13    1.44
 -15   1  -1    0.29    0.74
 -13   1  -1    1.00    0.67
 -11   1  -1   72.88    4.12
  -9   1  -1    0.37    0.70
  -7   1  -1   25.26    1.96
  -5   1  -1    8.58    1.23
  -3   1  -1  281.88    7.20
  -1   1  -1    5.55    0.57
   1   1  -1    1.45    0.36
   3   1  -1   15.68    0.73
   5   1  -1  175.73    4.62
   7   1  -1   12.09    0.84
   9   1  -1  119.91    3.14
  11   1  -1  181.57    4.03
  13   1  -1   18.01    1.18
  15   1  -1    2.66    0.67
  17   1  -1    1.14    0.84
  19   1  -1   24.04    2.47
  21   1  -1   39.66    3.29
  23   1  -1   12.28    2.10
 -20   2  -1   63.66    6.41
 -18   2  -1    4.92    2.06
 -16   2  -1    0.36    0.83
 -14   2  -1   -0.14    1.05
 -12   2  -1   23.98    2.96
 -10   2  -1   19.03    2.62
  -8   2  -1  128.54    6.40
  -6   2  -1  179.63    8.25
  -4   2  -1    9.54    0.81
  -2   2  -1    0.45    0.42
   0   2  -1    3.52    0.40
   2   2  -1    0.87    0.31
   4   2  -1   -0.08    0.29
   6   2  -1  187.96    3.60
   8   2  -1    1.39    0.55
  10   2  -1   53.32    1.99
  12   2  -1   57.34    2.23
  14   2  -1    5.57    0.93
  16   2  -1    8.37    1.16
  18   2  -1    0.94    0.83
  20   2  -1    0.95    1.14
  22   2  -1   13.89    2.24
 -19   3  -1    1.06    1.27
 -17   3  -1    1.79    1.86
 -15   3  -1    1.48    1.35
 -13   3  -1   -1.43    1.13
 -11   3  -1   47.53    4.77
  -9   3  -1   -1.07    0.91
  -7   3  -1   16.79    2.52
  -5   3  -1    3.81    1.36
  -3   3  -1  151.44    4.99
  -1   3  -1    1.38    0.73
   1   3  -1    0.35    0.43
   3   3  -1    7.22    0.75
   5   3  -1  113.48    2.88
   7   3  -1    6.18    1.10
   9   3  -1   79.17    2.64
  11   3  -1  120.97    3.63
  13   3  -1   12.78    1.33
  15   3  -1    2.43    0.97
  17   3  -1    1.73    1.02
  19   3  -1   18.94    1.88
  21   3  -1   32.14    5.05
 -18   4  -1    1.57    2.10
 -16   4  -1   -2.68    1.52
 -14   4  -1   -1.07    1.66
 -12   4  -1   10.79    2.75
 -10   4  -1   19.35    3.21
  -8   4  -1   70.32    5.31
  -6   4  -1  100.11    6.47
  -4   4  -1    3.09    1.62
  -2   4  -1    0.25    0.79
   0   4  -1    1.94    0.91
   2   4  -1   -0.81    0.64
   4   4  -1    0.05    0.67
   6   4  -1   99.10    3.62
   8   4  -1    0.54    0.88
  10   4  -1   31.57    2.40
  12   4  -1   37.02    2.75
  14   4  -1    1.14    1.11
  16   4  -1    5.11    1.54
  18   4  -1    0.75    1.38
 -13   5  -1   -0.84    1.93
 -11   5  -1   25.14    4.50
  -9   5  -1   -1.87    1.53
  -7   5  -1    8.81    2.57
  -5   5  -1    1.12    1.47
  -3   5  -1   73.26    5.52
  -1   5  -1    2.45    1.52
   1   5  -1    0.90    0.99
   3   5  -1    1.71    1.59
   5   5  -1   52.34    3.82
   7   5  -1   -0.15    1.41
   9   5  -1   51.13    4.54
  11   5  -1   50.04    4.90
  13   5  -1    4.25    2.20
  15   5  -1    1.56    1.36
  -8   6  -1   31.20    5.11
  -6   6  -1   61.63    6.67
  -4   6  -1    4.80    2.58
  -2   6  -1   -1.22    1.89
   4   6  -1    0.11    1.79
   6   6  -1   44.81    4.50
   8   6  -1   -0.76    1.80
  -8  -6   0   -1.27    2.01
  -6  -6   0    0.34    1.94
  -4  -6   0    0.89    1.95
  -2  -6   0   -0.08    1.73
   2  -6   0    1.83    2.03
   4  -6   0    2.05    2.13
   6  -6   0    1.09    2.06
   8  -6   0    2.16    2.20
 -15  -5   0   17.17    3.49
 -13  -5   0    2.86    1.59
 -11  -5   0    8.73    1.53
  -9  -5   0   20.78    1.81
  -7  -5   0   30.57    2.09
  -5  -5   0   81.27    3.06
  -3  -5   0    7.50    1.18
  -1  -5   0    0.60    0.75
   1  -5   0    1.64    0.84
   3  -5   0    7.50    1.26
   5  -5   0   62.61    3.85
   7  -5   0   26.72    2.14
   9  -5   0   15.96    1.80
  11  -5   0   11.74    2.16
  13  -5   0    2.93    1.71
 -18  -4   0   -0.12    1.32
 -16  -4   0   30.63    2.63
 -14  -4   0   79.59    3.65
 -12  -4   0    6.84    1.22
 -10  -4   0    4.11    0.99
  -8  -4   0    2.26    0.82
  -6  -4   0    6.36    0.99
  -4  -4   0    3.99    0.80
  -2  -4   0    1.18    0.66
   0  -4   0  415.05    9.56
   2  -4   0    0.53    0.60
   4  -4   0    1.36    0.68
   6  -4   0    6.17    1.01
   8  -4   0    1.41    0.82
  10  -4   0    4.15    1.03
  12  -4   0    4.86    1.19
  14  -4   0   79.45    3.64
  16  -4   0   32.35    2.70
  18  -4   0    2.41    1.45
 -19  -3   0   10.12    2.21
 -17  -3   0   45.16    3.74
 -15  -3   0   28.24    2.71
 -13  -3   0    6.42    1.35
 -11  -3   0   19.43    1.93
  -9  -3   0   39.61    1.98
  -7  -3   0   61.15    2.29
  -5  -3   0  142.94    3.80
  -3  -3   0   26.13    1.45
  -1  -3   0    2.36    0.58
   1  -3   0    3.34    0.49
   3  -3   0   23.31    1.05
   5  -3   0  130.90    3.81
   7  -3   0   60.74    2.32
   9  -3   0   38.47    2.16
  11  -3   0   16.04    1.53
  13  -3   0    4.53    1.05
  15  -3   0   32.75    2.45
  17  -3   0   46.02    3.23
  19  -3   0    9.07    2.54
 -22  -2   0    0.68    1.52
 -20  -2   0    5.36    1.83
 -18  -2   0    0.58    1.28
 -16  -2   0   50.11    3.83
 -14  -2   0  133.32    5.44
 -12  -2   0    9.47    1.44
 -10  -2   0    7.19    1.18
  -8  -2   0    6.02    0.90
  -6  -2   0    9.58    1.04
  -4  -2   0    3.62    0.55
  -2  -2   0    3.63    0.50
   0  -2   0  982.69   20.14
   2  -2   0    2.80    0.35
   4  -2   0    3.25    0.37
   6  -2   0    8.79    0.64
   8  -2   0    5.12    0.59
  10  -2   0    8.61    0.81
  12  -2   0   11.86    0.99
  14  -2   0  137.28    4.50
  16  -2   0   46.26    2.97
  18  -2   0    0.56    1.43
  20  -2   0    9.12    2.16
  22  -2   0    1.57    1.65
 -21  -1   0   40.14    3.70
 -19  -1   0   11.06    1.88
 -17  -1   0   60.36    3.71
 -15  -1   0   48.77    3.51
 -13  -1   0    7.02    1.39
 -11  -1   0   29.54    2.32
  -9  -1   0   64.48    2.83
  -7  -1   0  106.09    3.56
  -5  -1   0  246.69    6.69
  -3  -1   0   50.60    1.67
  -1  -1   0    5.72    0.43
   1  -1   0    5.18    0.33
   3  -1   0   42.94    1.10
   5  -1   0  232.27    4.59
   7  -1   0  102.31    2.41
   9  -1   0   58.81    1.80
  11  -1   0   22.43    1.32
  13  -1   0    7.27    0.90
  15  -1   0   45.52    2.38
  17  -1   0   57.80    2.75
  19  -1   0   13.25    1.59
  21  -1   0   35.88    3.58
 -22   0   0    1.39    1.78
 -20   0   0    7.27    2.31
 -18   0   0    0.91    1.25
 -16   0   0   49.32    4.64
 -14   0   0  145.99    7.49
 -12   0   0   14.14    1.27
 -10   0   0    9.52    0.99
  -8   0   0    7.16    0.77
  -6   0   0   14.13    0.87
  -4   0   0    4.28    0.48
  -2   0   0    5.42    0.33
   2   0   0    5.85    0.32
   4   0   0    4.53    0.35
   6   0   0   13.11    0.68
   8   0   0    5.38    0.53
  10   0   0    8.84    0.72
  12   0   0   14.79    0.96
  14   0   0  157.35    4.63
  16   0   0   56.51    2.76
  18   0   0    0.70    0.79
  20   0   0   11.80    1.54
  22   0   0    1.04    1.11
 -21   1   0   39.75    4.82
 -19   1   0    8.51    2.19
 -17   1   0   57.18    5.15
 -15   1   0   46.32    2.74
 -13   1   0    8.95    1.21
 -11   1   0   24.13    2.48
  -9   1   0   66.23    3.57
  -7   1   0  102.38    4.84
  -5   1   0  233.80    9.40
  -3   1   0   40.80    2.35
  -1   1   0    5.05    0.38
   1   1   0    5.91    0.42
   3   1   0   45.32    1.31
   5   1   0  243.78    5.19
   7   1   0   98.14    2.66
   9   1   0   58.99    1.81
  11   1   0   22.55    1.29
  13   1   0    8.23    0.88
  15   1   0   41.13    1.90
  17   1   0   57.95    3.02
  19   1   0   11.24    1.80
  21   1   0   42.96    3.49
  23   1   0    6.10    2.49
 -22   2   0    1.58    1.92
 -20   2   0    6.08    2.34
 -18   2   0    0.15    0.95
 -16   2   0   50.95    3.40
 -14   2   0  135.80    7.35
 -12   2   0    8.57    1.88
 -10   2   0    6.85    1.68
  -8   2   0    3.96    1.36
  -6   2   0   10.67    1.74
  -4   2   0    3.46    0.52
  -2   2   0    1.74    0.53
   0   2   0  963.94   24.24
   2   2   0    3.52    0.46
   4   2   0    3.69    0.48
   6   2   0   10.25    0.88
   8   2   0    5.61    0.76
  10   2   0    8.36    0.96
  12   2   0   11.86    1.16
  14   2   0  127.42    3.89
  16   2   0   45.73    2.33
  18   2   0   -0.31    0.81
  20   2   0   10.82    1.95
  22   2   0    2.16    1.47
 -19   3   0    8.71    1.86
 -17   3   0   43.36    4.93
 -15   3   0   38.32    4.48
 -13   3   0    4.16    1.89
 -11   3   0   20.53    3.08
  -9   3   0   40.24    3.98
  -7   3   0   55.91    4.15
  -5   3   0  127.62    6.87
  -3   3   0   22.32    1.57
  -1   3   0    4.00    0.60
   1   3   0    2.96    0.59
   3   3   0   28.72    1.29
   5   3   0  143.87    3.57
   7   3   0   58.70    2.70
   9   3   0   34.07    1.96
  11   3   0   17.79    1.51
  13   3   0    6.26    1.07
  15   3   0   27.30    2.02
  17   3   0   44.45    2.66
  19   3   0    9.47    1.59
 -18   4   0   -0.81    1.91
 -16   4   0   33.25    4.80
 -14   4   0   79.15    6.37
 -12   4   0   14.89    3.12
 -10   4   0    1.00    1.59
  -8   4   0    7.32    2.06
  -6   4   0    6.17    1.89
  -4   4   0    2.07    1.31
  -2   4   0    0.19    0.78
   0   4   0  413.94   11.28
   2   4   0    2.82    0.88
   4   4   0    2.93    0.92
   6   4   0    4.11    1.02
   8   4   0    2.54    1.00
  10   4   0    3.77    1.14
  12   4   0    6.79    1.43
  14   4   0   77.03    3.78
  16   4   0   30.97    2.82
  18   4   0    0.06    1.20
 -13   5   0   -1.25    1.82
 -11   5   0    2.40    2.23
  -9   5   0   15.88    3.50
  -7   5   0   27.99    4.28
  -5   5   0   66.93    6.38
  -3   5   0   10.91    2.50
  -1   5   0    1.42    1.53
   1   5   0    1.39    1.45
   3   5   0   12.44    2.24
   5   5   0   70.37    4.60
   7   5   0   26.22    3.33
   9   5   0   18.16    2.79
  11   5   0   13.10    1.93
  13   5   0    1.74    1.39
  15   5   0   14.70    3.29
  -8   6   0    3.74    2.53
  -6   6   0    3.09    2.37
  -4   6   0    0.19    1.87
   4   6   0   -0.85    2.13
   6   6   0    2.33    2.26
   8   6   0    1.38    2.33
  -8  -6   1   -0.85    1.70
  -6  -6   1   49.34    5.60
  -4  -6   1   -0.09    1.91
  -2  -6   1   -0.83    1.67
   0  -6   1    2.13    2.06
   2  -6   1   -1.07    1.63
   4  -6   1   -1.47    1.65
   6  -6   1   41.06    5.82
 -15  -5   1    0.86    1.45
 -13  -5   1    5.46    1.61
 -11  -5   1   64.02    3.88
  -9  -5   1   45.44    3.30
  -7  -5   1   -0.10    0.92
  -5  -5   1   50.01    3.37
  -3  -5   1    4.20    1.22
  -1  -5   1    0.52    0.81
   1  -5   1   -0.04    0.79
   3  -5   1   73.99    3.98
   5  -5   1    1.44    1.05
   7  -5   1    8.56    1.72
   9  -5   1    0.95    1.24
  11  -5   1   28.92    3.10
  13  -5   1   -0.56    1.39
  15  -5   1   -1.51    1.83
 -18  -4   1    2.28    1.51
 -16  -4   1    7.27    1.55
 -14  -4   1    1.33    0.94
 -12  -4   1   36.14    2.35
 -10  -4   1   36.21    2.16
  -8  -4   1    0.23    0.63
  -6  -4   1   99.31    3.13
  -4  -4   1   -0.14    0.57
  -2  -4   1    0.06    0.52
   0  -4   1    1.42    0.64
   2  -4   1   -0.25    0.55
   4  -4   1    5.66    0.95
   6  -4   1  103.45    3.55
   8  -4   1   66.49    2.80
  10  -4   1   14.03    1.58
  12  -4   1    8.86    1.46
  14  -4   1    0.26    1.02
  16  -4   1    0.11    1.16
  18  -4   1    1.52    1.53
 -21  -3   1   31.45    3.24
 -19  -3   1   23.69    2.72
 -17  -3   1    0.36    1.03
 -15  -3   1    3.14    1.09
 -13  -3   1   11.78    1.62
 -11  -3   1  116.86    4.53
  -9  -3   1   77.68    2.69
  -7  -3   1    8.05    0.92
  -5  -3   1  108.65    3.03
  -3  -3   1    7.79    0.83
  -1  -3   1    0.06    0.41
   1  -3   1    2.74    0.42
   3  -3   1  167.80    4.38
   5  -3   1    4.74    0.77
   7  -3   1   16.63    1.36
   9  -3   1    0.47    0.61
  11  -3   1   50.51    2.72
  13  -3   1    0.95    0.82
  15  -3   1   -0.26    0.85
  17  -3   1    2.24    1.23
  19  -3   1    0.59    1.26
 -22  -2   1    8.75    2.07
 -20  -2   1    4.29    1.43
 -18  -2   1    1.78    1.10
 -16  -2   1    7.89    1.39
 -14  -2   1    7.14    1.32
 -12  -2   1   59.69    2.93
 -10  -2   1   49.65    2.46
  -8  -2   1    3.62    0.76
  -6  -2   1  176.69    5.42
  -4  -2   1   -0.01    0.31
  -2  -2   1    0.10    0.31
   0  -2   1    4.42    0.50
   2  -2   1    1.05    0.37
   4  -2   1    9.88    0.85
   6  -2   1  188.02    3.85
   8  -2   1  127.45    2.94
  10  -2   1   22.33    1.63
  12  -2   1   17.31    1.61
  14  -2   1   -0.57    0.74
  16  -2   1   -0.69    0.76
  18  -2   1    4.33    1.97
  20  -2   1   61.85    4.80
 -23  -1   1   11.51    2.22
 -21  -1   1   43.07    3.68
 -19  -1   1   28.20    2.80
 -17  -1   1    1.64    1.04
 -15  -1   1    4.85    1.19
 -13  -1   1   20.06    1.95
 -11  -1   1  176.59    5.93
  -9  -1   1  126.52    3.18
  -7  -1   1   13.05    0.78
  -5  -1   1  174.06    3.90
  -3  -1   1   16.76    0.72
  -1  -1   1    1.61    0.25
   1  -1   1    5.48    0.39
   3  -1   1  287.60    5.27
   5  -1   1   10.38    0.62
   7  -1   1   27.30    1.07
   9  -1   1    0.87    0.42
  11  -1   1   67.41    2.22
  13  -1   1    0.04    0.46
  15  -1   1   -0.12    0.66
  17  -1   1    4.22    1.09
  19  -1   1    2.32    1.34
  21  -1   1    2.52    1.52
 -22   0   1   17.15    3.15
 -20   0   1    3.19    1.64
 -18   0   1    4.01    1.63
 -16   0   1   11.28    2.17
 -14   0   1    5.99    1.52
 -12   0   1   79.73    2.93
 -10   0   1   66.12    2.42
  -8   0   1    3.30    0.56
  -6   0   1  251.51    6.52
  -4   0   1    0.03    0.32
  -2   0   1    0.87    0.21
   0   0   1    7.02    0.31
   2   0   1    1.75    0.22
   4   0   1   15.06    0.56
   6   0   1  251.86    4.43
   8   0   1  160.65    3.13
  10   0   1   27.00    1.23
  12   0   1   21.36    1.22
  14   0   1   -0.76    0.57
  16   0   1    0.55    0.75
  18   0   1    7.96    1.36
  20   0   1   70.65    3.58
  22   0   1   -0.22    1.06
 -23   1   1   14.91    3.23
 -21   1   1   43.29    4.86
 -19   1   1   27.03    3.71
 -17   1   1    0.26    1.05
 -15   1   1    3.75    0.99
 -13   1   1   21.27    1.81
 -11   1   1  184.57    5.65
  -9   1   1  121.46    4.00
  -7   1   1   10.75    1.52
  -5   1   1  165.09    7.07
  -3   1   1   17.08    0.93
  -1   1   1    2.29    0.37
   1   1   1    5.41    0.47
   3   1   1  286.73    5.19
   5   1   1    9.10    0.72
   7   1   1   25.25    1.18
   9   1   1    0.75    0.44
  11   1   1   64.31    2.20
  13   1   1    0.15    0.51
  15   1   1    0.09    0.59
  17   1   1    2.57    1.01
  19   1   1    3.32    1.35
  21   1   1   -1.27    1.11
 -22   2   1   10.82    2.80
 -20   2   1    2.07    1.68
 -18   2   1    3.12    1.14
 -16   2   1   12.47    1.63
 -14   2   1    5.24    1.14
 -12   2   1   57.77    4.16
 -10   2   1   53.30    3.79
  -8   2   1    2.06    1.16
  -6   2   1  179.53    8.07
  -4   2   1   -0.59    0.42
  -2   2   1    0.66    0.47
   0   2   1    3.44    0.50
   2   2   1    0.18    0.33
   4   2   1   10.00    0.72
   6   2   1  184.18    4.54
   8   2   1  119.61    3.43
  10   2   1   20.92    1.45
  12   2   1   17.71    1.41
  14   2   1    0.29    0.65
  16   2   1    0.05    0.67
  18   2   1    3.14    1.34
  20   2   1   54.55    4.01
 -21   3   1   31.56    4.43
 -19   3   1   21.61    2.60
 -17   3   1    0.88    1.11
 -15   3   1    3.36    1.73
 -13   3   1    9.28    2.37
 -11   3   1  121.05    6.99
  -9   3   1   75.62    5.15
  -7   3   1    8.14    1.94
  -5   3   1   91.04    3.47
  -3   3   1    5.79    0.94
  -1   3   1    1.07    0.54
   1   3   1    1.68    0.56
   3   3   1  174.01    4.11
   5   3   1    7.87    1.10
   7   3   1   15.21    1.47
   9   3   1   -0.28    0.60
  11   3   1   48.04    2.52
  13   3   1    0.79    0.81
  15   3   1    1.18    0.95
  17   3   1    3.26    1.15
  19   3   1    1.82    1.17
 -18   4   1    0.76    1.33
 -16   4   1    5.99    2.57
 -14   4   1    3.00    2.03
 -12   4   1   25.20    3.97
 -10   4   1   26.33    3.84
  -8   4   1    0.24    1.31
  -6   4   1   83.87    5.93
  -4   4   1   -0.54    1.10
  -2   4   1   -0.60    0.72
   0   4   1    0.44    0.66
   2   4   1    1.08    0.63
   4   4   1    6.09    1.11
   6   4   1  105.72    4.08
   8   4   1   65.10    3.21
  10   4   1    8.87    1.57
  12   4   1   10.31    1.69
  14   4   1    0.80    1.20
  16   4   1   -0.11    1.22
 -15   5   1    1.21    2.28
 -13   5   1    0.84    2.05
 -11   5   1   51.79    6.07
  -9   5   1   39.45    5.20
  -7   5   1    2.80    1.92
  -5   5   1   50.33    5.19
  -3   5   1    8.39    2.34
  -1   5   1    0.59    1.03
   1   5   1    0.57    1.43
   3   5   1   86.46    5.22
   5   5   1    3.18    1.74
   7   5   1   13.24    1.92
   9   5   1   -0.16    1.23
  11   5   1   30.74    2.90
  13   5   1    0.27    1.40
  -8   6   1   -1.20    1.95
  -6   6   1   42.58    5.40
  -4   6   1   -0.96    1.74
   2   6   1    4.01    2.20
   4   6   1    1.96    2.01
   6   6   1   53.87    5.23
   8   6   1   29.04    4.06
 -10  -6   2    1.35    2.03
  -8  -6   2    3.84    1.64
  -6  -6   2   61.70    4.33
  -4  -6   2    6.41    1.64
  -2  -6   2    3.46    1.32
   0  -6   2    0.12    1.13
   2  -6   2   19.01    2.43
   4  -6   2   -1.26    1.22
   6  -6   2    1.67    1.57
   8  -6   2   11.16    3.02
 -15  -5   2   30.88    3.04
 -13  -5   2    1.74    1.16
 -11  -5   2    1.21    1.14
  -9  -5   2   -0.40    0.93
  -7  -5   2   -0.02    0.94
  -5  -5   2    2.59    1.10
  -3  -5   2   79.87    3.93
  -1  -5   2   22.36    2.23
   1  -5   2   54.29    3.74
   3  -5   2   -0.22    0.88
   5  -5   2    2.70    1.24
   7  -5   2    6.93    1.61
   9  -5   2   12.40    2.13
  11  -5   2   29.67    3.27
  13  -5   2   -2.11    1.66
 -18  -4   2   13.24    2.08
 -16  -4   2    8.45    1.76
 -14  -4   2   16.76    2.06
 -12  -4   2    2.66    1.14
 -10  -4   2    1.62    0.93
  -8  -4   2    7.12    1.36
  -6  -4   2  119.48    4.65
  -4  -4   2   12.67    1.51
  -2  -4   2    5.99    1.13
   0  -4   2    2.58    0.83
   2  -4   2   50.54    2.87
   4  -4   2    1.15    0.88
   6  -4   2    0.74    0.88
   8  -4   2   18.64    2.20
  10  -4   2   23.20    2.65
  12  -4   2   34.90    3.32
  14  -4   2   27.00    3.27
  16  -4   2    4.24    2.02
 -21  -3   2    0.36    1.23
 -19  -3   2    6.41    1.63
 -17  -3   2    4.10    1.29
 -15  -3   2   59.00    3.20
 -13  -3   2    6.72    1.25
 -11  -3   2    0.06    0.70
  -9  -3   2    0.59    0.55
  -7  -3   2   -0.15    0.50
  -5  -3   2    5.18    0.71
  -3  -3   2  202.80    4.84
  -1  -3   2   60.62    1.99
   1  -3   2  138.32    3.60
   3  -3   2    0.85    0.52
   5  -3   2    3.18    0.66
   7  -3   2   16.80    1.39
   9  -3   2   30.13    2.02
  11  -3   2   51.44    2.72
  13  -3   2   -0.14    0.84
  15  -3   2   58.09    3.53
  17  -3   2   30.64    2.82
  19  -3   2    0.33    2.61
 -22  -2   2    1.38    1.35
 -20  -2   2   76.19    4.21
 -18  -2   2   28.46    2.52
 -16  -2   2   15.90    1.80
 -14  -2   2   22.13    2.07
 -12  -2   2    5.16    1.01
 -10  -2   2    1.40    0.68
  -8  -2   2   14.79    0.89
  -6  -2   2  214.11    4.99
  -4  -2   2   21.56    0.87
  -2  -2   2    8.65    0.54
   0  -2   2    7.82    0.60
   2  -2   2   92.57    2.43
   4  -2   2    2.41    0.54
   6  -2   2    4.01    0.70
   8  -2   2   39.03    1.99
  10  -2   2   43.19    2.23
  12  -2   2   47.52    2.62
  14  -2   2   40.94    2.75
  16  -2   2    5.94    1.41
  18  -2   2   21.53    2.30
  20  -2   2    6.07    2.15
 -23  -1   2   16.11    2.46
 -21  -1   2    1.45    1.20
 -19  -1   2   14.70    2.03
 -17  -1   2    9.42    1.56
 -15  -1   2   75.74    3.55
 -13  -1   2    9.38    1.30
 -11  -1   2    0.03    0.41
  -9  -1   2    1.10    0.43
  -7  -1   2    0.11    0.32
  -5  -1   2   10.18    0.70
  -3  -1   2  344.73    7.45
  -1  -1   2  114.99    3.50
   1  -1   2  233.25    4.42
   3  -1   2    0.98    0.25
   5  -1   2    6.91    0.54
   7  -1   2   25.23    1.16
   9  -1   2   42.14    1.59
  11  -1   2   84.57    2.57
  13  -1   2    0.21    0.54
  15  -1   2   61.60    2.94
  17  -1   2   42.37    3.56
  19  -1   2    0.86    1.36
  21  -1   2    5.05    1.89
 -24   0   2   -0.16    1.34
 -22   0   2   -0.45    1.40
 -20   0   2   90.63    5.83
 -18   0   2   31.61    3.57
 -16   0   2   17.84    2.55
 -14   0   2   31.98    2.12
 -12   0   2    6.61    0.91
 -10   0   2    2.15    0.59
  -8   0   2   20.85    1.34
  -6   0   2  301.77    7.86
  -4   0   2   28.27    1.18
  -2   0   2   11.98    0.69
   0   0   2   11.94    0.57
   2   0   2  121.11    2.07
   4   0   2    2.72    0.32
   6   0   2    3.32    0.37
   8   0   2   52.36    1.47
  10   0   2   46.32    1.50
  12   0   2   59.78    1.96
  14   0   2   51.27    2.58
  16   0   2    3.36    0.97
  18   0   2   27.24    2.30
  20   0   2    6.22    1.37
 -23   1   2   14.40    3.01
 -21   1   2    0.32    1.38
 -19   1   2    8.01    2.20
 -17   1   2   12.02    1.57
 -15   1   2   81.10    3.35
 -13   1   2    9.65    1.21
 -11   1   2   -0.25    0.47
  -9   1   2    0.71    0.47
  -7   1   2   -0.20    0.33
  -5   1   2   11.16    0.68
  -3   1   2  344.89    7.10
  -1   1   2  110.98    3.36
   1   1   2  231.36    5.02
   3   1   2    0.88    0.30
   5   1   2    7.18    0.56
   7   1   2   25.52    1.01
   9   1   2   39.83    1.66
  11   1   2   85.33    2.55
  13   1   2    0.59    0.60
  15   1   2   60.43    2.91
  17   1   2   39.34    2.74
  19   1   2   -1.10    1.06
  21   1   2    3.85    1.52
 -22   2   2    2.53    1.86
 -20   2   2   80.15    5.64
 -18   2   2   22.06    2.15
 -16   2   2   16.98    1.85
 -14   2   2   26.48    2.18
 -12   2   2    4.17    0.92
 -10   2   2    4.05    1.38
  -8   2   2   17.29    2.33
  -6   2   2  207.89    6.00
  -4   2   2   20.38    1.39
  -2   2   2    8.35    0.90
   0   2   2    8.35    0.74
   2   2   2   84.46    2.36
   4   2   2    1.76    0.46
   6   2   2    2.83    0.47
   8   2   2   38.20    1.95
  10   2   2   39.47    1.99
  12   2   2   51.22    2.32
  14   2   2   38.86    2.33
  16   2   2    5.06    1.12
  18   2   2   21.07    2.42
  20   2   2    1.75    1.43
 -21   3   2   -0.05    1.28
 -19   3   2   11.18    1.97
 -17   3   2    7.69    1.59
 -15   3   2   65.70    3.58
 -13   3   2    3.73    1.87
 -11   3   2   -0.31    1.07
  -9   3   2    0.54    1.27
  -7   3   2    0.04    1.13
  -5   3   2    4.90    0.98
  -3   3   2  189.71    5.88
  -1   3   2   62.48    2.07
   1   3   2  131.92    3.53
   3   3   2    0.59    0.55
   5   3   2    4.58    1.01
   7   3   2   16.32    1.67
   9   3   2   27.92    2.24
  11   3   2   51.22    2.67
  13   3   2   -0.43    0.81
  15   3   2   42.95    2.74
  17   3   2   27.66    2.29
 -18   4   2   13.11    3.07
 -16   4   2    9.12    2.70
 -14   4   2   16.30    3.34
 -12   4   2    4.42    2.07
 -10   4   2    2.96    1.84
  -8   4   2    6.35    2.05
  -6   4   2  116.66    7.10
  -4   4   2   13.81    1.60
  -2   4   2    6.20    1.16
   0   4   2    2.54    0.72
   2   4   2   45.38    1.91
   4   4   2   -0.57    0.79
   6   4   2    1.78    0.95
   8   4   2   24.34    2.30
  10   4   2   27.80    2.52
  12   4   2   25.60    2.54
  14   4   2   26.46    2.73
  16   4   2    3.65    1.58
 -15   5   2   38.66    5.62
 -13   5   2    0.80    2.15
 -11   5   2    0.95    2.03
  -9   5   2   -1.82    1.62
  -7   5   2   -0.05    1.64
  -5   5   2    1.22    1.43
  -3   5   2   75.52    5.52
  -1   5   2   24.12    2.28
   1   5   2   58.67    4.35
   3   5   2    0.28    1.57
   5   5   2    1.99    1.26
   7   5   2    6.56    1.60
   9   5   2   16.07    2.25
  11   5   2   21.94    2.64
  13   5   2    0.68    2.10
  -8   6   2    7.38    3.01
  -6   6   2   50.09    5.87
  -4   6   2    6.46    2.60
   2   6   2   13.84    3.19
   4   6   2    0.17    2.15
   6   6   2   -0.11    2.21
 -10  -6   3    1.95    2.33
  -8  -6   3   10.59    2.02
  -6  -6   3   10.65    2.11
  -4  -6   3   25.44    2.74
  -2  -6   3    2.46    1.46
   0  -6   3   42.82    3.63
   2  -6   3    4.94    1.71
   4  -6   3   16.99    2.50
 -15  -5   3    1.44    1.46
 -13  -5   3   -0.04    1.18
 -11  -5   3   32.44    2.93
  -9  -5   3   78.48    4.00
  -7  -5   3   -0.09    0.95
  -5  -5   3    1.74    1.06
  -3  -5   3    3.43    1.16
  -1  -5   3    2.12    1.05
   1  -5   3    5.94    1.46
   3  -5   3    0.54    1.03
   5  -5   3   98.79    4.99
   7  -5   3   21.64    2.55
   9  -5   3   15.74    2.56
  11  -5   3    2.35    1.64
 -18  -4   3   13.18    2.16
 -16  -4   3   12.04    1.91
 -14  -4   3   53.80    3.69
 -12  -4   3   69.22    3.63
 -10  -4   3    2.80    1.01
  -8  -4   3   12.94    1.63
  -6  -4   3   22.18    2.05
  -4  -4   3   64.63    3.13
  -2  -4   3    4.16    1.10
   0  -4   3  111.51    4.67
   2  -4   3   11.05    1.55
   4  -4   3   41.95    3.16
   6  -4   3   -0.12    0.89
   8  -4   3    2.40    1.09
  10  -4   3   29.81    3.09
  12  -4   3    9.96    2.01
  14  -4   3   15.81    2.80
 -21  -3   3    1.78    1.77
 -19  -3   3    0.88    1.17
 -17  -3   3   33.44    2.83
 -15  -3   3    3.60    1.18
 -13  -3   3    0.29    0.80
 -11  -3   3   64.09    3.06
  -9  -3   3  141.24    4.99
  -7  -3   3    0.16    0.57
  -5  -3   3    2.57    0.76
  -3  -3   3   12.06    1.32
  -1  -3   3    3.34    0.82
   1  -3   3   19.05    1.68
   3  -3   3    2.35    0.80
   5  -3   3  190.90    6.57
   7  -3   3   42.42    3.07
   9  -3   3   24.96    2.53
  11  -3   3    3.04    1.33
  13  -3   3    1.44    1.33
  15  -3   3   24.92    3.33
  17  -3   3    6.72    2.28
 -22  -2   3   -1.11    1.18
 -20  -2   3   21.18    2.37
 -18  -2   3   22.60    2.34
 -16  -2   3   21.30    2.03
 -14  -2   3   87.99    3.57
 -12  -2   3  109.14    4.01
 -10  -2   3    7.77    1.06
  -8  -2   3   30.71    1.42
  -6  -2   3   39.09    1.55
  -4  -2   3  124.84    3.34
  -2  -2   3    8.33    0.76
   0  -2   3  232.11    5.51
   2  -2   3   28.89    1.15
   4  -2   3   73.52    2.33
   6  -2   3   -0.59    0.45
   8  -2   3    3.91    0.84
  10  -2   3   49.54    2.53
  12  -2   3   12.83    1.60
  14  -2   3   31.05    2.47
  16  -2   3   -0.21    1.02
  18  -2   3    1.87    1.29
 -23  -1   3    1.29    1.67
 -21  -1   3    0.15    1.03
 -19  -1   3    1.06    0.92
 -17  -1   3   42.10    2.91
 -15  -1   3    8.17    1.26
 -13  -1   3    0.70    0.65
 -11  -1   3   96.94    2.85
  -9  -1   3  221.40    5.24
  -7  -1   3   -0.23    0.29
  -5  -1   3    4.51    0.48
  -3  -1   3   19.16    0.93
  -1  -1   3    5.81    0.58
   1  -1   3   32.78    1.02
   3  -1   3    6.39    0.49
   5  -1   3  278.48    5.03
   7  -1   3   60.61    1.89
   9  -1   3   36.01    1.60
  11  -1   3    5.00    0.76
  13  -1   3    0.25    0.74
  15  -1   3   37.22    2.54
  17  -1   3   14.89    2.30
  19  -1   3   17.10    2.67
 -24   0   3    7.99    2.54
 -22   0   3    0.29    1.13
 -20   0   3   18.38    2.88
 -18   0   3   30.07    3.40
 -16   0   3   21.48    2.72
 -14   0   3  102.41    3.76
 -12   0   3  129.57    4.42
 -10   0   3    9.22    1.03
  -8   0   3   37.04    1.69
  -6   0   3   53.87    2.00
  -4   0   3  162.50    4.56
  -2   0   3   11.69    0.83
   0   0   3  312.71    5.88
   2   0   3   33.07    0.90
   4   0   3   92.09    1.84
   6   0   3    0.33    0.31
   8   0   3    3.20    0.47
  10   0   3   52.67    1.67
  12   0   3   17.71    1.46
  14   0   3   33.24    2.22
  16   0   3    0.02    0.87
  18   0   3    1.82    1.38
  20   0   3   27.05    3.31
 -23   1   3    3.46    1.80
 -21   1   3    0.75    1.17
 -19   1   3    1.48    1.25
 -17   1   3   44.30    2.88
 -15   1   3    7.08    1.17
 -13   1   3    1.02    0.67
 -11   1   3   92.08    3.43
  -9   1   3  220.86    6.33
  -7   1   3    0.20    0.34
  -5   1   3    3.80    0.46
  -3   1   3   20.87    1.43
  -1   1   3    5.30    0.80
   1   1   3   32.51    1.30
   3   1   3    6.93    0.61
   5   1   3  283.65    5.50
   7   1   3   60.04    1.65
   9   1   3   36.95    1.75
  11   1   3    5.44    0.84
  13   1   3    0.06    0.62
  15   1   3   29.93    2.31
  17   1   3   12.73    1.97
  19   1   3   13.65    2.10
 -22   2   3    0.58    1.64
 -20   2   3   16.82    2.09
 -18   2   3   25.12    2.35
 -16   2   3   19.19    1.94
 -14   2   3   77.69    3.41
 -12   2   3   99.26    3.87
 -10   2   3    6.27    0.96
  -8   2   3   28.93    1.35
  -6   2   3   43.28    1.47
  -4   2   3  125.52    4.09
  -2   2   3    7.39    1.00
   0   2   3  229.68    5.32
   2   2   3   27.45    1.45
   4   2   3   74.25    2.31
   6   2   3    0.59    0.45
   8   2   3    3.00    0.82
  10   2   3   43.34    2.35
  12   2   3   15.43    1.51
  14   2   3   26.58    2.05
  16   2   3    1.39    1.13
  18   2   3    0.88    1.32
 -21   3   3    0.59    1.93
 -19   3   3    1.00    1.86
 -17   3   3   30.81    4.23
 -15   3   3    4.57    1.87
 -13   3   3   -0.84    1.09
 -11   3   3   64.02    4.85
  -9   3   3  126.94    7.44
  -7   3   3    0.70    0.90
  -5   3   3    3.54    1.01
  -3   3   3    9.92    1.31
  -1   3   3    3.40    0.92
   1   3   3   19.84    1.37
   3   3   3    3.24    0.72
   5   3   3  189.47    6.13
   7   3   3   42.50    2.83
   9   3   3   24.20    2.27
  11   3   3    3.00    1.15
  13   3   3   -1.12    0.82
  15   3   3   29.46    2.34
  17   3   3    9.42    1.59
 -18   4   3   21.31    4.15
 -16   4   3    9.72    2.85
 -14   4   3   49.69    5.50
 -12   4   3   74.19    6.80
 -10   4   3    5.44    2.10
  -8   4   3   15.09    2.84
  -6   4   3   20.44    3.13
  -4   4   3   60.85    3.02
  -2   4   3    3.56    1.09
   0   4   3  124.11    4.42
   2   4   3   13.18    1.66
   4   4   3   43.54    2.95
   6   4   3   -0.52    0.92
   8   4   3    2.03    1.14
  10   4   3   29.19    2.74
  12   4   3    8.66    1.89
  14   4   3   19.08    2.51
 -15   5   3    1.88    2.38
 -13   5   3    0.09    1.83
 -11   5   3   37.53    5.01
  -9   5   3   68.90    6.73
  -7   5   3   -0.87    1.76
  -5   5   3    1.55    1.76
  -3   5   3    4.72    2.12
  -1   5   3    4.95    2.03
   1   5   3    8.01    2.28
   3   5   3    0.17    1.14
   5   5   3  101.30    4.66
   7   5   3   16.22    2.14
   9   5   3   14.84    2.35
  11   5   3    2.78    1.78
  -8   6   3    3.29    2.63
  -6   6   3   11.46    3.24
   2   6   3    4.73    2.63
   4   6   3   20.69    3.96
  -8  -6   4   -2.17    2.14
  -6  -6   4   39.85    3.47
  -4  -6   4    2.67    1.45
  -2  -6   4    9.79    1.90
   0  -6   4    8.86    1.93
   2  -6   4    9.64    2.86
 -13  -5   4    0.04    1.46
 -11  -5   4   27.07    3.96
  -9  -5   4   14.14    1.96
  -7  -5   4    2.01    1.16
  -5  -5   4   33.81    2.94
  -3  -5   4    0.45    0.89
  -1  -5   4   32.04    2.77
   1  -5   4   -0.74    0.88
   3  -5   4    1.42    1.11
   5  -5   4    3.24    1.36
   7  -5   4   -0.30    1.19
   9  -5   4   -0.93    1.33
 -18  -4   4    3.72    2.01
 -16  -4   4    7.58    2.22
 -14  -4   4    7.24    2.14
 -12  -4   4    3.49    1.12
 -10  -4   4    4.15    1.17
  -8  -4   4   -0.70    0.67
  -6  -4   4   87.88    3.97
  -4  -4   4    4.80    1.10
  -2  -4   4   23.68    2.14
   0  -4   4   21.26    2.10
   2  -4   4   16.39    1.94
   4  -4   4    8.47    1.56
   6  -4   4   16.20    2.21
   8  -4   4   35.61    3.34
  10  -4   4    1.72    1.38
  12  -4   4   22.46    3.11
 -21  -3   4   39.57    4.68
 -19  -3   4   15.01    2.98
 -17  -3   4   34.89    4.09
 -15  -3   4   19.33    2.01
 -13  -3   4    0.32    0.80
 -11  -3   4   46.75    2.70
  -9  -3   4   32.00    2.11
  -7  -3   4    3.31    0.70
  -5  -3   4   58.95    2.23
  -3  -3   4   -0.20    0.45
  -1  -3   4   68.89    2.98
   1  -3   4    0.98    0.70
   3  -3   4    0.31    0.66
   5  -3   4    7.37    1.38
   7  -3   4    0.26    0.80
   9  -3   4   -0.47    0.87
  11  -3   4   46.88    4.02
  13  -3   4    3.43    1.64
  15  -3   4   11.12    2.66
 -22  -2   4   31.64    4.03
 -20  -2   4    6.16    1.88
 -18  -2   4   12.85    2.33
 -16  -2   4   10.42    2.04
 -14  -2   4   16.02    1.66
 -12  -2   4    8.92    1.18
 -10  -2   4    4.96    0.77
  -8  -2   4    0.08    0.45
  -6  -2   4  169.35    4.38
  -4  -2   4   11.56    0.92
  -2  -2   4   45.34    1.76
   0  -2   4   41.68    1.72
   2  -2   4   31.32    1.67
   4  -2   4   15.88    1.33
   6  -2   4   30.99    1.78
   8  -2   4   58.50    2.53
  10  -2   4    4.50    1.10
  12  -2   4   40.06    2.72
  14  -2   4    1.36    1.26
  16  -2   4   26.82    3.14
 -23  -1   4   15.52    2.98
 -21  -1   4   46.82    4.73
 -19  -1   4   23.66    3.18
 -17  -1   4   50.57    3.88
 -15  -1   4   27.88    2.13
 -13  -1   4    1.92    0.59
 -11  -1   4   59.63    2.11
  -9  -1   4   51.85    1.80
  -7  -1   4    7.51    0.65
  -5  -1   4   91.84    2.55
  -3  -1   4    0.93    0.32
  -1  -1   4  111.63    2.97
   1  -1   4    0.85    0.37
   3  -1   4    4.12    0.56
   5  -1   4   12.40    0.83
   7  -1   4    0.06    0.39
   9  -1   4   -0.35    0.46
  11  -1   4   65.42    2.83
  13  -1   4    3.31    0.95
  15  -1   4   22.46    2.06
  17  -1   4    0.47    1.34
  19  -1   4    8.59    3.10
 -24   0   4    9.70    2.47
 -22   0   4   34.85    4.00
 -20   0   4    8.50    2.08
 -18   0   4   15.33    2.38
 -16   0   4   13.63    1.51
 -14   0   4   18.99    1.64
 -12   0   4   11.84    1.27
 -10   0   4    7.88    0.98
  -8   0   4    0.42    0.30
  -6   0   4  203.45    5.76
  -4   0   4   16.54    1.01
  -2   0   4   51.88    1.96
   0   0   4   52.41    1.47
   2   0   4   38.36    1.05
   4   0   4   19.54    0.89
   6   0   4   35.84    1.20
   8   0   4   75.71    1.83
  10   0   4    7.33    0.79
  12   0   4   50.80    2.72
  14   0   4    0.46    0.87
  16   0   4   32.11    3.21
  18   0   4    0.42    1.43
 -23   1   4    8.70    2.47
 -21   1   4   58.49    4.38
 -19   1   4   22.59    3.00
 -17   1   4   50.76    2.89
 -15   1   4   26.62    2.09
 -13   1   4    0.59    0.61
 -11   1   4   63.38    2.63
  -9   1   4   49.28    2.12
  -7   1   4    8.06    0.77
  -5   1   4   96.52    3.36
  -3   1   4    0.21    0.53
  -1   1   4  106.81    3.73
   1   1   4    1.04    0.47
   3   1   4    2.72    0.64
   5   1   4   11.47    0.92
   7   1   4    0.59    0.48
   9   1   4    0.11    0.58
  11   1   4   61.31    2.55
  13   1   4    2.30    0.90
  15   1   4   25.65    2.56
  17   1   4    2.45    1.38
  19   1   4    9.59    2.81
 -20   2   4    7.73    2.35
 -18   2   4    6.10    2.09
 -16   2   4    5.14    1.83
 -14   2   4   13.38    2.52
 -12   2   4    9.68    2.01
 -10   2   4    5.49    1.66
  -8   2   4    0.46    0.76
  -6   2   4  170.16    5.38
  -4   2   4   10.73    1.30
  -2   2   4   46.22    2.26
   0   2   4   41.78    1.77
   2   2   4   29.78    1.60
   4   2   4   17.98    1.33
   6   2   4   28.68    2.21
   8   2   4   57.88    2.54
  10   2   4    7.33    1.12
  12   2   4   36.01    2.40
  14   2   4    2.17    1.07
  16   2   4   31.94    3.12
  18   2   4   -0.76    1.85
 -21   3   4   40.33    5.28
 -19   3   4   17.13    3.47
 -17   3   4   30.89    4.25
 -15   3   4   11.01    2.66
 -13   3   4    0.60    1.33
 -11   3   4   47.92    4.77
  -9   3   4   39.68    4.20
  -7   3   4    4.35    1.15
  -5   3   4   57.06    2.84
  -3   3   4    1.41    0.83
  -1   3   4   67.63    2.94
   1   3   4    0.63    0.62
   3   3   4    1.62    0.68
   5   3   4    4.40    1.18
   7   3   4   -0.23    0.89
   9   3   4   -0.45    0.95
  11   3   4   49.48    3.55
  13   3   4    1.59    1.33
  15   3   4   17.33    2.38
 -18   4   4    9.61    3.12
 -16   4   4    4.61    2.27
 -14   4   4   18.33    3.71
 -12   4   4    1.32    1.85
 -10   4   4    0.69    1.55
  -8   4   4    1.59    1.46
  -6   4   4   94.94    6.17
  -4   4   4    7.31    1.27
  -2   4   4   24.51    2.20
   0   4   4   27.87    2.27
   2   4   4   14.42    1.89
   4   4   4   10.03    1.64
   6   4   4   17.65    2.14
   8   4   4   36.51    3.14
  10   4   4    3.83    1.57
  12   4   4   23.10    2.90
 -13   5   4   -1.16    2.06
 -11   5   4   18.91    3.84
  -9   5   4   18.14    3.61
  -7   5   4    0.96    2.01
  -5   5   4   31.09    4.07
  -3   5   4    0.44    1.24
  -1   5   4   30.76    4.01
   1   5   4   -2.49    1.71
   3   5   4    0.31    1.25
   5   5   4    0.01    1.39
   7   5   4   -0.34    1.35
   9   5   4    0.02    1.57
  -8   6   4    1.93    2.12
  -6   6   4   41.67    5.20
   2   6   4    7.37    3.17
 -13  -5   5   -1.05    1.48
 -11  -5   5   18.27    3.25
  -9  -5   5   -0.96    1.28
  -7  -5   5   10.47    2.57
  -5  -5   5   14.81    2.72
  -3  -5   5    2.15    1.57
  -1  -5   5   27.28    2.68
   1  -5   5   38.42    3.34
   3  -5   5    2.99    1.40
   5  -5   5    7.74    1.90
   7  -5   5   10.89    2.23
 -16  -4   5    2.77    1.89
 -14  -4   5    9.23    2.39
 -12  -4   5    7.06    2.01
 -10  -4   5   41.90    4.24
  -8  -4   5   10.29    2.21
  -6  -4   5    4.81    1.55
  -4  -4   5    0.55    0.80
  -2  -4   5   -0.10    0.69
   0  -4   5    8.99    1.48
   2  -4   5   22.89    2.39
   4  -4   5    1.94    1.15
   6  -4   5   73.65    4.53
   8  -4   5   13.70    2.41
  10  -4   5    4.22    1.84
  12  -4   5   11.52    4.75
 -19  -3   5    1.78    1.66
 -17  -3   5   -0.44    1.26
 -15  -3   5   83.69    5.66
 -13  -3   5    7.00    1.90
 -11  -3   5   41.80    3.94
  -9  -3   5    0.62    0.72
  -7  -3   5   28.44    2.20
  -5  -3   5   31.94    1.74
  -3  -3   5    7.08    0.93
  -1  -3   5   66.93    2.55
   1  -3   5   93.30    3.92
   3  -3   5    5.11    1.12
   5  -3   5   15.03    1.97
   7  -3   5   17.65    2.28
   9  -3   5    1.41    1.27
  11  -3   5    4.15    1.57
  13  -3   5    9.75    2.24
 -22  -2   5    2.90    1.87
 -20  -2   5   17.93    3.19
 -18  -2   5   15.89    2.71
 -16  -2   5    4.42    1.60
 -14  -2   5   15.75    2.45
 -12  -2   5    5.68    1.54
 -10  -2   5   77.12    3.45
  -8  -2   5   21.67    1.86
  -6  -2   5   21.09    1.77
  -4  -2   5    0.56    0.48
  -2  -2   5   -0.19    0.43
   0  -2   5   12.05    1.09
   2  -2   5   35.77    1.96
   4  -2   5    3.91    0.85
   6  -2   5  109.91    4.83
   8  -2   5   22.73    2.58
  10  -2   5    3.55    1.39
  12  -2   5   11.73    2.10
  14  -2   5   19.71    2.67
  16  -2   5   -0.80    1.29
 -23  -1   5    0.20    1.47
 -21  -1   5    3.70    1.76
 -19  -1   5    4.56    1.67
 -17  -1   5    1.49    1.19
 -15  -1   5  108.83    5.67
 -13  -1   5    5.03    0.93
 -11  -1   5   48.94    2.41
  -9  -1   5    2.08    0.70
  -7  -1   5   43.64    2.13
  -5  -1   5   47.77    2.23
  -3  -1   5   15.42    1.36
  -1  -1   5  103.41    3.06
   1  -1   5  125.45    4.32
   3  -1   5    8.72    0.80
   5  -1   5   22.99    1.33
   7  -1   5   29.75    1.62
   9  -1   5    3.55    0.91
  11  -1   5   -0.28    0.73
  13  -1   5   21.81    1.96
  15  -1   5   26.41    2.30
  17  -1   5   18.76    3.91
 -24   0   5   24.66    3.75
 -22   0   5    0.65    1.41
 -20   0   5   19.80    2.92
 -18   0   5   19.10    2.67
 -16   0   5    8.67    1.30
 -14   0   5   29.64    2.13
 -12   0   5   13.17    1.33
 -10   0   5   89.77    3.32
  -8   0   5   23.64    1.44
  -6   0   5   29.88    1.59
  -4   0   5    1.85    0.55
  -2   0   5   -0.42    0.38
   0   0   5   17.33    0.96
   2   0   5   43.34    1.50
   4   0   5    2.34    0.46
   6   0   5  129.54    2.65
   8   0   5   38.04    1.47
  10   0   5    5.78    0.78
  12   0   5   18.20    1.70
  14   0   5   20.50    2.41
  16   0   5   -1.51    1.27
 -19   1   5    1.48    1.49
 -17   1   5    1.35    1.37
 -15   1   5  109.28    4.08
 -13   1   5    5.72    0.97
 -11   1   5   49.51    3.81
  -9   1   5    1.53    1.07
  -7   1   5   45.51    3.38
  -5   1   5   46.54    2.44
  -3   1   5   13.73    1.44
  -1   1   5  100.72    3.78
   1   1   5  130.35    4.46
   3   1   5    7.69    0.97
   5   1   5   22.11    1.50
   7   1   5   27.64    1.53
   9   1   5    4.39    1.00
  11   1   5   -1.68    0.76
  13   1   5   21.58    2.42
  15   1   5   33.12    3.07
  17   1   5   15.78    2.54
 -20   2   5   21.16    3.50
 -18   2   5   14.95    2.81
 -16   2   5    4.53    1.81
 -14   2   5   22.35    3.26
 -12   2   5    6.94    1.88
 -10   2   5   80.70    5.19
  -8   2   5   22.54    1.99
  -6   2   5   25.56    2.02
  -4   2   5    2.09    0.89
  -2   2   5   -0.48    0.66
   0   2   5   13.47    1.48
   2   2   5   42.64    2.43
   4   2   5    2.95    0.77
   6   2   5  110.55    4.39
   8   2   5   30.21    2.55
  10   2   5    3.69    1.30
  12   2   5   12.94    1.65
  14   2   5   18.34    2.04
  16   2   5   -0.60    1.51
 -21   3   5    3.87    2.34
 -19   3   5    4.54    2.09
 -17   3   5    0.36    1.65
 -15   3   5   76.97    6.10
 -13   3   5    2.60    1.76
 -11   3   5   39.94    4.52
  -9   3   5    0.89    0.92
  -7   3   5   31.28    2.44
  -5   3   5   31.35    2.42
  -3   3   5    6.87    1.28
  -1   3   5   66.98    3.09
   1   3   5   84.48    3.62
   3   3   5    4.22    1.25
   5   3   5   13.51    1.80
   7   3   5   22.28    2.36
   9   3   5    2.09    1.31
  11   3   5    0.30    1.21
  13   3   5   21.34    2.71
  15   3   5   24.01    4.22
 -16   4   5    0.34    1.91
 -14   4   5   13.08    3.20
 -12   4   5    3.08    1.91
 -10   4   5   47.85    5.16
  -8   4   5   10.82    2.57
  -6   4   5   12.00    1.79
  -4   4   5    0.46    0.97
  -2   4   5   -0.47    0.85
   0   4   5    9.58    2.40
   2   4   5   30.50    3.79
   4   4   5    1.93    1.31
   6   4   5   76.36    4.05
   8   4   5   15.41    2.30
  10   4   5    1.48    1.67
 -13   5   5    0.19    1.89
 -11   5   5   22.81    4.12
  -9   5   5    0.55    1.79
  -7   5   5   11.77    2.88
  -5   5   5   15.68    3.03
  -3   5   5    3.32    2.40
  -1   5   5   31.07    4.29
   1   5   5   54.48    5.36
   3   5   5    1.32    2.28
   5   5   5    7.94    1.95
   7   5   5   13.24    3.36
  -9  -5   6   20.98    3.63
  -7  -5   6   15.79    3.05
  -5  -5   6   23.35    3.54
  -3  -5   6    1.92    1.76
  -1  -5   6    1.03    1.72
   1  -5   6   38.49    5.02
   3  -5   6   -1.06    1.61
 -16  -4   6   16.70    3.18
 -14  -4   6    3.21    1.86
 -12  -4   6   29.66    3.82
 -10  -4   6    4.89    1.87
  -8  -4   6    5.07    1.67
  -6  -4   6   17.66    2.87
  -4  -4   6   78.47    5.28
  -2  -4   6    0.14    1.19
   0  -4   6    1.44    1.54
   2  -4   6   23.92    3.67
   4  -4   6    3.92    1.96
   6  -4   6    2.11    1.81
   8  -4   6    3.13    2.24
 -19  -3   6   -0.70    1.44
 -17  -3   6    2.10    1.70
 -15  -3   6    3.19    1.63
 -13  -3   6   29.14    3.49
 -11  -3   6   12.44    2.26
  -9  -3   6   24.90    2.25
  -7  -3   6   34.49    2.60
  -5  -3   6   59.65    3.06
  -3  -3   6    0.36    0.67
  -1  -3   6    0.02    0.72
   1  -3   6   70.72    3.57
   3  -3   6   -0.06    1.06
   5  -3   6   26.14    3.51
   7  -3   6   -1.22    1.10
   9  -3   6   62.83    4.98
  11  -3   6    8.84    2.28
  13  -3   6   12.09    4.59
 -22  -2   6   -1.24    1.57
 -20  -2   6   72.46    5.35
 -18  -2   6   27.44    3.41
 -16  -2   6   26.81    3.22
 -14  -2   6    1.39    1.20
 -12  -2   6   65.89    3.33
 -10  -2   6   13.55    1.55
  -8  -2   6    7.54    1.19
  -6  -2   6   28.95    2.20
  -4  -2   6  131.77    4.74
  -2  -2   6    3.25    0.90
   0  -2   6   -0.19    0.63
   2  -2   6   30.38    2.39
   4  -2   6   12.68    1.57
   6  -2   6    2.10    1.22
   8  -2   6    2.96    1.31
  10  -2   6   34.52    3.27
  12  -2   6   18.31    2.51
  14  -2   6    4.04    1.67
 -23  -1   6    1.10    1.68
 -21  -1   6   40.04    4.39
 -19  -1   6    0.03    1.23
 -17  -1   6    2.63    1.40
 -15  -1   6    5.51    1.50
 -13  -1   6   44.95    2.54
 -11  -1   6    9.23    1.22
  -9  -1   6   38.44    2.17
  -7  -1   6   51.88    2.41
  -5  -1   6   77.43    3.12
  -3  -1   6    0.46    0.52
  -1  -1   6    0.69    0.60
   1  -1   6  107.69    4.05
   3  -1   6   -0.32    0.60
   5  -1   6   35.97    2.08
   7  -1   6   -0.17    0.61
   9  -1   6   75.62    3.79
  11  -1   6   10.78    1.74
  13  -1   6    9.62    1.78
  15  -1   6   17.17    2.47
 -16   0   6   28.74    2.22
 -14   0   6    4.76    0.96
 -12   0   6   77.48    3.09
 -10   0   6   15.60    1.38
  -8   0   6    8.63    1.01
  -6   0   6   41.97    1.96
  -4   0   6  148.39    4.73
  -2   0   6    8.84    1.00
   0   0   6    1.74    0.66
   2   0   6   44.30    1.92
   4   0   6   12.78    1.02
   6   0   6    5.07    0.64
   8   0   6    2.61    0.58
  10   0   6   38.35    2.05
  12   0   6   23.86    2.60
  14   0   6    3.97    1.55
  16   0   6   22.76    4.17
 -19   1   6    1.87    1.57
 -17   1   6    3.23    1.62
 -15   1   6    5.63    1.70
 -13   1   6   48.45    4.56
 -11   1   6    9.79    2.00
  -9   1   6   31.80    3.72
  -7   1   6   47.86    3.77
  -5   1   6   79.00    4.96
  -3   1   6    0.72    0.82
  -1   1   6    0.65    0.82
   1   1   6  113.01    4.20
   3   1   6    1.87    0.86
   5   1   6   36.02    2.10
   7   1   6   -0.89    0.63
   9   1   6   80.60    3.13
  11   1   6   11.51    1.53
  13   1   6   14.05    2.16
  15   1   6   20.36    2.63
 -20   2   6   55.82    5.84
 -18   2   6   20.50    3.36
 -16   2   6   18.39    3.18
 -14   2   6    1.18    1.26
 -12   2   6   64.08    4.95
 -10   2   6    4.99    1.89
  -8   2   6    5.60    1.73
  -6   2   6   34.43    2.46
  -4   2   6  128.78    4.82
  -2   2   6    7.81    1.32
   0   2   6    0.57    0.83
   2   2   6   35.35    2.59
   4   2   6   12.15    1.30
   6   2   6    3.82    1.25
   8   2   6    1.25    1.19
  10   2   6   33.89    3.02
  12   2   6   21.68    2.62
  14   2   6   -0.01    2.01
 -19   3   6    1.21    1.86
 -17   3   6    2.04    1.72
 -15   3   6    7.15    2.27
 -13   3   6   29.32    3.98
 -11   3   6    8.87    2.37
  -9   3   6   30.58    2.50
  -7   3   6   37.99    2.80
  -5   3   6   57.17    3.27
  -3   3   6    0.40    0.92
  -1   3   6   -1.01    0.78
   1   3   6   68.87    3.42
   3   3   6   -0.37    0.97
   5   3   6   20.31    2.33
   7   3   6    1.47    1.32
   9   3   6   52.40    4.05
  11   3   6    7.44    1.98
 -16   4   6   15.04    3.46
 -14   4   6    3.11    2.07
 -12   4   6   42.33    5.05
 -10   4   6    6.38    2.20
  -8   4   6    5.28    1.97
  -6   4   6   16.72    2.11
  -4   4   6   81.39    3.96
  -2   4   6    1.94    1.23
   0   4   6    3.95    2.21
   2   4   6   15.75    3.23
   4   4   6    7.68    2.61
   6   4   6    1.75    1.50
   8   4   6   -0.06    1.59
 -11   5   6    1.35    1.95
  -9   5   6    9.14    2.96
  -7   5   6   13.19    2.92
  -5   5   6   40.41    4.63
  -3   5   6    1.79    2.46
  -1   5   6   -0.69    2.35
   1   5   6   46.97    5.19
   3   5   6    3.39    2.69
 -14  -4   7   17.88    3.24
 -12  -4   7    3.15    1.76
 -10  -4   7   45.65    4.64
  -8  -4   7    6.80    2.03
  -6  -4   7    4.04    1.70
  -4  -4   7   -0.34    1.28
  -2  -4   7    9.02    2.28
   0  -4   7   25.73    3.88
   2  -4   7   19.51    3.39
   4  -4   7   39.61    5.04
   6  -4   7    0.38    1.84
 -17  -3   7   36.74    4.34
 -15  -3   7   22.01    3.19
 -13  -3   7   20.15    3.14
 -11  -3   7    1.62    1.36
  -9  -3   7    0.83    0.92
  -7  -3   7    3.01    1.14
  -5  -3   7   -0.29    0.75
  -3  -3   7    0.16    0.81
  -1  -3   7   33.28    2.81
   1  -3   7   -0.84    0.83
   3  -3   7    9.72    2.34
   5  -3   7    0.11    1.51
   7  -3   7   36.29    4.52
   9  -3   7    0.39    1.89
 -20  -2   7    3.57    1.98
 -18  -2   7   10.78    2.41
 -16  -2   7    4.01    1.77
 -14  -2   7   30.20    3.33
 -12  -2   7    3.51    1.08
 -10  -2   7   69.47    3.37
  -8  -2   7    7.22    1.23
  -6  -2   7   13.65    1.62
  -4  -2   7    3.94    0.96
  -2  -2   7   17.11    1.77
   0  -2   7   33.23    2.58
   2  -2   7   24.25    2.22
   4  -2   7   49.81    3.30
   6  -2   7    0.87    0.92
   8  -2   7    1.96    1.52
  10  -2   7   -0.38    1.41
  12  -2   7    6.36    2.29
 -17  -1   7   62.17    4.31
 -15  -1   7   26.90    2.24
 -13  -1   7   33.19    2.39
 -11  -1   7    4.32    0.96
  -9  -1   7    0.80    0.68
  -7  -1   7    5.66    0.96
  -5  -1   7    0.05    0.52
  -3  -1   7    0.78    0.64
  -1  -1   7   50.21    2.66
   1  -1   7    1.27    0.68
   3  -1   7   24.67    2.13
   5  -1   7    0.79    0.74
   7  -1   7   40.58    2.92
   9  -1   7   -0.70    1.11
  11  -1   7    7.02    2.09
  13  -1   7    0.25    1.70
 -16   0   7    2.36    1.53
 -14   0   7   25.46    3.45
 -12   0   7    5.69    1.77
 -10   0   7   74.19    5.24
  -8   0   7    7.97    2.06
  -6   0   7   15.77    2.57
  -4   0   7    3.70    1.44
  -2   0   7   16.65    2.55
   0   0   7   45.76    4.31
   2   0   7   32.96    3.67
   4   0   7   47.03    4.42
   6   0   7    0.38    0.91
   8   0   7   -0.21    0.94
 -19   1   7   -1.14    1.34
 -17   1   7   54.04    5.36
 -15   1   7   21.70    3.36
 -13   1   7   35.37    4.17
 -11   1   7    3.34    1.59
  -9   1   7   -0.57    1.02
  -7   1   7    5.66    1.80
  -5   1   7    1.01    1.19
  -3   1   7   -0.76    0.79
  -1   1   7   46.41    3.06
   1   1   7    0.27    0.83
   3   1   7   21.95    2.09
   5   1   7    0.34    0.92
   7   1   7   34.97    2.83
   9   1   7    0.54    1.21
  11   1   7    6.57    2.41
 -20   2   7    5.07    2.52
 -18   2   7   10.78    2.65
 -16   2   7    0.79    1.53
 -14   2   7   24.33    3.66
 -12   2   7    3.85    1.73
 -10   2   7   77.05    5.37
  -8   2   7    7.83    1.91
  -6   2   7   15.24    1.84
  -4   2   7    3.59    1.04
  -2   2   7   13.85    1.79
   0   2   7   37.35    2.78
   2   2   7   27.91    2.42
   4   2   7   45.08    4.77
   6   2   7    1.09    1.25
   8   2   7    1.07    1.26
  10   2   7    1.01    1.50
  12   2   7    2.15    1.63
 -17   3   7   41.22    5.26
 -15   3   7   17.76    3.40
 -13   3   7   23.32    3.74
 -11   3   7   -0.33    1.44
  -9   3   7   -0.85    1.17
  -7   3   7    5.60    1.35
  -5   3   7   -0.36    0.95
  -3   3   7    0.87    1.04
  -1   3   7   37.00    2.87
   1   3   7   -0.14    1.05
   3   3   7   13.77    2.81
   5   3   7   -3.54    1.71
   7   3   7   28.71    3.00
   9   3   7    1.33    1.57
 -14   4   7   11.18    2.97
 -12   4   7    2.30    1.94
 -10   4   7   39.85    4.97
  -8   4   7    4.45    1.95
  -6   4   7    9.63    1.73
  -4   4   7    1.33    1.30
  -2   4   7    8.49    1.71
   0   4   7   24.39    3.81
   2   4   7   19.06    3.57
   4   4   7   30.69    4.56
  -7   5   7    0.42    1.90
  -3   5   7   -1.66    2.52
  -1   5   7   17.26    4.06
 -12  -4   8    1.18    1.64
 -10  -4   8   35.42    4.33
  -8  -4   8    9.59    2.37
  -6  -4   8    2.98    1.45
  -4  -4   8   12.18    2.70
  -2  -4   8    3.62    1.94
   0  -4   8    4.62    2.17
 -17  -3   8   -0.70    1.62
 -15  -3   8    4.03    1.86
 -13  -3   8    0.88    1.32
 -11  -3   8   21.49    3.06
  -9  -3   8   -0.41    0.96
  -7  -3   8   19.66    2.17
  -5  -3   8   51.87    3.24
  -3  -3   8   10.21    1.64
  -1  -3   8    5.86    1.42
   1  -3   8    0.97    1.08
   3  -3   8    4.83    2.01
   5  -3   8   14.10    3.22
   7  -3   8    3.30    2.16
 -16  -2   8    2.24    1.59
 -14  -2   8    1.48    1.32
 -12  -2   8   -0.84    0.82
 -10  -2   8   48.42    2.94
  -8  -2   8   15.45    1.78
  -6  -2   8    8.45    1.36
  -4  -2   8   20.61    2.03
  -2  -2   8   11.45    1.63
   0  -2   8   14.26    1.82
   2  -2   8    2.53    1.09
   4  -2   8    8.53    1.60
   6  -2   8   42.80    4.58
   8  -2   8    0.14    1.70
 -15  -1   8    6.83    2.16
 -13  -1   8   -0.70    1.23
 -11  -1   8   26.15    3.61
  -9  -1   8   -0.52    1.08
  -7  -1   8   30.69    3.61
  -5  -1   8   57.60    4.84
  -3  -1   8   10.80    2.27
  -1  -1   8    3.53    1.55
   1  -1   8   -0.70    0.92
   3  -1   8    7.53    2.09
   5  -1   8   16.18    2.85
   7  -1   8    6.36    2.10
 -18   0   8   -0.82    1.51
 -16   0   8    3.22    1.74
 -14   0   8    2.98    1.60
 -12   0   8    0.84    1.30
 -10   0   8   66.81    5.08
  -8   0   8   11.47    2.46
  -6   0   8    7.31    2.05
  -4   0   8   25.68    3.47
  -2   0   8   13.14    2.43
   0   0   8   16.47    2.70
   2   0   8    4.04    1.65
   4   0   8    7.69    2.05
   6   0   8   56.91    5.11
 -19   1   8   52.73    5.55
 -17   1   8    0.44    1.51
 -15   1   8    8.65    2.44
 -13   1   8    0.56    1.33
 -11   1   8   35.15    4.30
  -9   1   8   -0.49    1.11
  -7   1   8   26.65    3.65
  -5   1   8   75.33    5.38
  -3   1   8   16.54    2.88
  -1   1   8    9.80    1.60
   1   1   8    0.71    0.91
   3   1   8    6.03    1.44
   5   1   8   16.75    2.09
   7   1   8    4.78    2.11
   9   1   8    4.72    2.33
 -18   2   8    3.51    2.08
 -16   2   8    1.08    1.54
 -14   2   8    1.82    1.79
 -12   2   8    1.89    1.57
 -10   2   8   43.58    4.77
  -8   2   8   10.64    2.39
  -6   2   8    8.68    2.25
  -4   2   8   18.59    2.10
  -2   2   8   14.89    1.85
   0   2   8   14.83    1.95
   2   2   8    0.76    1.13
   4   2   8    5.74    2.37
   6   2   8   45.76    5.01
   8   2   8    1.41    2.54
 -15   3   8    4.25    2.37
 -13   3   8    1.37    1.78
 -11   3   8   25.01    3.87
  -9   3   8   -0.13    1.47
  -7   3   8   18.77    2.23
  -5   3   8   52.57    3.53
  -3   3   8   10.20    1.83
  -1   3   8    6.06    1.52
   1   3   8    2.80    2.27
   3   3   8    3.01    2.66
   5   3   8   16.27    3.59
 -10   4   8   38.30    4.79
  -8   4   8    4.29    2.25
  -6   4   8    4.28    1.62
  -4   4   8   10.75    1.97
  -2   4   8    6.90    2.92
   0   4   8    9.12    3.08
 -11  -3   9   20.77    3.14
  -9  -3   9    3.08    1.27
  -7  -3   9   12.72    1.95
  -5  -3   9   21.96    2.42
  -3  -3   9    2.40    1.24
  -1  -3   9    1.05    1.19
   1  -3   9   48.12    3.71
   3  -3   9    1.28    1.92
 -12  -2   9    3.29    1.95
 -10  -2   9    1.66    1.63
  -8  -2   9    2.75    1.80
  -6  -2   9    1.54    1.46
  -4  -2   9   11.78    2.56
  -2  -2   9   28.49    3.84
   0  -2   9   22.41    3.47
   2  -2   9    6.10    2.03
   4  -2   9    1.52    1.72
 -15  -1   9    7.98    2.48
 -13  -1   9   37.21    4.38
 -11  -1   9   15.44    2.86
  -9  -1   9    1.29    1.48
  -7  -1   9   10.44    2.46
  -5  -1   9   23.18    3.47
  -3  -1   9    0.62    1.38
  -1  -1   9    5.11    1.89
   3  -1   9    1.66    1.52
   5  -1   9    8.10    2.29
   7  -1   9    3.50    1.95
 -18   0   9   -0.83    1.65
 -16   0   9   91.26    6.72
 -14   0   9    0.56    1.61
 -12   0   9    2.03    1.58
 -10   0   9    5.71    2.11
  -8   0   9    1.95    1.66
  -6   0   9    2.76    1.67
  -4   0   9    9.29    2.28
  -2   0   9   21.97    3.30
   0   0   9   31.99    3.99
   2   0   9    5.07    1.89
   4   0   9    7.96    2.33
   6   0   9    9.50    2.42
 -17   1   9   -0.08    1.74
 -15   1   9   12.16    2.98
 -13   1   9   41.19    5.07
 -11   1   9   24.45    3.84
  -9   1   9    7.84    2.40
  -7   1   9   10.41    2.57
  -5   1   9   27.67    3.81
  -3   1   9    0.26    1.37
  -1   1   9    2.21    1.55
   1   1   9   69.13    5.24
   3   1   9    1.36    1.70
 -16   2   9   84.64    6.63
 -14   2   9   -0.38    1.69
 -12   2   9    1.13    1.58
 -10   2   9    4.16    2.03
  -8   2   9    3.16    1.76
  -6   2   9    3.63    1.93
  -4   2   9   12.85    2.83
  -2   2   9   21.52    2.41
   0   2   9   30.43    4.05
   2   2   9    8.69    2.64
   4   2   9    3.64    2.43
 -11   3   9   13.08    3.14
  -9   3   9    2.27    1.92
  -7   3   9   11.61    3.08
  -5   3   9   20.59    2.51
  -3   3   9    0.49    1.32
  -1   3   9    2.95    2.25
 -12  -2  10    4.46    2.21
 -10  -2  10   36.63    4.66
  -8  -2  10   28.02    3.93
  -6  -2  10    1.72    1.70
  -4  -2  10    0.52    1.51
  -2  -2  10   -0.14    1.50
 -15  -1  10   -0.29    1.59
 -13  -1  10    8.02    2.52
 -11  -1  10    1.13    1.59
  -9  -1  10    8.87    2.53
  -7  -1  10    1.65    1.62
  -5  -1  10   23.81    3.78
  -3  -1  10   -0.66    1.34
  -1  -1  10    1.36    1.64
   1  -1  10    1.62    1.82
 -14   0  10    3.56    2.16
 -12   0  10    4.70    2.30
 -10   0  10   50.59    5.47
  -8   0  10   21.43    3.51
  -6   0  10    0.72    1.46
  -4   0  10    3.60    1.82
  -2   0  10    1.61    1.59
   0   0  10    3.31    1.88
   2   0  10    1.55    1.80
 -13   1  10   15.35    3.43
 -11   1  10   -0.82    1.55
  -9   1  10    8.28    2.66
  -7   1  10    5.00    2.15
  -5   1  10   24.13    3.86
  -3   1  10   -1.03    1.43
  -1   1  10    2.02    1.72
   1   1  10   -1.33    1.59
 -10   2  10   43.78    5.34
  -8   2  10   22.25    3.93
  -6   2  10    2.16    1.84
  -4   2  10    3.39    1.88
  -2   2  10    0.43    1.65
   0   2  10    2.17    1.85
   0   0   0    0.00    0.00
;
_shelx_hkl_checksum              32690
#END Tags that were not found in dictionaries
loop_
_space_group_symop_operation_xyz
'x, y, z'
'-x, y, -z'
'x+1/2, y+1/2, z'
'-x+1/2, y+1/2, -z'
'-x, -y, -z'
'x, -y, z'
'-x+1/2, -y+1/2, -z'
'x+1/2, -y+1/2, z'
loop_
_atom_site_label
_atom_site_type_symbol
_atom_site_fract_x
_atom_site_fract_y
_atom_site_fract_z
_atom_site_U_iso_or_equiv
_atom_site_adp_type
_atom_site_occupancy
_atom_site_site_symmetry_order
_atom_site_calc_flag
_atom_site_refinement_flags_posn
_atom_site_refinement_flags_adp
_atom_site_refinement_flags_occupancy
Pr1 Pr 0.34947(4) 0.0000 0.06241(9) 0.00806(15) Uani 1 2 d S T P
Pr2 Pr 0.58830(4) 0.0000 0.38007(9) 0.00748(15) Uani 1 2 d S T P
Ru Ru 0.21833(5) 0.0000 0.62714(13) 0.00719(19) Uani 1 2 d S T P
In In 0.0000 0.0000 0.0000 0.0095(3) Uani 0.959(5) 4 d S T .
Ge1 Ge 0.06523(7) 0.0000 0.65444(18) 0.0079(2) Uani 1 2 d S T P
Ge2 Ge 0.21014(8) 0.0000 0.27471(18) 0.0087(2) Uani 1 2 d S T P
loop_
_atom_site_aniso_label
_atom_site_aniso_U_11
_atom_site_aniso_U_22
_atom_site_aniso_U_33
_atom_site_aniso_U_23
_atom_site_aniso_U_13
_atom_site_aniso_U_12
Pr1 0.0070(3) 0.0072(3) 0.0102(3) 0.000 0.0027(2) 0.000
Pr2 0.0062(3) 0.0053(3) 0.0115(3) 0.000 0.0034(2) 0.000
Ru 0.0062(4) 0.0053(4) 0.0104(4) 0.000 0.0029(3) 0.000
In 0.0097(6) 0.0080(6) 0.0115(6) 0.000 0.0042(4) 0.000
Ge1 0.0060(5) 0.0074(6) 0.0105(6) 0.000 0.0025(4) 0.000
Ge2 0.0095(5) 0.0055(6) 0.0118(6) 0.000 0.0042(5) 0.000
loop_
_atom_type_symbol
_atom_type_description
_atom_type_scat_dispersion_real
_atom_type_scat_dispersion_imag
_atom_type_scat_source
Ge Ge 0.1547 1.8001 'International Tables Vol C Tables 4.2.6.8 and 6.1.1.4'
Ru Ru -1.2594 0.8363 'International Tables Vol C Tables 4.2.6.8 and 6.1.1.4'
In In -0.7276 1.3100 'International Tables Vol C Tables 4.2.6.8 and 6.1.1.4'
Pr Pr -0.2180 2.8214 'International Tables Vol C Tables 4.2.6.8 and 6.1.1.4'
loop_
_geom_angle_atom_site_label_1
_geom_angle_atom_site_label_2
_geom_angle_atom_site_label_3
_geom_angle
_geom_angle_site_symmetry_1
_geom_angle_site_symmetry_3
Ge1 Pr1 Ge1 91.80(4) 7_556 7_546
Ge1 Pr1 Ge2 85.51(4) 7_556 .
Ge1 Pr1 Ge2 85.51(4) 7_546 .
Ge1 Pr1 Ge2 168.59(4) 7_556 7_545
Ge1 Pr1 Ge2 90.11(3) 7_546 7_545
Ge2 Pr1 Ge2 105.86(3) . 7_545
Ge1 Pr1 Ge2 90.11(3) 7_556 7
Ge1 Pr1 Ge2 168.59(4) 7_546 7
Ge2 Pr1 Ge2 105.86(3) . 7
Ge2 Pr1 Ge2 85.86(4) 7_545 7
Ge1 Pr1 Ru 134.10(2) 7_556 1_554
Ge1 Pr1 Ru 134.10(2) 7_546 1_554
Ge2 Pr1 Ru 96.46(4) . 1_554
Ge2 Pr1 Ru 45.11(2) 7_545 1_554
Ge2 Pr1 Ru 45.11(2) 7 1_554
Ge1 Pr1 In 54.53(3) 7_556 3
Ge1 Pr1 In 110.26(3) 7_546 3
Ge2 Pr1 In 136.199(17) . 3
Ge2 Pr1 In 114.37(3) 7_545 3
Ge2 Pr1 In 62.22(3) 7 3
Ru Pr1 In 99.68(2) 1_554 3
Ge1 Pr1 In 110.26(3) 7_556 3_545
Ge1 Pr1 In 54.53(3) 7_546 3_545
Ge2 Pr1 In 136.199(17) . 3_545
Ge2 Pr1 In 62.22(3) 7_545 3_545
Ge2 Pr1 In 114.37(3) 7 3_545
Ru Pr1 In 99.68(2) 1_554 3_545
In Pr1 In 80.34(3) 3 3_545
Ge1 Pr1 Ru 44.69(3) 7_556 7_556
Ge1 Pr1 Ru 100.51(4) 7_546 7_556
Ge2 Pr1 Ru 43.683(19) . 7_556
Ge2 Pr1 Ru 145.61(3) 7_545 7_556
Ge2 Pr1 Ru 88.74(3) 7 7_556
Ru Pr1 Ru 112.32(3) 1_554 7_556
In Pr1 Ru 92.60(2) 3 7_556
In Pr1 Ru 147.97(3) 3_545 7_556
Ge1 Pr1 Ru 100.51(4) 7_556 7_546
Ge1 Pr1 Ru 44.69(3) 7_546 7_546
Ge2 Pr1 Ru 43.683(19) . 7_546
Ge2 Pr1 Ru 88.74(3) 7_545 7_546
Ge2 Pr1 Ru 145.61(3) 7 7_546
Ru Pr1 Ru 112.32(3) 1_554 7_546
In Pr1 Ru 147.97(3) 3 7_546
In Pr1 Ru 92.60(2) 3_545 7_546
Ru Pr1 Ru 76.92(3) 7_556 7_546
Ge1 Pr1 Pr2 114.10(3) 7_556 5_655
Ge1 Pr1 Pr2 114.10(3) 7_546 5_655
Ge2 Pr1 Pr2 150.54(3) . 5_655
Ge2 Pr1 Pr2 55.11(3) 7_545 5_655
Ge2 Pr1 Pr2 55.11(3) 7 5_655
Ru Pr1 Pr2 54.08(3) 1_554 5_655
In Pr1 Pr2 59.668(13) 3 5_655
In Pr1 Pr2 59.668(13) 3_545 5_655
Ru Pr1 Pr2 141.019(16) 7_556 5_655
Ru Pr1 Pr2 141.019(16) 7_546 5_655
Ge1 Pr1 Pr1 140.33(4) 7_556 7_545
Ge1 Pr1 Pr1 86.47(3) 7_546 7_545
Ge2 Pr1 Pr1 54.83(3) . 7_545
Ge2 Pr1 Pr1 51.02(3) 7_545 7_545
Ge2 Pr1 Pr1 99.18(3) 7 7_545
Ru Pr1 Pr1 59.42(2) 1_554 7_545
In Pr1 Pr1 159.06(3) 3 7_545
In Pr1 Pr1 100.79(2) 3_545 7_545
Ru Pr1 Pr1 96.71(3) 7_556 7_545
Ru Pr1 Pr1 52.90(2) 7_546 7_545
Pr2 Pr1 Pr1 102.57(3) 5_655 7_545
Ge1 Pr2 Ge1 91.96(4) 3 3_545
Ge1 Pr2 Ru 108.32(3) 3 5_656
Ge1 Pr2 Ru 108.32(3) 3_545 5_656
Ge1 Pr2 Ge2 81.78(3) 3 3
Ge1 Pr2 Ge2 148.06(4) 3_545 3
Ru Pr2 Ge2 46.34(2) 5_656 3
Ge1 Pr2 Ge2 148.06(4) 3 3_545
Ge1 Pr2 Ge2 81.78(3) 3_545 3_545
Ru Pr2 Ge2 46.34(2) 5_656 3_545
Ge2 Pr2 Ge2 87.18(4) 3 3_545
Ge1 Pr2 Ru 47.75(3) 3 3
Ge1 Pr2 Ru 108.01(4) 3_545 3
Ru Pr2 Ru 60.63(3) 5_656 3
Ge2 Pr2 Ru 46.33(3) 3 3
Ge2 Pr2 Ru 104.52(4) 3_545 3
Ge1 Pr2 Ru 108.01(4) 3 3_545
Ge1 Pr2 Ru 47.75(3) 3_545 3_545
Ru Pr2 Ru 60.63(3) 5_656 3_545
Ge2 Pr2 Ru 104.52(4) 3 3_545
Ge2 Pr2 Ru 46.33(3) 3_545 3_545
Ru Pr2 Ru 86.09(3) 3 3_545
Ge1 Pr2 Ge1 107.65(3) 3 7_546
Ge1 Pr2 Ge1 48.61(4) 3_545 7_546
Ru Pr2 Ge1 137.47(2) 5_656 7_546
Ge2 Pr2 Ge1 162.27(4) 3 7_546
Ge2 Pr2 Ge1 91.59(3) 3_545 7_546
Ru Pr2 Ge1 149.91(3) 3 7_546
Ru Pr2 Ge1 87.12(3) 3_545 7_546
Ge1 Pr2 Ge1 48.61(4) 3 7_556
Ge1 Pr2 Ge1 107.65(3) 3_545 7_556
Ru Pr2 Ge1 137.47(2) 5_656 7_556
Ge2 Pr2 Ge1 91.59(3) 3 7_556
Ge2 Pr2 Ge1 162.27(4) 3_545 7_556
Ru Pr2 Ge1 87.12(3) 3 7_556
Ru Pr2 Ge1 149.91(3) 3_545 7_556
Ge1 Pr2 Ge1 84.23(4) 7_546 7_556
Ge1 Pr2 In 149.96(3) 3 3_545
Ge1 Pr2 In 87.88(3) 3_545 3_545
Ru Pr2 In 100.17(2) 5_656 3_545
Ge2 Pr2 In 112.87(3) 3 3_545
Ge2 Pr2 In 61.51(3) 3_545 3_545
Ru Pr2 In 157.79(3) 3 3_545
Ru Pr2 In 93.96(2) 3_545 3_545
Ge1 Pr2 In 52.01(2) 7_546 3_545
Ge1 Pr2 In 103.08(3) 7_556 3_545
Ge1 Pr2 In 87.88(3) 3 3
Ge1 Pr2 In 149.96(3) 3_545 3
Ru Pr2 In 100.17(2) 5_656 3
Ge2 Pr2 In 61.51(3) 3 3
Ge2 Pr2 In 112.87(3) 3_545 3
Ru Pr2 In 93.96(2) 3 3
Ru Pr2 In 157.79(3) 3_545 3
Ge1 Pr2 In 103.08(3) 7_546 3
Ge1 Pr2 In 52.01(2) 7_556 3
In Pr2 In 77.76(3) 3_545 3
Ge1 Pr2 Ge2 78.20(3) 3 5_656
Ge1 Pr2 Ge2 78.20(3) 3_545 5_656
Ru Pr2 Ge2 44.01(3) 5_656 5_656
Ge2 Pr2 Ge2 69.86(4) 3 5_656
Ge2 Pr2 Ge2 69.86(4) 3_545 5_656
Ru Pr2 Ge2 43.181(17) 3 5_656
Ru Pr2 Ge2 43.181(17) 3_545 5_656
Ge1 Pr2 Ge2 126.09(3) 7_546 5_656
Ge1 Pr2 Ge2 126.09(3) 7_556 5_656
In Pr2 Ge2 130.826(19) 3_545 5_656
In Pr2 Ge2 130.826(19) 3 5_656
Ge2 Ru Ge2 123.59(6) 7_556 7_546
Ge2 Ru Ge2 100.22(4) 7_556 .
Ge2 Ru Ge2 100.22(4) 7_546 .
Ge2 Ru Ge1 111.33(4) 7_556 .
Ge2 Ru Ge1 111.33(4) 7_546 .
Ge2 Ru Ge1 107.63(5) . .
Ge2 Ru Pr2 67.62(3) 7_556 5_656
Ge2 Ru Pr2 67.62(3) 7_546 5_656
Ge2 Ru Pr2 75.73(4) . 5_656
Ge1 Ru Pr2 176.63(5) . 5_656
Ge2 Ru Pr2 160.05(4) 7_556 3_445
Ge2 Ru Pr2 74.75(3) 7_546 3_445
Ge2 Ru Pr2 66.16(3) . 3_445
Ge1 Ru Pr2 62.76(3) . 3_445
Pr2 Ru Pr2 119.37(3) 5_656 3_445
Ge2 Ru Pr2 74.75(3) 7_556 3_455
Ge2 Ru Pr2 160.05(4) 7_546 3_455
Ge2 Ru Pr2 66.16(3) . 3_455
Ge1 Ru Pr2 62.76(3) . 3_455
Pr2 Ru Pr2 119.37(3) 5_656 3_455
Pr2 Ru Pr2 86.09(3) 3_445 3_455
Ge2 Ru Pr1 66.45(3) 7_556 1_556
Ge2 Ru Pr1 66.45(3) 7_546 1_556
Ge2 Ru Pr1 144.33(5) . 1_556
Ge1 Ru Pr1 108.03(4) . 1_556
Pr2 Ru Pr1 68.60(3) 5_656 1_556
Pr2 Ru Pr1 133.11(2) 3_445 1_556
Pr2 Ru Pr1 133.11(2) 3_455 1_556
Ge2 Ru Pr1 58.19(3) 7_556 7_556
Ge2 Ru Pr1 124.69(5) 7_546 7_556
Ge2 Ru Pr1 135.06(3) . 7_556
Ge1 Ru Pr1 57.75(3) . 7_556
Pr2 Ru Pr1 119.93(2) 5_656 7_556
Pr2 Ru Pr1 120.45(3) 3_445 7_556
Pr2 Ru Pr1 69.98(3) 3_455 7_556
Pr1 Ru Pr1 67.68(3) 1_556 7_556
Ge2 Ru Pr1 124.69(5) 7_556 7_546
Ge2 Ru Pr1 58.19(3) 7_546 7_546
Ge2 Ru Pr1 135.06(3) . 7_546
Ge1 Ru Pr1 57.75(3) . 7_546
Pr2 Ru Pr1 119.93(2) 5_656 7_546
Pr2 Ru Pr1 69.98(3) 3_445 7_546
Pr2 Ru Pr1 120.45(3) 3_455 7_546
Pr1 Ru Pr1 67.68(3) 1_556 7_546
Pr1 Ru Pr1 76.92(3) 7_556 7_546
Ge1 In Ge1 180.00(4) 5_556 1_554
Ge1 In Pr1 56.793(19) 5_556 3_445
Ge1 In Pr1 123.207(19) 1_554 3_445
Ge1 In Pr1 123.207(19) 5_556 7
Ge1 In Pr1 56.793(19) 1_554 7
Pr1 In Pr1 180.000(14) 3_445 7
Ge1 In Pr1 123.207(19) 5_556 7_545
Ge1 In Pr1 56.793(19) 1_554 7_545
Pr1 In Pr1 99.66(3) 3_445 7_545
Pr1 In Pr1 80.34(3) 7 7_545
Ge1 In Pr1 56.793(19) 5_556 3_455
Ge1 In Pr1 123.207(19) 1_554 3_455
Pr1 In Pr1 80.34(3) 3_445 3_455
Pr1 In Pr1 99.66(3) 7 3_455
Pr1 In Pr1 180.000(14) 7_545 3_455
Ge1 In Pr2 60.12(2) 5_556 3_455
Ge1 In Pr2 119.88(2) 1_554 3_455
Pr1 In Pr2 116.79(2) 3_445 3_455
Pr1 In Pr2 63.21(2) 7 3_455
Pr1 In Pr2 111.04(2) 7_545 3_455
Pr1 In Pr2 68.96(2) 3_455 3_455
Ge1 In Pr2 119.88(2) 5_556 7_545
Ge1 In Pr2 60.12(2) 1_554 7_545
Pr1 In Pr2 63.21(2) 3_445 7_545
Pr1 In Pr2 116.79(2) 7 7_545
Pr1 In Pr2 68.96(2) 7_545 7_545
Pr1 In Pr2 111.04(2) 3_455 7_545
Pr2 In Pr2 180.000(16) 3_455 7_545
Ge1 In Pr2 60.12(2) 5_556 3_445
Ge1 In Pr2 119.88(2) 1_554 3_445
Pr1 In Pr2 68.96(2) 3_445 3_445
Pr1 In Pr2 111.04(2) 7 3_445
Pr1 In Pr2 63.21(2) 7_545 3_445
Pr1 In Pr2 116.79(2) 3_455 3_445
Pr2 In Pr2 77.76(3) 3_455 3_445
Pr2 In Pr2 102.24(3) 7_545 3_445
Ge1 In Pr2 119.88(2) 5_556 7
Ge1 In Pr2 60.12(2) 1_554 7
Pr1 In Pr2 111.04(2) 3_445 7
Pr1 In Pr2 68.96(2) 7 7
Pr1 In Pr2 116.79(2) 7_545 7
Pr1 In Pr2 63.21(2) 3_455 7
Pr2 In Pr2 102.24(3) 3_455 7
Pr2 In Pr2 77.76(3) 7_545 7
Pr2 In Pr2 180.0 3_445 7
Ru Ge1 Ge1 120.42(8) . 5_556
Ru Ge1 In 130.46(5) . 1_556
Ge1 Ge1 In 109.12(7) 5_556 1_556
Ru Ge1 Pr2 69.50(3) . 3_445
Ge1 Ge1 Pr2 70.11(4) 5_556 3_445
In Ge1 Pr2 133.15(2) 1_556 3_445
Ru Ge1 Pr2 69.49(3) . 3_455
Ge1 Ge1 Pr2 70.11(4) 5_556 3_455
In Ge1 Pr2 133.15(2) 1_556 3_455
Pr2 Ge1 Pr2 91.96(4) 3_445 3_455
Ru Ge1 Pr1 77.56(3) . 7_556
Ge1 Ge1 Pr1 132.82(2) 5_556 7_556
In Ge1 Pr1 68.67(3) 1_556 7_556
Pr2 Ge1 Pr1 146.94(5) 3_445 7_556
Pr2 Ge1 Pr1 78.77(3) 3_455 7_556
Ru Ge1 Pr1 77.56(3) . 7_546
Ge1 Ge1 Pr1 132.82(3) 5_556 7_546
In Ge1 Pr1 68.67(3) 1_556 7_546
Pr2 Ge1 Pr1 78.77(3) 3_445 7_546
Pr2 Ge1 Pr1 146.94(5) 3_455 7_546
Pr1 Ge1 Pr1 91.80(4) 7_556 7_546
Ru Ge1 Pr2 136.94(2) . 7_546
Ge1 Ge1 Pr2 61.28(4) 5_556 7_546
In Ge1 Pr2 67.88(3) 1_556 7_546
Pr2 Ge1 Pr2 72.35(3) 3_445 7_546
Pr2 Ge1 Pr2 131.40(4) 3_455 7_546
Pr1 Ge1 Pr2 136.37(5) 7_556 7_546
Pr1 Ge1 Pr2 76.15(3) 7_546 7_546
Ru Ge1 Pr2 136.94(2) . 7_556
Ge1 Ge1 Pr2 61.28(4) 5_556 7_556
In Ge1 Pr2 67.88(3) 1_556 7_556
Pr2 Ge1 Pr2 131.40(4) 3_445 7_556
Pr2 Ge1 Pr2 72.35(3) 3_455 7_556
Pr1 Ge1 Pr2 76.15(3) 7_556 7_556
Pr1 Ge1 Pr2 136.37(5) 7_546 7_556
Pr2 Ge1 Pr2 84.23(4) 7_546 7_556
Ru Ge2 Ru 123.59(6) 7_556 7_546
Ru Ge2 Ru 79.78(4) 7_556 .
Ru Ge2 Ru 79.78(4) 7_546 .
Ru Ge2 Pr1 78.12(4) 7_556 .
Ru Ge2 Pr1 78.12(4) 7_546 .
Ru Ge2 Pr1 132.13(5) . .
Ru Ge2 Pr2 144.02(5) 7_556 3_445
Ru Ge2 Pr2 66.04(3) 7_546 3_445
Ru Ge2 Pr2 67.52(3) . 3_445
Pr1 Ge2 Pr2 135.45(2) . 3_445
Ru Ge2 Pr2 66.04(3) 7_556 3_455
Ru Ge2 Pr2 144.02(5) 7_546 3_455
Ru Ge2 Pr2 67.52(3) . 3_455
Pr1 Ge2 Pr2 135.45(2) . 3_455
Pr2 Ge2 Pr2 87.19(4) 3_445 3_455
Ru Ge2 Pr1 146.41(5) 7_556 7_545
Ru Ge2 Pr1 68.44(3) 7_546 7_545
Ru Ge2 Pr1 133.40(3) . 7_545
Pr1 Ge2 Pr1 74.14(3) . 7_545
Pr2 Ge2 Pr1 68.74(3) 3_445 7_545
Pr2 Ge2 Pr1 125.22(4) 3_455 7_545
Ru Ge2 Pr1 68.44(3) 7_556 7
Ru Ge2 Pr1 146.41(5) 7_546 7
Ru Ge2 Pr1 133.40(3) . 7
Pr1 Ge2 Pr1 74.14(3) . 7
Pr2 Ge2 Pr1 125.22(4) 3_445 7
Pr2 Ge2 Pr1 68.74(3) 3_455 7
Pr1 Ge2 Pr1 85.86(4) 7_545 7
Ru Ge2 Pr2 62.07(3) 7_556 5_656
Ru Ge2 Pr2 62.07(3) 7_546 5_656
Ru Ge2 Pr2 60.26(4) . 5_656
Pr1 Ge2 Pr2 71.87(4) . 5_656
Pr2 Ge2 Pr2 110.14(4) 3_445 5_656
Pr2 Ge2 Pr2 110.14(4) 3_455 5_656
Pr1 Ge2 Pr2 124.09(3) 7_545 5_656
Pr1 Ge2 Pr2 124.09(3) 7 5_656
loop_
_geom_bond_atom_site_label_1
_geom_bond_atom_site_label_2
_geom_bond_distance
_geom_bond_site_symmetry_2
Pr1 Ge1 3.0360(11) 7_556
Pr1 Ge1 3.0360(11) 7_546
Pr1 Ge2 3.0441(15) .
Pr1 Ge2 3.2011(12) 7_545
Pr1 Ge2 3.2011(12) 7
Pr1 Ru 3.2477(13) 1_554
Pr1 In 3.3800(8) 3
Pr1 In 3.3800(8) 3_545
Pr1 Ru 3.5054(11) 7_556
Pr1 Ru 3.5054(11) 7_546
Pr1 Pr2 3.5925(13) 5_655
Pr1 Pr1 3.7667(13) 7_545
Pr2 Ge1 3.0319(12) 3
Pr2 Ge1 3.0319(11) 3_545
Pr2 Ru 3.1249(14) 5_656
Pr2 Ge2 3.1620(11) 3
Pr2 Ge2 3.1620(11) 3_545
Pr2 Ru 3.1942(10) 3
Pr2 Ru 3.1942(10) 3_545
Pr2 Ge1 3.2511(11) 7_546
Pr2 Ge1 3.2511(12) 7_556
Pr2 In 3.4736(8) 3_545
Pr2 In 3.4736(8) 3
Pr2 Ge2 3.4880(16) 5_656
Ru Ge2 2.4740(9) 7_556
Ru Ge2 2.4740(9) 7_546
Ru Ge2 2.5004(17) .
Ru Ge1 2.5243(16) .
Ru Pr2 3.1249(14) 5_656
Ru Pr2 3.1942(10) 3_445
Ru Pr2 3.1942(10) 3_455
Ru Pr1 3.2477(13) 1_556
Ru Pr1 3.5053(11) 7_556
Ru Pr1 3.5053(11) 7_546
In Ge1 2.9552(14) 5_556
In Ge1 2.9552(14) 1_554
In Pr1 3.3800(8) 3_445
In Pr1 3.3800(8) 7
In Pr1 3.3800(8) 7_545
In Pr1 3.3800(8) 3_455
In Pr2 3.4736(8) 3_455
In Pr2 3.4736(8) 7_545
In Pr2 3.4736(8) 3_445
In Pr2 3.4736(8) 7
Ge1 Ge1 2.594(2) 5_556
Ge1 In 2.9552(14) 1_556
Ge1 Pr2 3.0319(11) 3_445
Ge1 Pr2 3.0319(11) 3_455
Ge1 Pr1 3.0360(11) 7_556
Ge1 Pr1 3.0360(11) 7_546
Ge1 Pr2 3.2511(12) 7_546
Ge1 Pr2 3.2511(12) 7_556
Ge2 Ru 2.4740(9) 7_556
Ge2 Ru 2.4740(9) 7_546
Ge2 Pr2 3.1619(11) 3_445
Ge2 Pr2 3.1619(11) 3_455
Ge2 Pr1 3.2011(12) 7_545
Ge2 Pr1 3.2011(12) 7
Ge2 Pr2 3.4879(16) 5_656
