#------------------------------------------------------------------------------
#$Date: 2015-12-13 22:06:19 +0200 (Sun, 13 Dec 2015) $
#$Revision: 171491 $
#$URL: svn://www.crystallography.net/cod/cif/4/34/29/4342985.cif $
#------------------------------------------------------------------------------
#
# This file is available in the Crystallography Open Database (COD),
# http://www.crystallography.net/
#
# All data on this site have been placed in the public domain by the
# contributors.
#
data_4342985
loop_
_publ_author_name
'Fritz, Stefanie'
'Ehm, Christian'
'Lentz, Dieter'
_publ_section_title
;
 Structure and Chemistry of SeFx(CN)4-x Compounds.
;
_journal_issue                   11
_journal_name_full               'Inorganic chemistry'
_journal_page_first              5220
_journal_page_last               5231
_journal_paper_doi               10.1021/acs.inorgchem.5b00107
_journal_volume                  54
_journal_year                    2015
_chemical_formula_sum            'C8 H14 F2 N2 O3 Se'
_chemical_formula_weight         303.17
_chemical_name_systematic
;
 selenium dicyanide difluoride diglyme-solvate
;
_space_group_crystal_system      triclinic
_space_group_IT_number           2
_space_group_name_Hall           '-P 1'
_space_group_name_H-M_alt        'P -1'
_symmetry_space_group_name_Hall  '-P 1'
_symmetry_space_group_name_H-M   'P -1'
_atom_sites_solution_hydrogens   geom
_audit_creation_method           SHELXL-2013
_cell_angle_alpha                84.701(16)
_cell_angle_beta                 89.908(17)
_cell_angle_gamma                63.773(18)
_cell_formula_units_Z            2
_cell_length_a                   7.643(6)
_cell_length_b                   7.651(6)
_cell_length_c                   11.962(9)
_cell_measurement_reflns_used    879
_cell_measurement_temperature    133(2)
_cell_measurement_theta_max      61.008
_cell_measurement_theta_min      5.967
_cell_volume                     624.2(8)
_computing_cell_refinement       'Saint (Bruker AXS)'
_computing_data_collection       'Smart (Bruker AXS)'
_computing_data_reduction        'Saint (Bruker AXS)'
_computing_molecular_graphics    'Ortep3v2 for Windows'
_computing_publication_material  'publCIF (IUCR)'
_computing_structure_refinement  'SHELXL-2013 (Sheldrick, 2013)'
_computing_structure_solution    'SHELXS-2013 (Sheldrick, 2013)'
_diffrn_ambient_temperature      133(2)
_diffrn_measured_fraction_theta_full 0.933
_diffrn_measured_fraction_theta_max 0.954
_diffrn_measurement_device_type  'Bruker AXS Smart CCD'
_diffrn_measurement_method       'omega scan'
_diffrn_radiation_type           MoK\a
_diffrn_radiation_wavelength     0.71073
_diffrn_reflns_av_R_equivalents  0.1089
_diffrn_reflns_av_unetI/netI     0.0462
_diffrn_reflns_laue_measured_fraction_full 0.933
_diffrn_reflns_laue_measured_fraction_max 0.954
_diffrn_reflns_limit_h_max       6
_diffrn_reflns_limit_h_min       -9
_diffrn_reflns_limit_k_max       9
_diffrn_reflns_limit_k_min       -7
_diffrn_reflns_limit_l_max       14
_diffrn_reflns_limit_l_min       -13
_diffrn_reflns_number            2631
_diffrn_reflns_point_group_measured_fraction_full 0.933
_diffrn_reflns_point_group_measured_fraction_max 0.954
_diffrn_reflns_theta_full        25.242
_diffrn_reflns_theta_max         25.027
_diffrn_reflns_theta_min         1.711
_diffrn_source                   'sealed tube'
_exptl_absorpt_coefficient_mu    3.028
_exptl_absorpt_correction_T_max  0.7461
_exptl_absorpt_correction_T_min  0.5892
_exptl_absorpt_correction_type   multi-scan
_exptl_absorpt_process_details   'SADABS-2008/1 (Bruker-AXS)'
_exptl_crystal_colour            colourless
_exptl_crystal_density_diffrn    1.613
_exptl_crystal_description       block
_exptl_crystal_F_000             304
_exptl_crystal_size_max          0.8
_exptl_crystal_size_mid          0.5
_exptl_crystal_size_min          0.4
_refine_diff_density_max         1.331
_refine_diff_density_min         -0.538
_refine_diff_density_rms         0.096
_refine_ls_extinction_method     none
_refine_ls_goodness_of_fit_ref   1.073
_refine_ls_hydrogen_treatment    constr
_refine_ls_matrix_type           full
_refine_ls_number_parameters     147
_refine_ls_number_reflns         2105
_refine_ls_number_restraints     0
_refine_ls_restrained_S_all      1.073
_refine_ls_R_factor_all          0.0390
_refine_ls_R_factor_gt           0.0360
_refine_ls_shift/su_max          0.001
_refine_ls_shift/su_mean         0.000
_refine_ls_structure_factor_coef Fsqd
_refine_ls_weighting_details
;
 w=1/[\s^2^(Fo^2^)+(0.0567P)^2^+0.4917P]
 where P=(Fo^2^+2Fc^2^)/3
;
_refine_ls_weighting_scheme      calc
_refine_ls_wR_factor_gt          0.0909
_refine_ls_wR_factor_ref         0.0930
_reflns_Friedel_coverage         0.000
_reflns_number_gt                1954
_reflns_number_total             2105
_reflns_threshold_expression     'I > 2\s(I)'
_cod_data_source_file            ic5b00107_si_001.cif
_cod_data_source_block           1034967
_cod_depositor_comments
'Adding full bibliography for 4342982--4342987.cif.'
_cod_database_code               4342985
#BEGIN Tags that were not found in dictionaries:
_shelx_space_group_comment
;
The symmetry employed for this shelxl refinement is uniquely defined
by the following loop, which should always be used as a source of
symmetry information in preference to the above space-group names.
They are only intended as comments.
;
_shelxl_version_number           2013-2
_shelx_res_file
;
TITL sf194n in P-1
CELL  0.71073   7.6426   7.6511  11.9623   84.701   89.908   63.773
ZERR     2.00   0.0057   0.0058   0.0090    0.016    0.017    0.018
LATT   1
SFAC  C    H    N    O    F    SE
UNIT  16   28   4    6    4    2
MERG   2
SHEL  100 0.84
FMAP   2
PLAN    5
BIND SE1 O1
BIND SE1 O2
BIND SE1 O3
ACTA
BOND
L.S.  12
TEMP  -140.00
WGHT    0.056700    0.491700
FVAR       0.47675
C1    1    0.599370    0.779706    0.841842    11.00000    0.02073    0.03115 =
         0.02828   -0.00756    0.01212   -0.01026
C2    1    0.657629    0.976432    0.660085    11.00000    0.03054    0.02307 =
         0.03069    0.00494    0.00794   -0.00637
C3    1    0.793882    0.296140    0.910977    11.00000    0.03713    0.04092 =
         0.05156   -0.00675    0.01018   -0.02826
AFIX 137
H3A   2    0.807943    0.200894    0.857981    11.00000   -1.50000
H3B   2    0.657156    0.394253    0.909795    11.00000   -1.50000
H3C   2    0.834220    0.228493    0.986880    11.00000   -1.50000
AFIX   0
C4    1    1.113751    0.250329    0.882438    11.00000    0.03096    0.03413 =
         0.02652   -0.00332    0.00419   -0.01512
AFIX  23
H4A   2    1.132501    0.153357    0.828581    11.00000   -1.20000
H4B   2    1.153857    0.179683    0.958621    11.00000   -1.20000
AFIX   0
C5    1    1.235574    0.354017    0.852271    11.00000    0.02922    0.03841 =
         0.02472   -0.00331    0.00093   -0.01804
AFIX  23
H5A   2    1.207468    0.460188    0.901094    11.00000   -1.20000
H5B   2    1.375922    0.261422    0.862452    11.00000   -1.20000
AFIX   0
C6    1    1.284197    0.549391    0.700474    11.00000    0.02792    0.04243 =
         0.03166   -0.00577    0.00491   -0.02421
AFIX  23
H6A   2    1.427598    0.470966    0.709569    11.00000   -1.20000
H6B   2    1.245063    0.662844    0.744865    11.00000   -1.20000
AFIX   0
C7    1    1.225208    0.617911    0.579645    11.00000    0.02791    0.04095 =
         0.03164   -0.00648    0.00874   -0.02154
AFIX  23
H7A   2    1.294446    0.693761    0.549349    11.00000   -1.20000
H7B   2    1.260803    0.503878    0.536112    11.00000   -1.20000
AFIX   0
C8    1    0.952049    0.794360    0.453686    11.00000    0.04357    0.05019 =
         0.02492   -0.00573    0.00149   -0.02581
AFIX 137
H8A   2    1.015674    0.870235    0.417816    11.00000   -1.50000
H8B   2    0.810187    0.874249    0.448665    11.00000   -1.50000
H8C   2    0.985548    0.676478    0.415416    11.00000   -1.50000
AFIX   0
N1    3    0.485791    0.809087    0.908176    11.00000    0.04290    0.04604 =
         0.04346    0.00030    0.00981   -0.01735
N2    3    0.579327    1.126087    0.613640    11.00000    0.04840    0.05567 =
         0.05674    0.00327    0.02446   -0.01005
O1    4    0.913279    0.390088    0.879472    11.00000    0.02808    0.03151 =
         0.03180   -0.00344    0.00669   -0.01900
O2    4    1.188940    0.433127    0.738001    11.00000    0.02625    0.03767 =
         0.02182   -0.00552    0.00256   -0.02008
O3    4    1.017222    0.739177    0.569005    11.00000    0.03265    0.03832 =
         0.02258   -0.00279    0.00327   -0.02118
F1    5    0.899330    0.835287    0.826009    11.00000    0.04287    0.04854 =
         0.03633   -0.01301    0.00467   -0.02968
F2    5    0.635739    0.655997    0.651559    11.00000    0.04838    0.06512 =
         0.03701   -0.01690    0.00713   -0.04120
SE1   6    0.793178    0.721738    0.735676    11.00000    0.02694    0.03076 =
         0.02262   -0.00602    0.00644   -0.01817
HKLF    4

REM  sf194n in P-1
REM R1 =  0.0360 for    1954 Fo > 4sig(Fo)  and  0.0390 for all    2105 data
REM    147 parameters refined using      0 restraints

END

WGHT      0.0562      0.5022

REM Highest difference peak  1.331,  deepest hole -0.538,  1-sigma level  0.096
Q1    1   0.7025  0.8431  0.7065  11.00000  0.05    1.33
Q2    1   0.8992  0.5657  0.7595  11.00000  0.05    0.63
Q3    1   0.9472  0.6748  0.7412  11.00000  0.05    0.56
Q4    1   0.6872  0.7181  0.8268  11.00000  0.05    0.51
Q5    1   0.8667  0.4633  0.8350  11.00000  0.05    0.43
;
_shelx_res_checksum              65680
_shelx_hkl_file
;
   0   0   1   20.07    0.26
   0   0   2 1159.55    7.38
   0   0   3   18.26    0.47
   0   0   4   22.05    0.60
   0   0   5  289.29    2.15
   0   0   6  439.12    3.05
   0   0   7  494.43    3.46
   0   0   8  153.97    1.78
   0   0   9   68.99    1.45
   0   0  10  171.27    2.17
   0   0  11  195.51    2.44
   0   0  12   63.57    1.86
   0   0  13  124.59    2.29
   0   0 -16    0.55    1.58
   0   0 -17   26.27    2.39
   0   1 -16    4.75    1.63
   0   1 -14   53.17    2.18
   0   1 -13   60.22    1.99
   0   1 -12  121.25    2.25
   0   1 -11  162.03    2.41
   0   1 -10   77.31    1.78
   0   1  -9   32.97    1.44
   0   1  -6   24.75    0.95
   0   1  -5  772.80    4.75
   0   1  -4   17.13    0.62
   0   1  -3  971.52    5.76
   0   1  -2   35.56    0.54
   0   1  -1 1010.25    6.40
   0   1   0  303.98    2.14
   0   1   1 1278.72    8.18
   0   1   2  953.92    5.83
   0   1   3  761.55    4.62
   0   1   4   90.80    1.02
   0   1   5   28.66    0.78
   0   1   6  201.29    1.82
   0   1   7    8.14    0.89
   0   1   8  378.29    2.99
   0   1   9   18.22    1.15
   0   1  10  194.54    2.27
   0   1  11  148.53    2.14
   0   1  12  149.45    2.26
   0   1  13    1.86    1.03
   0   1  14   34.82    1.92
   0   1  15    7.45    1.41
   0   1  16   18.62    2.09
   0   2 -16    2.09    1.60
   0   2 -15   10.89    1.57
   0   2 -13   43.83    1.94
   0   2 -12   49.03    1.82
   0   2 -11   70.07    1.83
   0   2 -10   89.48    1.84
   0   2  -9   24.87    1.41
   0   2  -8   90.31    1.63
   0   2  -7   95.72    1.53
   0   2  -6  169.80    1.81
   0   2  -5   29.45    0.95
   0   2  -4   94.79    1.22
   0   2  -3  176.40    1.55
   0   2  -2 1849.21   10.47
   0   2  -1   23.17    0.67
   0   2   0 1536.17    8.86
   0   2   1   12.73    0.57
   0   2   2  644.03    3.97
   0   2   3   43.89    0.79
   0   2   4   38.91    0.85
   0   2   5  280.21    2.22
   0   2   6  456.14    3.23
   0   2   7  252.10    2.29
   0   2   8   54.08    1.33
   0   2   9  112.79    1.77
   0   2  10   74.39    1.68
   0   2  11  187.94    2.41
   0   2  12    6.54    1.02
   0   2  13   44.67    1.83
   0   2  14    1.47    1.15
   0   2  15   20.71    1.87
   0   2  16    0.13    1.41
   0   3 -15   19.57    2.19
   0   3 -14   37.88    2.16
   0   3 -13   66.68    2.15
   0   3 -12   12.29    1.35
   0   3 -11   52.57    1.89
   0   3 -10    5.41    1.06
   0   3  -9   71.64    1.76
   0   3  -8   14.48    1.35
   0   3  -7  263.77    2.59
   0   3  -6    7.01    0.74
   0   3  -5  417.32    3.17
   0   3  -4    5.33    0.58
   0   3  -3  587.04    3.88
   0   3  -2   73.79    1.18
   0   3   0   70.52    1.08
   0   3   1  396.40    2.77
   0   3   2   79.64    1.14
   0   3   3   34.84    0.94
   0   3   4   17.23    0.90
   0   3   5  110.26    1.49
   0   3   6  305.08    2.59
   0   3   7  201.34    2.15
   0   3   8  501.03    3.81
   0   3   9  135.93    2.01
   0   3  10  272.05    2.87
   0   3  11   38.38    1.64
   0   3  12  135.90    2.39
   0   3  13   14.28    1.66
   0   3  14   23.15    1.87
   0   3  15   10.92    1.47
   0   3  16   30.87    2.11
   0   4 -14   43.02    2.37
   0   4 -13    8.87    1.58
   0   4 -12   67.73    2.27
   0   4 -11    3.47    1.28
   0   4 -10   56.72    1.93
   0   4  -9   28.61    1.63
   0   4  -8   43.83    1.63
   0   4  -7    2.16    0.88
   0   4  -6  187.02    2.27
   0   4  -5   16.63    1.28
   0   4  -4  340.46    2.92
   0   4  -3   74.66    1.49
   0   4  -1   64.45    1.32
   0   4   0  111.25    1.51
   0   4   1  167.02    1.81
   0   4   2    1.25    0.58
   0   4   3  294.84    2.52
   0   4   4  130.10    1.72
   0   4   5  508.93    3.75
   0   4   6   46.89    1.45
   0   4   7  296.57    2.83
   0   4   8    5.36    0.90
   0   4   9  236.82    2.65
   0   4  10    4.38    1.01
   0   4  11  141.38    2.34
   0   4  12   23.34    1.84
   0   4  13   36.22    1.93
   0   4  14   33.02    2.02
   0   4  15   33.67    2.17
   0   4  16   15.78    1.71
   0   5 -13    5.99    1.72
   0   5 -12    0.19    1.54
   0   5 -10    0.25    1.32
   0   5  -9   74.05    2.17
   0   5  -7   39.02    1.78
   0   5  -6   17.36    1.58
   0   5  -5   62.14    1.76
   0   5  -4   81.80    1.81
   0   5  -3   99.27    1.82
   0   5  -2   23.55    1.39
   0   5  -1  111.18    1.81
   0   5   0   16.48    1.28
   0   5   1   19.94    1.31
   0   5   2  181.89    2.18
   0   5   3   -0.33    0.84
   0   5   4  201.32    2.33
   0   5   5   22.38    1.47
   0   5   6  255.50    2.75
   0   5   7    4.58    1.00
   0   5   8  185.54    2.55
   0   5   9    8.24    1.18
   0   5  10   38.99    1.84
   0   5  11    6.73    1.26
   0   5  12   15.74    1.93
   0   5  13   19.95    2.05
   0   5  14    6.63    1.53
   0   5  15   16.60    1.76
   0   6 -12   12.27    1.87
   0   6 -11    0.36    1.62
   0   6  -9    7.56    1.55
   0   6  -8   67.13    2.27
   0   6  -7    1.20    1.33
   0   6  -6  176.51    2.66
   0   6  -5   22.05    1.80
   0   6  -4   40.04    1.76
   0   6  -3   81.30    1.98
   0   6  -2   18.61    1.61
   0   6  -1   49.32    1.73
   0   6   0   32.30    1.17
   0   6   0   30.68    1.60
   0   6   1   79.45    1.93
   0   6   2   13.74    1.58
   0   6   3  132.19    2.19
   0   6   4   22.55    1.68
   0   6   5  170.88    2.47
   0   6   6    2.15    1.18
   0   6   7  144.69    2.54
   0   6   8    0.09    1.23
   0   6   9   65.61    2.27
   0   6  10    7.42    1.48
   0   6  11    8.81    1.42
   0   6  12   17.70    2.13
   0   6  13   16.40    1.74
   0   6  14    8.99    1.71
   0   7 -10   -0.13    1.83
   0   7  -9   19.31    2.24
   0   7  -8    3.26    1.61
   0   7  -7    8.82    1.57
   0   7  -6   37.45    2.15
   0   7  -5   56.25    2.21
   0   7  -4   83.58    2.32
   0   7  -3   36.25    2.01
   0   7  -2   42.22    2.06
   0   7  -1    1.45    1.25
   0   7   0   82.23    2.24
   0   7   1    1.32    1.31
   0   7   2  150.75    2.56
   0   7   3   -1.51    1.37
   0   7   4   66.01    2.15
   0   7   5    5.77    1.46
   0   7   6   94.32    2.38
   0   7   7    7.10    1.55
   0   7   8   80.64    2.48
   0   7  10   16.84    1.82
   0   7  11    8.31    1.71
   0   7  12   10.42    1.57
   0   7  13   24.22    2.50
   0   8  -8   13.60    2.02
   0   8  -7    4.38    1.96
   0   8  -6    7.85    1.91
   0   8  -5   41.88    2.52
   0   8  -4    2.99    1.75
   0   8  -3   42.33    2.42
   0   8  -2    3.94    1.54
   0   8  -1   29.69    2.18
   0   8   0    4.45    1.65
   0   8   1   54.58    2.40
   0   8   2    6.75    1.64
   0   8   3   39.50    2.27
   0   8   4    5.74    1.69
   0   8   5   35.15    2.37
   0   8   6    8.92    1.85
   0   8   7   30.15    2.33
   0   8   8   10.43    1.82
   0   8   9    9.47    1.93
   0   8  10   12.84    2.00
   0   8  11    5.15    1.94
   0   9  -4   12.52    2.05
   0   9  -3    0.36    1.92
   0   9  -2    6.42    1.96
   0   9  -1    0.76    1.87
   0   9   0   29.20    2.52
   0   9   1   -0.20    1.82
   0   9   2   37.03    2.50
   0   9   3    1.86    1.97
   0   9   4   14.09    2.02
   0   9   5    3.95    2.04
   0   9   6   27.38    2.57
   0   9   7   19.04    2.21
  -1   9   5   30.50    2.79
  -1   9   4   11.75    2.28
  -1   9   3   15.66    2.23
  -1   9   2    3.25    2.12
  -1   9   1   16.22    2.04
  -1   9   0    5.62    1.93
  -1   9  -1   29.55    2.62
  -1   9  -2    2.73    1.97
  -1   8   9    6.51    1.99
  -1   8   8    5.76    1.91
  -1   8   7    9.71    1.96
  -1   8   6   25.60    2.39
  -1   8   5   19.92    2.44
  -1   8  -2   24.60    2.34
  -1   8  -3    5.32    1.74
  -1   8  -4   10.73    1.90
  -1   8  -5    5.23    1.90
  -1   8  -6   23.51    2.55
  -1   7  12   38.68    2.34
  -1   7  11   13.48    1.82
  -1   7  10   32.93    2.34
  -1   7   9    9.36    1.82
  -1   7   8   10.56    1.74
  -1   7   7   27.44    2.14
  -1   7   6    6.62    1.65
  -1   7   5   95.64    2.54
  -1   7   4    0.90    1.59
  -1   7   3   30.23    2.16
  -1   7   2   15.13    1.64
  -1   7   1   54.05    2.14
  -1   7   0    4.92    1.46
  -1   7  -1   47.25    2.07
  -1   7  -2    8.97    1.54
  -1   7  -3   14.92    1.67
  -1   7  -3   15.24    1.64
  -1   7  -4    8.05    1.28
  -1   7  -4    7.59    1.60
  -1   7  -5   28.78    2.13
  -1   7  -6    4.40    1.72
  -1   7  -7   19.33    2.24
  -1   7  -8    9.85    1.78
  -1   7  -9    6.05    1.74
  -1   6  13   66.75    2.64
  -1   6  12    3.25    1.53
  -1   6  11   24.58    2.07
  -1   6  10   27.68    2.12
  -1   6   9    4.14    1.53
  -1   6   8  120.89    2.58
  -1   6   7   20.64    1.87
  -1   6   6  175.16    2.68
  -1   6   5    3.86    1.31
  -1   6   4  102.50    2.26
  -1   6   3    1.73    1.17
  -1   6   2   53.76    1.87
  -1   6   1   16.68    1.65
  -1   6   0  116.00    1.80
  -1   6   0  105.82    2.18
  -1   6  -1    0.77    0.88
  -1   6  -1   -0.48    1.14
  -1   6  -2   70.05    1.70
  -1   6  -2   61.09    1.91
  -1   6  -3   40.86    1.92
  -1   6  -4   44.02    1.91
  -1   6  -5   31.02    1.86
  -1   6  -6   68.33    2.09
  -1   6  -7   31.73    2.02
  -1   6  -8   16.71    2.03
  -1   6  -9    3.83    1.58
  -1   6 -10    2.78    1.69
  -1   6 -11   14.30    1.93
  -1   5  14    8.13    1.68
  -1   5  13   29.06    2.09
  -1   5  12   50.10    2.28
  -1   5  11   60.86    2.08
  -1   5  10    5.80    1.28
  -1   5   9   41.89    1.90
  -1   5   8    3.03    1.20
  -1   5   7  202.04    2.63
  -1   5   6    4.90    1.09
  -1   5   5  278.94    2.91
  -1   5   4    2.19    0.96
  -1   5   3   91.27    1.84
  -1   5   2    0.48    0.60
  -1   5   2   -1.06    0.89
  -1   5   1  144.50    1.71
  -1   5   1  129.28    2.03
  -1   5   0   40.87    1.24
  -1   5   0   32.49    1.46
  -1   5  -1   61.09    1.41
  -1   5  -1   49.93    1.56
  -1   5  -2   79.72    1.83
  -1   5  -3   51.78    1.70
  -1   5  -5  132.55    2.24
  -1   5  -6   94.59    2.03
  -1   5  -7   27.33    1.75
  -1   5  -8   82.12    2.19
  -1   5  -9    2.43    1.32
  -1   5 -10   31.20    2.04
  -1   5 -11    1.53    1.51
  -1   5 -12   17.87    2.19
  -1   5 -13   -0.45    1.71
  -1   4  15   31.96    2.22
  -1   4  14   14.06    1.59
  -1   4  13   15.77    1.87
  -1   4  12   18.47    1.85
  -1   4  11    1.73    1.18
  -1   4  10   95.38    2.12
  -1   4   9    1.30    0.99
  -1   4   8  194.14    2.54
  -1   4   7    5.09    0.91
  -1   4   6  101.41    1.82
  -1   4   5    0.50    0.75
  -1   4   4  111.51    1.72
  -1   4   3    0.78    0.47
  -1   4   3    1.43    0.72
  -1   4   2  174.88    1.60
  -1   4   2  155.40    1.88
  -1   4   1    2.98    0.53
  -1   4   1    1.04    0.62
  -1   4   0  164.09    1.70
  -1   4   0  132.30    1.74
  -1   4  -1  245.90    2.07
  -1   4  -1  210.48    2.20
  -1   4  -2   14.62    1.18
  -1   4  -4   42.91    1.44
  -1   4  -5   55.44    1.60
  -1   4  -6   76.05    1.75
  -1   4  -7   49.24    1.66
  -1   4  -8    1.17    1.01
  -1   4  -9   36.03    1.71
  -1   4 -10   -0.03    1.17
  -1   4 -11   63.44    2.08
  -1   4 -12    0.65    1.42
  -1   4 -13   32.06    2.19
  -1   4 -14    5.96    1.70
  -1   3  16    7.92    1.59
  -1   3  15   21.97    2.01
  -1   3  14   28.11    1.98
  -1   3  13   49.04    2.04
  -1   3  12   56.24    1.92
  -1   3  11  117.07    2.18
  -1   3  10    5.82    0.97
  -1   3   9  163.84    2.24
  -1   3   8    9.45    0.92
  -1   3   8   13.30    1.28
  -1   3   7  301.60    2.31
  -1   3   7  297.06    2.74
  -1   3   6   38.63    0.93
  -1   3   6   36.50    1.29
  -1   3   5  298.91    2.18
  -1   3   5  270.15    2.42
  -1   3   4   20.11    0.74
  -1   3   4   20.46    1.02
  -1   3   3  275.15    2.01
  -1   3   3  264.74    2.26
  -1   3   2    9.11    0.66
  -1   3   2    8.75    0.60
  -1   3   1  526.11    3.37
  -1   3   1  435.80    3.08
  -1   3   0  260.25    2.00
  -1   3   0  206.36    1.86
  -1   3  -1  104.56    1.40
  -1   3  -2  516.95    3.53
  -1   3  -3  130.06    1.65
  -1   3  -4  428.79    3.22
  -1   3  -5  104.66    1.62
  -1   3  -6   98.39    1.67
  -1   3  -7    2.70    0.82
  -1   3  -8   26.52    1.50
  -1   3  -9   -0.08    0.94
  -1   3 -10   55.09    1.78
  -1   3 -11    0.25    1.12
  -1   3 -12   63.64    2.08
  -1   3 -13    8.08    1.48
  -1   3 -14   46.46    2.25
  -1   3 -15    1.61    1.64
  -1   2  16   25.74    2.03
  -1   2  15   11.94    1.47
  -1   2  14   85.56    2.22
  -1   2  13    2.75    1.13
  -1   2  12  103.61    2.13
  -1   2  11    1.08    0.92
  -1   2  10  455.97    3.79
  -1   2   9   24.92    1.34
  -1   2   8  427.57    3.39
  -1   2   7   34.81    0.97
  -1   2   7   37.21    1.20
  -1   2   6  259.95    2.03
  -1   2   6  238.13    2.17
  -1   2   5   45.41    0.86
  -1   2   5   42.15    1.05
  -1   2   4  505.11    3.22
  -1   2   4  437.20    3.03
  -1   2   3  229.43    1.70
  -1   2   3  189.78    1.65
  -1   2   2  244.97    1.77
  -1   2   2  221.04    1.78
  -1   2   1  575.64    3.60
  -1   2   1  452.39    2.97
  -1   2   0  293.95    2.07
  -1   2   0  221.64    1.75
  -1   2  -2   89.98    1.12
  -1   2  -3  779.04    4.79
  -1   2  -4   22.30    0.91
  -1   2  -5  111.53    1.48
  -1   2  -6    6.71    0.65
  -1   2  -7  307.91    2.68
  -1   2  -8   15.05    1.27
  -1   2  -9  114.87    1.90
  -1   2 -10    8.71    1.03
  -1   2 -11   69.45    1.85
  -1   2 -12   19.93    1.69
  -1   2 -13   55.60    1.96
  -1   2 -14   16.08    1.88
  -1   2 -15   28.88    2.08
  -1   1  16    1.60    1.53
  -1   1  15   58.87    2.20
  -1   1  13   65.33    1.93
  -1   1  12    0.71    0.94
  -1   1  11  198.56    2.45
  -1   1  10   95.95    1.78
  -1   1   9  194.21    2.21
  -1   1   8    9.14    1.06
  -1   1   8    9.15    1.06
  -1   1   7  204.72    2.00
  -1   1   6   30.87    0.84
  -1   1   6   28.80    0.93
  -1   1   5  259.40    1.95
  -1   1   5  231.91    1.93
  -1   1   4  957.88    5.69
  -1   1   4  823.09    4.97
  -1   1   3  136.15    1.16
  -1   1   3  106.57    1.07
  -1   1   2  845.33    5.22
  -1   1   2  688.08    4.22
  -1   1   1  111.34    0.96
  -1   1   1   88.97    0.85
  -1   1   0  731.75    4.54
  -1   1   0  497.98    3.21
  -1   1  -1  177.63    1.37
  -1   1  -2 1538.26    8.97
  -1   1  -3   97.26    1.04
  -1   1  -4  249.18    1.90
  -1   1  -5   26.20    0.81
  -1   1  -6   10.44    0.82
  -1   1  -7   25.83    1.09
  -1   1  -8  163.79    1.96
  -1   1  -9  102.93    1.72
  -1   1 -10  219.83    2.50
  -1   1 -11   55.30    1.74
  -1   1 -12   55.12    1.85
  -1   1 -13   27.09    1.80
  -1   1 -14   20.34    1.78
  -1   1 -15   16.16    1.89
  -1   1 -16    0.66    1.48
   1   0 -17    2.50    1.81
  -1   0  14   90.67    2.34
  -1   0  13   -0.58    1.07
  -1   0  12  102.85    2.10
  -1   0  11   17.13    1.43
  -1   0  10  236.43    2.53
  -1   0   9  112.83    1.73
  -1   0   8   25.82    1.11
  -1   0   7   12.62    0.91
  -1   0   6  117.51    1.38
  -1   0   5   10.53    0.66
  -1   0   5    9.91    0.68
  -1   0   4  673.34    4.13
  -1   0   4  592.63    3.71
  -1   0   3 1595.89    9.29
  -1   0   3 1148.35    6.77
  -1   0   2    4.31    0.36
  -1   0   2    3.23    0.32
  -1   0   1  866.97    5.65
  -1   0   1  688.38    5.06
  -1   0   0  418.09    2.89
  -1   0   0  293.98    3.25
  -1   0  -1  856.54    5.50
  -1   0  -1  741.15    6.16
   1   0   3    5.68    0.41
   1   0   4    7.10    0.49
   1   0   5   15.84    0.68
   1   0   6  128.44    1.40
   1   0   7  609.40    4.05
   1   0   8    9.42    0.98
   1   0   9   96.38    1.57
   1   0  10   70.77    1.57
   1   0  11  101.79    1.91
  -1   0 -13   90.52    2.32
  -1   0 -14   29.00    1.90
  -1   0 -15    7.01    1.47
  -1   0 -16    6.73    1.55
   1   1 -16   -1.03    1.55
   1   1 -15   59.60    2.40
   1   1 -14    4.80    1.40
   1   1 -13  106.87    2.42
  -1  -1  10  105.05    1.86
  -1  -1   9   68.22    1.51
  -1  -1   8   30.49    1.19
  -1  -1   7  119.46    1.55
  -1  -1   6  222.49    1.98
  -1  -1   5  380.75    2.69
  -1  -1   4  682.36    4.20
  -1  -1   3  312.58    2.15
  -1  -1   2  311.55    2.11
   1   1  -2  258.76    1.79
  -1  -1   1   68.93    0.66
   1   1  -1   58.59    0.57
   1   1   0 2375.21   18.84
   1   1   1  197.90    1.58
   1   1   2 3683.82   23.01
   1   1   3  204.83    1.51
   1   1   4   16.71    0.59
   1   1   5   13.81    0.64
   1   1   6  117.03    1.32
   1   1   7  228.04    2.03
   1   1   8 1043.22    6.41
   1   1   9  254.37    2.45
   1   1  10  237.41    2.46
   1   1  11   45.05    1.46
   1   1  12   33.84    1.60
   1   1  13   73.70    1.98
   1   1  14   14.46    1.74
   1   1  15   71.82    2.26
  -1  -1 -17   20.02    1.99
   1   2 -16   46.32    2.36
   1   2 -15    2.02    1.39
   1   2 -14   22.70    1.89
   1   2 -13    6.49    1.36
   1   2 -12   49.08    1.96
   1   2 -11   76.84    1.96
   1   2 -10   89.36    1.91
   1   2  -9  138.57    2.05
   1   2  -8    2.92    0.70
   1   2  -7   45.99    1.26
   1   2  -6  175.04    1.81
   1   2  -5 1069.97    6.37
   1   2  -4   64.26    0.99
   1   2  -3 1426.61    8.18
   1   2  -2  106.41    1.06
   1   2  -1  268.80    1.90
   1   2   0  135.18    1.14
   1   2   1 1029.41    6.17
   1   2   2  331.87    2.24
   1   2   3  404.46    2.67
   1   2   4  191.50    1.60
   1   2   5  799.47    4.89
   1   2   6  132.50    1.48
   1   2   7  450.69    3.26
   1   2   8  620.59    4.26
   1   2   9    4.51    0.71
   1   2  10  323.43    2.98
   1   2  11   47.36    1.51
   1   2  12  109.61    2.06
   1   2  13   18.81    1.57
   1   2  14   25.22    1.75
   1   2  15    6.75    1.35
   1   2  16   22.08    2.09
   1   3 -15    8.66    1.62
   1   3 -14    5.20    1.44
   1   3 -13   15.92    1.79
   1   3 -12   12.83    1.37
   1   3 -11   25.68    1.66
   1   3 -10   31.23    1.65
   1   3  -9   28.23    1.47
   1   3  -8   58.47    1.55
   1   3  -7   95.14    1.63
   1   3  -6  433.72    3.32
   1   3  -5   52.87    1.23
   1   3  -4  522.81    3.57
   1   3  -3    3.65    0.46
   1   3  -2  302.20    2.28
   1   3  -1   95.05    1.14
   1   3   0  500.63    3.25
   1   3   1   30.87    0.77
   1   3   2  120.13    1.26
   1   3   3   32.04    0.84
   1   3   4   24.95    0.88
   1   3   5  244.76    2.12
   1   3   6  514.57    3.60
   1   3   7  375.39    2.97
   1   3   8  353.32    2.97
   1   3   9  168.87    2.08
   1   3  10   13.21    1.36
   1   3  11   20.25    1.51
   1   3  12    0.82    0.98
   1   3  13   67.58    1.93
   1   3  14    0.29    1.15
   1   3  15   27.72    2.00
   1   3  16    0.00    1.36
   1   4 -15   -0.23    1.68
   1   4 -14   15.41    1.75
   1   4 -13   25.06    2.06
   1   4 -12   18.48    1.88
   1   4 -11   52.12    1.93
   1   4 -10   20.01    1.62
   1   4  -9   83.21    1.92
   1   4  -8   21.86    1.53
   1   4  -7  187.37    2.32
   1   4  -6  154.88    2.04
   1   4  -5  601.04    4.26
   1   4  -4    1.60    0.65
   1   4  -3  278.00    2.44
   1   4  -2  114.06    1.53
   1   4  -1  168.54    1.76
   1   4   0   26.26    1.00
   1   4   1  442.09    3.13
   1   4   2  172.16    1.77
   1   4   3  140.33    1.61
   1   4   4   39.50    1.13
   1   4   5  257.90    2.36
   1   4   6   99.08    1.61
   1   4   7  102.36    1.72
   1   4   8  268.04    2.70
   1   4   9   19.68    1.39
   1   4  10   98.16    1.92
   1   4  11   43.65    1.67
   1   4  12   51.93    1.92
   1   4  13    0.23    1.16
   1   4  14   27.40    1.91
   1   4  15    7.04    1.44
   1   4  16   36.42    2.26
   1   5 -14   13.38    1.87
   1   5 -13    8.65    1.70
   1   5 -12   59.13    2.37
   1   5 -11   12.26    1.50
   1   5 -10   99.83    2.35
   1   5  -9    0.55    1.17
   1   5  -8  148.83    2.38
   1   5  -7    6.87    1.05
   1   5  -6  226.30    2.62
   1   5  -5    4.96    0.93
   1   5  -4  192.38    2.32
   1   5  -3   23.30    1.37
   1   5  -2  110.84    1.76
   1   5  -1  107.42    1.70
   1   5   0  115.05    1.70
   1   5   1  136.76    1.83
   1   5   2  136.85    1.85
   1   5   3  232.83    2.35
   1   5   4  107.27    1.74
   1   5   5  271.83    2.69
   1   5   6  174.43    2.27
   1   5   7  197.59    2.42
   1   5   8    7.66    1.01
   1   5   9   99.85    2.03
   1   5  10    9.89    1.12
   1   5  11   72.66    2.01
   1   5  12    3.53    1.23
   1   5  13  100.51    2.45
   1   5  14    2.86    1.41
   1   5  15   39.44    2.27
   1   6 -12   -0.60    1.63
   1   6 -11   28.68    2.20
   1   6 -10    0.76    1.46
   1   6  -9  107.85    2.50
   1   6  -8    0.90    1.27
   1   6  -7   90.12    2.22
   1   6  -6    1.13    1.15
   1   6  -5   29.02    1.71
   1   6  -4  101.62    2.03
   1   6  -3    6.00    0.99
   1   6  -2   93.41    1.98
   1   6  -1   63.84    1.72
   1   6   0   11.96    1.01
   1   6   1   90.86    1.84
   1   6   2   78.37    1.79
   1   6   3   23.81    1.51
   1   6   4  165.55    2.29
   1   6   5   41.37    1.74
   1   6   6  180.27    2.48
   1   6   7    4.81    1.13
   1   6   8  103.88    2.22
   1   6   9    7.76    1.31
   1   6  10   48.43    1.99
   1   6  11    4.92    1.33
   1   6  12   36.57    2.14
   1   6  13   11.21    1.54
   1   6  14   24.96    2.25
   1   7 -11    2.77    1.85
   1   7 -10   18.18    2.21
   1   7  -9    1.29    1.60
   1   7  -8   35.58    2.17
   1   7  -7    4.37    1.55
   1   7  -6   49.87    2.09
   1   7  -5   -0.91    1.30
   1   7  -4   38.03    1.96
   1   7  -3   29.97    1.89
   1   7  -2    8.55    1.27
   1   7  -1   93.37    2.14
   1   7   0   26.27    1.73
   1   7   1   37.90    1.89
   1   7   2  108.12    2.20
   1   7   3   51.89    1.93
   1   7   4   21.02    1.77
   1   7   5   76.59    2.11
   1   7   6    0.41    1.28
   1   7   7   89.48    2.39
   1   7   8    4.48    1.45
   1   7   9   75.96    2.47
   1   7  10    6.39    1.59
   1   7  11   28.44    2.19
   1   7  12    2.17    1.50
   1   7  13   20.39    2.36
   1   8  -8    3.91    1.72
   1   8  -7    6.30    1.75
   1   8  -6    4.22    1.81
   1   8  -5   14.22    1.79
   1   8  -4   57.78    2.38
   1   8  -3   61.93    2.45
   1   8  -2   42.79    2.20
   1   8  -1   43.83    2.09
   1   8   0   28.37    2.11
   1   8   1    6.33    1.54
   1   8   2  123.16    2.57
   1   8   3   -2.18    1.55
   1   8   4  104.04    2.58
   1   8   5    0.34    1.64
   1   8   6   39.57    2.28
   1   8   7    3.85    1.67
   1   8   8   43.50    2.38
   1   8   9   15.50    1.90
   1   8  10   46.50    2.65
   1   8  11    7.53    1.85
   1   9  -6    7.36    1.94
   1   9  -5    5.92    1.99
   1   9  -4    3.13    1.80
   1   9  -3   56.41    2.67
   1   9  -2    2.56    1.84
   1   9  -1   62.25    2.63
   1   9   0   16.09    1.88
   1   9   1   26.51    2.29
   1   9   2    3.66    1.82
   1   9   3   42.71    2.54
   1   9   4   34.15    2.43
   1   9   5   26.43    2.50
   1   9   6   17.33    2.08
   1   9   7   30.65    2.63
   1   9   8    7.54    1.96
   1   9   9   16.37    2.14
   1  10  -1   -1.06    2.02
   1  10   0   10.07    2.11
   1  10   1    1.91    1.92
   1  10   2   38.60    2.80
   1  10   3    1.54    1.99
   1  10   4   10.13    2.11
  -2   8   7    3.32    1.93
  -2   8   6   17.41    2.07
  -2   8   5   13.63    2.06
  -2   8   4   21.12    2.45
  -2   8   3   25.32    2.52
  -2   8   2    9.83    2.00
  -2   8   1   13.32    1.96
  -2   8   0    8.77    1.83
  -2   8  -1   13.22    1.79
  -2   8  -2   10.76    1.99
  -2   8  -3   26.60    2.50
  -2   8  -4    1.16    1.94
  -2   7  10    3.07    1.84
  -2   7   9   17.28    1.92
  -2   7   8   15.66    1.90
  -2   7   7   -0.36    1.67
  -2   7   6   20.76    2.22
  -2   7   5   31.06    2.27
  -2   7   4   45.63    2.32
  -2   7   3   33.06    2.16
  -2   7   2   36.81    2.15
  -2   7   1    6.73    1.68
  -2   7   0   40.49    2.18
  -2   7  -1    1.03    1.40
  -2   7  -2   41.16    2.19
  -2   7  -3    1.34    1.55
  -2   7  -4   31.71    2.07
  -2   7  -4   27.09    2.24
  -2   7  -5    7.84    1.61
  -2   7  -5    6.59    1.70
  -2   7  -6   35.82    2.22
  -2   7  -6   33.37    2.42
  -2   7  -7    6.27    1.69
  -2   7  -7    5.97    1.79
  -2   7  -8   23.05    2.25
  -2   7  -8   21.07    2.45
  -2   6  12   11.53    1.78
  -2   6  11    9.69    1.60
  -2   6   9   32.51    2.23
  -2   6   8   29.01    2.12
  -2   6   7   15.27    1.54
  -2   6   6    4.03    1.38
  -2   6   5   30.23    1.98
  -2   6   4   11.86    1.49
  -2   6   3   84.61    2.25
  -2   6   2   13.50    1.48
  -2   6   1   41.89    1.95
  -2   6   0   15.65    1.51
  -2   6   0   15.56    1.78
  -2   6  -1   70.17    1.87
  -2   6  -1   60.73    2.02
  -2   6  -2    1.70    1.12
  -2   6  -2    1.91    1.31
  -2   6  -3   73.32    2.01
  -2   6  -3   57.20    2.09
  -2   6  -4   46.23    1.88
  -2   6  -4   38.55    2.02
  -2   6  -5   13.97    1.73
  -2   6  -5   16.52    1.91
  -2   6  -6    8.39    1.39
  -2   6  -6    8.08    1.58
  -2   6  -7   27.61    2.06
  -2   6  -8    6.95    1.54
  -2   6  -9   12.52    1.72
  -2   6 -10    8.02    1.79
  -2   5  14    5.37    1.70
  -2   5  13   32.61    2.23
  -2   5  12   -0.29    1.48
  -2   5  11   81.53    2.30
  -2   5  10   24.40    1.90
  -2   5   9    6.40    1.36
  -2   5   8   82.61    2.22
  -2   5   7   16.82    1.78
  -2   5   6  132.93    2.35
  -2   5   5  149.57    2.34
  -2   5   4  130.97    2.25
  -2   5   3    1.69    0.79
  -2   5   3    1.67    1.06
  -2   5   2   51.01    1.38
  -2   5   2   44.94    1.73
  -2   5   1    6.25    0.88
  -2   5   1    4.98    1.07
  -2   5   0  146.94    1.99
  -2   5   0  120.14    2.03
  -2   5  -1    0.26    0.88
  -2   5  -1   -0.03    0.93
  -2   5  -2  154.67    2.16
  -2   5  -2  122.81    2.10
  -2   5  -3   11.70    1.45
  -2   5  -3   11.81    1.23
  -2   5  -4   48.74    1.65
  -2   5  -4   39.08    1.74
  -2   5  -5   28.43    1.69
  -2   5  -6   51.03    1.89
  -2   5  -7   16.42    1.79
  -2   5  -8   35.92    1.96
  -2   5  -9    6.99    1.52
  -2   5 -10    2.91    1.58
  -2   5 -11   10.29    1.73
  -2   5 -12    1.04    1.69
  -2   4  15    5.61    1.67
  -2   4  14   13.15    1.68
  -2   4  13   38.87    2.13
  -2   4  12   32.82    2.02
  -2   4  11  109.02    2.41
  -2   4  10   67.90    1.98
  -2   4   9   89.79    2.03
  -2   4   8   11.47    1.17
  -2   4   7   82.48    1.86
  -2   4   6    1.14    0.68
  -2   4   6   -0.61    0.93
  -2   4   5  305.02    2.48
  -2   4   5  288.90    2.86
  -2   4   4    7.25    0.73
  -2   4   4    7.99    0.95
  -2   4   3  422.63    3.09
  -2   4   3  401.61    3.33
  -2   4   2    1.26    0.67
  -2   4   2    0.95    0.83
  -2   4   1  129.31    1.67
  -2   4   1  110.37    1.78
  -2   4   0   54.43    1.37
  -2   4   0   34.33    1.29
  -2   4  -1  142.52    1.89
  -2   4  -1  105.41    1.73
  -2   4  -2  171.03    2.08
  -2   4  -2  131.39    1.92
  -2   4  -3   82.89    1.57
  -2   4  -3   66.43    1.60
  -2   4  -5   55.42    1.65
  -2   4  -6    5.08    1.05
  -2   4  -7  113.14    2.15
  -2   4  -8   57.08    1.85
  -2   4  -9    6.20    1.27
  -2   4 -10   53.86    2.04
  -2   4 -11   -0.30    1.37
  -2   4 -12   22.96    2.05
  -2   4 -13    0.07    1.56
  -2   3  15   25.57    2.11
  -2   3  14   43.04    2.15
  -2   3  13   23.81    1.96
  -2   3  12   63.77    2.01
  -2   3  10  149.29    2.36
  -2   3   9   18.68    1.23
  -2   3   9   18.38    1.52
  -2   3   8  144.19    1.76
  -2   3   8  127.97    2.02
  -2   3   7   23.79    1.10
  -2   3   7   20.54    1.35
  -2   3   6  129.50    1.60
  -2   3   6  115.75    1.83
  -2   3   5   41.11    1.10
  -2   3   5   35.26    1.28
  -2   3   4  102.44    1.37
  -2   3   4   87.37    1.48
  -2   3   3  241.17    2.04
  -2   3   3  221.87    2.16
  -2   3   2  175.80    1.72
  -2   3   2  157.29    1.80
  -2   3   1   96.97    1.36
  -2   3   1   70.21    1.32
  -2   3   0  447.86    3.17
  -2   3   0  347.35    2.69
  -2   3  -1   43.30    1.15
  -2   3  -1   35.32    1.12
  -2   3  -2   57.77    1.28
  -2   3  -2   41.12    1.17
  -2   3  -4    2.91    0.73
  -2   3  -5   81.55    1.58
  -2   3  -6   63.31    1.54
  -2   3  -7   26.97    1.43
  -2   3  -8   26.71    1.50
  -2   3  -9   52.23    1.73
  -2   3 -10   -0.36    1.09
  -2   3 -11   64.34    2.03
  -2   3 -12    0.90    1.32
  -2   3 -13   41.98    2.21
  -2   3 -14    1.87    1.54
  -2   2  16    9.70    1.59
  -2   2  15   24.64    2.06
  -2   2  14   20.87    1.91
  -2   2  13   99.00    2.29
  -2   2  12   38.00    1.75
  -2   2  11  107.27    2.09
  -2   2  10   16.77    1.47
  -2   2   9   83.61    1.54
  -2   2   9   81.99    1.69
  -2   2   8   15.14    1.08
  -2   2   8   14.41    1.28
  -2   2   7  115.49    1.53
  -2   2   7   96.95    1.57
  -2   2   6    0.39    0.53
  -2   2   6    0.84    0.58
  -2   2   5  279.56    2.23
  -2   2   5  228.37    2.12
  -2   2   4   49.29    0.98
  -2   2   4   40.09    1.09
  -2   2   3  369.06    2.61
  -2   2   3  319.51    2.43
  -2   2   2   73.88    1.06
  -2   2   2   60.20    1.05
  -2   2   1  136.48    1.39
  -2   2   1   86.96    1.14
  -2   2   0  183.95    1.68
  -2   2   0  138.08    1.39
  -2   2  -1  375.69    2.71
  -2   2  -1  259.70    2.03
  -2   2  -2  178.62    1.72
  -2   2  -3  159.56    1.63
  -2   2  -4   72.66    1.24
  -2   2  -5   92.58    1.42
  -2   2  -6   45.46    1.29
  -2   2  -7   54.68    1.43
  -2   2  -8  150.62    2.06
  -2   2  -9    5.50    0.94
  -2   2 -10   65.56    1.78
  -2   2 -11    0.02    1.04
  -2   2 -12   51.65    1.91
  -2   2 -13    0.69    1.28
  -2   2 -14   42.26    2.10
  -2   2 -15    7.98    1.60
  -2   1  16   30.70    2.20
  -2   1  15    5.02    1.45
  -2   1  14  120.20    2.46
  -2   1  13    1.60    1.11
  -2   1  12  105.85    2.09
  -2   1  11   19.79    1.48
  -2   1  10  146.26    2.16
  -2   1   9    6.69    0.81
  -2   1   8  248.74    2.31
  -2   1   8  234.38    2.38
  -2   1   7    4.89    0.61
  -2   1   7    4.16    0.59
  -2   1   6  453.21    3.18
  -2   1   6  353.38    2.73
  -2   1   5  154.56    1.55
  -2   1   5  126.58    1.45
  -2   1   4  534.10    3.46
  -2   1   4  407.08    2.82
  -2   1   3  836.42    5.04
  -2   1   3  667.12    4.13
  -2   1   2 1055.54    6.20
  -2   1   2  851.83    5.11
  -2   1   1   95.20    1.06
  -2   1   1   67.29    0.84
  -2   1   0  951.64    5.65
  -2   1   0  649.62    4.02
  -2   1  -1  241.98    1.88
  -2   1  -1  181.13    1.43
  -2   1  -2   30.71    0.79
  -2   1  -2   26.37    0.69
  -2   1  -3  481.79    3.14
  -2   1  -4  159.21    1.50
  -2   1  -5  323.06    2.46
  -2   1  -6  105.10    1.44
  -2   1  -7  312.27    2.65
  -2   1  -8    2.01    0.69
  -2   1  -9  292.75    2.78
  -2   1 -10   16.22    1.36
  -2   1 -11  101.34    1.97
  -2   1 -12   13.01    1.53
  -2   1 -13   28.69    1.74
  -2   1 -14    7.63    1.39
  -2   1 -15   27.19    2.04
  -2   1 -16    7.85    1.62
  -2   0  15   81.05    2.40
  -2   0  14    2.22    1.33
  -2   0  13   97.50    2.22
  -2   0  12    3.54    1.02
  -2   0  11   47.39    1.65
  -2   0  10    2.09    0.76
  -2   0   9  149.82    1.97
  -2   0   8   24.60    1.14
  -2   0   8   23.32    1.12
  -2   0   7  287.09    2.42
  -2   0   7  259.47    2.30
  -2   0   6   23.69    0.95
  -2   0   6   20.47    0.90
  -2   0   5  693.38    4.35
  -2   0   5  557.94    3.63
  -2   0   4  614.97    3.88
  -2   0   4  432.61    2.88
  -2   0   3 1037.43    6.10
  -2   0   3  831.99    5.00
  -2   0   2 2865.39   16.05
  -2   0   2 2212.61   13.02
  -2   0   1    4.42    0.31
  -2   0   0  634.23    3.92
  -2   0   0  420.54    3.15
  -2   0  -1    7.42    0.52
  -2   0  -1    4.32    0.35
  -2   0  -2  251.87    1.86
  -2   0  -2  216.03    1.58
  -2   0  -3    9.33    0.45
  -2   0  -4  560.99    3.52
  -2   0  -5    4.21    0.44
  -2   0  -6  284.93    2.25
  -2   0  -7    7.37    0.68
  -2   0  -8  335.21    2.79
  -2   0  -9  122.60    1.81
  -2   0 -10  159.48    2.15
  -2   0 -11   39.50    1.59
  -2   0 -12   60.44    1.80
  -2   0 -13   19.73    1.69
  -2   0 -14    7.75    1.31
  -2   0 -15   21.13    1.94
  -2   0 -16    0.10    1.45
   2   1 -16   48.62    2.56
   2   1 -15   -0.14    1.57
   2   1 -14  146.93    2.85
  -2  -1  12   32.29    1.74
  -2  -1  11   13.56    1.46
  -2  -1  10   59.29    1.63
  -2  -1   9   50.14    1.47
  -2  -1   8  152.02    1.88
  -2  -1   7  129.65    1.63
  -2  -1   6  233.18    2.07
  -2  -1   6  217.69    1.97
  -2  -1   5  242.32    2.01
  -2  -1   5  202.10    1.76
  -2  -1   4  599.28    3.82
  -2  -1   4  472.37    3.09
  -2  -1   3  696.24    4.27
  -2  -1   3  533.57    3.36
  -2  -1   2  764.36    4.62
  -2  -1   2  577.04    3.65
  -2  -1   1  502.19    3.18
  -2  -1   0   54.64    0.70
  -2  -1  -1  299.52    2.05
  -2  -1  -2  198.95    1.51
   2   1   2  162.75    1.28
   2   1   3  251.00    1.76
   2   1   4    1.85    0.26
   2   1   5  221.25    1.75
   2   1   6   35.97    0.87
   2   1   7  232.38    2.02
   2   1   8   14.68    0.94
   2   1   9  196.97    2.09
   2   1  10   24.20    1.26
   2   1  11   16.88    1.31
   2   1  12   43.37    1.62
   2   1  13   17.82    1.59
  -2  -1 -15   36.68    2.29
  -2  -1 -16   13.45    1.67
   2   2 -16    9.22    1.64
   2   2 -15   64.89    2.52
   2   2 -14    0.05    1.46
   2   2 -13   72.87    2.30
   2   2 -12   11.85    1.27
   2   2 -11  104.61    2.12
   2   2 -10    3.55    0.93
   2   2  -9  291.17    2.86
   2   2  -8  154.03    1.99
   2   2  -7  129.88    1.71
   2   2  -6  327.88    2.62
   2   2  -5  304.17    2.37
  -2  -2   4  876.01    5.31
   2   2  -4  775.98    4.74
  -2  -2   3  577.39    3.66
   2   2  -3  491.41    3.16
  -2  -2   2  677.10    4.15
   2   2  -2  576.86    3.60
  -2  -2   1   26.70    0.59
   2   2  -1   23.87    0.55
  -2  -2   0   92.17    0.89
  -2  -2  -1  131.76    1.09
   2   2   1  126.37    1.05
  -2  -2  -2 1065.34    6.66
   2   2   2  961.11    5.88
  -2  -2  -3   10.11    0.48
   2   2   3    6.99    0.51
   2   2   4 1361.55    7.85
   2   2   5   23.60    0.79
   2   2   6  210.97    1.85
   2   2   7   18.72    0.93
   2   2   8  357.90    2.85
   2   2   9   93.56    1.50
   2   2  10  150.10    1.99
   2   2  11    9.02    0.90
   2   2  12   31.69    1.53
   2   2  13   16.65    1.53
   2   2  14   13.94    1.30
   2   2  15   59.25    2.19
   2   2  16   14.18    1.52
   2   3 -15    5.42    1.50
   2   3 -14   48.89    2.14
   2   3 -13    1.01    1.33
   2   3 -12    6.11    1.27
   2   3 -11   25.34    1.71
   2   3 -10  107.94    2.04
   2   3  -9  365.79    3.31
   2   3  -8  162.47    2.12
   2   3  -7  301.13    2.72
   2   3  -6   96.13    1.50
   2   3  -5  390.01    2.93
   2   3  -4   65.36    1.13
   2   3  -3  724.54    4.51
   2   3  -2   30.99    0.82
  -2  -3   1  120.36    1.14
   2   3  -1  119.03    1.21
  -2  -3   0  169.44    1.34
   2   3   0  161.58    1.41
   2   3   1  145.90    1.29
   2   3   2    7.76    0.63
   2   3   3 1185.50    6.90
   2   3   4   36.48    0.88
   2   3   5 1091.96    6.47
   2   3   6  172.75    1.76
   2   3   7  396.32    3.03
   2   3   8   79.63    1.44
   2   3   9   99.33    1.62
   2   3  10  214.83    2.40
   2   3  11    1.91    0.85
   2   3  12  112.09    2.05
   2   3  13   38.28    1.76
   2   3  14   42.90    1.94
   2   3  15   17.16    1.86
   2   3  16   54.26    2.29
   2   4 -15   16.86    1.88
   2   4 -14   29.31    2.20
   2   4 -13    6.69    1.45
   2   4 -12   20.78    1.87
   2   4 -11   14.84    1.78
   2   4 -10   15.98    1.62
   2   4  -9   40.53    1.73
   2   4  -8  191.54    2.44
   2   4  -7    8.19    0.88
   2   4  -6  231.80    2.42
   2   4  -5   86.95    1.53
   2   4  -4  242.17    2.25
   2   4  -3    1.20    0.56
   2   4  -2   41.36    1.07
   2   4   0   26.42    0.95
   2   4   1   10.20    0.83
   2   4   2  970.82    5.84
   2   4   3   91.64    1.30
   2   4   4  363.53    2.74
   2   4   5  106.39    1.51
   2   4   6  105.90    1.59
   2   4   7  123.26    1.74
   2   4   8  164.36    2.02
   2   4   9  181.02    2.23
   2   4  10    2.26    0.84
   2   4  11   56.80    1.70
   2   4  12    4.77    1.07
   2   4  13   79.69    2.11
   2   4  14    0.35    1.18
   2   4  15   70.95    2.30
   2   4  16   -0.11    1.41
   2   5 -14    3.74    1.74
   2   5 -13    1.23    1.55
   2   5 -12    6.43    1.52
   2   5 -11   78.93    2.24
   2   5 -10   38.31    1.89
   2   5  -9  106.83    2.18
   2   5  -8   30.07    1.63
   2   5  -7   30.99    1.61
   2   5  -6   37.87    1.56
   2   5  -5  139.75    2.00
   2   5  -4   33.76    1.40
   2   5  -3  157.29    1.97
   2   5  -2    3.11    0.74
   2   5  -1   98.40    1.62
   2   5   0   53.25    1.33
   2   5   1  483.30    3.49
   2   5   3  690.41    4.60
   2   5   4  131.54    1.82
   2   5   5  106.18    1.73
   2   5   6   83.22    1.68
   2   5   7   20.55    1.36
   2   5   8   51.29    1.57
   2   5   9   10.69    1.02
   2   5  10  122.84    2.15
   2   5  11    0.97    1.02
   2   5  12   45.54    1.87
   2   5  13   16.84    1.87
   2   5  14   37.15    2.09
   2   5  15   -0.14    1.38
   2   6 -13    9.20    1.82
   2   6 -12   14.83    1.77
   2   6 -11   17.18    2.15
   2   6 -10   70.66    2.35
   2   6  -9   20.21    1.95
   2   6  -8  185.34    2.72
   2   6  -7    0.23    1.12
   2   6  -6  109.24    2.15
   2   6  -5    0.74    1.00
   2   6  -4   99.52    1.95
   2   6  -3    7.19    0.99
   2   6  -2  110.26    1.92
   2   6  -1   49.11    1.59
   2   6   0  273.11    2.73
   2   6   1   68.25    1.65
   2   6   2  462.99    3.68
   2   6   3  213.22    2.42
   2   6   4  102.32    1.92
   2   6   5  104.57    1.96
   2   6   6   20.63    1.59
   2   6   7  101.69    2.07
   2   6   8    1.97    1.06
   2   6   9  111.36    2.19
   2   6  10    2.04    1.13
   2   6  11   58.65    1.99
   2   6  12    4.32    1.31
   2   6  13   74.19    2.33
   2   6  14    2.44    1.43
   2   6  15   35.82    2.35
   2   7 -11   43.74    2.47
   2   7 -10    2.62    1.66
   2   7  -9   43.64    2.27
   2   7  -8    0.35    1.45
   2   7  -7   80.31    2.25
   2   7  -6    4.55    1.36
   2   7  -5   68.67    2.07
   2   7  -4   26.26    1.75
   2   7  -3   20.16    1.81
   2   7  -2  108.98    2.27
   2   7  -1   68.03    2.00
   2   7   0   88.00    1.98
   2   7   1  142.29    2.27
   2   7   2   29.52    1.70
   2   7   3   33.20    1.69
   2   7   4  114.63    2.15
   2   7   5    0.02    1.18
   2   7   6  109.99    2.24
   2   7   7    1.11    1.26
   2   7   8   60.63    2.10
   2   7   9   -0.78    1.33
   2   7  10   68.31    2.33
   2   7  11    2.32    1.41
   2   7  12   36.88    2.17
   2   7  13   -0.51    1.49
   2   8  -9    0.92    1.81
   2   8  -8   32.15    2.37
   2   8  -7    3.04    1.56
   2   8  -6    9.46    1.64
   2   8  -5    5.50    1.53
   2   8  -4   32.39    2.13
   2   8  -3   19.70    2.07
   2   8  -2   31.67    2.05
   2   8  -1   51.88    2.06
   2   8   0   19.02    1.87
   2   8   1   56.30    2.11
   2   8   2   28.82    1.91
   2   8   3   24.33    1.97
   2   8   4    5.63    1.50
   2   8   5    9.44    1.53
   2   8   6    1.99    1.50
   2   8   7   51.13    2.22
   2   8   8    2.51    1.56
   2   8   9   69.50    2.47
   2   8  10   -0.82    1.65
   2   8  11   38.20    2.46
   2   8  12   -0.08    1.56
   2   9  -7   19.73    2.21
   2   9  -6    6.48    1.98
   2   9  -5    7.19    1.94
   2   9  -4   11.24    1.91
   2   9  -3   18.37    2.30
   2   9  -2   37.33    2.33
   2   9  -1   62.81    2.41
   2   9   0   25.77    2.12
   2   9   1   15.39    1.71
   2   9   2   14.66    1.69
   2   9   3    1.19    1.70
   2   9   4   70.14    2.48
   2   9   5   -1.63    1.75
   2   9   6   41.47    2.47
   2   9   7    1.84    1.82
   2   9   8   19.59    1.97
   2   9   9    0.28    1.83
   2   9  10   48.28    2.77
   2  10  -3   14.55    2.13
   2  10  -2    7.81    1.97
   2  10  -1   34.11    2.49
   2  10   0    5.14    1.92
   2  10   1   31.68    2.54
   2  10   2    5.23    1.98
   2  10   3   21.56    2.49
   2  10   4    0.59    1.98
   2  10   5   28.15    2.63
   2  10   6   19.75    2.29
  -3   8   2    7.82    2.17
  -3   8   1   12.74    2.13
  -3   7   8   34.96    2.55
  -3   7   7    5.28    1.81
  -3   7   6   27.73    2.31
  -3   7   5    1.50    1.72
  -3   7   4   33.87    2.38
  -3   7   3   18.35    1.94
  -3   7   2   14.39    1.94
  -3   7   1   26.81    2.30
  -3   7   0    4.53    1.61
  -3   7  -1   21.32    2.19
  -3   7  -2    4.94    1.71
  -3   7  -3   18.34    2.22
  -3   7  -4    2.77    1.68
  -3   7  -5   11.27    1.83
  -3   7  -5    8.43    1.81
  -3   7  -6    1.06    1.81
  -3   7  -6    0.16    1.81
  -3   6  11   25.40    2.22
  -3   6  10   12.95    1.78
  -3   6   9   47.96    2.37
  -3   6   8   16.51    1.79
  -3   6   7   23.38    2.09
  -3   6   6   22.14    2.00
  -3   6   5    6.18    1.49
  -3   6   4   22.37    2.08
  -3   6   3   50.43    2.17
  -3   6   2   39.02    2.11
  -3   6   1   18.84    1.98
  -3   6   0   56.19    1.89
  -3   6   0   49.17    2.17
  -3   6  -1    1.78    1.27
  -3   6  -1    1.86    1.43
  -3   6  -2   62.55    2.13
  -3   6  -2   52.38    2.14
  -3   6  -3    0.44    1.41
  -3   6  -3   -1.10    1.34
  -3   6  -4   53.04    2.11
  -3   6  -4   42.68    2.16
  -3   6  -5    0.38    1.49
  -3   6  -5   -0.03    1.43
  -3   6  -6   18.66    2.09
  -3   6  -6   19.30    2.14
  -3   6  -7    0.99    1.67
  -3   6  -7    1.40    1.68
  -3   6  -8   24.98    2.30
  -3   6  -8   24.80    2.37
  -3   5  13    9.49    1.77
  -3   5  12    7.46    1.65
  -3   5  11   13.19    1.66
  -3   5  10   33.23    2.04
  -3   5   9   24.85    1.91
  -3   5   8   57.59    2.13
  -3   5   7   27.36    1.87
  -3   5   6   11.28    1.33
  -3   5   5    7.68    1.22
  -3   5   4    3.39    1.24
  -3   5   3   67.96    1.70
  -3   5   3   62.76    1.95
  -3   5   2   -1.30    0.99
  -3   5   2   -1.85    1.22
  -3   5   1   92.84    1.88
  -3   5   1   86.95    2.05
  -3   5   0    6.50    1.10
  -3   5   0    5.42    1.19
  -3   5  -1   62.75    1.91
  -3   5  -1   48.40    1.74
  -3   5  -2    5.90    1.16
  -3   5  -2    4.37    1.11
  -3   5  -3   60.26    1.91
  -3   5  -3   48.26    1.81
  -3   5  -4   11.86    1.38
  -3   5  -4   10.44    1.38
  -3   5  -5   46.80    1.99
  -3   5  -5   38.62    1.95
  -3   5  -6   15.27    1.86
  -3   5  -6   12.89    1.48
  -3   5  -7   39.08    2.09
  -3   5  -7   27.98    1.95
  -3   5  -8    4.48    1.53
  -3   5  -8    4.25    1.41
  -3   5  -9   22.75    2.07
  -3   5 -10    3.38    1.65
  -3   4  14    8.15    1.69
  -3   4  13   13.73    1.62
  -3   4  12   16.46    1.93
  -3   4  11   34.91    1.99
  -3   4  10   11.11    1.40
  -3   4   9   68.33    2.00
  -3   4   8   15.41    1.66
  -3   4   7   18.31    1.63
  -3   4   6   56.76    1.54
  -3   4   6   48.08    1.73
  -3   4   5   45.15    1.45
  -3   4   5   41.24    1.66
  -3   4   4   84.92    1.71
  -3   4   4   80.03    1.82
  -3   4   3   97.56    1.74
  -3   4   3   86.36    1.82
  -3   4   2  132.32    1.89
  -3   4   2  119.54    2.03
  -3   4   1   34.45    1.42
  -3   4   1   24.19    1.46
  -3   4   0  110.00    1.83
  -3   4   0   81.22    1.68
  -3   4  -1   12.70    1.40
  -3   4  -1    9.42    0.94
  -3   4  -2  167.22    2.28
  -3   4  -2  126.38    1.97
  -3   4  -3   41.17    1.65
  -3   4  -3   32.22    1.58
  -3   4  -4  113.80    2.12
  -3   4  -4   85.98    1.83
  -3   4  -5    5.34    1.15
  -3   4  -5    3.23    1.04
  -3   4  -6   18.65    1.67
  -3   4  -6   17.31    1.50
  -3   4  -7   33.43    1.72
  -3   4  -8   44.59    1.91
  -3   4  -9   26.68    1.97
  -3   4 -10   20.51    2.07
  -3   4 -11   15.03    1.64
  -3   4 -12   -0.86    1.57
  -3   3  15    6.26    1.62
  -3   3  14   34.23    2.13
  -3   3  13   57.93    2.20
  -3   3  12    9.62    1.37
  -3   3  11   34.93    1.79
  -3   3  10  114.32    1.96
  -3   3  10  103.36    2.17
  -3   3   9   61.56    1.63
  -3   3   9   53.40    1.73
  -3   3   8  116.85    1.87
  -3   3   8   96.55    1.92
  -3   3   7   52.59    1.50
  -3   3   7   40.98    1.50
  -3   3   6   11.31    1.22
  -3   3   6    9.88    0.94
  -3   3   5  125.76    1.72
  -3   3   5   95.93    1.68
  -3   3   4    3.57    0.79
  -3   3   4    2.46    0.78
  -3   3   3  739.83    4.84
  -3   3   3  676.62    4.61
  -3   3   2    1.97    0.80
  -3   3   2    1.67    0.79
  -3   3   1  453.27    3.39
  -3   3   1  403.20    3.14
  -3   3   0    4.28    0.77
  -3   3   0    1.92    0.71
  -3   3  -1  125.18    1.80
  -3   3  -1   90.52    1.48
  -3   3  -2   33.38    1.39
  -3   3  -2   23.90    1.24
  -3   3  -3  116.96    1.90
  -3   3  -3   91.00    1.61
  -3   3  -4  107.11    1.92
  -3   3  -5  109.22    1.93
  -3   3  -5   90.83    1.72
  -3   3  -6   19.66    1.38
  -3   3  -7   64.35    1.68
  -3   3  -8   19.24    1.46
  -3   3  -9   21.33    1.62
  -3   3 -10   74.16    2.03
  -3   3 -11    1.00    1.30
  -3   3 -12   43.45    2.06
  -3   3 -13   -0.41    1.47
  -3   2  15   21.86    2.13
  -3   2  14   39.30    2.06
  -3   2  13   25.24    1.86
  -3   2  12   80.91    2.15
  -3   2  11   38.12    1.63
  -3   2  11   40.34    1.79
  -3   2  10   86.08    1.82
  -3   2  10   77.13    1.90
  -3   2   9   26.21    1.40
  -3   2   9   22.32    1.38
  -3   2   8  107.33    1.76
  -3   2   8   88.11    1.74
  -3   2   7    0.37    0.73
  -3   2   7    0.96    0.75
  -3   2   6  226.20    2.23
  -3   2   6  179.84    2.06
  -3   2   5    6.01    0.70
  -3   2   5    4.20    0.66
  -3   2   4  324.30    2.64
  -3   2   4  239.61    2.21
  -3   2   3   45.38    1.21
  -3   2   3   33.62    1.09
  -3   2   2  424.20    3.12
  -3   2   2  340.77    2.63
  -3   2   1  731.04    4.70
  -3   2   1  548.76    3.65
  -3   2   0  341.15    2.70
  -3   2   0  236.13    1.99
  -3   2  -1    1.42    0.52
  -3   2  -2  257.59    2.36
  -3   2  -2  197.46    1.86
  -3   2  -3    1.29    0.69
  -3   2  -3   -0.98    0.55
  -3   2  -4    6.66    0.78
  -3   2  -4    6.71    0.70
  -3   2  -5  300.62    2.58
  -3   2  -6    5.68    0.80
  -3   2  -7  135.96    1.93
  -3   2  -8   70.75    1.65
  -3   2  -9   59.74    1.71
  -3   2 -10    4.94    1.08
  -3   2 -11   33.02    1.80
  -3   2 -12    3.79    1.28
  -3   2 -13   18.51    1.95
  -3   2 -14   -0.95    1.45
  -3   1  16   18.53    2.29
  -3   1  15   25.96    2.11
  -3   1  13   59.59    2.01
  -3   1  12   31.35    1.67
  -3   1  11   41.31    1.68
  -3   1  10  115.56    1.94
  -3   1  10  114.64    2.02
  -3   1   9  113.73    1.83
  -3   1   9   98.98    1.82
  -3   1   8    2.20    0.77
  -3   1   8    0.66    0.71
  -3   1   7  189.74    2.08
  -3   1   7  150.07    1.85
  -3   1   6  105.39    1.58
  -3   1   6   80.88    1.37
  -3   1   5  363.38    2.82
  -3   1   5  294.08    2.41
  -3   1   4   42.20    1.07
  -3   1   4   35.17    1.00
  -3   1   3  626.02    4.08
  -3   1   3  495.02    3.29
  -3   1   3  496.22    3.29
  -3   1   2   46.34    1.04
  -3   1   2   33.50    0.84
  -3   1   1   49.62    1.04
  -3   1   1   32.03    0.77
  -3   1   0    4.66    0.51
  -3   1   0    2.46    0.36
  -3   1  -1   31.42    0.97
  -3   1  -1   20.80    0.70
  -3   1  -2   48.60    1.16
  -3   1  -2   32.39    0.77
  -3   1  -3  138.10    1.65
  -3   1  -3  116.94    1.29
  -3   1  -4  104.51    1.52
  -3   1  -4   88.14    1.25
  -3   1  -5   53.79    1.15
  -3   1  -6   66.35    1.32
  -3   1  -7   11.45    1.12
  -3   1  -8  128.42    1.85
  -3   1  -9    1.25    0.81
  -3   1 -10   91.75    1.85
  -3   1 -11   -0.24    0.98
  -3   1 -12   16.49    1.61
  -3   1 -13    1.36    1.21
  -3   1 -14    8.98    1.41
  -3   1 -15   -0.99    1.41
  -3   0  16   31.52    2.35
  -3   0  15   11.88    1.63
  -3   0  14   71.18    2.33
  -3   0  13   14.93    1.76
  -3   0  12  134.22    2.36
  -3   0  11   33.24    1.62
  -3   0  10   60.24    1.64
  -3   0  10   60.09    1.68
  -3   0   9   48.06    1.54
  -3   0   9   44.14    1.45
  -3   0   8  199.24    2.20
  -3   0   8  163.96    1.95
  -3   0   7    9.73    0.78
  -3   0   7    7.79    0.67
  -3   0   6  755.04    4.88
  -3   0   6  596.62    4.00
  -3   0   5  194.27    1.92
  -3   0   5  151.51    1.59
  -3   0   4  742.00    4.67
  -3   0   4  557.35    3.60
  -3   0   3  361.02    2.64
  -3   0   3  267.45    1.98
  -3   0   2  437.05    3.00
  -3   0   2  348.24    2.36
  -3   0   1  162.97    1.53
  -3   0   0  284.03    2.18
  -3   0  -1  309.76    2.32
  -3   0  -2  207.33    1.82
  -3   0  -2  162.89    1.30
  -3   0  -3  111.34    1.37
  -3   0  -3   91.40    0.98
  -3   0  -4   42.75    1.06
  -3   0  -4   34.86    0.82
  -3   0  -5  788.04    4.82
  -3   0  -6   81.69    1.23
  -3   0  -7  220.05    2.07
  -3   0  -8   97.05    1.52
  -3   0  -9  148.86    1.89
  -3   0 -10    5.61    0.85
  -3   0 -11   61.74    1.63
  -3   0 -12    3.98    1.04
  -3   0 -13   31.42    1.68
  -3   0 -14    0.53    1.21
  -3   0 -15   36.87    2.01
   3   1 -16    5.35    1.79
   3   1 -15   78.72    2.75
  -3  -1  13   97.77    2.32
  -3  -1  12    0.76    1.07
  -3  -1  11   55.13    1.77
  -3  -1  10    3.17    0.86
  -3  -1   9  175.90    2.20
  -3  -1   9  177.27    2.23
  -3  -1   8  102.93    1.71
  -3  -1   8   96.85    1.66
  -3  -1   7  438.47    3.35
  -3  -1   7  355.23    2.84
  -3  -1   6   96.17    1.47
  -3  -1   6   74.19    1.25
  -3  -1   5  545.41    3.72
  -3  -1   5  421.01    2.95
  -3  -1   4  229.30    1.99
  -3  -1   4  176.65    1.56
  -3  -1   3  604.78    3.89
  -3  -1   3  459.16    2.98
  -3  -1   2  576.25    3.69
  -3  -1   2  436.19    2.84
  -3  -1   1  275.76    2.08
  -3  -1   0  136.20    1.33
  -3  -1  -1   65.91    0.94
  -3  -1  -2  263.70    2.01
  -3  -1  -3   15.88    0.79
  -3  -1  -4  714.92    4.49
   3   1   5   13.51    0.67
   3   1   6  783.13    4.81
   3   1   7    0.65    0.45
   3   1   8  350.42    2.76
   3   1   9    7.11    0.68
  -3  -1 -12   47.67    1.77
  -3  -1 -13   27.26    1.74
  -3  -1 -14   22.82    1.76
  -3  -1 -15   29.38    2.01
  -3  -1 -16   15.92    1.61
   3   2 -16   12.74    1.97
   3   2 -15   -0.27    1.60
   3   2 -14   66.34    2.37
   3   2 -13    1.18    1.32
   3   2 -12   96.66    2.21
   3   2 -11    1.51    1.07
   3   2 -10    6.33    1.07
   3   2  -9    8.46    1.01
   3   2  -8  143.95    1.98
  -3  -2   7  404.38    3.26
  -3  -2   6  510.52    3.69
   3   2  -6  411.45    3.08
  -3  -2   5  264.77    2.29
   3   2  -5  203.62    1.86
  -3  -2   4  168.78    1.71
   3   2  -4  123.52    1.32
  -3  -2   3   61.05    1.03
   3   2  -3   46.01    0.78
  -3  -2   2  169.44    1.53
   3   2  -2  135.60    1.18
  -3  -2   1  130.86    1.29
   3   2  -1  107.44    0.96
  -3  -2   0   39.86    0.81
  -3  -2  -1  289.85    2.08
  -3  -2  -2    1.86    0.31
  -3  -2  -3 1316.46    7.61
   3   2   3 1101.49    6.68
  -3  -2  -4    5.59    0.42
   3   2   4    3.45    0.32
  -3  -2  -5 1082.03    6.39
   3   2   5  911.66    5.44
   3   2   6   16.61    0.78
   3   2   7  100.93    1.34
   3   2   8   11.45    0.92
   3   2   9   72.30    1.38
   3   2  10   48.38    1.33
   3   2  11   21.44    1.29
   3   2  12   24.42    1.47
   3   2  13   17.86    1.62
   3   2  14   33.51    1.79
  -3  -2 -16   26.38    2.35
   3   3 -15   13.32    1.68
   3   3 -14    8.24    1.49
   3   3 -13   36.65    2.07
   3   3 -12    1.36    1.20
   3   3 -11   68.81    1.99
   3   3 -10    7.60    1.06
   3   3  -9  309.19    2.99
   3   3  -8   30.03    1.37
   3   3  -7  241.73    2.36
   3   3  -6  110.08    1.58
  -3  -3   5   76.90    1.38
   3   3  -5   66.61    1.22
  -3  -3   4  328.74    2.58
   3   3  -4  291.04    2.29
  -3  -3   3  423.90    2.99
   3   3  -3  352.70    2.52
  -3  -3   2  159.48    1.53
   3   3  -2  136.77    1.32
  -3  -3   1  392.64    2.68
   3   3  -1  344.98    2.37
  -3  -3   0    8.76    0.58
   3   3   0    5.10    0.58
  -3  -3  -1    0.13    0.28
   3   3   1    0.61    0.30
  -3  -3  -2  617.09    3.84
  -3  -3  -3    4.16    0.33
   3   3   3    4.01    0.37
  -3  -3  -4 1802.99   10.33
   3   3   4 1566.84    8.94
  -3  -3  -5    0.40    0.34
   3   3   5    0.21    0.41
  -3  -3  -6  597.11    3.81
   3   3   6  518.37    3.50
   3   3   7   32.70    1.05
   3   3   8   14.08    1.03
   3   3   9    5.42    0.70
   3   3  10   29.52    1.30
   3   3  11   20.88    1.32
   3   3  12   32.05    1.55
   3   3  13   31.85    1.67
   3   3  14   14.89    1.71
   3   3  15   22.68    1.96
   3   3  16   20.51    2.11
   3   4 -15    0.58    1.61
   3   4 -14   77.18    2.43
   3   4 -13   -0.75    1.37
   3   4 -12   42.83    2.00
   3   4 -11    1.94    1.17
   3   4 -10   26.41    1.67
   3   4  -9  121.64    2.13
   3   4  -8  447.50    3.76
   3   4  -7  510.58    3.92
   3   4  -6  269.49    2.55
   3   4  -5   73.31    1.40
   3   4  -4   12.97    1.00
   3   4  -3   92.00    1.35
  -3  -4   2    9.76    0.80
   3   4  -2   10.61    0.89
  -3  -4   1 1235.63    7.18
  -3  -4   0   30.42    0.78
   3   4   0   18.31    0.89
   3   4   1  530.22    3.46
   3   4   2   -0.40    0.45
   3   4   3  818.74    5.01
   3   4   4    8.29    0.57
   3   4   5  585.33    3.89
   3   4   6   51.10    1.21
   3   4   7   86.31    1.45
   3   4   8   32.50    1.22
   3   4   9   73.49    1.55
   3   4  10   61.75    1.58
   3   4  11   32.61    1.53
   3   4  12   72.93    1.92
   3   4  13   34.05    1.73
   3   4  14   61.24    2.07
   3   4  15   25.63    1.95
   3   4  16   25.05    2.03
   3   5 -14    9.34    1.75
   3   5 -13   30.88    2.24
   3   5 -12   49.28    2.21
   3   5 -11   31.77    1.92
   3   5 -10   37.02    1.82
   3   5  -9   63.30    1.91
   3   5  -8   83.03    1.90
   3   5  -7    1.81    0.93
   3   5  -6  230.43    2.52
   3   5  -5    3.36    0.81
   3   5  -4  242.40    2.44
   3   5  -3   40.86    1.35
   3   5  -2  137.89    1.76
   3   5  -1   37.96    1.23
   3   5   0  198.64    1.99
   3   5   1  239.88    2.19
   3   5   2  564.62    3.86
   3   5   3   19.82    1.08
   3   5   4  420.44    3.19
   3   5   5   31.31    1.24
   3   5   6   22.08    1.24
   3   5   7   60.83    1.51
   3   5   8    2.66    0.80
   3   5   9   34.39    1.42
   3   5  10   73.40    1.79
   3   5  11  140.38    2.28
   3   5  12   13.18    1.23
   3   5  13   82.13    2.18
   3   5  14    2.23    1.26
   3   5  15   36.00    2.11
   3   6 -13    3.02    1.69
   3   6 -12    6.85    1.66
   3   6 -11   38.58    2.23
   3   6 -10   12.96    1.50
   3   6  -9  116.34    2.43
   3   6  -8   51.13    1.96
   3   6  -7   59.85    1.90
   3   6  -6    2.14    1.00
   3   6  -5    1.42    0.98
   3   6  -4    0.09    0.89
   3   6  -3  155.53    2.14
   3   6  -2    6.52    0.92
   3   6  -1  327.70    2.97
   3   6   0    9.92    0.97
   3   6   1  108.44    1.76
   3   6   2    5.82    0.90
   3   6   3  268.83    2.60
   3   6   4   43.75    1.49
   3   6   5   71.10    1.69
   3   6   6   48.09    1.59
   3   6   7    4.06    0.98
   3   6   8   26.81    1.59
   3   6   9   38.56    1.70
   3   6  10   75.43    1.90
   3   6  11   15.00    1.70
   3   6  12   73.25    2.12
   3   6  13    6.01    1.33
   3   6  14   41.43    2.23
   3   7 -12    9.43    1.84
   3   7 -11   11.22    1.74
   3   7 -10   25.73    2.09
   3   7  -9   11.62    1.55
   3   7  -8   74.55    2.31
   3   7  -7    0.09    1.31
   3   7  -6  100.60    2.30
   3   7  -5    2.17    1.18
   3   7  -3    1.92    1.11
   3   7  -2   77.44    2.00
   3   7  -1   16.85    1.65
   3   7   0  244.05    2.71
   3   7   1   26.77    1.63
   3   7   2  260.64    2.82
   3   7   3    9.32    1.14
   3   7   4  110.26    2.07
   3   7   5   73.88    1.87
   3   7   6   12.57    1.26
   3   7   7   77.71    2.04
   3   7   8   14.68    1.33
   3   7   9   81.42    2.22
   3   7  10   23.36    1.94
   3   7  11  110.87    2.37
   3   7  12    0.23    1.35
   3   7  13   31.26    2.13
   3   8 -10    1.35    1.77
   3   8  -9   22.91    2.29
   3   8  -8    0.34    1.64
   3   8  -7   35.09    2.14
   3   8  -6    3.38    1.45
   3   8  -5   51.67    2.23
   3   8  -4    3.07    1.46
   3   8  -3  139.08    2.69
   3   8  -2   17.52    1.89
   3   8  -1   66.56    2.06
   3   8   0   62.76    2.03
   3   8   1   44.81    1.94
   3   8   2   47.49    1.90
   3   8   3   70.86    2.12
   3   8   4   74.19    2.16
   3   8   5    2.75    1.35
   3   8   6   78.39    2.20
   3   8   7    4.33    1.40
   3   8   8   89.19    2.45
   3   8   9    7.13    1.56
   3   8  10   74.17    2.51
   3   8  11    0.87    1.47
   3   8  12   33.87    2.23
   3   9  -7    0.83    1.84
   3   9  -6   21.50    2.43
   3   9  -5    3.86    1.84
   3   9  -4   29.38    2.48
   3   9  -3   11.70    1.75
   3   9  -2   39.82    2.27
   3   9  -1   33.79    2.16
   3   9   0   33.23    2.14
   3   9   1   47.23    2.24
   3   9   2    0.91    1.46
   3   9   3   28.68    2.16
   3   9   4   -0.94    1.57
   3   9   5   32.02    2.23
   3   9   6    1.23    1.64
   3   9   7   27.10    2.31
   3   9   8    0.52    1.65
   3   9   9   41.70    2.56
   3   9  10   -0.47    1.75
   3  10  -4    2.58    1.90
   3  10  -3   11.22    1.89
   3  10  -2   15.73    1.92
   3  10  -1   11.44    1.89
   3  10   0   29.11    2.32
   3  10   1   13.93    1.82
   3  10   2   24.05    2.32
   3  10   3    1.33    1.84
   3  10   4   21.60    2.52
   3  10   5    1.05    1.89
   3  10   6   27.65    2.57
   3  10   7    3.21    1.95
  -4   7   5   27.39    2.38
  -4   7   4    1.33    1.75
  -4   7   3   15.28    1.94
  -4   7   2    3.87    1.86
  -4   7   1    3.50    1.83
  -4   7   0    9.34    1.95
  -4   7  -1    6.56    1.81
  -4   7  -2    7.98    1.74
  -4   6   9    3.12    1.76
  -4   6   8   37.05    2.38
  -4   6   7    3.93    1.71
  -4   6   6   33.02    2.23
  -4   6   5   -0.19    1.52
  -4   6   4   21.75    2.13
  -4   6   3   11.47    1.72
  -4   6   2   27.93    2.19
  -4   6   1   31.04    2.21
  -4   6   0   11.19    1.71
  -4   6  -1   31.73    2.01
  -4   6  -1   26.81    2.18
  -4   6  -2    5.66    1.58
  -4   6  -2    3.24    1.45
  -4   6  -3   22.57    2.18
  -4   6  -3   17.71    2.02
  -4   6  -4    6.16    1.49
  -4   6  -5   20.54    2.31
  -4   6  -5   13.41    1.62
  -4   6  -6   -0.44    1.83
  -4   5  11   27.96    2.20
  -4   5  10    3.04    1.56
  -4   5   9   38.18    2.08
  -4   5   8    9.06    1.59
  -4   5   7   91.88    2.34
  -4   5   6   20.66    1.93
  -4   5   5   28.60    1.84
  -4   5   4   12.00    1.43
  -4   5   3   10.38    1.29
  -4   5   3    9.94    1.39
  -4   5   2   57.74    1.95
  -4   5   2   52.20    2.04
  -4   5   1   20.99    1.74
  -4   5   1   17.65    1.91
  -4   5   0   83.88    2.12
  -4   5   0   72.05    2.14
  -4   5   0   72.13    2.13
  -4   5  -1   11.48    1.43
  -4   5  -1    6.14    1.33
  -4   5  -2   75.78    2.15
  -4   5  -2   55.04    1.92
  -4   5  -3    1.34    1.45
  -4   5  -3    0.06    1.25
  -4   5  -4   64.29    2.29
  -4   5  -4   47.94    2.00
  -4   5  -5    3.56    1.58
  -4   5  -5    2.37    1.31
  -4   5  -6   18.43    2.10
  -4   5  -6   16.55    2.01
  -4   5  -7   -0.15    1.66
  -4   5  -7   -0.10    1.54
  -4   5  -8   14.22    1.90
  -4   5  -9    7.67    1.91
  -4   4  13    1.32    1.59
  -4   4  12   34.30    2.15
  -4   4  11   14.40    1.58
  -4   4  10   34.05    1.96
  -4   4   9   12.45    1.42
  -4   4   8   64.98    2.05
  -4   4   7   10.62    1.31
  -4   4   6   57.39    1.78
  -4   4   6   49.20    1.87
  -4   4   5   86.12    1.90
  -4   4   5   75.36    1.96
  -4   4   4    1.13    1.06
  -4   4   4    0.62    1.07
  -4   4   3  107.98    2.03
  -4   4   3   96.44    2.05
  -4   4   2   -1.48    1.07
  -4   4   2   -1.34    1.11
  -4   4   1  112.31    2.04
  -4   4   1   89.40    1.96
  -4   4   0    0.25    1.09
  -4   4   0   -1.28    1.03
  -4   4  -1   81.39    1.92
  -4   4  -1   63.22    1.75
  -4   4  -2    4.29    1.20
  -4   4  -2    2.87    0.95
  -4   4  -3   39.32    1.89
  -4   4  -3   27.05    1.55
  -4   4  -4    6.66    1.24
  -4   4  -4    3.78    1.13
  -4   4  -5   53.82    2.08
  -4   4  -5   36.88    1.78
  -4   4  -6   23.77    1.97
  -4   4  -6   19.80    1.73
  -4   4  -7   32.55    2.07
  -4   4  -7   29.15    1.77
  -4   4  -8   14.90    1.73
  -4   4  -8   16.75    1.72
  -4   4  -9   23.43    2.21
  -4   4  -9   21.64    1.91
  -4   4 -10    3.22    1.73
  -4   4 -11    8.65    1.84
  -4   3  14    0.79    1.54
  -4   3  13   31.93    2.10
  -4   3  12   25.20    1.91
  -4   3  11   16.74    1.76
  -4   3  10    8.52    1.29
  -4   3   9   88.59    2.02
  -4   3   9   68.78    1.94
  -4   3   8   10.89    1.16
  -4   3   8    9.92    1.17
  -4   3   7   88.22    1.91
  -4   3   7   68.40    1.80
  -4   3   6   65.20    1.69
  -4   3   6   52.54    1.62
  -4   3   5    1.85    0.97
  -4   3   5    0.47    0.92
  -4   3   4   89.57    1.83
  -4   3   4   71.33    1.68
  -4   3   3    4.80    0.85
  -4   3   2  173.45    2.22
  -4   3   2  140.27    1.94
  -4   3   1    4.56    0.97
  -4   3   1    2.78    0.89
  -4   3   0   88.91    1.77
  -4   3   0   68.06    1.52
  -4   3  -1    7.45    1.02
  -4   3  -1    4.94    0.78
  -4   3  -2   57.02    1.75
  -4   3  -2   39.39    1.33
  -4   3  -3    7.65    1.11
  -4   3  -3    5.81    0.92
  -4   3  -4   73.76    1.95
  -4   3  -4   49.51    1.52
  -4   3  -5   15.89    1.63
  -4   3  -5    9.33    1.02
  -4   3  -6   28.34    1.78
  -4   3  -6   23.20    1.44
  -4   3  -7   30.98    1.90
  -4   3  -7   23.61    1.55
  -4   3  -8   26.68    1.95
  -4   3  -8   23.57    1.63
  -4   3  -9   57.39    2.23
  -4   3  -9   49.74    1.98
  -4   3 -10   40.77    2.23
  -4   3 -10   34.87    2.02
  -4   3 -11    7.61    1.65
  -4   2  15    6.38    1.61
  -4   2  14   64.25    2.33
  -4   2  13   16.24    1.85
  -4   2  12   31.94    1.91
  -4   2  12   32.28    1.89
  -4   2  11   49.47    1.85
  -4   2  11   39.03    1.79
  -4   2  10   30.95    1.70
  -4   2  10   24.57    1.61
  -4   2   9   27.23    1.66
  -4   2   9   21.25    1.49
  -4   2   8  139.68    2.16
  -4   2   8  105.70    1.90
  -4   2   7   70.80    1.73
  -4   2   7   51.98    1.49
  -4   2   6   34.18    1.47
  -4   2   6   25.28    1.28
  -4   2   5  210.69    2.31
  -4   2   5  169.54    2.04
  -4   2   4    7.97    0.90
  -4   2   4    6.29    0.76
  -4   2   3  221.95    2.35
  -4   2   3  169.75    1.93
  -4   2   2   24.12    1.35
  -4   2   2   15.41    1.15
  -4   2   1  429.58    3.39
  -4   2   1  338.58    2.68
  -4   2   0   16.58    1.30
  -4   2   0    9.11    1.07
  -4   2  -1  189.01    2.20
  -4   2  -1  123.18    1.50
  -4   2  -2    1.72    0.84
  -4   2  -2    0.74    0.62
  -4   2  -3   68.45    1.72
  -4   2  -3   43.66    1.23
  -4   2  -4   10.50    1.03
  -4   2  -4    4.93    0.77
  -4   2  -5  171.14    2.38
  -4   2  -5  142.35    1.86
  -4   2  -6  132.40    2.29
  -4   2  -6  107.39    1.78
  -4   2  -7   81.65    2.05
  -4   2  -7   66.17    1.58
  -4   2  -8   17.89    1.70
  -4   2  -8   13.90    1.33
  -4   2  -9   35.68    1.59
  -4   2 -10   21.18    1.63
  -4   2 -11   10.92    1.32
  -4   1  15   10.26    1.62
  -4   1  14   15.82    1.57
  -4   1  13   41.18    2.02
  -4   1  12   69.30    2.01
  -4   1  12   70.40    2.03
  -4   1  11   36.41    1.81
  -4   1  11   33.16    1.68
  -4   1  10   50.79    1.74
  -4   1  10   40.40    1.63
  -4   1   9   82.03    1.87
  -4   1   9   62.00    1.65
  -4   1   8  158.01    2.20
  -4   1   8  119.27    1.87
  -4   1   7    1.16    0.87
  -4   1   7    0.47    0.73
  -4   1   6  311.23    2.81
  -4   1   6  223.48    2.20
  -4   1   5   40.47    1.37
  -4   1   5   32.00    1.10
  -4   1   4  294.26    2.62
  -4   1   4  234.86    2.12
  -4   1   3   12.06    1.19
  -4   1   3    9.94    0.95
  -4   1   2  419.06    3.21
  -4   1   2  308.04    2.35
  -4   1   1   18.65    1.19
  -4   1   1   10.49    0.85
  -4   1   0  305.05    2.64
  -4   1   0  206.00    1.75
  -4   1  -1   67.37    1.42
  -4   1  -1   42.52    0.92
  -4   1  -2  294.67    2.64
  -4   1  -2  213.87    1.80
  -4   1  -3    2.47    0.76
  -4   1  -3    0.58    0.52
  -4   1  -4  177.41    2.19
  -4   1  -4  136.52    1.55
  -4   1  -5  210.83    2.44
  -4   1  -5  170.54    1.81
  -4   1  -6   11.18    1.04
  -4   1  -6   10.02    1.06
  -4   1  -7  422.97    3.69
  -4   1  -7  361.85    2.98
  -4   1  -8   17.23    1.29
  -4   1  -9   76.42    1.74
  -4   1 -10   35.69    1.61
  -4   1 -11    8.32    1.15
  -4   1 -12   -0.29    1.15
  -4   0  15    9.67    1.65
  -4   0  14   14.86    1.60
  -4   0  13   11.50    1.42
  -4   0  12    4.60    1.18
  -4   0  11   39.85    1.80
  -4   0  11   37.82    1.65
  -4   0  10   55.63    1.78
  -4   0  10   50.47    1.67
  -4   0   9   97.24    1.93
  -4   0   9   73.25    1.65
  -4   0   8   63.59    1.66
  -4   0   8   47.40    1.39
  -4   0   7  339.38    3.01
  -4   0   7  261.19    2.46
  -4   0   6   96.49    1.70
  -4   0   6   71.69    1.33
  -4   0   5  440.94    3.38
  -4   0   5  340.20    2.64
  -4   0   4  114.20    1.61
  -4   0   4   89.29    1.21
  -4   0   3  176.88    1.91
  -4   0   3  123.47    1.30
  -4   0   2   23.07    1.09
  -4   0   2   15.26    0.67
  -4   0   1  280.14    2.37
  -4   0   1  216.69    1.66
  -4   0   0   38.98    1.13
  -4   0  -1   32.22    1.08
  -4   0  -2   73.96    1.35
  -4   0  -3   82.47    1.46
  -4   0  -3   65.79    0.93
  -4   0  -4  240.07    2.35
  -4   0  -4  190.03    1.64
  -4   0  -5  114.44    1.81
  -4   0  -5   90.57    1.26
  -4   0  -6  409.26    3.40
  -4   0  -6  335.01    2.60
  -4   0  -7    1.14    0.79
  -4   0  -7    1.60    0.64
  -4   0  -8   37.34    1.28
  -4   0  -9    0.60    0.77
  -4   0 -10   53.10    1.59
  -4   0 -11   -0.67    0.94
  -4   0 -12   31.36    1.71
  -4   0 -13   -0.92    1.13
  -4  -1  13   34.56    2.03
  -4  -1  12   67.05    2.09
  -4  -1  11   22.66    1.63
  -4  -1  10   81.91    1.97
  -4  -1  10   76.67    1.89
  -4  -1   9   45.23    1.61
  -4  -1   9   37.39    1.51
  -4  -1   8  271.85    2.75
  -4  -1   8  218.11    2.35
  -4  -1   7    0.38    0.78
  -4  -1   7    0.60    0.62
  -4  -1   6  487.67    3.68
  -4  -1   6  349.72    2.75
  -4  -1   5   36.07    1.26
  -4  -1   5   23.86    0.97
  -4  -1   4  577.86    3.98
  -4  -1   4  429.41    2.93
  -4  -1   3    8.65    0.64
  -4  -1   3    6.11    0.63
  -4  -1   2  435.77    3.15
  -4  -1   2  323.46    2.23
  -4  -1   1   75.30    1.23
  -4  -1   0   71.85    1.22
  -4  -1  -1   26.77    0.97
  -4  -1  -2  154.00    1.67
  -4  -1  -3  122.10    1.55
  -4  -1  -4   70.62    1.37
  -4  -1  -5  570.28    4.00
  -4  -1  -5  433.73    2.88
  -4  -1  -6   21.95    1.25
  -4  -1  -6   14.19    0.84
  -4  -1  -7  220.85    2.33
  -4  -1  -7  174.19    1.80
  -4  -1  -8   46.58    1.22
  -4  -1  -9   15.21    1.13
  -4  -1 -10   12.53    1.25
  -4  -1 -11   19.80    1.41
  -4  -1 -12    5.70    1.06
  -4  -1 -13   42.84    1.75
   4   2 -15   29.95    2.34
   4   2 -14    5.95    1.57
   4   2 -13   62.95    2.25
   4   2 -12   12.17    1.42
   4   2 -11  205.32    2.81
  -4  -2   9  244.70    2.77
  -4  -2   8   49.22    1.61
  -4  -2   7  468.72    3.71
  -4  -2   6  130.39    1.84
  -4  -2   5  432.99    3.32
  -4  -2   4   15.38    1.09
   4   2  -4   10.94    0.77
  -4  -2   3  133.66    1.62
   4   2  -3   89.55    1.07
  -4  -2   2   87.30    1.31
   4   2  -2   61.71    0.80
  -4  -2   1  535.78    3.60
  -4  -2   0  760.18    4.74
  -4  -2  -1  216.40    1.90
  -4  -2  -2  380.26    2.74
  -4  -2  -3   31.21    0.97
  -4  -2  -4  522.76    3.56
  -4  -2  -5   11.36    1.04
   4   2   5    7.63    0.61
  -4  -2  -6  510.91    3.63
   4   2   6  406.71    2.80
  -4  -2  -7    2.00    0.63
   4   2   7    1.29    0.46
  -4  -2  -8   84.89    1.56
   4   2   8   72.44    1.28
   4   2   9   17.52    1.04
   4   2  10  114.01    1.74
   4   2  11    0.78    0.78
  -4  -2 -13   13.35    1.42
  -4  -2 -14   33.69    1.91
   4   3 -15    1.39    1.62
   4   3 -14   35.22    2.23
   4   3 -13    0.92    1.41
   4   3 -12  132.16    2.45
   4   3 -11    4.15    1.15
   4   3 -10  119.27    2.06
   4   3  -9   14.80    1.25
  -4  -3   8   97.55    1.90
   4   3  -8   83.61    1.56
  -4  -3   7  174.81    2.21
   4   3  -7  139.26    1.76
  -4  -3   6  145.08    1.94
   4   3  -6  111.97    1.54
  -4  -3   5  256.05    2.41
   4   3  -5  204.75    1.95
  -4  -3   4  133.91    1.71
   4   3  -4  101.18    1.29
  -4  -3   3   12.33    0.97
   4   3  -3    9.16    0.71
  -4  -3   2   24.62    0.97
   4   3  -2   19.66    0.71
  -4  -3   1   26.95    0.91
   4   3  -1   23.47    0.67
  -4  -3   0   11.61    0.79
   4   3   0   11.08    0.57
  -4  -3  -1  744.73    4.62
  -4  -3  -2   61.55    1.10
  -4  -3  -3  943.30    5.65
   4   3   3  826.83    5.02
  -4  -3  -4    0.44    0.42
   4   3   4    0.59    0.33
  -4  -3  -5  413.80    2.95
   4   3   5  345.41    2.45
  -4  -3  -6    2.44    0.52
   4   3   6    2.05    0.44
  -4  -3  -7   97.42    1.49
   4   3   7   80.16    1.24
  -4  -3  -8    6.43    0.68
   4   3   8    5.25    0.60
  -4  -3  -9   41.71    1.31
   4   3   9   34.51    1.17
  -4  -3 -10   19.80    1.29
   4   3  10   15.86    1.16
   4   3  11   78.14    1.68
   4   3  12   37.89    1.58
   4   3  13   60.77    1.88
   4   3  14   35.86    1.87
   4   4 -14    0.02    1.50
   4   4 -13   33.74    2.08
   4   4 -12    2.80    1.30
   4   4 -11  111.25    2.27
   4   4 -10   20.57    1.64
   4   4  -9   70.57    1.82
   4   4  -8   17.07    1.34
   4   4  -7  128.95    1.90
  -4  -4   6   12.19    1.30
   4   4  -6    8.68    0.78
  -4  -4   5   34.00    1.32
   4   4  -5   30.55    1.10
  -4  -4   4   64.00    1.36
   4   4  -4   55.11    1.21
  -4  -4   3    1.81    0.58
   4   4  -3    2.70    0.52
  -4  -4   2  175.21    1.79
   4   4  -2  153.67    1.57
  -4  -4   1  534.46    3.57
   4   4  -1  486.73    3.24
  -4  -4   0  285.31    2.22
   4   4   0  233.24    1.90
  -4  -4  -1   88.01    1.16
   4   4   1   74.54    1.07
  -4  -4  -2  105.59    1.19
  -4  -4  -3    4.61    0.44
   4   4   3    4.32    0.46
   4   4   4  423.77    2.92
  -4  -4  -5    5.85    0.46
   4   4   5    5.48    0.53
  -4  -4  -6  337.92    2.49
   4   4   6  298.71    2.41
   4   4   7    0.74    0.57
  -4  -4  -8   32.22    1.15
   4   4   8   26.69    1.16
   4   4   9    9.22    0.80
   4   4  10   47.20    1.48
   4   4  11   51.67    1.58
   4   4  12   40.44    1.66
   4   4  13   38.88    1.78
   4   4  14   19.28    1.77
   4   5 -14   41.31    2.39
   4   5 -13    1.85    1.52
   4   5 -12   83.44    2.40
   4   5 -11    3.13    1.29
   4   5 -10   26.95    1.78
   4   5  -9    4.21    1.09
   4   5  -8   66.10    1.78
   4   5  -7   83.46    1.78
   4   5  -6  215.64    2.42
   4   5  -5  106.21    1.74
   4   5  -4  118.00    1.70
  -4  -5   3   40.25    1.22
   4   5  -3   44.54    1.29
  -4  -5   2   41.81    1.17
   4   5  -2   43.61    1.23
  -4  -5   1  500.30    3.43
   4   5  -1  439.16    3.20
  -4  -5   0   52.97    1.11
   4   5   0   48.14    1.25
  -4  -5  -1 1191.65    6.94
   4   5   1 1046.93    6.29
   4   5   2   10.36    1.02
   4   5   3  226.61    2.06
   4   5   4   -0.35    0.56
   4   5   5   87.24    1.45
   4   5   6   13.47    1.15
   4   5   7  184.24    2.05
   4   5   8   55.14    1.44
   4   5   9   98.61    1.79
   4   5  10   28.63    1.48
   4   5  11   76.29    1.89
   4   5  12   49.24    1.82
   4   5  13   17.72    1.73
   4   5  14   46.20    2.02
   4   5  15    3.05    1.32
   4   6 -13   54.47    2.55
   4   6 -12   15.75    1.69
   4   6 -11   44.21    2.16
   4   6 -10   56.13    2.15
   4   6  -9    9.35    1.32
   4   6  -8   13.24    1.59
   4   6  -7   45.43    1.71
   4   6  -6   81.06    1.83
   4   6  -5    6.85    0.99
   4   6  -4  272.90    2.73
   4   6  -3   38.79    1.47
   4   6  -2  275.39    2.65
   4   6  -1   93.25    1.73
   4   6   0  314.97    2.78
   4   6   1  120.90    1.79
   4   6   2  187.07    2.13
   4   6   3  134.29    1.84
   4   6   4  258.79    2.50
   4   6   5    6.75    0.85
   4   6   6   65.03    1.61
   4   6   7   42.74    1.57
   4   6   8    7.04    0.94
   4   6   9   77.64    1.78
   4   6  10   58.53    1.81
   4   6  11   82.20    2.03
   4   6  12   32.09    1.89
   4   6  13   44.76    2.06
   4   6  14    1.57    1.30
   4   7 -11    8.54    1.66
   4   7 -10    6.84    1.54
   4   7  -9   32.03    2.01
   4   7  -8   14.99    1.81
   4   7  -7   89.96    2.24
   4   7  -6    9.33    1.27
   4   7  -5   48.08    1.84
   4   7  -4    1.96    1.05
   4   7  -3   63.29    1.83
   4   7  -2    1.20    1.07
   4   7  -1  262.21    2.80
   4   7   0    0.86    1.00
   4   7   1  144.13    2.10
   4   7   2   24.80    1.51
   4   7   3   -0.26    0.97
   4   7   4   50.41    1.65
   4   7   5   42.28    1.73
   4   7   6   62.18    1.78
   4   7   7   70.78    1.91
   4   7   8   38.78    1.82
   4   7   9   12.35    1.24
   4   7  10   12.23    1.26
   4   7  11   16.31    1.84
   4   7  12   45.50    2.01
   4   7  13    0.32    1.30
   4   8 -10   14.11    1.88
   4   8  -9    1.82    1.63
   4   8  -8   26.10    2.21
   4   8  -7   13.90    1.62
   4   8  -5    0.75    1.39
   4   8  -4   86.99    2.31
   4   8  -3    5.00    1.39
   4   8  -2   52.29    2.02
   4   8  -1    1.00    1.22
   4   8   0   49.07    1.87
   4   8   1   53.68    1.89
   4   8   2   51.03    1.94
   4   8   3    2.50    1.24
   4   8   4   91.37    2.14
   4   8   5    4.98    1.26
   4   8   6   29.06    1.94
   4   8   7   56.27    2.06
   4   8   8   25.67    2.06
   4   8   9   48.21    2.23
   4   8  10   31.68    2.10
   4   8  11   43.27    2.08
   4   8  12    3.31    1.45
   4   9  -8    2.29    1.64
   4   9  -7   34.57    2.40
   4   9  -6    2.55    1.77
   4   9  -5   48.65    2.52
   4   9  -4   -0.63    1.57
   4   9  -3   69.20    2.50
   4   9  -2    3.23    1.53
   4   9  -1   55.63    2.23
   4   9   0   15.99    1.57
   4   9   1   15.41    1.57
   4   9   2   37.48    2.04
   4   9   3   12.87    1.60
   4   9   4   35.35    2.14
   4   9   5   69.03    2.35
   4   9   6   42.92    2.31
   4   9   7   27.10    2.19
   4   9   8   42.15    2.41
   4   9   9    1.78    1.60
   4   9  10   36.24    2.40
   4  10  -5    4.11    1.91
   4  10  -4   14.92    2.02
   4  10  -3    1.41    1.74
   4  10  -2   21.24    2.32
   4  10  -1   10.89    1.80
   4  10   0   14.59    1.79
   4  10   1   37.66    2.37
   4  10   2    7.99    1.78
   4  10   3   18.98    2.29
   4  10   4    9.38    1.80
   4  10   5   30.78    2.36
   4  10   6    2.15    1.81
   4  10   7   33.76    2.55
   4  10   8    0.49    1.75
  -5   6   6    0.43    1.69
  -5   6  -2   19.00    2.27
  -5   6  -3    7.58    1.86
  -5   5   9    1.21    1.55
  -5   5   8   24.31    2.05
  -5   5   7   -0.13    1.51
  -5   5   6   33.84    2.07
  -5   5   5    0.95    1.42
  -5   5   4    4.82    1.40
  -5   5   3   -1.05    1.39
  -5   5   2   16.82    1.61
  -5   5   1   38.53    2.11
  -5   5   0   39.59    2.10
  -5   5  -1   20.11    2.04
  -5   5  -2   12.70    1.65
  -5   5  -3    2.76    1.62
  -5   5  -4    4.27    1.77
  -5   5  -5   28.96    2.46
  -5   5  -6    1.58    1.90
  -5   5  -7   15.71    2.10
  -5   4  11   22.39    2.06
  -5   4  10   -0.02    1.44
  -5   4   9   35.33    2.03
  -5   4   8    4.14    1.34
  -5   4   7   53.23    2.04
  -5   4   6   17.12    1.87
  -5   4   6   11.37    1.37
  -5   4   5   77.16    2.15
  -5   4   5   63.66    1.98
  -5   4   4   20.53    1.84
  -5   4   4   15.87    1.67
  -5   4   3   20.19    1.84
  -5   4   3   14.65    1.66
  -5   4   2   15.37    1.76
  -5   4   2   11.33    1.27
  -5   4   1   16.00    1.48
  -5   4   1   10.32    1.28
  -5   4   0   37.84    1.90
  -5   4   0   27.97    1.82
  -5   4  -1   45.89    2.00
  -5   4  -2   83.92    2.26
  -5   4  -3   22.26    1.97
  -5   4  -4   52.21    2.30
  -5   4  -5    2.69    1.65
  -5   4  -6   38.34    2.31
  -5   4  -7    2.50    1.71
  -5   4  -8   20.03    2.29
  -5   4  -9    3.67    1.89
  -5   3  13    1.66    1.56
  -5   3  12   39.76    2.08
  -5   3  11    0.08    1.35
  -5   3  10   39.09    1.94
  -5   3   9   10.16    1.40
  -5   3   9    7.43    1.29
  -5   3   8   48.24    2.02
  -5   3   8   35.08    1.76
  -5   3   7   24.03    1.80
  -5   3   7   18.37    1.56
  -5   3   6   89.36    2.10
  -5   3   6   67.41    1.86
  -5   3   5   70.08    1.96
  -5   3   5   53.46    1.73
  -5   3   4   19.32    1.75
  -5   3   4   14.69    1.53
  -5   3   3  129.01    2.25
  -5   3   3   97.05    1.90
  -5   3   2   14.97    1.32
  -5   3   2    9.01    1.04
  -5   3   1  130.49    2.22
  -5   3   1   94.11    1.82
  -5   3   0   15.99    1.67
  -5   3   0    9.22    1.04
  -5   3  -1   49.46    1.87
  -5   3  -1   38.79    1.55
  -5   3  -2    3.47    1.23
  -5   3  -3   69.80    2.11
  -5   3  -4    1.06    1.32
  -5   3  -5   99.64    2.41
  -5   3  -6    8.22    1.49
  -5   3  -7   38.37    2.18
  -5   3  -8   21.67    2.16
  -5   3  -9   21.95    2.24
  -5   3 -10   14.14    1.90
  -5   3 -11    9.18    1.93
  -5   2  13   10.69    1.51
  -5   2  12    1.88    1.40
  -5   2  12    1.29    1.36
  -5   2  11   39.22    2.07
  -5   2  11   26.29    1.79
  -5   2  10   28.01    1.92
  -5   2  10   20.84    1.68
  -5   2   9   69.02    2.04
  -5   2   9   46.54    1.70
  -5   2   8   30.01    1.85
  -5   2   8   22.94    1.50
  -5   2   7   81.93    2.02
  -5   2   7   60.50    1.66
  -5   2   6   47.11    1.81
  -5   2   6   35.73    1.44
  -5   2   5   29.49    1.64
  -5   2   5   21.36    1.38
  -5   2   4  150.13    2.28
  -5   2   4  112.19    1.80
  -5   2   3    0.49    0.99
  -5   2   3    0.32    0.74
  -5   2   2   92.37    1.89
  -5   2   2   61.72    1.43
  -5   2   1   18.16    1.53
  -5   2   1    9.69    0.86
  -5   2   0  116.29    2.01
  -5   2   0   80.17    1.48
  -5   2  -1    3.68    1.03
  -5   2  -1   -0.15    0.71
  -5   2  -2   97.83    2.01
  -5   2  -2   63.08    1.35
  -5   2  -3   25.26    1.68
  -5   2  -5    1.27    1.10
  -5   2  -6   39.24    1.94
  -5   2  -7   14.01    1.46
  -5   2  -8   17.50    1.94
  -5   2  -9   25.13    2.14
  -5   2 -10   16.93    1.78
  -5   2 -11    4.52    1.73
  -5   2 -12   14.52    1.91
  -5   1  14   45.75    2.36
  -5   1  13    2.06    1.41
  -5   1  13    2.15    1.37
  -5   1  12  124.78    2.58
  -5   1  12  110.93    2.40
  -5   1  11   25.14    1.89
  -5   1  11   15.17    1.63
  -5   1  10   15.11    1.73
  -5   1  10   12.34    1.21
  -5   1   9  107.88    2.22
  -5   1   9   80.62    1.86
  -5   1   8   35.65    1.78
  -5   1   8   26.96    1.45
  -5   1   7  129.56    2.21
  -5   1   7   93.26    1.72
  -5   1   6  138.09    2.16
  -5   1   6   98.76    1.66
  -5   1   5  144.49    2.13
  -5   1   5  106.94    1.60
  -5   1   4    3.81    0.93
  -5   1   4    3.26    0.64
  -5   1   3  100.00    1.83
  -5   1   3   73.59    1.32
  -5   1   2   12.18    1.39
  -5   1   2    8.30    1.00
  -5   1   2    8.70    0.67
  -5   1   1  117.20    1.88
  -5   1   1   73.27    1.23
  -5   1   0   30.58    1.44
  -5   1   0   16.74    0.97
  -5   1  -1  159.06    2.15
  -5   1  -1  101.57    1.35
  -5   1  -2    2.38    0.93
  -5   1  -2   -0.32    0.54
  -5   1  -3  139.97    2.16
  -5   1  -4   19.42    1.62
  -5   1  -5   63.97    1.87
  -5   1  -6   23.50    1.77
  -5   1  -7   44.81    1.90
  -5   1  -8   16.32    1.80
  -5   1  -9   36.12    2.01
  -5   1 -10    3.53    1.41
  -5   1 -12    9.06    1.66
  -5   1 -13   11.33    1.76
  -5   0  14    1.27    1.51
  -5   0  13   22.27    2.08
  -5   0  12   42.97    2.11
  -5   0  12   38.84    1.95
  -5   0  11   94.53    2.26
  -5   0  11   80.54    2.06
  -5   0  10  178.86    2.66
  -5   0  10  141.42    2.31
  -5   0   9   67.36    1.95
  -5   0   9   53.07    1.66
  -5   0   8  170.37    2.42
  -5   0   8  126.37    1.92
  -5   0   7    8.50    1.09
  -5   0   7    6.04    0.81
  -5   0   6  255.31    2.73
  -5   0   6  187.43    2.03
  -5   0   5    5.50    0.91
  -5   0   5    3.63    0.62
  -5   0   4  286.27    2.76
  -5   0   4  203.76    1.88
  -5   0   3    0.61    0.73
  -5   0   3    0.41    0.44
  -5   0   2   70.44    1.56
  -5   0   2   51.53    0.94
  -5   0   1   70.23    1.57
  -5   0   0  307.76    2.82
  -5   0  -1   43.72    1.48
  -5   0  -2  292.75    2.75
  -5   0  -3  129.90    1.94
  -5   0  -4  139.75    2.07
  -5   0  -5   17.96    1.52
  -5   0  -6  148.24    2.26
  -5   0  -7  153.51    2.39
  -5   0  -8   28.85    1.78
  -5   0  -9   69.33    2.08
  -5   0 -10   30.62    1.92
  -5   0 -11   15.58    1.46
  -5   0 -12   17.10    2.07
  -5   0 -13   35.81    2.31
  -5   0 -14    0.77    1.55
  -5  -1  13    3.95    1.33
  -5  -1  12    7.50    1.31
  -5  -1  11   94.95    2.29
  -5  -1  11   90.77    2.17
  -5  -1  10    6.18    1.24
  -5  -1  10    5.76    1.07
  -5  -1   9  199.81    2.65
  -5  -1   9  151.42    2.20
  -5  -1   8   73.37    1.89
  -5  -1   8   51.42    1.48
  -5  -1   7  198.81    2.44
  -5  -1   7  144.11    1.87
  -5  -1   6   26.83    1.47
  -5  -1   6   18.04    1.11
  -5  -1   5  154.92    2.07
  -5  -1   5  112.64    1.48
  -5  -1   4  110.40    1.78
  -5  -1   4   77.46    1.18
  -5  -1   3   79.87    1.59
  -5  -1   3   53.10    0.94
  -5  -1   2    1.50    0.70
  -5  -1   1  211.88    2.21
  -5  -1   0   10.71    1.15
  -5  -1  -1  251.25    2.42
  -5  -1  -2  209.14    2.18
  -5  -1  -3  129.97    1.84
  -5  -1  -4  137.42    1.95
  -5  -1  -5   74.76    1.65
  -5  -1  -6  122.84    2.00
  -5  -1  -7   35.32    1.62
  -5  -1  -8  110.88    2.07
  -5  -1  -9    4.52    1.05
  -5  -1 -10   49.36    1.93
  -5  -1 -11    0.72    1.12
  -5  -1 -12   59.26    2.17
  -5  -1 -13    1.92    1.32
  -5  -1 -14   36.57    2.31
   5   2 -15    6.77    1.78
   5   2 -14   17.30    1.78
   5   2 -13   14.61    1.59
   5   2 -12   55.92    2.08
  -5  -2  11   20.75    1.85
   5   2 -11   14.70    1.83
  -5  -2  10   98.81    2.24
  -5  -2   9    3.43    1.07
  -5  -2   8   76.37    1.85
  -5  -2   7    7.81    0.98
  -5  -2   6  158.91    2.15
  -5  -2   5   28.44    1.40
  -5  -2   4  239.10    2.42
   5   2  -4  171.67    1.64
  -5  -2   3   11.52    1.15
   5   2  -3    6.88    0.70
  -5  -2   2  177.52    2.00
  -5  -2   1   19.23    1.20
  -5  -2   0  447.85    3.34
  -5  -2  -1  418.61    3.18
  -5  -2  -2  150.38    1.79
  -5  -2  -3  124.47    1.66
  -5  -2  -4   58.18    1.37
  -5  -2  -5   42.51    1.38
  -5  -2  -6   61.02    1.56
  -5  -2  -7  160.84    2.13
  -5  -2  -8    1.72    0.82
  -5  -2  -9   33.76    1.62
  -5  -2 -10   10.90    1.08
  -5  -2 -11   44.96    1.88
  -5  -2 -12    1.01    1.11
  -5  -2 -13   54.18    2.15
  -5  -2 -14   19.23    2.04
   5   3 -14   15.24    1.73
   5   3 -13   40.22    2.08
   5   3 -12    0.30    1.26
   5   3 -11  170.79    2.56
   5   3 -10    4.54    1.16
  -5  -3   9  207.76    2.72
   5   3  -9  170.56    2.35
  -5  -3   8   48.66    1.73
   5   3  -8   35.77    1.25
  -5  -3   7  153.56    2.21
   5   3  -7  103.29    1.54
  -5  -3   6   12.16    1.40
   5   3  -6    8.74    0.93
  -5  -3   5  172.65    2.19
   5   3  -5  117.00    1.47
  -5  -3   4   40.49    1.42
   5   3  -4   30.99    0.93
  -5  -3   3  415.45    3.27
   5   3  -3  302.49    2.25
  -5  -3   2    8.73    0.74
   5   3  -2    7.38    0.70
  -5  -3   1  646.97    4.34
  -5  -3   0  473.92    3.42
  -5  -3  -1  396.94    3.03
  -5  -3  -2  603.17    4.06
  -5  -3  -3  105.07    1.53
  -5  -3  -4  137.54    1.64
  -5  -3  -5    8.26    0.69
  -5  -3  -6  126.44    1.76
  -5  -3  -7    4.52    0.74
  -5  -3  -8  151.55    2.04
  -5  -3  -9    5.74    0.85
  -5  -3 -10   82.73    1.87
  -5  -3 -11    0.62    0.94
   5   4 -14   28.29    2.23
   5   4 -13    1.27    1.40
   5   4 -12   80.11    2.29
   5   4 -11    0.93    1.15
   5   4 -10  173.33    2.54
   5   4  -9    8.08    1.01
  -5  -4   8  119.23    2.18
   5   4  -8  105.45    1.88
  -5  -4   7   15.30    1.53
   5   4  -7   13.96    1.18
  -5  -4   6  128.86    2.05
   5   4  -6   91.60    1.61
  -5  -4   5   59.35    1.57
   5   4  -5   47.07    1.20
  -5  -4   4  196.81    2.23
   5   4  -4  152.11    1.68
  -5  -4   3  365.25    3.03
   5   4  -3  278.71    2.25
  -5  -4   2  135.07    1.78
   5   4  -2  104.24    1.32
  -5  -4   1  369.84    2.90
  -5  -4   0  190.04    1.94
  -5  -4  -1  457.61    3.24
  -5  -4  -2   21.24    1.04
  -5  -4  -3  271.84    2.30
  -5  -4  -4    1.69    0.53
   5   4   4    1.26    0.40
  -5  -4  -5  139.78    1.63
   5   4   5  122.08    1.36
  -5  -4  -6   -0.49    0.53
   5   4   6    0.65    0.47
  -5  -4  -7  134.56    1.72
  -5  -4  -8   27.46    1.31
   5   5 -13   29.92    2.20
   5   5 -12   -0.06    1.33
   5   5 -11   75.45    2.20
   5   5 -10   -0.28    1.11
   5   5  -9   54.56    1.79
   5   5  -8    7.85    1.01
   5   5  -7   32.11    1.46
  -5  -5   6   68.03    1.77
   5   5  -6   65.57    1.57
  -5  -5   5   81.44    1.75
   5   5  -5   77.55    1.56
  -5  -5   4   99.01    1.77
   5   5  -4   86.01    1.49
  -5  -5   3   86.38    1.61
   5   5  -3   74.35    1.43
  -5  -5   2  246.31    2.34
   5   5  -2  260.35    2.29
  -5  -5   1   33.83    1.20
   5   5  -1   27.36    1.13
  -5  -5   0  347.95    2.73
  -5  -5  -1   56.20    1.20
   5   5   1   41.83    1.11
  -5  -5  -2   43.05    1.09
   5   5   2   31.61    1.01
  -5  -5  -3   -0.01    0.47
   5   5   3   -0.02    0.52
  -5  -5  -4   16.03    0.92
   5   5   4   12.89    0.96
   5   5   5   14.89    1.02
   5   5   6  138.57    1.66
   5   5   7    3.33    0.66
   5   5   8  147.87    1.89
   5   6 -12   54.79    2.42
   5   6 -11    1.46    1.39
   5   6 -10   62.03    2.16
   5   6  -9    6.31    1.26
   5   6  -8    8.48    1.17
   5   6  -7    5.53    1.08
   5   6  -6   62.52    1.69
   5   6  -5   87.48    1.81
   5   6  -4  147.24    2.05
   5   6  -3  274.56    2.63
  -5  -6   2   53.52    1.43
   5   6  -2   45.29    1.47
  -5  -6   1   89.27    1.50
   5   6  -1   82.97    1.59
  -5  -6   0   53.08    1.22
   5   6   0   50.27    1.37
  -5  -6  -1  191.55    1.86
   5   6   1  171.97    1.94
   5   6   2    1.05    0.74
   5   6   3   91.70    1.54
   5   6   4    4.49    0.74
   5   6   5   38.87    1.34
   5   6   6   -0.20    0.75
   5   6   7  147.96    1.97
   5   6   8   22.32    1.37
   5   6   9  180.85    2.34
   5   7 -11   40.66    2.32
   5   7 -10   21.83    2.03
   5   7  -9    9.04    1.44
   5   7  -8   36.24    1.89
   5   7  -7   10.82    1.31
   5   7  -6   43.47    1.82
   5   7  -5   51.20    1.80
   5   7  -3   30.97    1.65
   5   7  -2  204.39    2.52
   5   7  -1   21.66    1.56
   5   7   0  120.48    1.97
   5   7   1    9.37    1.02
   5   7   2   75.22    1.70
   5   7   3   52.66    1.60
   5   7   4  150.71    2.16
   5   7   5   32.95    1.57
   5   7   6  204.97    2.48
   5   7   7    0.27    1.00
   5   7   8   97.80    2.01
   5   7   9   57.44    1.84
   5   8 -10   10.14    1.75
   5   8  -9   13.20    1.70
   5   8  -8    0.38    1.48
   5   8  -7   33.41    2.10
   5   8  -6   27.00    1.96
   5   8  -4    8.06    1.41
   5   8  -3   71.84    2.14
   5   8  -2    0.90    1.22
   5   8  -1   37.06    1.84
   5   8   0    1.53    1.13
   5   8   1  110.68    2.13
   5   8   2   16.70    1.64
   5   8   3   43.31    1.80
   5   8   4   31.02    1.77
   5   8   5   41.78    1.89
   5   8   6   54.45    1.99
   5   8   7   95.26    2.30
   5   8   8   56.79    2.16
   5   8   9   21.71    1.87
   5   9  -6   42.33    2.38
   5   9  -5   15.69    1.78
   5   9  -4   68.28    2.48
   5   9  -3    1.41    1.48
   5   9  -2   44.30    2.09
   5   9   0   24.70    1.95
   5   9   2   34.68    2.01
   5   9   3   37.24    1.99
   5   9   4   54.60    2.19
   5   9   5    8.11    1.45
   5   9   6   51.85    2.22
   5   9   7    8.97    1.48
   5   9   8    8.53    1.53
   5   9   9   40.08    2.29
   5  10  -5   53.77    2.73
   5  10  -4    0.57    1.74
   5  10  -3   33.47    2.44
   5  10  -2   -0.04    1.66
   5  10  -1   21.01    2.28
   5  10   0    7.62    1.66
   5  10   1   31.28    2.22
   5  10   2   37.66    2.32
   5  10   3   15.55    1.78
   5  10   5   48.65    2.50
   5  10   7   25.76    2.39
   5  10   8   15.35    1.83
  -6   5   1   25.27    2.21
  -6   5   0    3.56    1.76
  -6   5  -1    8.94    1.84
  -6   5  -2   22.14    2.27
  -6   5  -3    1.59    1.83
  -6   4   5   11.27    1.69
  -6   4   4   21.98    2.13
  -6   4   3    0.49    1.51
  -6   4   2    7.29    1.58
  -6   4   1    4.15    1.59
  -6   4   0   25.55    2.08
  -6   4  -1   24.22    2.11
  -6   4  -2   26.23    2.18
  -6   4  -3   11.09    1.76
  -6   4  -4   -1.33    1.74
  -6   4  -5    8.14    1.88
  -6   4  -6   -0.42    1.90
  -6   4  -7   30.84    2.63
  -6   3   8    9.74    1.63
  -6   3   7   50.75    2.21
  -6   3   6   17.13    2.01
  -6   3   5   84.92    2.28
  -6   3   4   22.86    2.02
  -6   3   3   24.89    1.93
  -6   3   2    1.76    1.38
  -6   3   1   15.06    1.53
  -6   3   0   10.48    1.44
  -6   3  -1   18.53    1.94
  -6   3  -2   38.39    2.11
  -6   3  -3   18.39    1.98
  -6   3  -4   42.51    2.22
  -6   3  -5   14.22    1.73
  -6   3  -6   33.33    2.38
  -6   3  -7   -0.39    1.76
  -6   3  -8   13.82    1.95
  -6   3  -9    1.18    1.85
  -6   2  12   24.71    1.99
  -6   2  11    0.84    1.57
  -6   2  11    0.72    1.33
  -6   2  10   55.61    2.27
  -6   2  10   39.67    1.88
  -6   2   9    4.95    1.55
  -6   2   8   48.42    2.21
  -6   2   7   61.33    2.13
  -6   2   6   42.75    2.05
  -6   2   5   41.98    1.93
  -6   2   4  107.42    2.34
  -6   2   3   28.38    1.85
  -6   2   2   40.30    1.84
  -6   2   1   59.72    1.95
  -6   2   0   16.89    1.76
  -6   2  -1   70.40    2.05
  -6   2  -2    5.39    1.34
  -6   2  -3   68.17    2.10
  -6   2  -4    0.45    1.37
  -6   2  -5   85.08    2.42
  -6   2  -6    1.68    1.48
  -6   2  -7   82.08    2.51
  -6   2  -8    0.24    1.62
  -6   2  -9   19.64    2.28
  -6   2 -10    9.46    1.87
  -6   1  13   12.03    1.70
  -6   1  13   10.25    1.52
  -6   1  12    0.98    1.32
  -6   1  11   19.77    2.06
  -6   1  11   12.37    1.36
  -6   1  10   32.33    2.08
  -6   1  10   22.59    1.67
  -6   1   9   30.37    1.99
  -6   1   9   22.37    1.60
  -6   1   8   78.97    2.26
  -6   1   8   54.24    1.71
  -6   1   7   65.26    2.09
  -6   1   7   43.45    1.59
  -6   1   6   12.65    1.36
  -6   1   5   74.08    1.98
  -6   1   4   30.52    1.77
  -6   1   3    9.92    1.19
  -6   1   2   81.40    1.98
  -6   1   1   17.10    1.65
  -6   1   0  140.86    2.33
  -6   1  -2  124.68    2.23
  -6   1  -3   13.65    1.65
  -6   1  -4   88.80    2.17
  -6   1  -5   19.10    1.82
  -6   1  -6   41.82    2.02
  -6   1  -7    5.52    1.43
  -6   1  -8   22.89    2.05
  -6   1  -9    6.86    1.59
  -6   1 -10   23.07    2.27
  -6   1 -11   16.71    1.88
  -6   1 -12    3.69    1.82
  -6   0  13    0.58    1.54
  -6   0  13   -0.55    1.43
  -6   0  12   55.47    2.31
  -6   0  12   50.81    2.19
  -6   0  11    0.51    1.46
  -6   0  11    1.46    1.20
  -6   0  10   73.79    2.23
  -6   0  10   55.46    1.90
  -6   0   9   71.75    2.18
  -6   0   9   50.74    1.75
  -6   0   8    9.02    1.37
  -6   0   8    5.56    0.95
  -6   0   7  153.21    2.51
  -6   0   7  105.91    1.81
  -6   0   6   82.14    2.06
  -6   0   6   53.56    1.41
  -6   0   5   24.03    1.65
  -6   0   4  229.13    2.69
  -6   0   3   36.55    1.65
  -6   0   2   -0.78    0.89
  -6   0   1  100.58    1.94
  -6   0   0    1.06    0.99
  -6   0  -1  221.81    2.62
  -6   0  -2    0.77    0.98
  -6   0  -3  214.70    2.62
  -6   0  -4   24.66    1.63
  -6   0  -5   42.29    1.83
  -6   0  -6    1.89    1.16
  -6   0  -7   24.13    1.83
  -6   0  -8    9.29    1.38
  -6   0  -9    9.05    1.44
  -6   0 -10   17.31    2.11
  -6   0 -11   11.17    1.65
  -6   0 -12    6.53    1.69
  -6  -1  12    8.22    1.57
  -6  -1  12    5.48    1.32
  -6  -1  11   82.94    2.35
  -6  -1  11   68.19    2.16
  -6  -1  10  144.09    2.64
  -6  -1  10  112.70    2.31
  -6  -1   9  128.15    2.46
  -6  -1   9   95.64    2.01
  -6  -1   8  152.77    2.50
  -6  -1   8  115.07    1.98
  -6  -1   7   90.59    2.11
  -6  -1   7   61.60    1.52
  -6  -1   6   64.03    1.94
  -6  -1   6   40.12    1.27
  -6  -1   5   15.25    1.56
  -6  -1   4  266.96    2.85
  -6  -1   3    0.85    0.90
  -6  -1   2  295.93    2.95
  -6  -1   1    8.70    0.98
  -6  -1   0  153.57    2.14
  -6  -1  -1   15.68    1.44
  -6  -1  -2  208.82    2.44
  -6  -1  -3  112.02    1.94
  -6  -1  -4  183.33    2.37
  -6  -1  -5   13.12    1.48
  -6  -1  -6   68.67    1.92
  -6  -1  -7    2.96    1.09
  -6  -1  -8   34.58    1.89
  -6  -1  -9   49.84    2.04
  -6  -1 -10   16.04    1.96
  -6  -1 -11   46.13    2.30
  -6  -1 -12    6.34    1.53
  -6  -1 -13   14.52    1.74
   6   2 -14   19.28    2.14
   6   2 -13   25.55    2.09
  -6  -2  12   23.84    2.09
   6   2 -12   23.28    1.97
  -6  -2  11   51.54    2.18
   6   2 -11   41.00    1.96
  -6  -2  10    3.22    1.35
  -6  -2   9  233.92    3.00
  -6  -2   8    3.74    1.21
  -6  -2   7  174.29    2.52
  -6  -2   6  148.03    2.36
  -6  -2   5   69.09    1.81
  -6  -2   4    2.52    0.92
  -6  -2   3  180.84    2.34
  -6  -2   2  398.72    3.38
  -6  -2   1  233.31    2.52
  -6  -2   0   66.04    1.66
  -6  -2  -1  315.14    2.89
  -6  -2  -2   29.71    1.45
  -6  -2  -3   88.59    1.70
  -6  -2  -4   62.58    1.56
  -6  -2  -5    5.72    0.90
  -6  -2  -6    9.29    1.01
  -6  -2  -7   58.97    1.84
  -6  -2  -8   99.79    2.11
  -6  -2  -9   16.92    1.76
  -6  -2 -10   93.56    2.30
  -6  -2 -11    4.07    1.29
  -6  -2 -12   40.43    2.23
  -6  -2 -13    0.67    1.43
  -6  -2 -14   36.76    2.47
   6   3 -14   21.54    2.20
   6   3 -12   33.45    1.90
  -6  -3  11   21.63    1.97
   6   3 -11   18.18    1.62
  -6  -3  10  131.91    2.56
   6   3 -10   98.05    1.97
  -6  -3   9    1.84    1.23
   6   3  -9    0.72    0.88
  -6  -3   8   30.69    1.78
   6   3  -8   19.11    1.14
  -6  -3   7    0.21    1.04
   6   3  -7    0.93    0.69
  -6  -3   6   29.67    1.71
   6   3  -6   17.48    1.02
  -6  -3   5    0.00    0.80
   6   3  -5    0.92    0.55
  -6  -3   4  249.14    2.68
  -6  -3   3    4.26    0.87
  -6  -3   2  152.20    2.03
  -6  -3   1   16.18    1.31
  -6  -3   0  111.68    1.81
  -6  -3  -1  196.99    2.24
  -6  -3  -2  155.64    2.03
  -6  -3  -3   70.65    1.57
  -6  -3  -4   50.70    1.42
  -6  -3  -5    2.89    0.76
  -6  -3  -6   13.84    1.30
  -6  -3  -7   31.95    1.49
  -6  -3  -8   12.59    1.09
  -6  -3  -9  153.28    2.36
  -6  -3 -10    1.09    1.04
  -6  -3 -11   72.19    2.16
   6   4 -13   38.10    2.23
   6   4 -12    5.23    1.32
   6   4 -11   66.12    2.10
   6   4 -10    0.64    1.05
  -6  -4   9  127.47    2.51
   6   4  -9  101.85    1.99
  -6  -4   8   19.58    1.72
   6   4  -8   17.28    1.35
  -6  -4   7   58.51    1.84
   6   4  -7   44.74    1.43
  -6  -4   6   25.07    1.58
   6   4  -6   17.37    1.17
  -6  -4   5   71.87    1.83
   6   4  -5   47.53    1.18
  -6  -4   4   55.42    1.68
  -6  -4   3  312.11    2.95
  -6  -4   2  127.47    1.93
  -6  -4   1  411.37    3.32
  -6  -4   0    1.90    0.73
  -6  -4  -1  309.36    2.70
  -6  -4  -2   75.84    1.55
  -6  -4  -3   63.39    1.49
  -6  -4  -4   92.74    1.63
  -6  -4  -5   25.91    1.29
  -6  -4  -6   53.80    1.38
  -6  -4  -7   36.45    1.35
  -6  -4  -8  220.49    2.44
  -6  -4  -9    0.48    0.88
   6   5 -13    0.48    1.48
   6   5 -12   42.56    2.17
   6   5 -11    0.89    1.24
   6   5 -10   85.53    2.13
   6   5  -9   -0.02    1.02
  -6  -5   8   77.45    2.13
   6   5  -8   64.14    1.72
  -6  -5   7    0.20    1.06
   6   5  -7   -0.16    0.86
  -6  -5   6  144.13    2.33
   6   5  -6  112.49    1.84
  -6  -5   5   40.25    1.65
   6   5  -5   31.30    1.30
  -6  -5   4  233.55    2.60
   6   5  -4  176.28    1.97
  -6  -5   3  153.47    2.14
  -6  -5   2  181.41    2.22
  -6  -5   1  215.30    2.31
  -6  -5   0  154.12    1.96
  -6  -5  -1  184.25    2.07
  -6  -5  -2  100.24    1.52
  -6  -5  -3   61.33    1.32
  -6  -5  -4   14.28    1.22
  -6  -5  -5  129.38    1.77
   6   6 -12   -1.06    1.46
   6   6 -11   26.50    2.07
   6   6 -10    2.34    1.30
   6   6  -9   34.07    1.91
   6   6  -8   -1.27    1.07
   6   6  -7   53.01    1.76
   6   6  -6   33.66    1.53
  -6  -6   5   99.73    2.08
   6   6  -5   92.19    1.84
  -6  -6   4  114.10    2.05
   6   6  -4  102.03    1.82
  -6  -6   3  169.59    2.22
  -6  -6   2  154.99    2.05
   6   6  -2  117.37    1.79
  -6  -6   1   31.62    1.37
  -6  -6   0   76.32    1.54
  -6  -6  -1    4.50    0.73
  -6  -6  -2  113.96    1.61
   6   7 -11    2.57    1.54
   6   7 -10   70.88    2.35
   6   7  -9   -0.40    1.30
   6   7  -8   31.25    1.90
   6   7  -7    5.13    1.24
   6   7  -6   31.27    1.74
   6   7  -5   57.70    1.85
   6   7  -3   83.74    1.94
  -6  -7   2   60.01    1.62
   6   7  -2   57.84    1.74
  -6  -7   1   87.67    1.70
   6   7  -1   77.14    1.74
   6   8  -9   49.79    2.30
   6   8  -8   57.90    2.31
   6   8  -7   26.82    2.05
   6   8  -6   44.23    2.02
   6   8  -5   22.41    1.83
   6   8  -4   41.22    2.01
   6   8  -3   24.46    1.87
   6   8  -2   77.34    2.09
   6   8  -1   -0.35    1.09
   6   8   0   47.64    1.79
   6   9  -6    2.67    1.65
   6   9  -5   51.88    2.34
   6   9  -4    8.36    1.53
   6   9  -3   35.31    2.21
   6   9  -2    0.53    1.35
   6   9  -1   23.35    1.90
   6   9   0    2.33    1.31
   6  10  -4   23.80    2.40
   6  10  -3    0.62    1.62
   6  10  -2   35.17    2.31
   6  10  -1    0.54    1.57
   6  10   0   17.57    2.14
   6  10   1    3.09    1.51
  -7   4   4   -0.11    1.84
  -7   4   3   56.21    2.62
  -7   4   2    0.57    1.78
  -7   4   1   38.72    2.35
  -7   4   0    2.17    1.81
  -7   4  -1   15.57    1.96
  -7   4  -2   10.53    1.95
  -7   4  -3   10.93    2.02
  -7   3   8   24.99    2.45
  -7   3   7    5.77    1.77
  -7   3   6   26.18    2.28
  -7   3   5    5.86    1.77
  -7   3   4   66.04    2.59
  -7   3   3    6.99    1.70
  -7   3   2   22.69    2.17
  -7   3   1    1.02    1.64
  -7   3   0   13.63    1.78
  -7   3  -1   12.72    1.81
  -7   3  -2   21.88    2.27
  -7   3  -3   43.64    2.36
  -7   3  -4    3.15    1.75
  -7   3  -5   16.91    1.99
  -7   3  -6    0.90    1.91
  -7   2  10    0.65    1.78
  -7   2   8    1.93    1.69
  -7   2   7   43.07    2.33
  -7   2   6    5.46    1.62
  -7   2   5   74.29    2.39
  -7   2   4    8.63    1.67
  -7   2   3   83.22    2.42
  -7   2   2    9.64    1.56
  -7   2   1    9.51    1.57
  -7   2   0   13.23    1.64
  -7   2  -1    3.79    1.55
  -7   2  -2   28.88    2.08
  -7   2  -3   12.24    1.65
  -7   2  -4   40.01    2.29
  -7   2  -5    2.31    1.69
  -7   2  -6   13.56    1.88
  -7   2  -7    4.25    1.78
  -7   2  -8   10.74    1.97
  -7   1  11    0.70    1.71
  -7   1  10   43.87    2.38
  -7   1   9    5.52    1.72
  -7   1   8   64.43    2.44
  -7   1   7   20.93    2.11
  -7   1   6   62.92    2.32
  -7   1   5   22.97    2.04
  -7   1   4  101.30    2.41
  -7   1   3   30.60    1.99
  -7   1   2   49.38    2.05
  -7   1   1   28.69    1.94
  -7   1   0    7.58    1.42
  -7   1  -1   80.50    2.24
  -7   1  -2   -0.65    1.35
  -7   1  -3   77.59    2.27
  -7   1  -4   -0.59    1.42
  -7   1  -5   29.93    2.14
  -7   1  -6   10.32    1.68
  -7   1  -7   41.00    2.30
  -7   1  -8    1.94    1.72
  -7   1  -9   23.57    2.40
  -7   1 -10   -0.11    1.83
  -7   0  12   14.18    1.85
  -7   0  11   40.69    2.36
  -7   0  10   25.58    2.20
  -7   0   9   28.24    2.16
  -7   0   8   35.77    2.23
  -7   0   7   39.81    2.13
  -7   0   6   44.48    2.10
  -7   0   5   60.43    2.11
  -7   0   4    9.33    1.36
  -7   0   3   28.11    1.94
  -7   0   2   63.26    2.04
  -7   0   1   -1.26    1.18
  -7   0   0  148.79    2.49
  -7   0  -1    3.56    1.25
  -7   0  -2   80.63    2.12
  -7   0  -3    0.44    1.23
  -7   0  -4   57.36    2.01
  -7   0  -5    6.80    1.38
  -7   0  -6   41.63    2.04
  -7   0  -7    0.83    1.44
  -7   0  -9    1.04    1.59
  -7   0 -10   19.20    2.27
  -7   0 -11   15.61    1.92
  -7  -1  12   12.41    1.81
  -7  -1  11    6.13    1.67
  -7  -1  10   52.16    2.27
  -7  -1   9   16.34    1.98
  -7  -1   8   38.42    2.10
  -7  -1   7   60.34    2.18
  -7  -1   6   13.18    1.40
  -7  -1   5   31.16    1.91
  -7  -1   4   85.97    2.14
  -7  -1   3   23.93    1.70
  -7  -1   2   22.73    1.72
  -7  -1   1   46.70    1.83
  -7  -1   0    8.79    1.17
  -7  -1  -1  153.41    2.43
  -7  -1  -2    0.53    1.06
  -7  -1  -3  137.38    2.33
  -7  -1  -4   12.01    1.24
  -7  -1  -5   55.50    1.93
  -7  -1  -6   -0.41    1.18
  -7  -1  -7   19.12    1.82
  -7  -1  -8   20.17    2.01
  -7  -1  -9   11.66    1.57
  -7  -1 -10   26.43    2.21
  -7  -1 -11   12.81    1.73
  -7  -1 -12   19.06    1.87
  -7  -2  13   24.57    2.35
  -7  -2  12   16.02    1.78
  -7  -2  11   16.83    2.08
  -7  -2  10    6.03    1.58
  -7  -2   9   79.45    2.36
  -7  -2   8   42.33    2.12
  -7  -2   7  128.29    2.50
  -7  -2   6   72.20    2.13
  -7  -2   5   50.16    1.91
  -7  -2   4   61.70    1.98
  -7  -2   3    8.88    1.15
  -7  -2   2  369.91    3.47
  -7  -2   1    0.62    1.02
  -7  -2   0  206.63    2.60
  -7  -2  -1   11.42    1.12
  -7  -2  -2   54.00    1.81
  -7  -2  -3    0.17    1.00
  -7  -2  -4  155.58    2.32
  -7  -2  -5   31.99    1.66
  -7  -2  -6   98.25    2.09
  -7  -2  -7    0.32    1.14
  -7  -2  -8   34.99    1.90
  -7  -2  -9   30.57    2.01
  -7  -2 -10    5.23    1.43
  -7  -2 -11   63.90    2.39
  -7  -2 -12    4.05    1.56
  -7  -3  12   11.32    1.63
  -7  -3  11   14.95    1.69
  -7  -3  10   43.94    2.18
  -7  -3   8   16.04    1.89
  -7  -3   7  144.95    2.61
  -7  -3   6   31.63    1.94
  -7  -3   5  139.18    2.41
  -7  -3   4   65.77    1.91
  -7  -3   3  278.59    3.02
  -7  -3   2   61.36    1.82
  -7  -3   1  281.46    2.94
  -7  -3   0  157.66    2.28
  -7  -3  -1  240.24    2.71
  -7  -3  -2    1.61    0.93
  -7  -3  -3  111.10    2.00
  -7  -3  -4    4.71    0.96
  -7  -3  -5   18.75    1.48
  -7  -3  -6   81.07    1.83
  -7  -3  -7   13.13    1.18
  -7  -3  -8   94.89    2.11
  -7  -3  -9   31.36    1.81
  -7  -3 -10   64.84    2.10
  -7  -3 -11    6.43    1.43
  -7  -4  10   25.41    2.14
  -7  -4   9   19.08    1.96
  -7  -4   8  118.21    2.49
  -7  -4   7    1.56    1.22
  -7  -4   6   99.06    2.25
  -7  -4   4  128.04    2.29
  -7  -4   3   11.89    1.15
  -7  -4   2  330.03    3.18
  -7  -4   1   51.55    1.63
  -7  -4   0   35.97    1.49
  -7  -4  -1   18.35    1.42
  -7  -4  -2   25.89    1.55
  -7  -4  -3   76.30    1.77
  -7  -4  -4   89.16    1.83
  -7  -4  -5   55.27    1.71
  -7  -4  -6    5.26    0.92
  -7  -4  -7    6.78    0.99
  -7  -4  -8   -0.07    0.93
  -7  -5   9   95.87    2.54
  -7  -5   8   -0.07    1.33
  -7  -5   7   97.27    2.29
  -7  -5   6    2.19    1.20
  -7  -5   5  114.92    2.23
  -7  -5   4    8.17    1.16
  -7  -5   3  158.97    2.36
  -7  -5   2   87.73    1.91
  -7  -5   1   82.01    1.80
  -7  -5   0    2.13    0.88
  -7  -5  -1   90.66    1.71
  -7  -5  -2    3.93    0.81
  -7  -5  -3   49.66    1.52
  -7  -5  -4   61.86    1.66
  -7  -5  -5   16.08    1.46
  -7  -6   7    1.28    1.29
  -7  -6   6  112.98    2.39
  -7  -6   5    9.17    1.22
  -7  -6   4   94.87    2.07
  -7  -6   3   54.58    1.78
  -7  -6   2  123.94    2.10
  -7  -6   1   69.17    1.80
  -7  -6   0   32.06    1.55
  -7  -6  -1   17.08    1.44
  -7  -6  -2   95.02    1.78
  -7  -7   4   34.10    1.83
  -7  -7   3   52.26    1.85
  -7  -7   2   33.32    1.61
  -7  -7   1   17.43    1.44
  -8   3   3   16.32    2.17
  -8   3   2   -0.51    1.90
  -8   3   1   42.41    2.55
  -8   3   0    4.59    1.92
  -8   3  -1   13.72    2.04
  -8   2   7    0.22    1.87
  -8   2   6   21.94    2.47
  -8   2   5    6.23    1.89
  -8   2   4   42.18    2.50
  -8   2   3    2.88    1.86
  -8   2   2   42.59    2.44
  -8   2   1    1.52    1.73
  -8   2   0    6.59    1.74
  -8   2  -1    3.75    1.79
  -8   2  -2    4.68    1.72
  -8   2  -3   15.44    2.01
  -8   2  -4   24.39    2.43
  -8   2  -5   32.59    2.55
  -8   1   9   36.59    2.61
  -8   1   8    1.54    1.88
  -8   1   7   46.95    2.51
  -8   1   6    1.11    1.71
  -8   1   5   11.90    1.83
  -8   1   4   -0.55    1.73
  -8   1   3   63.54    2.54
  -8   1   2   26.80    2.21
  -8   1   1   38.44    2.29
  -8   1   0   13.79    1.68
  -8   1  -1    2.00    1.44
  -8   1  -2    9.17    1.74
  -8   1  -3    8.75    1.76
  -8   1  -4   25.97    2.30
  -8   1  -5    7.64    1.78
  -8   1  -6   18.64    2.32
  -8   1  -7    1.94    1.79
  -8   0  10   28.19    2.43
  -8   0   9    0.82    1.79
  -8   0   8   35.43    2.45
  -8   0   7    1.17    1.71
  -8   0   6   80.94    2.56
  -8   0   5   11.25    1.70
  -8   0   4   96.10    2.57
  -8   0   3   14.89    1.68
  -8   0   2   56.17    2.29
  -8   0   1   41.41    2.17
  -8   0   0    9.49    1.55
  -8   0  -2    7.44    1.55
  -8   0  -3   50.32    2.25
  -8   0  -4   10.39    1.65
  -8   0  -5   40.16    2.20
  -8   0  -6    2.46    1.60
  -8   0  -7   10.53    1.77
  -8   0  -8    0.60    1.70
  -8   0  -9   13.67    1.93
  -8  -1  11   51.97    2.61
  -8  -1  10    8.85    1.86
  -8  -1   9   74.10    2.61
  -8  -1   8    4.09    1.74
  -8  -1   7   39.80    2.31
  -8  -1   6   29.36    2.17
  -8  -1   5   26.74    2.12
  -8  -1   4   76.57    2.33
  -8  -1   3   60.92    2.22
  -8  -1   2   95.67    2.41
  -8  -1   1    7.63    1.43
  -8  -1   0   64.55    2.21
  -8  -1  -1    0.42    1.35
  -8  -1  -2   76.65    2.29
  -8  -1  -3    4.93    1.42
  -8  -1  -4   52.30    2.16
  -8  -1  -5    0.18    1.38
  -8  -1  -6   27.95    2.03
  -8  -1  -7    4.76    1.56
  -8  -1  -8   32.92    2.22
  -8  -1  -9    2.29    1.64
  -8  -1 -10   10.37    1.71
  -8  -2  11    5.64    1.81
  -8  -2  10   29.84    2.32
  -8  -2   9    6.63    1.72
  -8  -2   8   47.29    2.30
  -8  -2   7   29.37    2.23
  -8  -2   5  113.41    2.51
  -8  -2   4    2.96    1.41
  -8  -2   3   50.66    2.04
  -8  -2   2    3.75    1.28
  -8  -2   1   46.12    2.05
  -8  -2   0    0.53    1.18
  -8  -2  -1   48.91    2.00
  -8  -2  -2    0.10    1.22
  -8  -2  -3   34.34    1.94
  -8  -2  -4    3.76    1.31
  -8  -2  -5   50.86    2.04
  -8  -2  -6    1.38    1.27
  -8  -2  -7   14.87    1.51
  -8  -2  -8   10.63    1.53
  -8  -2  -9   12.54    1.59
  -8  -2 -10   18.77    2.11
  -8  -3  11   17.10    1.91
  -8  -3  10    3.84    1.71
  -8  -3   9   19.72    2.15
  -8  -3   8    7.75    1.63
  -8  -3   7   46.98    2.26
  -8  -3   6  105.51    2.59
  -8  -3   5   32.80    2.04
  -8  -3   4  105.04    2.37
  -8  -3   3   17.33    1.87
  -8  -3   2   57.24    1.94
  -8  -3   1    0.37    1.12
  -8  -3   0   65.90    2.04
  -8  -3  -1    8.72    1.22
  -8  -3  -2   45.31    1.91
  -8  -3  -3    8.23    1.25
  -8  -3  -4   38.98    1.90
  -8  -3  -5    3.78    1.23
  -8  -3  -6   92.81    2.25
  -8  -3  -7   13.39    1.36
  -8  -3  -8   51.30    2.02
  -8  -3  -9    4.88    1.36
  -8  -3 -10    4.67    1.45
  -8  -3 -11   13.99    1.59
  -8  -4  11   25.83    2.36
  -8  -4  10   16.68    1.83
  -8  -4   9    9.90    1.62
  -8  -4   8   21.77    2.07
  -8  -4   7   84.02    2.44
  -8  -4   6   13.27    1.56
  -8  -4   5  179.83    2.84
  -8  -4   4    8.16    1.36
  -8  -4   3   78.47    2.13
  -8  -4   2   31.14    1.83
  -8  -4   1  151.13    2.39
  -8  -4   0    2.01    1.08
  -8  -4  -1  115.11    2.20
  -8  -4  -2   11.73    1.20
  -8  -4  -3   99.86    2.18
  -8  -4  -4    0.85    1.09
  -8  -4  -5  107.37    2.23
  -8  -4  -6   60.58    2.00
  -8  -4  -7   22.19    1.86
  -8  -4  -8   59.78    2.01
  -8  -5  10   15.40    1.80
  -8  -5   9   11.55    1.70
  -8  -5   8   68.95    2.41
  -8  -5   7    7.96    1.53
  -8  -5   6  162.95    2.79
  -8  -5   5   -0.02    1.30
  -8  -5   4   64.31    2.15
  -8  -5   3    1.98    1.20
  -8  -5   2   74.33    2.05
  -8  -5   1    2.67    1.11
  -8  -5   0  109.11    2.16
  -8  -5  -1   12.79    1.51
  -8  -5  -2   55.15    1.76
  -8  -5  -3   51.15    1.82
  -8  -5  -4   64.81    1.95
  -8  -5  -5  112.87    2.21
  -8  -6   8    7.18    1.58
  -8  -6   7  128.79    2.75
  -8  -6   6    1.37    1.36
  -8  -6   5   95.78    2.30
  -8  -6   4    1.13    1.22
  -8  -6   3   40.26    1.89
  -8  -6   2   -0.45    1.13
  -8  -6   1   83.57    2.10
  -8  -6   0   32.15    1.74
  -8  -6  -1   32.71    1.69
  -8  -6  -2   17.20    1.57
  -8  -7   6  106.88    2.56
  -8  -7   5   -0.19    1.28
  -8  -7   4   50.90    2.04
  -8  -7   3    2.66    1.18
  -8  -7   2   50.68    1.85
  -8  -7   1   51.48    1.85
  -9   1   5   10.17    2.05
  -9   1   4   22.47    2.55
  -9   1   3   13.93    2.09
  -9   1   2   49.51    2.74
  -9   1   1    5.09    1.92
  -9   1   0   17.46    2.03
  -9   1  -1    2.17    1.88
  -9   1  -2   -0.72    1.83
  -9   1  -3    6.36    1.99
  -9   0   7   43.62    2.75
  -9   0   6    3.56    1.95
  -9   0   5   22.61    2.50
  -9   0   4    1.26    1.87
  -9   0   3    4.82    1.84
  -9   0   2   17.63    1.99
  -9   0   1   40.63    2.50
  -9   0   0   23.59    2.38
  -9   0  -1   27.32    2.28
  -9   0  -2    0.97    1.70
  -9   0  -3    0.17    1.79
  -9   0  -4    0.71    1.82
  -9   0  -5    6.09    1.92
  -9   0  -6   23.67    2.50
  -9  -1   8   20.57    2.15
  -9  -1   7    0.90    1.86
  -9  -1   6   31.66    2.44
  -9  -1   5   13.26    1.93
  -9  -1   4   33.84    2.34
  -9  -1   3    6.11    1.75
  -9  -1   2   69.09    2.52
  -9  -1   1    5.96    1.72
  -9  -1   0   21.57    2.24
  -9  -1  -1   16.93    1.81
  -9  -1  -2   11.65    1.72
  -9  -1  -3   25.42    2.24
  -9  -1  -4   24.17    2.29
  -9  -1  -5   26.62    2.32
  -9  -1  -6    1.09    1.71
  -9  -1  -7   15.24    1.88
  -9  -2   9   47.95    2.61
  -9  -2   8    3.56    1.88
  -9  -2   7   42.88    2.54
  -9  -2   6   17.27    1.90
  -9  -2   5   26.48    2.28
  -9  -2   4   53.20    2.48
  -9  -2   3   38.21    2.25
  -9  -2   2   51.24    2.33
  -9  -2   1   76.67    2.47
  -9  -2   0   27.50    2.23
  -9  -2  -1   24.67    2.20
  -9  -2  -2   26.92    2.16
  -9  -2  -3   -0.95    1.51
  -9  -2  -4   57.73    2.35
  -9  -2  -5    1.82    1.61
  -9  -2  -6   79.34    2.59
  -9  -2  -7    7.22    1.65
  -9  -2  -8   20.48    2.23
  -9  -3   9    4.28    1.84
  -9  -3   8   52.32    2.56
  -9  -3   7   16.30    1.91
  -9  -3   6   37.75    2.44
  -9  -3   5   79.61    2.55
  -9  -3   4   14.86    1.72
  -9  -3   3   70.50    2.39
  -9  -3   2   16.45    2.01
  -9  -3   1   39.55    2.09
  -9  -3   0    3.54    1.43
  -9  -3  -1   38.03    2.13
  -9  -3  -2    0.95    1.42
  -9  -3  -3   49.62    2.19
  -9  -3  -4    1.17    1.44
  -9  -3  -5   41.19    2.20
  -9  -3  -6   17.95    2.14
  -9  -3  -7   23.77    2.18
  -9  -3  -8    8.34    1.60
  -9  -3  -9   12.36    1.67
  -9  -4   9   10.21    1.88
  -9  -4   8   26.41    2.38
  -9  -4   7   16.81    1.83
  -9  -4   6   42.61    2.39
  -9  -4   4   92.30    2.56
  -9  -4   3   21.27    1.99
  -9  -4   2   30.08    2.06
  -9  -4   1    8.25    1.42
  -9  -4   0   20.11    1.85
  -9  -4  -1    0.83    1.24
  -9  -4  -2   52.37    2.18
  -9  -4  -3    7.54    1.41
  -9  -4  -4   37.99    2.08
  -9  -4  -5    1.78    1.37
  -9  -4  -6   33.55    2.13
  -9  -4  -7    6.40    1.49
  -9  -4  -8   12.86    1.57
  -9  -5   9   25.11    2.43
  -9  -5   8   22.13    2.32
  -9  -5   7   28.23    2.28
  -9  -5   6    3.80    1.59
  -9  -5   5  121.79    2.80
  -9  -5   4    7.89    1.58
  -9  -5   3   69.63    2.37
  -9  -5   2   28.23    2.00
  -9  -5   1   28.56    1.96
  -9  -5   0    4.99    1.35
  -9  -5  -1   65.55    2.03
  -9  -5  -2   10.47    1.32
  -9  -5  -3   78.44    2.20
  -9  -5  -4   21.22    2.01
  -9  -5  -5   50.98    2.19
  -9  -6   8   63.97    2.65
  -9  -6   7    9.18    1.67
  -9  -6   6   61.17    2.39
  -9  -6   5    5.63    1.54
  -9  -6   4   50.73    2.24
  -9  -6   3    4.19    1.45
  -9  -6   2   12.72    1.50
  -9  -6   1   -0.08    1.31
  -9  -6   0   77.89    2.21
  -9  -6  -1    8.69    1.34
  -9  -6  -2   97.85    2.25
  -9  -7   7   28.30    2.39
  -9  -7   6   -0.84    1.50
  -9  -7   5   75.93    2.50
  -9  -7   4    2.88    1.43
  -9  -7   3   14.34    1.49
  -9  -7   2    1.61    1.32
  -9  -7   1   20.24    2.02
  -9  -8   5    0.51    1.45
 -10  -1   4   10.20    2.11
 -10  -1   3   13.16    2.10
 -10  -1   2    6.08    2.03
 -10  -1   1   15.10    2.09
 -10  -1   0   12.19    2.08
 -10  -1  -1   37.95    2.60
 -10  -1  -2   12.69    2.04
 -10  -2   5    4.10    1.95
 -10  -2   4   19.32    2.10
 -10  -2   3   10.53    1.96
 -10  -2   2   16.54    1.97
 -10  -2   1    1.48    1.77
 -10  -2   0   29.51    2.47
 -10  -2  -1    2.05    1.83
 -10  -2  -2    7.45    1.88
 -10  -2  -3   23.48    2.44
 -10  -2  -4    1.11    1.78
 -10  -3   6   13.69    2.09
 -10  -3   5   27.23    2.54
 -10  -3   4   27.19    2.39
 -10  -3   3   19.92    2.39
 -10  -3   2    4.98    1.77
 -10  -3   1   48.26    2.41
 -10  -3   0    9.36    1.73
 -10  -3  -1   28.05    2.41
 -10  -3  -2   17.01    1.87
 -10  -3  -3    2.04    1.72
 -10  -3  -4   27.34    2.41
 -10  -3  -5    0.68    1.71
 -10  -3  -6   49.20    2.54
 -10  -4   6   34.60    2.57
 -10  -4   5    7.18    1.88
 -10  -4   4   15.43    1.91
 -10  -4   3   35.96    2.36
 -10  -4   2   14.10    1.85
 -10  -4   1   35.53    2.28
 -10  -4   0   21.02    2.12
 -10  -4  -1   32.58    2.22
 -10  -4  -2    0.63    1.55
 -10  -4  -3   48.46    2.48
 -10  -4  -4    1.16    1.63
 -10  -4  -5   35.21    2.37
 -10  -4  -6    2.14    1.63
 -10  -5   6   16.97    1.97
 -10  -5   5   27.12    2.48
 -10  -5   4   17.64    1.95
 -10  -5   3   47.39    2.46
 -10  -5   2   13.66    1.73
 -10  -5   1    9.52    1.68
 -10  -5   0   40.50    2.27
 -10  -5  -1    2.45    1.49
 -10  -5  -2   56.17    2.21
 -10  -5  -3    3.22    1.47
 -10  -5  -4   43.30    2.36
 -10  -5  -5    2.03    1.51
 -10  -6   6   12.51    1.85
 -10  -6   5    8.66    1.78
 -10  -6   4    7.15    1.77
 -10  -6   3   88.76    2.75
 -10  -6   2   18.03    1.82
 -10  -6   1   58.29    2.43
 -10  -6   0   10.37    1.59
 -10  -6  -1   34.10    2.14
 -10  -6  -2    6.22    1.50
 -10  -7   4   39.21    2.34
 -10  -7   3   -0.54    1.54
 -10  -7   2   40.36    2.39
   0   0   0    0.00    0.00
;
_shelx_hkl_checksum              57761
#END Tags that were not found in dictionaries
loop_
_space_group_symop_operation_xyz
'x, y, z'
'-x, -y, -z'
loop_
_atom_site_label
_atom_site_type_symbol
_atom_site_fract_x
_atom_site_fract_y
_atom_site_fract_z
_atom_site_U_iso_or_equiv
_atom_site_adp_type
_atom_site_occupancy
_atom_site_site_symmetry_order
_atom_site_calc_flag
_atom_site_refinement_flags_posn
_atom_site_refinement_flags_adp
C1 C 0.5994(5) 0.7797(5) 0.8418(3) 0.0269(7) Uani 1 1 d . .
C2 C 0.6576(5) 0.9764(5) 0.6601(3) 0.0307(7) Uani 1 1 d . .
C3 C 0.7939(6) 0.2961(6) 0.9110(3) 0.0390(9) Uani 1 1 d . .
H3A H 0.8079 0.2009 0.8580 0.059 Uiso 1 1 calc R U
H3B H 0.6572 0.3943 0.9098 0.059 Uiso 1 1 calc R U
H3C H 0.8342 0.2285 0.9869 0.059 Uiso 1 1 calc R U
C4 C 1.1138(5) 0.2503(5) 0.8824(3) 0.0303(7) Uani 1 1 d . .
H4A H 1.1325 0.1534 0.8286 0.036 Uiso 1 1 calc R U
H4B H 1.1539 0.1797 0.9586 0.036 Uiso 1 1 calc R U
C5 C 1.2356(5) 0.3540(5) 0.8523(3) 0.0297(7) Uani 1 1 d . .
H5A H 1.2075 0.4602 0.9011 0.036 Uiso 1 1 calc R U
H5B H 1.3759 0.2614 0.8625 0.036 Uiso 1 1 calc R U
C6 C 1.2842(5) 0.5494(5) 0.7005(3) 0.0307(7) Uani 1 1 d . .
H6A H 1.4276 0.4710 0.7096 0.037 Uiso 1 1 calc R U
H6B H 1.2451 0.6628 0.7449 0.037 Uiso 1 1 calc R U
C7 C 1.2252(5) 0.6179(5) 0.5796(3) 0.0310(8) Uani 1 1 d . .
H7A H 1.2944 0.6938 0.5493 0.037 Uiso 1 1 calc R U
H7B H 1.2608 0.5039 0.5361 0.037 Uiso 1 1 calc R U
C8 C 0.9520(6) 0.7944(6) 0.4537(3) 0.0376(9) Uani 1 1 d . .
H8A H 1.0157 0.8702 0.4178 0.056 Uiso 1 1 calc R U
H8B H 0.8102 0.8742 0.4487 0.056 Uiso 1 1 calc R U
H8C H 0.9855 0.6765 0.4154 0.056 Uiso 1 1 calc R U
N1 N 0.4858(6) 0.8091(5) 0.9082(3) 0.0454(8) Uani 1 1 d . .
N2 N 0.5793(6) 1.1261(6) 0.6136(3) 0.0591(11) Uani 1 1 d . .
O1 O 0.9133(4) 0.3901(3) 0.87947(19) 0.0283(5) Uani 1 1 d . .
O2 O 1.1889(3) 0.4331(3) 0.73800(17) 0.0262(5) Uani 1 1 d . .
O3 O 1.0172(4) 0.7392(4) 0.56900(18) 0.0292(5) Uani 1 1 d . .
F1 F 0.8993(3) 0.8353(3) 0.82601(17) 0.0385(5) Uani 1 1 d . .
F2 F 0.6357(4) 0.6560(4) 0.65156(18) 0.0435(6) Uani 1 1 d . .
Se1 Se 0.79318(5) 0.72174(5) 0.73568(2) 0.02457(15) Uani 1 1 d . .
loop_
_atom_site_aniso_label
_atom_site_aniso_U_11
_atom_site_aniso_U_22
_atom_site_aniso_U_33
_atom_site_aniso_U_23
_atom_site_aniso_U_13
_atom_site_aniso_U_12
C1 0.0207(16) 0.0312(17) 0.0283(16) -0.0076(14) 0.0121(14) -0.0103(14)
C2 0.0305(18) 0.0231(16) 0.0307(17) 0.0049(14) 0.0079(14) -0.0064(15)
C3 0.037(2) 0.041(2) 0.052(2) -0.0067(17) 0.0102(17) -0.0283(18)
C4 0.0310(19) 0.0341(18) 0.0265(16) -0.0033(13) 0.0042(14) -0.0151(16)
C5 0.0292(18) 0.0384(19) 0.0247(16) -0.0033(14) 0.0009(14) -0.0180(16)
C6 0.0279(18) 0.042(2) 0.0317(17) -0.0058(15) 0.0049(14) -0.0242(17)
C7 0.0279(18) 0.0410(19) 0.0316(17) -0.0065(14) 0.0087(14) -0.0215(17)
C8 0.044(2) 0.050(2) 0.0249(17) -0.0057(15) 0.0015(16) -0.026(2)
N1 0.043(2) 0.0460(19) 0.0435(18) 0.0003(15) 0.0098(17) -0.0174(17)
N2 0.048(2) 0.056(2) 0.057(2) 0.0033(19) 0.0245(19) -0.010(2)
O1 0.0281(12) 0.0315(12) 0.0318(12) -0.0034(10) 0.0067(10) -0.0190(11)
O2 0.0262(12) 0.0377(13) 0.0218(11) -0.0055(9) 0.0026(9) -0.0201(11)
O3 0.0327(13) 0.0383(13) 0.0226(11) -0.0028(10) 0.0033(10) -0.0212(12)
F1 0.0429(13) 0.0485(13) 0.0363(11) -0.0130(9) 0.0047(10) -0.0297(11)
F2 0.0484(14) 0.0651(15) 0.0370(11) -0.0169(10) 0.0071(10) -0.0412(13)
Se1 0.0269(2) 0.0308(2) 0.0226(2) -0.00602(13) 0.00644(13) -0.01817(16)
loop_
_atom_type_symbol
_atom_type_description
_atom_type_scat_dispersion_real
_atom_type_scat_dispersion_imag
_atom_type_scat_source
C C 0.0033 0.0016 'International Tables Vol C Tables 4.2.6.8 and 6.1.1.4'
H H 0.0000 0.0000 'International Tables Vol C Tables 4.2.6.8 and 6.1.1.4'
N N 0.0061 0.0033 'International Tables Vol C Tables 4.2.6.8 and 6.1.1.4'
O O 0.0106 0.0060 'International Tables Vol C Tables 4.2.6.8 and 6.1.1.4'
F F 0.0171 0.0103 'International Tables Vol C Tables 4.2.6.8 and 6.1.1.4'
Se Se -0.0929 2.2259 'International Tables Vol C Tables 4.2.6.8 and 6.1.1.4'
loop_
_geom_angle_atom_site_label_1
_geom_angle_atom_site_label_2
_geom_angle_atom_site_label_3
_geom_angle
N1 C1 Se1 177.7(3)
N2 C2 Se1 178.7(4)
O1 C4 C5 109.2(3)
O2 C5 C4 107.7(3)
O2 C6 C7 107.5(3)
O3 C7 C6 109.2(3)
C3 O1 C4 110.5(3)
C3 O1 Se1 124.0(2)
C4 O1 Se1 118.58(19)
C5 O2 C6 113.6(2)
C5 O2 Se1 104.6(2)
C6 O2 Se1 101.3(2)
C8 O3 C7 111.0(3)
C8 O3 Se1 124.5(2)
C7 O3 Se1 119.78(18)
F2 Se1 F1 167.05(11)
F2 Se1 C1 85.41(14)
F1 Se1 C1 85.15(13)
F2 Se1 C2 86.11(15)
F1 Se1 C2 85.13(14)
C1 Se1 C2 90.59(15)
F2 Se1 O3 95.80(10)
F1 Se1 O3 91.06(10)
C1 Se1 O3 165.02(12)
C2 Se1 O3 74.63(12)
F2 Se1 O1 93.03(10)
F1 Se1 O1 93.10(10)
C1 Se1 O1 75.10(12)
C2 Se1 O1 165.68(12)
O3 Se1 O1 119.65(8)
F2 Se1 O2 110.87(10)
F1 Se1 O2 82.07(10)
C1 Se1 O2 132.90(12)
C2 Se1 O2 132.78(12)
O3 Se1 O2 60.45(8)
O1 Se1 O2 60.66(7)
loop_
_geom_bond_atom_site_label_1
_geom_bond_atom_site_label_2
_geom_bond_distance
C1 N1 1.137(5)
C1 Se1 1.876(3)
C2 N2 1.121(5)
C2 Se1 1.892(3)
C3 O1 1.421(4)
C4 O1 1.427(4)
C4 C5 1.492(5)
C5 O2 1.421(4)
C6 O2 1.421(4)
C6 C7 1.490(5)
C7 O3 1.442(5)
C8 O3 1.428(4)
O1 Se1 2.717(3)
O2 Se1 2.848(3)
O3 Se1 2.658(3)
F1 Se1 1.838(2)
F2 Se1 1.829(2)
