#------------------------------------------------------------------------------
#$Date: 2016-03-24 00:14:39 +0200 (Thu, 24 Mar 2016) $
#$Revision: 179528 $
#$URL: svn://www.crystallography.net/cod/cif/4/34/25/4342579.cif $
#------------------------------------------------------------------------------
#
# This file is available in the Crystallography Open Database (COD),
# http://www.crystallography.net/
#
# All data on this site have been placed in the public domain by the
# contributors.
#
data_4342579
loop_
_publ_author_name
'Oliynyk, Anton O.'
'Stoyko, Stanislav S.'
'Mar, Arthur'
_publ_section_title
;
 Many Metals Make the Cut: Quaternary Rare-Earth Germanides RE4M2InGe4 (M
 = Fe, Co, Ni, Ru, Rh, Ir) and RE4RhInGe4 Derived from Excision of Slabs
 in RE2InGe2.
;
_journal_issue                   6
_journal_name_full               'Inorganic chemistry'
_journal_page_first              2780
_journal_page_last               2792
_journal_paper_doi               10.1021/ic502955h
_journal_volume                  54
_journal_year                    2015
_chemical_formula_structural     'Er4 Ru2 In Ge4'
_chemical_formula_sum            'Er4 Ge4 In Ru2'
_chemical_formula_weight         1276.36
_chemical_name_common            'erbium ruthenium indium germanide (4/2/1/4)'
_chemical_name_systematic        'erbium ruthenium indium germanide (4/2/1/4)'
_space_group_crystal_system      monoclinic
_space_group_IT_number           12
_space_group_name_Hall           '-C 2y'
_space_group_name_H-M_alt        'C 1 2/m 1'
_symmetry_space_group_name_Hall  '-C 2y'
_symmetry_space_group_name_H-M   'C 1 2/m 1'
_atom_sites_solution_primary     direct
_atom_sites_solution_secondary   difmap
_audit_creation_method           SHELXL-2013
_cell_angle_alpha                90
_cell_angle_beta                 106.850(4)
_cell_angle_gamma                90
_cell_formula_units_Z            2
_cell_length_a                   15.526(5)
_cell_length_b                   4.2254(14)
_cell_length_c                   6.916(2)
_cell_measurement_reflns_used    1363
_cell_measurement_temperature    173(2)
_cell_measurement_theta_max      30.31
_cell_measurement_theta_min      5.02
_cell_volume                     434.2(2)
_computing_cell_refinement       'Bruker SAINT 8.27B (Bruker, 2011)'
_computing_data_collection       'Bruker APEX 2 (Bruker, 2008)'
_computing_data_reduction        'Bruker SAINT 8.27B'
_computing_molecular_graphics    'ATOMS 5.1 (Dowty, 1999)'
_computing_publication_material  'Bruker SHELXTL'
_computing_structure_refinement  'Bruker SHELXTL'
_computing_structure_solution    'Bruker SHELXTL'
_diffrn_ambient_temperature      173(2)
_diffrn_measured_fraction_theta_full 1.000
_diffrn_measured_fraction_theta_max 0.986
_diffrn_measurement_device_type  'Bruker PLATFORM/SMART APEX II CCD'
_diffrn_measurement_method       '\w and \f scans'
_diffrn_radiation_type           MoK\a
_diffrn_radiation_wavelength     0.71073
_diffrn_reflns_av_R_equivalents  0.0496
_diffrn_reflns_av_unetI/netI     0.0442
_diffrn_reflns_Laue_measured_fraction_full 1.000
_diffrn_reflns_Laue_measured_fraction_max 0.986
_diffrn_reflns_limit_h_max       23
_diffrn_reflns_limit_h_min       -23
_diffrn_reflns_limit_k_max       6
_diffrn_reflns_limit_k_min       -6
_diffrn_reflns_limit_l_max       10
_diffrn_reflns_limit_l_min       -10
_diffrn_reflns_number            3164
_diffrn_reflns_point_group_measured_fraction_full 1.000
_diffrn_reflns_point_group_measured_fraction_max 0.986
_diffrn_reflns_theta_full        25.242
_diffrn_reflns_theta_max         33.168
_diffrn_reflns_theta_min         2.742
_diffrn_source                   'fine-focus sealed tube'
_exptl_absorpt_coefficient_mu    57.681
_exptl_absorpt_correction_T_max  0.5593
_exptl_absorpt_correction_T_min  0.0980
_exptl_absorpt_correction_type   numerical
_exptl_absorpt_process_details   'Bruker SHELXTL (Sheldrick, 2013)'
_exptl_crystal_colour            grey
_exptl_crystal_density_diffrn    9.762
_exptl_crystal_density_method    'not measured'
_exptl_crystal_description       irregular
_exptl_crystal_F_000             1074
_exptl_crystal_size_max          0.134
_exptl_crystal_size_mid          0.020
_exptl_crystal_size_min          0.015
_refine_diff_density_max         3.024
_refine_diff_density_min         -2.677
_refine_diff_density_rms         0.611
_refine_ls_extinction_coef       0.00104(11)
_refine_ls_extinction_expression Fc^*^=kFc[1+0.001xFc^2^\l^3^/sin(2\q)]^-1/4^
_refine_ls_extinction_method     SHELXL
_refine_ls_goodness_of_fit_ref   1.039
_refine_ls_hydrogen_treatment    undef
_refine_ls_matrix_type           full
_refine_ls_number_parameters     37
_refine_ls_number_reflns         923
_refine_ls_number_restraints     0
_refine_ls_restrained_S_all      1.039
_refine_ls_R_factor_all          0.0413
_refine_ls_R_factor_gt           0.0297
_refine_ls_shift/su_max          0.001
_refine_ls_shift/su_mean         0.000
_refine_ls_structure_factor_coef Fsqd
_refine_ls_weighting_details
'w=1/[\s^2^(Fo^2^)+(0.0329P)^2^+0.8532P] where P=(Fo^2^+2Fc^2^)/3'
_refine_ls_weighting_scheme      calc
_refine_ls_wR_factor_gt          0.0657
_refine_ls_wR_factor_ref         0.0689
_reflns_Friedel_coverage         0.000
_reflns_number_gt                758
_reflns_number_total             923
_reflns_threshold_expression     'I > 2\s(I)'
_cod_data_source_file            ic502955h_si_004.cif
_cod_data_source_block           Er4Ru2InGe4
_cod_depositor_comments
'Adding full bibliography for 4342570--4342590.cif.'
_cod_database_code               4342579
#BEGIN Tags that were not found in dictionaries:
_shelx_space_group_comment
;
The symmetry employed for this shelxl refinement is uniquely defined
by the following loop, which should always be used as a source of
symmetry information in preference to the above space-group names.
They are only intended as comments.
;
_shelx_estimated_absorpt_t_min   0.048
_shelx_estimated_absorpt_t_max   0.478
_shelxl_version_number           2013-4
_shelx_res_file
;
TITL Er4Ru2InGe4 C2/m lsf final refinement
CELL 0.71073  15.52580   4.22540   6.91580  90.0000 106.8497  90.0000
ZERR    2.00   0.00500   0.00140   0.00220   0.0000   0.0043   0.0000
LATT  7
SYMM -X, Y, -Z
SFAC GE RU IN ER
UNIT 8 4 2 8
TEMP -100
SIZE 0.015 0.02 0.134

L.S. 4
ACTA

WGHT    0.032900    0.853200
EXTI    0.001041
FVAR       0.04584
ER1   4    0.347937    0.000000    0.068285    10.50000    0.01192    0.00876 =
         0.00606    0.00000    0.00167    0.00000
ER2   4    0.587440    0.000000    0.384921    10.50000    0.01134    0.00822 =
         0.00698    0.00000    0.00360    0.00000
RU    2    0.220592    0.000000    0.633354    10.50000    0.01128    0.00809 =
         0.00639    0.00000    0.00286    0.00000
IN    3    0.000000    0.000000    0.000000     0.24496    0.01207    0.01357 =
         0.00635    0.00000    0.00281    0.00000
GE1   1    0.064207    0.000000    0.659975    10.50000    0.01142    0.00870 =
         0.00815    0.00000    0.00230    0.00000
GE2   1    0.199757    0.000000    0.259343    10.50000    0.01718    0.00652 =
         0.00712    0.00000    0.00463    0.00000
HKLF 4

REM  Er4Ru2InGe4 C2/m lsf final refinement
REM R1 =  0.0297 for     758 Fo > 4sig(Fo)  and  0.0413 for all     923 data
REM     37 parameters refined using      0 restraints

END

WGHT      0.0329      0.8334

REM Highest difference peak  3.024,  deepest hole -2.677,  1-sigma level  0.611
Q1    1   0.0167  0.0000  0.6716  10.50000  0.05    3.02
Q2    1   0.2848  0.0000  0.1948  10.50000  0.05    2.71
Q3    1   0.6431  0.0000  0.2740  10.50000  0.05    2.44
Q4    1   0.0907  0.0000  0.0413  10.50000  0.05    2.44
Q5    1   0.6491  0.0000  0.5880  10.50000  0.05    2.42
Q6    1   0.4587  0.0000  0.0694  10.50000  0.05    2.38
Q7    1   0.4507  0.0000 -0.0613  10.50000  0.05    2.21
Q8    1   0.4135  0.0000  0.2333  10.50000  0.05    2.11
Q9    1   0.5230 -0.1544  0.3765  11.00000  0.05    2.03
Q10   1   0.0602  0.1740  0.0799  11.00000  0.05    2.01
Q11   1   0.2095  0.0000  0.0971  10.50000  0.05    2.01
Q12   1   0.0000  0.1691  0.0000  10.50000  0.05    1.97
Q13   1   0.6716  0.0000  0.3355  10.50000  0.05    1.97
Q14   1   0.2098  0.1773  0.3455  11.00000  0.05    1.96
Q15   1   0.0000 -0.5000  0.0000  10.25000  0.05    1.95
Q16   1   0.6494 -0.1113  0.3994  11.00000  0.05    1.89
Q17   1   0.1349  0.0000  0.1948  10.50000  0.05    1.87
Q18   1   0.5277  0.0000  0.4980  10.50000  0.05    1.86
Q19   1   0.4808  0.0000  0.1846  10.50000  0.05    1.86
Q20   1   0.1506  0.0000  0.7099  10.50000  0.05    1.85
;
_shelx_res_checksum              6543
_shelx_hkl_file
;
   3  -1 -10    6.84    5.02
   5  -1 -10   40.65    7.70
   7  -1 -10   11.63    4.74
   9  -1 -10   34.63    4.43
  11  -1 -10    3.97    2.78
   2   0 -10   12.51    4.53
   4   0 -10   46.84    7.58
   6   0 -10    2.55    2.30
   8   0 -10   55.83    5.44
  10   0 -10   65.35    8.42
  12   0 -10   -1.70    2.19
  14   0 -10   -0.89    3.77
   3   1 -10    0.31    2.23
   5   1 -10   54.96    5.32
   7   1 -10   11.01    3.12
   9   1 -10   40.21    3.58
  11   1 -10    5.59    1.95
  13   1 -10    7.49    2.78
   1  -3  -9   10.54    4.84
   3  -3  -9   -0.95    2.91
   5  -3  -9   15.07    6.87
   7  -3  -9    7.18    5.58
  -2  -2  -9   -0.04    2.59
   0  -2  -9   35.08    4.91
   2  -2  -9   37.57    4.97
   4  -2  -9   23.08    6.73
   6  -2  -9    3.64    4.26
   8  -2  -9   22.70    5.82
  10  -2  -9   11.06    3.08
  12  -2  -9    1.71    2.32
  14  -2  -9   -0.22    2.21
  -3  -1  -9    1.21    2.78
  -1  -1  -9  142.43    8.17
   1  -1  -9   19.39    3.49
   3  -1  -9    1.82    3.91
   5  -1  -9   18.36    5.53
   7  -1  -9    1.47    2.17
   9  -1  -9   17.51    3.29
  11  -1  -9   54.44    5.33
  13  -1  -9   76.56    6.12
  15  -1  -9   24.21    3.78
  -4   0  -9   42.44    5.10
  -2   0  -9   -0.29    2.42
   0   0  -9   46.12    5.05
   2   0  -9   53.72    5.31
   4   0  -9   19.78    3.37
   6   0  -9    1.49    1.95
   8   0  -9   13.83    2.82
  10   0  -9   11.90    2.91
  12   0  -9    2.80    2.17
  14   0  -9   -0.94    1.84
  16   0  -9  130.10   10.43
  -5   1  -9   19.07    5.90
  -3   1  -9    4.11    2.90
  -1   1  -9  140.10    7.81
   1   1  -9   15.36    2.99
   3   1  -9    1.61    1.97
   5   1  -9   11.07    2.79
   7   1  -9    4.50    2.21
   9   1  -9   18.90    3.42
  11   1  -9   57.62    4.08
  13   1  -9   76.39    5.75
  15   1  -9   24.61    3.66
  17   1  -9    2.36    2.82
  -2   2  -9    1.25    2.57
   0   2  -9   40.97    4.62
   2   2  -9   29.47    3.89
   4   2  -9   17.49    3.07
   6   2  -9    1.88    2.09
   8   2  -9   21.31    3.47
  10   2  -9   10.99    2.78
  12   2  -9    2.54    1.93
  14   2  -9    1.05    1.84
   3   3  -9    0.79    2.90
   5   3  -9   12.19    3.00
   7   3  -9    5.10    2.53
   9   3  -9   10.78    4.82
   2  -4  -8   23.67    4.84
   4  -4  -8   16.92    4.08
   6  -4  -8   14.05    4.20
  -3  -3  -8    6.76    3.94
  -1  -3  -8    1.51    3.17
   1  -3  -8    3.38    3.04
   3  -3  -8   55.98    6.01
   5  -3  -8  134.65    7.75
   7  -3  -8   37.99    7.55
   9  -3  -8    0.29    3.45
  11  -3  -8    9.35    3.29
  13  -3  -8    0.73    2.32
  15  -3  -8   -0.72    2.29
  -6  -2  -8   45.93    7.76
  -4  -2  -8    6.59    3.13
  -2  -2  -8   15.20    3.62
   0  -2  -8   27.29    4.47
   2  -2  -8   48.41    5.40
   4  -2  -8   40.16    4.67
   6  -2  -8   23.21    5.67
   8  -2  -8   15.99    3.38
  10  -2  -8   82.79    6.52
  12  -2  -8    2.29    2.18
  14  -2  -8   10.10    2.65
  16  -2  -8    4.83    2.24
  -7  -1  -8    6.16    4.35
  -5  -1  -8   32.21    4.48
  -3  -1  -8    8.93    3.00
  -1  -1  -8    3.09    2.28
   1  -1  -8    3.00    2.18
   3  -1  -8   72.92    5.19
   5  -1  -8  159.45    7.67
   7  -1  -8   55.59    5.05
   9  -1  -8    0.82    1.65
  11  -1  -8   24.72    4.87
  13  -1  -8    2.65    1.94
  15  -1  -8    0.93    1.84
  17  -1  -8    1.26    2.92
  -8   0  -8    5.15    4.26
  -6   0  -8   57.58    5.60
  -4   0  -8   13.53    3.21
  -2   0  -8   29.16    4.12
   0   0  -8   28.37    3.79
   2   0  -8   54.73    3.85
   4   0  -8   51.95    4.63
   6   0  -8   28.31    3.60
   8   0  -8   23.88    2.39
  10   0  -8  100.84    4.31
  12   0  -8    3.36    1.45
  14   0  -8   11.34    1.96
  16   0  -8    4.61    2.15
  18   0  -8    2.39    2.05
  20   0  -8    6.23    4.08
  -7   1  -8   10.69    3.38
  -5   1  -8   42.58    5.10
  -3   1  -8    9.30    3.00
  -1   1  -8    2.43    1.55
   1   1  -8    1.21    1.42
   3   1  -8   76.92    5.68
   5   1  -8  173.55    7.39
   7   1  -8   64.56    5.27
   9   1  -8    0.56    1.54
  11   1  -8   25.64    2.65
  13   1  -8    1.08    1.34
  15   1  -8   -1.06    1.65
  17   1  -8   -0.20    1.73
  -8   2  -8    5.95    5.03
  -6   2  -8   53.78    5.77
  -4   2  -8   12.82    2.29
  -2   2  -8   19.60    2.83
   0   2  -8   20.64    2.69
   2   2  -8   46.51    4.59
   4   2  -8   43.06    4.38
   6   2  -8   26.85    3.50
   8   2  -8   22.23    3.35
  10   2  -8   90.66    6.38
  12   2  -8    4.14    1.83
  14   2  -8    8.63    2.39
  16   2  -8    1.27    1.94
  -3   3  -8    6.80    2.20
  -1   3  -8    1.82    1.97
   1   3  -8   -0.85    1.78
   3   3  -8   51.79    4.97
   5   3  -8  135.28    7.01
   7   3  -8   51.05    4.88
   9   3  -8    0.19    1.80
  11   3  -8   20.15    3.10
  13   3  -8   -0.51    1.75
   4   4  -8   23.38    5.71
   6   4  -8   11.05    4.63
   8   4  -8    9.75    4.84
  -4  -4  -7   68.77    8.12
  -2  -4  -7   63.80    6.61
   0  -4  -7   57.35    5.95
   2  -4  -7   10.71    3.11
   4  -4  -7   -0.19    1.97
   6  -4  -7   -0.06    2.03
   8  -4  -7   19.82    5.47
  10  -4  -7   82.51    9.41
  12  -4  -7    8.94    3.31
  14  -4  -7   30.91    7.46
  -7  -3  -7  113.52   14.21
  -5  -3  -7    0.37    4.61
  -3  -3  -7   39.65    5.45
  -1  -3  -7    2.50    3.00
   1  -3  -7   37.40    4.72
   3  -3  -7   -2.27    1.83
   5  -3  -7   -3.45    1.51
   7  -3  -7    7.32    2.19
   9  -3  -7   15.77    3.42
  11  -3  -7    0.35    1.93
  13  -3  -7   51.91    5.20
  15  -3  -7   21.82    3.50
  17  -3  -7   41.15    7.16
 -10  -2  -7   -0.88    3.90
  -8  -2  -7    2.78    3.98
  -6  -2  -7    1.23    3.39
  -4  -2  -7   77.42    7.08
  -2  -2  -7   92.82    7.91
   0  -2  -7   88.71    6.56
   2  -2  -7   17.71    3.37
   4  -2  -7    0.17    1.65
   6  -2  -7    1.52    1.48
   8  -2  -7   30.47    4.02
  10  -2  -7  137.44    6.86
  12  -2  -7    9.44    2.43
  14  -2  -7   34.11    3.87
  16  -2  -7    5.80    2.12
  18  -2  -7    2.99    3.37
 -11  -1  -7   18.97    5.40
  -9  -1  -7    0.27    3.25
  -7  -1  -7  117.36    9.89
  -5  -1  -7   -2.81    1.99
  -3  -1  -7   45.27    4.85
  -1  -1  -7    6.06    2.50
   1  -1  -7   52.82    4.88
   3  -1  -7    0.35    1.24
   5  -1  -7    0.63    1.17
   7  -1  -7   13.61    2.62
   9  -1  -7   22.49    3.10
  11  -1  -7    5.49    1.92
  13  -1  -7   85.30    4.04
  15  -1  -7   30.37    2.89
  17  -1  -7   54.55    4.82
  19  -1  -7    1.58    1.92
  21  -1  -7   -0.58    3.09
 -10   0  -7   -1.78    3.14
  -8   0  -7    6.99    4.17
  -6   0  -7    5.98    2.60
  -4   0  -7   76.79    5.96
  -2   0  -7  109.48    6.54
   0   0  -7   93.93    4.13
   2   0  -7   15.98    2.04
   4   0  -7    1.12    1.19
   6   0  -7    3.77    1.80
   8   0  -7   42.87    2.97
  10   0  -7  175.15    5.63
  12   0  -7    9.53    1.68
  14   0  -7   50.71    3.46
  16   0  -7   11.16    2.48
  18   0  -7    2.52    1.90
  20   0  -7   13.20    2.95
 -11   1  -7   12.24    5.29
  -9   1  -7   -0.08    3.86
  -7   1  -7  126.46   10.10
  -5   1  -7   -1.57    1.96
  -3   1  -7   53.38    3.78
  -1   1  -7   10.42    1.85
   1   1  -7   56.19    3.78
   3   1  -7    0.55    1.14
   5   1  -7    1.72    1.36
   7   1  -7   16.60    2.65
   9   1  -7   20.96    2.96
  11   1  -7    6.88    1.53
  13   1  -7   81.99    5.02
  15   1  -7   48.17    4.41
  17   1  -7   52.88    4.83
  19   1  -7   -2.17    1.82
  21   1  -7    0.99    2.36
 -10   2  -7    3.21    4.64
  -8   2  -7    3.00    2.85
  -6   2  -7    4.36    2.65
  -4   2  -7   71.89    6.41
  -2   2  -7   98.73    6.54
   0   2  -7   80.09    4.53
   2   2  -7   16.79    2.29
   4   2  -7    1.47    1.36
   6   2  -7    3.00    1.69
   8   2  -7   35.17    3.80
  10   2  -7  138.88    6.47
  12   2  -7   10.09    2.21
  14   2  -7   41.67    4.09
  16   2  -7    7.89    2.25
  18   2  -7    3.46    2.16
  20   2  -7    2.55    3.80
  -7   3  -7   97.52    7.93
  -5   3  -7   -0.55    2.55
  -3   3  -7   33.85    4.59
  -1   3  -7   10.45    3.09
   1   3  -7   33.21    3.27
   3   3  -7    2.66    1.79
   5   3  -7    0.54    1.49
   7   3  -7   10.95    2.40
   9   3  -7   20.94    3.20
  11   3  -7    4.28    1.82
  13   3  -7   58.64    4.94
  15   3  -7   34.92    4.04
  17   3  -7   31.03    5.74
  -4   4  -7   36.66    7.93
  -2   4  -7   45.95    5.53
   0   4  -7   33.99    4.67
   2   4  -7   10.00    2.63
   4   4  -7    2.05    2.05
   6   4  -7    3.11    2.19
   8   4  -7   17.22    3.24
  10   4  -7   96.57    9.25
  12   4  -7    4.94    2.31
  14   4  -7   22.30    5.34
  -1  -5  -6   73.89    6.43
   1  -5  -6    5.27    2.32
   3  -5  -6    3.32    2.53
   5  -5  -6   42.61    4.80
   7  -5  -6   29.13    4.17
   9  -5  -6   10.06    3.96
  -8  -4  -6   13.90    5.38
  -6  -4  -6    0.06    2.91
  -4  -4  -6    4.96    2.79
  -2  -4  -6   11.05    2.50
   0  -4  -6   11.76    2.37
   2  -4  -6   13.73    2.38
   4  -4  -6  172.78    7.70
   6  -4  -6   26.61    3.43
   8  -4  -6   10.26    2.44
  10  -4  -6    8.90    2.68
  12  -4  -6    6.87    2.64
  14  -4  -6    0.88    2.15
 -11  -3  -6   -1.70    3.99
  -9  -3  -6   72.76    7.31
  -7  -3  -6    3.16    2.77
  -5  -3  -6   21.43    3.63
  -3  -3  -6    1.14    1.72
  -1  -3  -6  124.14    5.17
   1  -3  -6   16.92    2.18
   3  -3  -6    6.18    1.59
   5  -3  -6   85.84    5.23
   7  -3  -6   53.27    3.72
   9  -3  -6   29.95    2.77
  11  -3  -6    6.67    2.17
  13  -3  -6   50.19    4.74
  15  -3  -6    9.38    2.44
  17  -3  -6    2.38    3.28
 -12  -2  -6   29.81    4.39
 -10  -2  -6   45.48    4.93
  -8  -2  -6   20.19    3.47
  -6  -2  -6   -0.78    1.67
  -4  -2  -6    3.80    1.77
  -2  -2  -6   26.27    2.82
   0  -2  -6   21.45    2.34
   2  -2  -6   32.30    2.53
   4  -2  -6  254.26    7.57
   6  -2  -6   45.76    3.26
   8  -2  -6    9.98    1.63
  10  -2  -6   19.14    2.82
  12  -2  -6   27.52    3.24
  14  -2  -6    1.14    1.52
  16  -2  -6   41.85    6.28
  18  -2  -6   28.87    5.55
  20  -2  -6   74.20    8.80
 -13  -1  -6   71.99    6.05
 -11  -1  -6   -1.03    2.25
  -9  -1  -6   83.87    5.60
  -7  -1  -6    0.35    1.52
  -5  -1  -6   29.44    2.78
  -3  -1  -6    1.32    1.33
  -1  -1  -6  210.15    8.55
   1  -1  -6   18.99    2.30
   3  -1  -6   14.08    1.95
   5  -1  -6  126.91    4.55
   7  -1  -6   85.91    2.91
   9  -1  -6   44.82    2.70
  11  -1  -6   12.01    1.74
  13  -1  -6   98.49    4.08
  15  -1  -6   18.12    2.64
  17  -1  -6    0.78    1.57
  19  -1  -6   10.53    2.54
  21  -1  -6   43.70    6.47
 -14   0  -6    0.28    2.83
 -12   0  -6   31.11    4.15
 -10   0  -6   46.62    4.64
  -8   0  -6   19.83    2.56
  -6   0  -6    1.68    1.87
  -4   0  -6    5.47    2.17
  -2   0  -6   37.97    2.88
   0   0  -6   27.19    2.48
   2   0  -6   43.68    3.04
   4   0  -6  322.77    8.05
   6   0  -6   67.07    3.26
   8   0  -6   15.75    1.82
  10   0  -6   21.88    2.06
  12   0  -6   39.82    2.94
  14   0  -6    8.65    1.97
  16   0  -6   67.21    5.04
  18   0  -6   42.28    4.26
  20   0  -6  107.54    6.25
  22   0  -6    0.38    2.13
 -13   1  -6   64.51    8.93
 -11   1  -6    1.44    3.56
  -9   1  -6   86.29    6.32
  -7   1  -6    4.32    2.43
  -5   1  -6   23.94    3.38
  -3   1  -6    0.00    1.68
  -1   1  -6  183.37    5.95
   1   1  -6   19.02    2.21
   3   1  -6   17.24    1.99
   5   1  -6  132.60    4.52
   7   1  -6   89.37    4.64
   9   1  -6   45.04    3.80
  11   1  -6   12.21    1.72
  13   1  -6   99.81    4.92
  15   1  -6   23.17    2.96
  17   1  -6    1.97    1.74
  19   1  -6    8.02    2.55
  21   1  -6   46.02    3.94
 -12   2  -6   26.00    6.68
 -10   2  -6   48.08    5.51
  -8   2  -6   23.65    3.83
  -6   2  -6    2.57    2.24
  -4   2  -6    0.34    1.96
  -2   2  -6   26.00    3.79
   0   2  -6   18.56    3.09
   2   2  -6   27.72    2.72
   4   2  -6  273.08    7.59
   6   2  -6   46.98    4.02
   8   2  -6   16.41    2.55
  10   2  -6   18.35    2.71
  12   2  -6   31.71    3.24
  14   2  -6    8.55    2.11
  16   2  -6   61.47    4.88
  18   2  -6   40.93    4.30
  20   2  -6   74.24    8.21
 -11   3  -6    7.44    4.59
  -9   3  -6   70.86    6.79
  -7   3  -6    4.15    2.65
  -5   3  -6   12.82    3.05
  -3   3  -6    1.93    1.98
  -1   3  -6  117.37    6.39
   1   3  -6   11.35    2.51
   3   3  -6    5.78    1.95
   5   3  -6   86.87    5.00
   7   3  -6   63.27    4.87
   9   3  -6   32.05    3.45
  11   3  -6   10.15    2.14
  13   3  -6   72.48    5.15
  15   3  -6   11.12    2.45
  17   3  -6    2.08    2.05
  -6   4  -6    3.49    2.86
  -4   4  -6    4.38    2.60
  -2   4  -6    8.40    2.73
   0   4  -6   11.87    2.82
   2   4  -6    9.51    2.59
   4   4  -6  155.84    7.31
   6   4  -6   21.16    3.16
   8   4  -6    5.20    2.14
  10   4  -6   18.21    4.17
  12   4  -6   21.44    3.09
  14   4  -6    6.82    2.47
  -1   5  -6   37.15    6.95
   1   5  -6    3.57    3.92
   3   5  -6    3.56    3.41
   5   5  -6   44.30    4.79
   7   5  -6   23.39    5.11
   9   5  -6   17.59    4.74
  -5  -5  -5   15.53    4.93
  -3  -5  -5    4.00    2.75
  -1  -5  -5   72.64    4.84
   1  -5  -5   52.20    4.08
   3  -5  -5    1.58    2.07
   5  -5  -5   30.62    3.89
   7  -5  -5   49.39    4.79
   9  -5  -5    1.80    2.21
  11  -5  -5   39.89    4.78
 -10  -4  -5    4.91    3.29
  -8  -4  -5   25.64    4.37
  -6  -4  -5  149.04    7.56
  -4  -4  -5    4.02    2.23
  -2  -4  -5   33.40    3.13
   0  -4  -5    9.94    2.04
   2  -4  -5   -0.53    1.29
   4  -4  -5   -0.10    1.56
   6  -4  -5    6.69    2.09
   8  -4  -5   24.30    2.64
  10  -4  -5   89.66    4.69
  12  -4  -5    7.51    2.50
  14  -4  -5   12.94    2.85
  16  -4  -5    3.34    2.36
 -13  -3  -5   15.69    4.35
 -11  -3  -5    3.14    2.23
  -9  -3  -5    5.41    3.29
  -7  -3  -5   33.01    4.36
  -5  -3  -5   50.60    3.66
  -3  -3  -5   13.45    2.07
  -1  -3  -5  165.73    5.45
   1  -3  -5  101.54    4.07
   3  -3  -5    0.22    1.04
   5  -3  -5   56.02    3.44
   7  -3  -5   95.51    3.95
   9  -3  -5    5.87    1.36
  11  -3  -5   76.46    5.08
  13  -3  -5   -0.06    1.38
  15  -3  -5   55.94    4.77
  17  -3  -5    2.21    2.94
  19  -3  -5    7.46    3.76
 -14  -2  -5   38.92    4.74
 -12  -2  -5    6.62    3.04
 -10  -2  -5   22.99    4.06
  -8  -2  -5   51.83    3.72
  -6  -2  -5  237.88    7.32
  -4  -2  -5   12.69    2.03
  -2  -2  -5   66.32    3.53
   0  -2  -5   21.38    2.08
   2  -2  -5    0.80    0.84
   4  -2  -5    1.64    0.85
   6  -2  -5   11.89    1.58
   8  -2  -5   38.15    2.62
  10  -2  -5  164.23    6.55
  12  -2  -5   26.89    2.89
  14  -2  -5   40.78    2.96
  16  -2  -5    8.73    2.17
  18  -2  -5   10.81    2.48
  20  -2  -5    1.11    1.94
  22  -2  -5   23.58    5.35
 -15  -1  -5   23.23    3.91
 -13  -1  -5   22.04    3.45
 -11  -1  -5    3.63    2.16
  -9  -1  -5    4.42    2.15
  -7  -1  -5   48.14    3.56
  -5  -1  -5   67.13    3.89
  -3  -1  -5   19.33    2.29
  -1  -1  -5  264.14    5.97
   1  -1  -5  176.61    4.34
   3  -1  -5    2.23    0.73
   5  -1  -5  101.08    2.92
   7  -1  -5  156.67    3.79
   9  -1  -5    5.84    1.17
  11  -1  -5  119.85    4.04
  13  -1  -5    1.19    1.05
  15  -1  -5   85.39    5.06
  17  -1  -5    3.06    1.60
  19  -1  -5    7.12    2.19
  21  -1  -5    2.98    2.12
 -16   0  -5    1.96    2.69
 -14   0  -5   47.90    4.74
 -12   0  -5    8.97    2.62
 -10   0  -5   18.46    3.01
  -8   0  -5   51.56    3.45
  -6   0  -5  253.57    7.17
  -4   0  -5   14.00    1.49
  -2   0  -5   70.16    2.62
   0   0  -5   27.16    1.67
   2   0  -5    0.73    1.01
   4   0  -5    6.06    1.21
   6   0  -5   20.22    1.76
   8   0  -5   49.68    2.59
  10   0  -5  202.26    5.62
  12   0  -5   34.09    2.46
  14   0  -5   40.86    3.59
  16   0  -5   12.06    2.31
  18   0  -5   14.20    2.08
  20   0  -5    3.25    1.57
  22   0  -5   21.16    3.51
 -15   1  -5   28.79    4.01
 -13   1  -5   21.41    3.73
 -11   1  -5   -1.18    2.05
  -9   1  -5    4.88    1.76
  -7   1  -5   50.53    3.57
  -5   1  -5   81.34    3.98
  -3   1  -5   20.57    2.16
  -1   1  -5  262.35    9.34
   1   1  -5  172.33    5.36
   3   1  -5    2.47    1.10
   5   1  -5  100.92    3.71
   7   1  -5  151.55    5.92
   9   1  -5    6.95    1.26
  11   1  -5  115.30    4.04
  13   1  -5    2.66    1.43
  15   1  -5  101.47    5.04
  17   1  -5    2.62    1.60
  19   1  -5   10.82    2.00
  21   1  -5    2.85    2.08
  23   1  -5    2.94    3.48
 -14   2  -5   29.03    4.41
 -12   2  -5    8.10    3.10
 -10   2  -5   19.10    2.73
  -8   2  -5   54.81    3.93
  -6   2  -5  226.52    9.05
  -4   2  -5    9.73    2.28
  -2   2  -5   56.15    4.70
   0   2  -5   22.09    2.96
   2   2  -5   -0.36    1.30
   4   2  -5    0.96    1.03
   6   2  -5    8.97    1.82
   8   2  -5   36.61    3.31
  10   2  -5  169.31    5.11
  12   2  -5   27.21    2.94
  14   2  -5   41.45    3.75
  16   2  -5   11.06    2.34
  18   2  -5   10.72    2.00
  20   2  -5    2.10    1.99
 -13   3  -5    6.85    6.25
 -11   3  -5    4.96    3.02
  -9   3  -5    1.11    2.41
  -7   3  -5   26.84    3.82
  -5   3  -5   42.78    4.38
  -3   3  -5   13.70    2.60
  -1   3  -5  155.32    6.81
   1   3  -5  105.84    5.29
   3   3  -5    1.98    1.40
   5   3  -5   61.29    4.45
   7   3  -5  103.05    5.00
   9   3  -5    8.13    1.98
  11   3  -5   76.95    4.26
  13   3  -5    3.01    1.66
  15   3  -5   71.14    5.09
  17   3  -5    1.53    1.70
  19   3  -5    5.72    2.36
 -10   4  -5   12.31    3.73
  -8   4  -5   29.88    4.52
  -6   4  -5  133.35    7.36
  -4   4  -5    3.26    2.00
  -2   4  -5   25.15    3.39
   0   4  -5   10.65    2.46
   2   4  -5    1.52    1.62
   4   4  -5    0.55    1.93
   6   4  -5    3.85    1.72
   8   4  -5   18.61    2.79
  10   4  -5  103.16    5.17
  12   4  -5   13.93    2.50
  14   4  -5   21.21    4.29
  16   4  -5    3.49    2.10
  -5   5  -5   23.36    6.03
  -3   5  -5    9.63    3.06
  -1   5  -5   74.89    6.19
   1   5  -5   37.80    4.46
   3   5  -5   -0.90    2.52
   5   5  -5   21.74    4.81
   7   5  -5   50.76    6.54
   9   5  -5    1.95    1.90
  11   5  -5   46.51    6.16
  13   5  -5    1.74    2.30
  -7  -5  -4    4.53    2.80
  -5  -5  -4    9.05    2.88
  -3  -5  -4    1.55    2.15
  -1  -5  -4   -1.20    1.50
   1  -5  -4   68.91    4.37
   3  -5  -4    0.19    1.80
   5  -5  -4   60.70    5.16
   7  -5  -4    2.46    2.10
   9  -5  -4    3.47    1.81
  11  -5  -4   20.80    2.78
  13  -5  -4    3.25    2.52
 -12  -4  -4   53.58    4.43
 -10  -4  -4    2.41    1.90
  -8  -4  -4   26.50    3.95
  -6  -4  -4   35.36    4.02
  -4  -4  -4    8.10    1.79
  -2  -4  -4   47.61    3.36
   0  -4  -4   45.56    3.24
   2  -4  -4   68.30    3.70
   4  -4  -4   15.57    2.49
   6  -4  -4  109.30    4.44
   8  -4  -4   -0.62    1.13
  10  -4  -4    4.59    1.45
  12  -4  -4    2.82    1.42
  14  -4  -4   33.91    3.94
  16  -4  -4   16.35    3.08
 -15  -3  -4   13.59    3.58
 -13  -3  -4    0.37    1.96
 -11  -3  -4  104.26    5.16
  -9  -3  -4    3.63    1.70
  -7  -3  -4    1.39    1.40
  -5  -3  -4   20.60    2.21
  -3  -3  -4    3.94    1.35
  -1  -3  -4    2.18    1.08
   1  -3  -4  127.43    4.30
   3  -3  -4    2.70    0.92
   5  -3  -4  126.45    4.30
   7  -3  -4    3.70    1.16
   9  -3  -4   19.69    2.03
  11  -3  -4   53.08    3.31
  13  -3  -4   10.16    2.13
  15  -3  -4   33.38    3.59
  17  -3  -4   44.68    6.54
  19  -3  -4   27.01    5.57
 -16  -2  -4   64.73    5.92
 -14  -2  -4    3.61    1.94
 -12  -2  -4   70.88    4.56
 -10  -2  -4   -0.24    1.57
  -8  -2  -4   38.60    3.07
  -6  -2  -4   74.68    3.03
  -4  -2  -4   22.44    2.15
  -2  -2  -4   84.39    3.48
   0  -2  -4   79.91    2.62
   2  -2  -4  124.55    3.32
   4  -2  -4   37.31    1.99
   6  -2  -4  221.31    4.75
   8  -2  -4    0.20    0.69
  10  -2  -4   16.53    1.39
  12  -2  -4   12.65    1.63
  14  -2  -4   56.86    3.21
  16  -2  -4   30.11    3.40
  18  -2  -4   18.99    2.99
  20  -2  -4    6.37    2.34
  22  -2  -4   34.93    5.83
 -17  -1  -4    1.95    2.64
 -15  -1  -4   12.67    3.10
 -13  -1  -4    1.17    2.16
 -11  -1  -4  162.35    5.45
  -9  -1  -4    5.68    1.49
  -7  -1  -4    1.40    1.07
  -5  -1  -4   36.32    2.15
  -3  -1  -4    4.02    1.09
  -1  -1  -4    2.24    0.86
   1  -1  -4  230.58    4.83
   3  -1  -4    3.10    0.69
   5  -1  -4  200.76    4.19
   7  -1  -4    9.40    0.95
   9  -1  -4   36.17    1.72
  11  -1  -4   83.82    3.22
  13  -1  -4   14.78    1.63
  15  -1  -4   54.98    4.24
  17  -1  -4   75.57    4.89
  19  -1  -4   46.49    4.31
  21  -1  -4   66.65    5.48
  23  -1  -4    2.06    2.34
 -18   0  -4    9.70    4.51
 -16   0  -4   72.58    5.74
 -14   0  -4    4.52    2.19
 -12   0  -4   91.13    5.22
 -10   0  -4    2.26    1.78
  -8   0  -4   49.00    3.10
  -6   0  -4   94.17    2.90
  -4   0  -4   28.27    1.56
  -2   0  -4  114.14    3.11
   0   0  -4   98.68    2.71
   2   0  -4  168.94    4.65
   4   0  -4   50.36    2.34
   6   0  -4  289.40    6.51
   8   0  -4    1.79    0.79
  10   0  -4   23.18    1.90
  12   0  -4   12.55    1.52
  14   0  -4   68.79    3.95
  16   0  -4   36.82    2.81
  18   0  -4   23.93    2.46
  20   0  -4    4.95    1.70
  22   0  -4   26.03    5.21
 -17   1  -4    6.05    2.90
 -15   1  -4   17.17    3.20
 -13   1  -4    1.37    2.07
 -11   1  -4  170.67    7.30
  -9   1  -4    5.62    1.67
  -7   1  -4   -2.20    1.13
  -5   1  -4   36.10    2.76
  -3   1  -4    6.71    1.45
  -1   1  -4    2.60    1.02
   1   1  -4  233.27    7.79
   3   1  -4    2.17    0.92
   5   1  -4  207.48    5.23
   7   1  -4   10.71    1.19
   9   1  -4   39.28    2.38
  11   1  -4   80.88    3.14
  13   1  -4   17.56    2.33
  15   1  -4   59.14    4.24
  17   1  -4   81.60    3.92
  19   1  -4   46.86    3.52
  21   1  -4   61.51    5.25
  23   1  -4    3.41    3.61
 -16   2  -4   63.08    6.12
 -14   2  -4    4.29    2.93
 -12   2  -4   86.42    6.53
 -10   2  -4    1.82    1.65
  -8   2  -4   41.27    3.27
  -6   2  -4   75.99    3.78
  -4   2  -4   18.93    2.00
  -2   2  -4   80.14    3.28
   0   2  -4   75.49    2.94
   2   2  -4  121.41    3.53
   4   2  -4   41.01    3.04
   6   2  -4  226.69    5.62
   8   2  -4    2.68    1.21
  10   2  -4   15.51    1.66
  12   2  -4   13.45    2.05
  14   2  -4   63.12    3.95
  16   2  -4   29.67    2.64
  18   2  -4   15.82    2.70
  20   2  -4    6.27    2.19
 -15   3  -4   11.81    4.06
 -13   3  -4    4.68    3.36
 -11   3  -4  121.17    5.52
  -9   3  -4    4.21    1.82
  -7   3  -4    0.60    1.35
  -5   3  -4   21.49    2.32
  -3   3  -4    2.17    1.07
  -1   3  -4    1.99    1.03
   1   3  -4  124.86    5.46
   3   3  -4    1.61    1.10
   5   3  -4  123.62    5.01
   7   3  -4    5.49    1.50
   9   3  -4   19.83    2.45
  11   3  -4   60.59    3.81
  13   3  -4   12.77    2.13
  15   3  -4   32.24    3.38
  17   3  -4   47.03    4.47
  19   3  -4   30.33    3.85
 -12   4  -4   58.33    4.94
 -10   4  -4    1.73    2.03
  -8   4  -4   25.71    3.16
  -6   4  -4   33.96    4.01
  -4   4  -4    9.19    2.32
  -2   4  -4   38.23    3.98
   0   4  -4   45.84    4.07
   2   4  -4   57.68    4.51
   4   4  -4   18.62    2.49
   6   4  -4  118.96    8.06
   8   4  -4   -0.42    1.81
  10   4  -4    3.42    1.54
  12   4  -4    5.96    2.32
  14   4  -4   32.75    3.47
  16   4  -4   17.34    2.88
  18   4  -4   11.02    3.81
  -7   5  -4    2.02    2.58
  -5   5  -4    3.36    2.53
  -3   5  -4    1.42    2.17
  -1   5  -4    2.33    1.91
   1   5  -4   53.62    4.89
   3   5  -4    1.86    1.84
   5   5  -4   71.22    7.81
   7   5  -4    3.11    2.60
   9   5  -4    5.28    2.75
  11   5  -4   19.98    4.66
  13   5  -4   -2.12    2.62
   4   6  -4   12.73    4.69
   0  -6  -3   59.27    5.60
   2  -6  -3   -1.62    2.06
   4  -6  -3   63.63    5.68
 -11  -5  -3    8.03    4.83
  -9  -5  -3   24.42    3.87
  -7  -5  -3   24.40    3.66
  -5  -5  -3  139.85    9.82
  -3  -5  -3    6.80    1.85
  -1  -5  -3    4.27    1.67
   1  -5  -3    1.28    1.43
   3  -5  -3    1.91    1.80
   5  -5  -3    8.48    2.28
   7  -5  -3    2.35    1.53
   9  -5  -3  109.22    5.14
  11  -5  -3   54.95    3.96
  13  -5  -3    1.37    2.27
 -14  -4  -3   15.78    4.78
 -12  -4  -3    6.60    2.33
 -10  -4  -3   22.45    2.80
  -8  -4  -3   23.16    2.66
  -6  -4  -3    0.35    1.71
  -4  -4  -3   98.28    4.02
  -2  -4  -3   20.32    2.17
   0  -4  -3  153.64    5.07
   2  -4  -3    1.42    1.14
   4  -4  -3  115.61    4.34
   6  -4  -3   22.06    2.21
   8  -4  -3   54.09    3.44
  10  -4  -3    1.44    1.19
  12  -4  -3   69.63    3.93
  14  -4  -3   40.36    4.17
  16  -4  -3    5.58    2.23
 -17  -3  -3   23.78    5.32
 -15  -3  -3    5.43    2.71
 -13  -3  -3    2.09    1.88
 -11  -3  -3    4.84    1.80
  -9  -3  -3   63.81    3.87
  -7  -3  -3   48.43    3.24
  -5  -3  -3  265.92    6.81
  -3  -3  -3   14.86    1.72
  -1  -3  -3   14.85    1.63
   1  -3  -3    3.59    0.88
   3  -3  -3    6.83    1.08
   5  -3  -3   10.73    1.44
   7  -3  -3    3.59    1.07
   9  -3  -3  228.29    6.26
  11  -3  -3   91.08    3.71
  13  -3  -3    3.06    1.51
  15  -3  -3    9.06    1.79
  17  -3  -3   11.80    2.49
  19  -3  -3    6.41    2.50
 -16  -2  -3    2.44    2.22
 -14  -2  -3   16.53    2.49
 -12  -2  -3    3.63    1.66
 -10  -2  -3   36.32    3.02
  -8  -2  -3   37.78    2.73
  -6  -2  -3    1.85    0.88
  -4  -2  -3  174.61    4.07
  -2  -2  -3   52.61    1.79
   0  -2  -3  308.35    5.69
   2  -2  -3    5.95    0.84
   4  -2  -3  252.97    4.22
   6  -2  -3   49.79    1.83
   8  -2  -3  110.09    3.01
  10  -2  -3    5.63    0.92
  12  -2  -3  137.27    4.41
  14  -2  -3   96.62    3.79
  16  -2  -3    7.49    2.08
  18  -2  -3   24.95    3.28
  20  -2  -3   17.34    3.03
  22  -2  -3    4.48    2.48
 -17  -1  -3   52.87    6.85
 -15  -1  -3   16.82    2.35
 -13  -1  -3    4.31    1.64
 -11  -1  -3    7.03    1.73
  -9  -1  -3   85.95    3.82
  -7  -1  -3   76.56    3.01
  -5  -1  -3  418.18    7.97
  -3  -1  -3   24.16    1.25
  -1  -1  -3   30.71    1.49
   1  -1  -3    5.81    0.72
   3  -1  -3   15.97    0.82
   5  -1  -3   17.22    1.07
   7  -1  -3    6.82    0.75
   9  -1  -3  365.66    6.49
  11  -1  -3  147.10    4.19
  13  -1  -3    3.70    0.82
  15  -1  -3   18.40    1.91
  17  -1  -3   19.71    2.77
  19  -1  -3    8.14    2.21
  21  -1  -3    9.28    2.55
  23  -1  -3    3.16    3.34
 -18   0  -3    1.13    3.13
 -16   0  -3    1.33    2.01
 -14   0  -3   23.12    3.05
 -12   0  -3    8.63    2.17
 -10   0  -3   53.28    2.70
  -8   0  -3   45.05    2.09
  -6   0  -3    2.25    0.80
  -4   0  -3  211.28    4.40
  -2   0  -3   72.65    2.73
   0   0  -3  442.17    7.53
   2   0  -3   10.13    1.20
   4   0  -3  370.66    7.40
   6   0  -3   69.95    2.36
   8   0  -3  141.54    3.75
  10   0  -3    8.33    1.10
  12   0  -3  167.55    4.41
  14   0  -3  115.11    3.99
  16   0  -3   12.84    1.74
  18   0  -3   36.35    2.89
  20   0  -3   24.58    2.65
  22   0  -3   -0.25    2.57
 -19   1  -3    3.66    3.53
 -17   1  -3   49.13    4.82
 -15   1  -3   17.14    3.01
 -13   1  -3    5.09    2.26
 -11   1  -3    9.19    1.83
  -9   1  -3   94.30    4.16
  -7   1  -3   77.99    3.65
  -5   1  -3  419.02    9.30
  -3   1  -3   24.80    1.95
  -1   1  -3   36.75    2.02
   1   1  -3    6.46    0.83
   3   1  -3   20.75    1.52
   5   1  -3   17.88    1.37
   7   1  -3    5.85    0.92
   9   1  -3  360.21    7.62
  11   1  -3  154.12    5.29
  13   1  -3    2.25    1.20
  15   1  -3   19.73    2.00
  17   1  -3   21.55    2.29
  19   1  -3   14.77    2.66
  21   1  -3   11.18    2.72
  23   1  -3    3.10    3.43
 -18   2  -3    0.14    2.95
 -16   2  -3    1.31    2.89
 -14   2  -3   22.81    3.97
 -12   2  -3    5.71    1.86
 -10   2  -3   34.65    2.95
  -8   2  -3   37.70    2.75
  -6   2  -3    1.22    1.08
  -4   2  -3  170.82    4.84
  -2   2  -3   50.08    2.49
   0   2  -3  302.03    6.57
   2   2  -3    7.47    0.89
   4   2  -3  247.76    6.92
   6   2  -3   49.84    2.05
   8   2  -3  114.44    3.49
  10   2  -3    5.84    1.32
  12   2  -3  137.28    5.21
  14   2  -3   99.13    3.86
  16   2  -3    9.77    1.97
  18   2  -3   21.98    2.96
  20   2  -3   16.85    3.02
  22   2  -3    1.85    2.34
 -17   3  -3   45.61    9.30
 -15   3  -3    7.79    3.43
 -13   3  -3    5.23    2.18
 -11   3  -3    5.45    1.86
  -9   3  -3   65.00    4.01
  -7   3  -3   48.79    4.00
  -5   3  -3  258.50    8.33
  -3   3  -3   12.68    1.83
  -1   3  -3   13.29    1.74
   1   3  -3    2.15    0.99
   3   3  -3    6.39    1.21
   5   3  -3   12.53    1.80
   7   3  -3    5.47    1.07
   9   3  -3  235.47    7.20
  11   3  -3  102.79    4.44
  13   3  -3    2.63    1.36
  15   3  -3    8.01    2.04
  17   3  -3    9.42    2.22
  19   3  -3    7.49    2.43
 -14   4  -3   10.84    3.76
 -12   4  -3    5.53    2.36
 -10   4  -3   27.46    3.09
  -8   4  -3   23.50    3.06
  -6   4  -3   -0.46    1.70
  -4   4  -3   90.62    4.69
  -2   4  -3   20.49    2.51
   0   4  -3  150.14    5.70
   2   4  -3    4.64    1.30
   4   4  -3  136.94    5.12
   6   4  -3   23.88    2.69
   8   4  -3   61.11    3.67
  10   4  -3    4.01    2.20
  12   4  -3   78.47    4.48
  14   4  -3   47.48    4.23
  16   4  -3    7.85    2.33
 -11   5  -3   -2.78    4.37
  -9   5  -3   29.52    4.36
  -7   5  -3   22.05    3.68
  -5   5  -3  148.10    8.99
  -3   5  -3    7.85    2.22
  -1   5  -3    6.17    2.94
   1   5  -3    0.91    2.12
   3   5  -3    4.81    2.57
   5   5  -3    4.87    2.74
  11   5  -3   55.56    6.82
  13   5  -3   -0.32    2.64
  -2   6  -3    7.32    3.93
   2   6  -3    2.41    2.96
   4   6  -3   49.55    6.92
  -4  -6  -2   -0.89    3.02
  -2  -6  -2   38.40    4.45
   0  -6  -2   -0.30    2.30
   2  -6  -2    5.18    2.54
   4  -6  -2    3.61    2.35
   6  -6  -2   49.38    5.04
   8  -6  -2    3.55    4.26
 -11  -5  -2   31.00    3.50
  -9  -5  -2   21.04    2.79
  -7  -5  -2    9.31    2.58
  -5  -5  -2    1.98    1.89
  -3  -5  -2    1.60    1.37
  -1  -5  -2  124.06    5.86
   1  -5  -2   42.42    3.92
   3  -5  -2  129.97    6.22
   5  -5  -2   -0.07    1.22
   7  -5  -2    0.16    1.35
   9  -5  -2    0.97    1.43
  11  -5  -2    4.44    2.23
  13  -5  -2    1.59    2.16
  15  -5  -2   35.53    6.33
 -14  -4  -2   49.23    5.33
 -12  -4  -2   31.92    3.33
 -10  -4  -2   58.88    3.99
  -8  -4  -2   39.40    3.10
  -6  -4  -2    7.46    1.68
  -4  -4  -2    2.64    1.21
  -2  -4  -2   87.18    3.55
   0  -4  -2    4.90    1.30
   2  -4  -2   20.44    1.71
   4  -4  -2   17.74    1.89
   6  -4  -2  122.48    4.46
   8  -4  -2    8.93    1.59
  10  -4  -2    3.19    1.31
  12  -4  -2    4.67    1.87
  14  -4  -2   11.39    2.56
  16  -4  -2   32.67    5.99
 -17  -3  -2   42.82    4.95
 -15  -3  -2   71.64    5.97
 -13  -3  -2   -0.71    1.51
 -11  -3  -2   58.04    3.88
  -9  -3  -2   57.68    3.49
  -7  -3  -2   23.51    2.18
  -5  -3  -2    7.24    1.07
  -3  -3  -2    1.72    0.82
  -1  -3  -2  274.02    5.40
   1  -3  -2   87.60    2.65
   3  -3  -2  278.34    5.71
   5  -3  -2    4.22    1.04
   7  -3  -2    0.09    0.64
   9  -3  -2    0.59    0.73
  11  -3  -2   12.30    1.41
  13  -3  -2    1.70    1.12
  15  -3  -2   99.26    4.33
  17  -3  -2   -1.14    1.69
  19  -3  -2    3.72    2.18
  21  -3  -2    5.30    4.28
 -18  -2  -2   16.21    3.14
 -16  -2  -2    2.61    2.15
 -14  -2  -2   87.35    4.29
 -12  -2  -2   61.35    3.79
 -10  -2  -2   97.14    3.96
  -8  -2  -2   78.43    3.29
  -6  -2  -2   13.90    1.23
  -4  -2  -2    1.95    0.69
  -2  -2  -2  178.13    3.17
   0  -2  -2   12.21    0.93
   2  -2  -2   36.97    1.51
   4  -2  -2   36.58    1.42
   6  -2  -2  273.47    5.16
   8  -2  -2   20.47    1.40
  10  -2  -2   11.52    1.16
  12  -2  -2   10.96    1.47
  14  -2  -2   26.66    2.25
  16  -2  -2   64.64    4.73
  18  -2  -2   45.76    4.38
  20  -2  -2   70.51    5.40
  22  -2  -2    0.66    2.12
 -19  -1  -2    0.34    2.13
 -17  -1  -2   50.72    4.37
 -15  -1  -2  105.88    4.40
 -13  -1  -2    2.10    1.39
 -11  -1  -2   90.25    3.92
  -9  -1  -2   83.47    3.54
  -7  -1  -2   35.83    1.94
  -5  -1  -2    9.45    1.00
  -3  -1  -2    2.55    0.63
  -1  -1  -2  499.95    7.10
   1  -1  -2  181.71    3.42
   3  -1  -2  538.23    7.57
   5  -1  -2   12.38    0.86
   7  -1  -2   -0.61    0.37
   9  -1  -2    0.68    0.47
  11  -1  -2   17.29    1.30
  13  -1  -2    1.89    0.94
  15  -1  -2  141.28    4.59
  17  -1  -2    8.16    2.02
  19  -1  -2    7.22    2.12
  21  -1  -2    1.29    2.42
 -20   0  -2    9.21    3.86
 -18   0  -2   16.19    4.20
 -16   0  -2    4.11    1.59
 -14   0  -2   89.32    3.73
 -12   0  -2   86.07    3.49
 -10   0  -2  107.93    3.17
  -8   0  -2  100.94    2.88
  -6   0  -2   14.04    1.17
  -4   0  -2    2.83    0.63
  -2   0  -2  259.76    4.71
   0   0  -2   22.10    1.09
   2   0  -2   53.86    1.94
   4   0  -2   51.62    1.36
   6   0  -2  366.02    7.13
   8   0  -2   28.48    1.52
  10   0  -2   15.53    1.04
  12   0  -2   15.98    1.57
  14   0  -2   37.53    2.52
  16   0  -2   81.93    3.45
  18   0  -2   70.25    3.55
  20   0  -2   72.24    5.04
  22   0  -2    1.55    2.05
 -19   1  -2   -2.70    3.09
 -17   1  -2   49.82    4.68
 -15   1  -2  102.49    5.94
 -13   1  -2    1.24    1.85
 -11   1  -2   96.53    3.12
  -9   1  -2   86.00    2.82
  -7   1  -2   35.22    1.73
  -5   1  -2    8.53    0.86
  -3   1  -2    3.01    0.77
  -1   1  -2  506.80    9.45
   1   1  -2  182.33    3.85
   3   1  -2  543.77   12.17
   5   1  -2   12.15    0.86
   7   1  -2    0.69    0.54
   9   1  -2    0.93    0.53
  11   1  -2   22.04    1.73
  13   1  -2    3.31    1.06
  15   1  -2  147.52    4.62
  17   1  -2    6.14    1.80
  19   1  -2   10.36    2.22
  21   1  -2    0.92    1.75
  23   1  -2   30.51    5.93
 -18   2  -2   21.99    4.11
 -16   2  -2    2.57    2.73
 -14   2  -2   86.03    6.28
 -12   2  -2   67.73    4.03
 -10   2  -2   88.44    4.87
  -8   2  -2   72.48    4.14
  -6   2  -2   14.85    1.33
  -4   2  -2    2.53    0.68
  -2   2  -2  176.58    3.86
   0   2  -2   15.34    1.02
   2   2  -2   40.34    2.89
   6   2  -2  266.48    7.17
   8   2  -2   17.67    1.37
  10   2  -2   13.05    1.69
  12   2  -2   11.96    1.44
  14   2  -2   32.95    3.14
  16   2  -2   71.63    4.23
  18   2  -2   57.24    4.68
  20   2  -2   68.39    5.43
  22   2  -2    1.35    2.23
 -17   3  -2   39.58    5.28
 -15   3  -2   76.18    6.49
 -13   3  -2    1.31    2.27
 -11   3  -2   60.08    4.91
  -9   3  -2   54.14    4.29
  -7   3  -2   21.34    2.55
  -5   3  -2    3.69    1.33
  -3   3  -2    1.38    0.79
  -1   3  -2  278.28    5.95
   1   3  -2   92.42    2.80
   7   3  -2   -0.19    0.78
   9   3  -2    0.29    0.87
  11   3  -2   12.73    1.98
  13   3  -2    2.62    1.45
  15   3  -2   86.59    4.87
  17   3  -2    3.54    1.78
  19   3  -2    7.11    2.40
  21   3  -2    4.64    3.62
 -14   4  -2   46.94    5.20
 -12   4  -2   37.38    4.17
 -10   4  -2   60.27    5.12
  -8   4  -2   39.86    3.94
  -6   4  -2    5.11    1.73
  -4   4  -2   -0.57    1.20
  -2   4  -2   83.20    4.19
   0   4  -2    2.95    1.40
   2   4  -2   28.22    2.32
   4   4  -2   23.97    3.23
   8   4  -2    8.04    1.64
  10   4  -2    6.69    1.72
  12   4  -2    6.07    1.81
  14   4  -2   12.30    3.48
  16   4  -2   33.87    5.92
  18   4  -2   26.49    5.48
 -11   5  -2   35.20    4.59
  -9   5  -2   25.25    3.73
  -7   5  -2    2.86    2.16
  -5   5  -2    3.02    2.01
  -3   5  -2    0.81    1.72
  -1   5  -2  106.69    5.30
   1   5  -2   42.16    3.69
   3   5  -2  145.76    8.12
   5   5  -2   -0.97    2.18
   7   5  -2   -2.60    2.48
   9   5  -2   -0.31    3.09
  11   5  -2    4.82    2.25
  13   5  -2    3.41    2.38
  15   5  -2   47.95    7.26
  -6   6  -2    0.16    3.85
  -4   6  -2    1.07    2.27
  -2   6  -2   32.73    4.07
   0   6  -2    3.03    2.23
   2   6  -2    6.85    3.49
   4   6  -2   10.39    3.70
  -6  -6  -1   60.23    7.49
  -4  -6  -1    5.45    2.71
  -2  -6  -1    1.28    2.20
   0  -6  -1    0.63    2.07
   2  -6  -1   -1.27    1.77
   4  -6  -1   -0.16    2.09
   6  -6  -1   52.42    4.02
   8  -6  -1   -1.03    3.28
 -11  -5  -1   34.82    4.45
  -9  -5  -1    1.65    1.73
  -7  -5  -1   38.36    3.91
  -5  -5  -1    6.90    2.15
  -3  -5  -1   91.89    4.96
  -1  -5  -1    1.79    1.38
   1  -5  -1    0.29    1.48
   3  -5  -1    3.23    1.45
   5  -5  -1   83.49    4.03
   7  -5  -1    1.16    1.40
   9  -5  -1   43.18    4.33
  11  -5  -1   71.52    5.68
  13  -5  -1    9.69    2.68
  15  -5  -1    6.42    3.89
 -16  -4  -1    0.46    3.19
 -14  -4  -1    2.76    2.65
 -12  -4  -1   31.60    3.95
 -10  -4  -1    4.13    1.55
  -8  -4  -1   87.79    3.88
  -6  -4  -1  152.01    4.18
  -4  -4  -1    9.58    1.30
  -2  -4  -1    2.04    1.08
   0  -4  -1    0.30    0.73
   2  -4  -1    0.06    0.84
   4  -4  -1    0.71    0.89
   6  -4  -1  131.48    4.57
   8  -4  -1    1.09    1.08
  10  -4  -1   88.36    4.78
  12  -4  -1   48.56    4.30
  14  -4  -1    1.47    1.62
  16  -4  -1    9.88    3.78
 -17  -3  -1    0.64    2.82
 -15  -3  -1    4.52    2.60
 -13  -3  -1    4.48    2.11
 -11  -3  -1   64.76    3.68
  -9  -3  -1    2.25    1.19
  -7  -3  -1   79.72    2.62
  -5  -3  -1   14.69    1.31
  -3  -3  -1  219.23    4.04
  -1  -3  -1    4.56    0.65
   1  -3  -1    0.05    0.45
   3  -3  -1    9.35    0.94
   5  -3  -1  184.35    4.18
   7  -3  -1    5.09    0.93
   9  -3  -1  106.04    3.24
  11  -3  -1  157.44    5.05
  13  -3  -1   10.71    1.75
  15  -3  -1    2.99    1.84
  17  -3  -1    2.92    1.99
  19  -3  -1   41.82    4.24
 -20  -2  -1  100.14    6.86
 -18  -2  -1    2.51    2.25
 -16  -2  -1    5.02    2.24
 -14  -2  -1    1.82    1.52
 -12  -2  -1   58.41    3.31
 -10  -2  -1   13.00    1.47
  -8  -2  -1  168.07    4.03
  -6  -2  -1  305.40    5.63
  -4  -2  -1   21.93    1.26
  -2  -2  -1    1.95    0.47
   0  -2  -1    1.72    0.36
   2  -2  -1    0.86    0.36
   4  -2  -1    0.03    0.38
   6  -2  -1  275.21    5.18
   8  -2  -1    0.08    0.46
  10  -2  -1  129.12    3.97
  12  -2  -1  112.52    3.86
  14  -2  -1    3.67    1.55
  16  -2  -1   14.39    2.41
  18  -2  -1   -0.69    1.63
  20  -2  -1    0.70    1.93
 -21  -1  -1    6.39    2.64
 -19  -1  -1    1.54    2.00
 -17  -1  -1   -0.01    1.60
 -15  -1  -1    9.64    2.21
 -13  -1  -1    2.56    1.06
 -11  -1  -1   96.48    3.29
  -9  -1  -1    5.32    1.02
  -7  -1  -1  121.21    2.52
  -5  -1  -1   33.69    1.19
  -3  -1  -1  404.68    6.57
  -1  -1  -1   10.72    0.56
   1  -1  -1    0.26    0.35
   3  -1  -1   27.05    1.02
   5  -1  -1  338.31    4.93
   7  -1  -1   13.56    0.92
   9  -1  -1  187.48    3.84
  11  -1  -1  261.82    5.14
  13  -1  -1   16.31    1.75
  15  -1  -1    5.79    1.32
  17  -1  -1    0.82    1.20
  19  -1  -1   58.63    4.54
  21  -1  -1   44.92    6.26
 -20   0  -1  118.28    8.64
 -18   0  -1    6.77    2.18
 -16   0  -1    2.27    1.56
 -14   0  -1    3.13    1.10
 -12   0  -1   69.00    2.62
 -10   0  -1   16.32    1.15
  -8   0  -1  217.58    3.94
  -6   0  -1  429.02    6.45
  -4   0  -1   26.72    1.25
  -2   0  -1    0.97    0.50
   0   0  -1    7.72    0.59
   2   0  -1    0.08    0.37
   4   0  -1    1.16    0.44
   6   0  -1  393.66    7.35
   8   0  -1    2.08    0.44
  10   0  -1  157.96    3.29
  12   0  -1  146.75    4.23
  14   0  -1    4.30    1.10
  16   0  -1   22.54    2.11
  18   0  -1    0.13    1.38
  20   0  -1    0.25    1.57
  22   0  -1   12.74    2.81
 -21   1  -1    0.58    3.31
 -19   1  -1   -0.38    2.95
 -17   1  -1   -0.04    1.73
 -15   1  -1   10.01    1.73
 -13   1  -1    1.65    1.26
 -11   1  -1  100.39    3.70
  -9   1  -1    6.30    1.16
  -7   1  -1  123.35    3.44
  -5   1  -1   34.62    1.63
  -3   1  -1  415.04    7.42
  -1   1  -1   11.03    0.68
   5   1  -1  331.98    6.19
   7   1  -1   13.14    1.27
   9   1  -1  179.36    4.43
  11   1  -1  255.05    5.99
  13   1  -1   16.79    1.62
  15   1  -1    6.41    1.72
  17   1  -1    2.47    1.53
  19   1  -1   48.06    4.26
  21   1  -1   60.59    5.07
 -20   2  -1  103.73   10.28
 -18   2  -1    1.52    3.37
 -16   2  -1    4.70    2.47
 -14   2  -1    0.80    1.95
 -12   2  -1   59.56    3.16
 -10   2  -1   14.88    1.68
  -8   2  -1  167.84    4.45
  -6   2  -1  308.03    6.39
  -4   2  -1   19.37    1.30
  -2   2  -1    1.50    0.39
   0   2  -1    2.49    0.68
   6   2  -1  277.18    6.95
   8   2  -1    1.49    0.50
  10   2  -1  132.14    3.74
  12   2  -1  114.04    4.84
  14   2  -1    3.12    1.47
  16   2  -1   15.28    2.49
  18   2  -1    0.70    1.53
  20   2  -1   -1.61    1.69
  22   2  -1   13.80    2.79
 -17   3  -1    2.72    2.81
 -15   3  -1    5.03    2.48
 -13   3  -1    2.14    2.01
 -11   3  -1   77.98    4.91
  -9   3  -1    3.67    1.50
  -7   3  -1   82.84    3.00
  -5   3  -1   16.90    1.52
  -3   3  -1  226.74    5.16
  -1   3  -1    2.53    0.68
   1   3  -1   -1.15    0.69
   7   3  -1    4.99    0.94
   9   3  -1  104.79    4.37
  11   3  -1  161.08    6.05
  13   3  -1   12.24    2.10
  15   3  -1    6.24    1.95
  17   3  -1    0.49    1.60
  19   3  -1   36.40    3.18
 -16   4  -1    3.02    2.83
 -14   4  -1    0.47    2.45
 -12   4  -1   39.15    4.23
 -10   4  -1    8.26    2.27
  -8   4  -1   83.83    4.61
  -6   4  -1  157.94    6.14
  -4   4  -1   10.07    1.44
  -2   4  -1    1.76    1.20
   0   4  -1    1.15    1.09
   2   4  -1    0.75    0.94
   4   4  -1   -0.13    0.81
   6   4  -1  132.85    5.30
   8   4  -1    0.00    1.20
  10   4  -1   67.97    4.14
  12   4  -1   55.88    4.44
  14   4  -1    1.47    1.82
  16   4  -1    6.72    2.24
 -13   5  -1    5.75    4.50
 -11   5  -1   29.81    4.12
  -9   5  -1    1.57    2.10
  -7   5  -1   32.67    3.69
  -5   5  -1    4.30    1.92
  -3   5  -1   95.02    4.97
  -1   5  -1   -0.30    1.95
   1   5  -1    0.42    1.46
   3   5  -1    1.62    1.60
   5   5  -1   85.84    6.25
   7   5  -1    2.61    1.91
   9   5  -1   62.86    7.04
  11   5  -1   76.04    7.92
  13   5  -1    5.25    2.30
  15   5  -1    1.89    3.42
  -6   6  -1   66.41    7.61
  -4   6  -1    7.20    2.64
  -2   6  -1    1.44    2.03
   0   6  -1   -1.01    1.90
   2   6  -1    2.02    2.95
   4   6  -1   -4.09    2.74
   6   6  -1   68.26    7.21
   8   6  -1    2.49    3.54
  -6  -6   0   -1.01    2.31
  -4  -6   0    2.48    2.29
  -2  -6   0    0.55    1.90
   0  -6   0  259.43   10.03
   2  -6   0    0.36    1.93
   4  -6   0    2.13    1.86
   6  -6   0    0.65    2.23
 -13  -5   0   13.30    3.46
 -11  -5   0    3.51    2.44
  -9  -5   0   16.76    2.43
  -7  -5   0   27.32    3.29
  -5  -5   0   88.12    4.69
  -3  -5   0   12.14    1.88
  -1  -5   0    9.97    2.14
   1  -5   0    8.93    1.67
   3  -5   0   15.54    1.95
   5  -5   0   84.51    4.17
   7  -5   0   27.67    3.43
   9  -5   0   21.43    3.24
  11  -5   0    2.93    2.12
  13  -5   0   10.20    2.78
 -16  -4   0   38.94    4.83
 -14  -4   0   62.36    5.62
 -12  -4   0   24.67    3.48
 -10  -4   0    5.33    1.45
  -8  -4   0    8.87    1.60
  -6  -4   0    2.15    0.94
  -4  -4   0    9.88    1.25
  -2  -4   0    0.74    0.79
   0  -4   0  532.85    9.83
   2  -4   0    0.59    0.93
   4  -4   0   11.50    1.28
   6  -4   0    2.87    0.91
   8  -4   0    6.93    1.48
  10  -4   0    2.64    1.31
  12  -4   0   21.81    2.44
  14  -4   0   73.69    4.23
  16  -4   0   24.13    5.04
  18  -4   0   -1.42    3.65
 -19  -3   0    4.52    3.21
 -17  -3   0   79.78    6.73
 -15  -3   0   47.84    3.67
 -13  -3   0   34.01    2.98
 -11  -3   0   15.15    1.62
  -9  -3   0   43.26    2.33
  -7  -3   0   64.22    2.09
  -5  -3   0  178.74    3.24
  -3  -3   0   40.35    1.44
  -1  -3   0   13.74    0.97
   1  -3   0   14.67    0.90
   3  -3   0   38.02    1.81
   5  -3   0  177.67    4.13
   7  -3   0   63.93    2.78
   9  -3   0   38.12    2.62
  11  -3   0    9.36    1.49
  13  -3   0   32.48    2.68
  15  -3   0   42.24    3.98
  17  -3   0   77.03    5.67
  19  -3   0    4.37    2.30
 -20  -2   0   15.16    3.45
 -18  -2   0   -0.06    1.58
 -16  -2   0   50.70    3.75
 -14  -2   0  128.84    5.13
 -12  -2   0   49.87    2.53
 -10  -2   0    5.01    1.01
  -8  -2   0   17.45    1.03
  -6  -2   0    4.81    0.62
  -4  -2   0   21.86    0.91
  -2  -2   0    1.40    0.30
   0  -2   0  926.77   11.70
   2  -2   0    1.54    0.35
   4  -2   0   16.50    0.85
   6  -2   0    4.28    0.68
   8  -2   0   16.91    1.30
  10  -2   0    3.84    0.87
  12  -2   0   43.83    2.57
  14  -2   0  140.94    5.89
  16  -2   0   44.73    3.92
  18  -2   0    0.29    1.58
  20  -2   0   16.47    4.45
 -21  -1   0   13.41    3.06
 -19  -1   0    5.48    1.79
 -17  -1   0  115.21    4.45
 -15  -1   0   66.20    3.47
 -13  -1   0   46.07    2.48
 -11  -1   0   23.22    1.72
  -9  -1   0   71.08    2.43
  -7  -1   0  106.16    2.67
  -5  -1   0  332.76    4.85
  -3  -1   0   73.75    1.32
  -1  -1   0   20.39    0.56
   1  -1   0   19.81    0.62
   3  -1   0   74.12    1.51
   5  -1   0  324.64    5.55
   7  -1   0  104.78    2.50
   9  -1   0   77.54    2.21
  11  -1   0   25.12    1.57
  13  -1   0   50.21    2.94
  15  -1   0   74.35    3.32
  17  -1   0  115.04    4.51
  19  -1   0    1.99    2.40
  21  -1   0    9.88    3.47
 -22   0   0    1.76    2.33
 -20   0   0   14.68    2.84
 -18   0   0    1.56    1.69
 -16   0   0   59.90    3.18
 -14   0   0  166.91    4.22
 -12   0   0   59.71    2.41
 -10   0   0    6.05    0.95
  -8   0   0   20.99    1.33
  -6   0   0    6.88    0.80
  -4   0   0   23.63    1.10
  -2   0   0    3.81    0.36
   2   0   0    4.01    0.34
   4   0   0   22.60    0.80
   6   0   0    6.70    0.56
   8   0   0   19.96    1.04
  10   0   0    7.09    1.02
  12   0   0   59.84    2.58
  14   0   0  165.90    4.82
  16   0   0   53.55    4.16
  18   0   0    0.12    1.39
  20   0   0   16.50    2.86
  22   0   0   -0.10    1.96
 -21   1   0   13.91    4.39
 -19   1   0    1.88    2.04
 -17   1   0  110.59    5.39
 -15   1   0   63.15    3.49
 -13   1   0   41.55    2.80
 -11   1   0   24.25    1.55
  -9   1   0   73.51    2.18
  -7   1   0  104.60    2.38
  -5   1   0  326.73    5.32
  -3   1   0   77.07    1.72
  -1   1   0   20.91    0.84
   3   1   0   74.42    2.31
   5   1   0  327.95    6.28
   7   1   0  107.43    2.77
   9   1   0   73.36    2.39
  11   1   0   25.81    1.76
  13   1   0   47.73    3.53
  15   1   0   64.86    4.04
  17   1   0  123.16    5.73
  19   1   0    3.70    1.52
  21   1   0   13.61    2.61
 -20   2   0   11.45    4.70
 -18   2   0    5.70    3.79
 -16   2   0   46.99    3.38
 -14   2   0  140.39    4.80
 -12   2   0   47.78    2.92
 -10   2   0    5.22    1.17
  -8   2   0   17.25    1.52
  -6   2   0    6.01    0.91
  -4   2   0   20.96    1.10
  -2   2   0    2.49    0.53
   0   2   0  973.87   19.46
   2   2   0    0.94    0.54
   4   2   0   19.90    1.46
   6   2   0    3.98    0.67
   8   2   0   17.21    1.23
  10   2   0    7.32    1.43
  12   2   0   45.26    3.39
  14   2   0  132.01    5.73
  16   2   0   43.40    3.87
  18   2   0    0.12    1.24
  20   2   0   14.64    2.23
 -19   3   0    4.66    4.24
 -17   3   0   79.66    8.38
 -15   3   0   56.48    4.92
 -13   3   0   28.91    2.60
 -11   3   0   15.44    1.83
  -9   3   0   44.19    2.59
  -7   3   0   59.36    2.62
  -5   3   0  180.94    5.48
  -3   3   0   43.53    1.86
  -1   3   0   15.68    0.99
   1   3   0   15.38    1.21
   3   3   0   40.26    2.26
   5   3   0  179.16    4.48
   7   3   0   58.83    2.46
   9   3   0   42.36    2.41
  11   3   0   16.31    1.79
  13   3   0   27.58    2.37
  15   3   0   43.68    3.95
  17   3   0   70.30    5.27
  19   3   0    0.10    1.91
 -16   4   0   32.58    4.42
 -14   4   0   67.80    5.61
 -12   4   0   29.99    3.45
 -10   4   0    1.39    1.60
  -8   4   0    8.72    1.57
  -6   4   0    1.75    1.06
  -4   4   0   12.18    1.85
  -2   4   0   -0.30    1.09
   0   4   0  552.00   10.78
   2   4   0    1.90    1.13
   4   4   0   11.73    1.78
   6   4   0    2.49    1.34
   8   4   0    8.80    1.92
  10   4   0    3.24    1.54
  12   4   0   24.49    3.01
  14   4   0   61.14    4.93
  16   4   0   27.27    3.66
 -13   5   0   13.81    3.26
 -11   5   0   11.22    2.81
  -9   5   0   17.85    2.88
  -7   5   0   26.72    3.24
  -5   5   0   81.09    4.92
  -3   5   0   17.43    2.54
  -1   5   0    6.85    1.82
   1   5   0   14.35    2.32
   3   5   0   22.57    3.96
   5   5   0   80.83    4.45
   7   5   0   21.37    3.07
   9   5   0   16.81    4.25
  11   5   0    4.40    3.15
  13   5   0   16.60    4.45
  -6   6   0    0.90    2.27
  -4   6   0    6.01    2.50
  -2   6   0   -0.21    3.05
   0   6   0  256.27   13.31
   2   6   0    1.02    1.97
   4   6   0    2.74    2.45
   6   6   0   -0.66    3.28
   8   6   0    2.66    3.69
  -8  -6   1    5.08    4.12
  -6  -6   1   48.18    6.34
  -4  -6   1   -2.33    2.71
  -2  -6   1    1.16    1.86
   0  -6   1   -0.26    1.95
   2  -6   1    0.46    2.01
   4  -6   1    4.20    2.40
   6  -6   1   57.05    7.76
 -15  -5   1    3.67    4.84
 -13  -5   1    6.20    2.88
 -11  -5   1   59.00    7.59
  -9  -5   1   49.30    4.24
  -7  -5   1    0.91    1.33
  -5  -5   1   93.19    4.86
  -3  -5   1    5.63    1.55
  -1  -5   1    0.23    1.19
   1  -5   1    0.36    1.19
   3  -5   1   96.31    4.33
   5  -5   1    6.49    2.07
   7  -5   1   30.98    3.52
   9  -5   1    2.00    1.94
  11  -5   1   33.96    4.12
  13  -5   1   -0.98    3.10
 -18  -4   1    2.42    5.20
 -16  -4   1    9.07    2.43
 -14  -4   1   -0.21    1.53
 -12  -4   1   65.75    4.05
 -10  -4   1   77.39    4.03
  -8  -4   1    0.48    0.90
  -6  -4   1  134.56    3.74
  -4  -4   1   -0.40    0.56
  -2  -4   1   -0.35    0.65
   0  -4   1    2.31    0.87
   2  -4   1    0.54    0.79
   4  -4   1   10.37    1.30
   6  -4   1  154.66    5.05
   8  -4   1   90.40    3.92
  10  -4   1    6.05    1.55
  12  -4   1   29.92    2.89
  14  -4   1    2.18    1.69
  16  -4   1    2.98    2.34
 -19  -3   1   36.27    3.69
 -17  -3   1    0.82    1.62
 -15  -3   1    1.56    1.55
 -13  -3   1   10.72    1.80
 -11  -3   1  154.94    4.99
  -9  -3   1  109.97    3.19
  -7  -3   1    5.58    0.77
  -5  -3   1  188.34    2.91
  -3  -3   1   11.36    0.72
  -1  -3   1    0.34    0.41
   1  -3   1    3.85    0.65
   3  -3   1  210.71    4.09
   5  -3   1   16.12    1.60
   7  -3   1   73.36    3.08
   9  -3   1    2.42    1.08
  11  -3   1   70.00    3.31
  13  -3   1    1.98    1.23
  15  -3   1    7.69    2.19
  17  -3   1   -0.28    1.82
  19  -3   1    2.13    2.90
 -22  -2   1   11.55    3.32
 -20  -2   1    2.45    1.88
 -18  -2   1   -0.12    1.45
 -16  -2   1   13.79    2.16
 -14  -2   1    1.96    1.29
 -12  -2   1  118.77    4.23
 -10  -2   1  128.33    3.33
  -8  -2   1    0.83    0.46
  -6  -2   1  276.34    4.14
  -4  -2   1    0.54    0.30
  -2  -2   1    0.37    0.28
   0  -2   1    2.35    0.36
   2  -2   1    1.95    0.44
   4  -2   1   18.24    1.17
   6  -2   1  299.89    5.78
   8  -2   1  159.75    3.88
  10  -2   1   10.93    1.26
  12  -2   1   59.16    2.70
  14  -2   1    3.50    1.53
  16  -2   1    0.84    1.56
  18  -2   1    6.53    3.22
  20  -2   1  114.49    9.25
 -21  -1   1   63.01    4.02
 -19  -1   1   52.08    3.57
 -17  -1   1    2.10    1.33
 -15  -1   1    8.34    1.62
 -13  -1   1   18.06    1.96
 -11  -1   1  250.00    5.40
  -9  -1   1  188.79    3.97
  -7  -1   1   14.55    0.86
  -5  -1   1  329.00    4.91
  -3  -1   1   26.73    0.69
  -1  -1   1    0.26    0.23
   1  -1   1   10.88    0.55
   3  -1   1  405.97    6.69
   5  -1   1   32.47    0.99
   7  -1   1  118.26    2.37
   9  -1   1    4.02    0.64
  11  -1   1   98.15    2.88
  13  -1   1    1.83    1.03
  15  -1   1    9.83    1.65
  17  -1   1    1.12    1.49
  19  -1   1    3.61    2.67
  21  -1   1   -0.11    2.79
 -22   0   1   17.58    3.12
 -20   0   1    2.54    2.00
 -18   0   1   -1.20    1.56
 -16   0   1   23.12    2.13
 -14   0   1    3.61    1.20
 -12   0   1  148.85    3.74
 -10   0   1  157.15    3.65
  -8   0   1    1.16    0.57
  -6   0   1  403.19    5.94
  -4   0   1    0.03    0.40
  -2   0   1    0.90    0.25
   0   0   1    7.30    0.41
   2   0   1    1.50    0.32
   4   0   1   24.74    0.94
   6   0   1  428.40    7.03
   8   0   1  223.45    5.03
  10   0   1   18.96    1.32
  12   0   1   71.39    2.37
  14   0   1    3.38    1.03
  16   0   1    1.71    1.49
  18   0   1    6.78    2.02
  20   0   1  115.39    6.24
  22   0   1    1.15    3.54
 -23   1   1   18.72    4.82
 -21   1   1   58.50    4.92
 -19   1   1   54.81    4.52
 -17   1   1    3.31    1.89
 -15   1   1    4.64    1.82
 -13   1   1   14.01    1.37
 -11   1   1  253.18    5.08
  -9   1   1  177.59    3.73
  -7   1   1   12.46    0.89
  -5   1   1  308.45    6.13
  -3   1   1   25.80    1.14
  -1   1   1   -0.30    0.35
   1   1   1   13.35    1.05
   3   1   1  410.78    7.60
   5   1   1   32.79    1.44
   7   1   1  120.22    3.31
   9   1   1    3.12    0.86
  11   1   1   97.00    3.36
  13   1   1    2.77    1.02
  15   1   1    8.71    1.52
  17   1   1    0.73    1.13
  19   1   1    0.68    1.75
  21   1   1    2.61    2.23
 -20   2   1   -3.91    2.11
 -18   2   1   -0.64    1.82
 -16   2   1   10.26    2.47
 -14   2   1    1.36    1.24
 -12   2   1  114.29    3.93
 -10   2   1  129.02    3.90
  -8   2   1   -0.95    0.49
  -6   2   1  274.85    5.61
  -4   2   1    0.28    0.47
  -2   2   1    1.56    0.65
   0   2   1    2.15    0.49
   2   2   1    2.57    0.48
   4   2   1   19.56    1.25
   6   2   1  303.87    6.54
   8   2   1  165.24    4.43
  10   2   1   13.74    1.54
  12   2   1   53.37    2.94
  14   2   1    2.58    1.15
  16   2   1    1.25    1.09
  18   2   1    6.40    1.67
  20   2   1  104.71    7.81
 -19   3   1   41.85    7.05
 -17   3   1    0.51    2.07
 -15   3   1    5.81    1.72
 -13   3   1    7.72    1.60
 -11   3   1  164.27    4.89
  -9   3   1  111.45    3.73
  -7   3   1    6.41    1.43
  -5   3   1  191.19    4.51
  -3   3   1   10.91    1.18
  -1   3   1    0.70    0.78
   1   3   1    4.01    0.79
   3   3   1  217.59    6.42
   5   3   1   18.13    1.99
   7   3   1   72.87    3.65
   9   3   1    2.09    1.27
  11   3   1   68.34    4.01
  13   3   1    2.05    1.47
  15   3   1    5.48    1.83
  17   3   1    0.59    1.78
 -16   4   1    8.21    2.78
 -14   4   1    2.61    1.96
 -12   4   1   53.51    3.45
 -10   4   1   79.69    3.63
  -8   4   1    1.99    1.44
  -6   4   1  136.68    5.18
  -4   4   1    0.01    1.07
  -2   4   1    1.48    1.25
   0   4   1    0.62    1.05
   2   4   1    2.01    1.24
   4   4   1   10.90    1.82
   6   4   1  147.42    5.83
   8   4   1   93.45    4.61
  10   4   1    3.32    1.59
  12   4   1   29.02    3.30
  14   4   1    1.61    1.86
  16   4   1    0.84    2.05
 -15   5   1    4.32    4.34
 -13   5   1    3.54    2.42
 -11   5   1   64.44    5.05
  -9   5   1   50.50    3.52
  -7   5   1    0.41    1.68
  -5   5   1   94.57    4.67
  -3   5   1    3.55    1.72
  -1   5   1   -1.13    1.39
   1   5   1    0.96    1.49
   3   5   1   92.17    4.71
   5   5   1    3.70    1.88
   7   5   1   41.74    3.99
   9   5   1    3.46    2.06
  11   5   1   29.58    5.27
  -6   6   1   55.01    5.02
  -4   6   1   -0.41    2.85
  -2   6   1    0.37    1.99
   0   6   1    1.95    2.16
   2   6   1    2.18    2.06
   4   6   1    8.02    2.52
   6   6   1   73.59    8.02
  -4  -6   2    6.97    2.56
  -2  -6   2    7.04    3.81
   0  -6   2    1.66    2.32
   2  -6   2   35.12    4.38
   4  -6   2   -1.83    3.16
 -13  -5   2   -0.01    2.57
 -11  -5   2    7.87    2.76
  -9  -5   2    1.46    2.02
  -7  -5   2    2.35    1.50
  -5  -5   2    3.68    1.56
  -3  -5   2  131.82    4.89
  -1  -5   2   39.76    3.06
   1  -5   2  113.40    8.36
   3  -5   2    1.12    1.60
   5  -5   2    1.85    1.81
   7  -5   2    7.85    1.90
   9  -5   2   17.06    2.58
  11  -5   2   28.74    3.30
 -16  -4   2   37.49    4.41
 -14  -4   2   15.90    2.40
 -12  -4   2    5.33    1.70
 -10  -4   2    9.04    1.71
  -8  -4   2    6.76    1.06
  -6  -4   2  129.03    2.56
  -4  -4   2   20.84    1.15
  -2  -4   2   21.65    1.53
   0  -4   2    5.42    1.08
   2  -4   2   84.72    3.58
   4  -4   2    0.71    0.93
   6  -4   2    6.71    1.47
   8  -4   2   34.54    2.87
  10  -4   2   56.16    3.81
  12  -4   2   35.89    3.18
  14  -4   2   47.79    4.74
 -19  -3   2    6.05    2.39
 -17  -3   2    2.74    1.68
 -15  -3   2   95.78    4.46
 -13  -3   2    1.32    1.29
 -11  -3   2   14.66    1.57
  -9  -3   2    0.58    0.67
  -7  -3   2    0.27    0.48
  -5  -3   2    5.03    0.62
  -3  -3   2  287.88    4.21
  -1  -3   2   86.99    2.09
   1  -3   2  271.68    5.58
   3  -3   2    2.43    0.76
   5  -3   2    3.34    0.83
   7  -3   2   23.48    2.06
   9  -3   2   53.80    3.29
  11  -3   2   66.72    3.58
  13  -3   2    0.70    1.24
  15  -3   2   88.10    5.89
  17  -3   2   39.59    4.34
 -22  -2   2    0.03    2.89
 -20  -2   2   59.26    4.23
 -18  -2   2   54.27    3.76
 -16  -2   2   68.24    3.81
 -14  -2   2   31.60    2.60
 -12  -2   2   10.88    1.39
 -10  -2   2   10.04    1.26
  -8  -2   2   20.43    1.15
  -6  -2   2  267.29    4.12
  -4  -2   2   36.16    1.00
  -2  -2   2   37.02    0.97
   0  -2   2   12.57    0.83
   2  -2   2  171.55    3.15
   4  -2   2    2.24    0.65
   6  -2   2   13.95    1.27
   8  -2   2   75.04    2.62
  10  -2   2   92.38    3.07
  12  -2   2   70.25    2.98
  14  -2   2   84.17    4.51
  16  -2   2    4.89    1.88
  18  -2   2   19.46    4.45
 -23  -1   2   32.78    6.16
 -21  -1   2    1.25    1.66
 -19  -1   2    7.79    1.82
 -17  -1   2    4.92    1.62
 -15  -1   2  137.94    4.83
 -13  -1   2    0.32    1.11
 -11  -1   2   19.44    1.57
  -9  -1   2    1.09    0.60
  -7  -1   2   -0.29    0.45
  -5  -1   2   11.41    0.72
  -3  -1   2  542.12    7.62
  -1  -1   2  183.76    3.95
   1  -1   2  499.97    7.25
   3  -1   2    2.93    0.46
   5  -1   2    8.44    0.69
   7  -1   2   40.13    1.60
   9  -1   2   87.34    2.46
  11  -1   2   98.36    3.54
  13  -1   2    1.19    0.99
  15  -1   2  116.89    5.71
  17  -1   2   57.14    4.96
  19  -1   2   -0.58    2.54
 -22   0   2   -1.96    1.97
 -20   0   2   81.08    5.09
 -18   0   2   71.43    3.64
 -16   0   2   78.31    3.42
 -14   0   2   37.35    2.51
 -12   0   2   13.04    1.46
 -10   0   2   13.38    1.19
  -8   0   2   27.68    1.39
  -6   0   2  370.16    6.21
  -4   0   2   52.52    1.26
  -2   0   2   54.78    1.42
   0   0   2   21.09    0.80
   2   0   2  263.56    4.49
   4   0   2    3.58    0.53
   6   0   2   18.20    1.07
   8   0   2   99.08    2.54
  10   0   2  115.74    2.93
  12   0   2   92.61    3.31
  14   0   2   92.92    4.66
  16   0   2    0.25    1.39
  18   0   2   25.90    3.34
  20   0   2    5.04    2.29
 -23   1   2   19.70    3.46
 -21   1   2    1.38    2.11
 -19   1   2   10.40    2.44
 -17   1   2    3.99    1.91
 -15   1   2  136.17    4.40
 -13   1   2    2.10    0.99
 -11   1   2   21.58    1.42
  -9   1   2    0.34    0.50
  -7   1   2    0.01    0.38
  -5   1   2   11.80    0.76
  -3   1   2  539.54    9.58
  -1   1   2  183.42    3.89
   1   1   2  504.57    7.81
   3   1   2    2.92    0.57
   5   1   2    9.69    0.98
   7   1   2   39.82    1.94
   9   1   2   87.28    3.06
  11   1   2   93.83    3.42
  13   1   2    0.47    0.85
  15   1   2  112.48    4.24
  17   1   2   50.97    3.37
  19   1   2    1.32    1.86
 -22   2   2    1.10    2.64
 -20   2   2   63.29    5.24
 -18   2   2   51.90    4.53
 -16   2   2   57.34    4.41
 -14   2   2   28.71    3.02
 -12   2   2   13.46    1.59
 -10   2   2   12.78    1.16
  -8   2   2   21.82    1.54
  -6   2   2  273.71    5.74
  -4   2   2   36.71    1.71
  -2   2   2   33.42    1.45
   0   2   2   12.95    1.09
   2   2   2  178.67    4.24
   4   2   2    1.38    0.58
   6   2   2   14.08    1.30
   8   2   2   79.78    2.91
  10   2   2   93.03    3.42
  12   2   2   66.17    3.07
  14   2   2   77.74    3.67
  16   2   2    0.38    1.58
  18   2   2   15.62    2.91
 -19   3   2    6.00    2.71
 -17   3   2    2.68    2.16
 -15   3   2   99.65    5.08
 -13   3   2    0.78    1.18
 -11   3   2   11.38    1.63
  -9   3   2    1.05    1.20
  -7   3   2    1.75    0.86
  -5   3   2    5.47    1.02
  -3   3   2  279.81    6.28
  -1   3   2   87.08    3.61
   1   3   2  262.20    6.13
   3   3   2    0.34    0.75
   5   3   2    4.37    1.33
   7   3   2   18.16    2.31
   9   3   2   54.63    3.70
  11   3   2   61.75    4.14
  13   3   2    0.68    1.44
  15   3   2   72.26    5.01
  17   3   2   34.01    3.99
 -16   4   2   36.97    4.03
 -14   4   2   19.21    2.39
 -12   4   2    5.50    1.57
 -10   4   2    6.83    1.84
  -8   4   2   11.25    1.98
  -6   4   2  116.25    4.96
  -4   4   2   18.47    2.33
  -2   4   2   20.58    1.89
   0   4   2    2.55    1.39
   2   4   2   81.45    4.03
   4   4   2    1.04    1.16
   6   4   2    4.75    1.36
   8   4   2   30.23    3.21
  10   4   2   55.97    4.62
  12   4   2   34.96    3.81
  14   4   2   38.44    4.19
 -15   5   2   55.93    7.69
 -13   5   2    1.36    1.78
 -11   5   2    6.80    1.84
  -9   5   2   -1.48    1.70
  -7   5   2   -1.47    1.49
  -5   5   2    2.96    1.78
  -3   5   2  125.73    5.73
  -1   5   2   40.42    3.71
   1   5   2  120.88    7.57
   3   5   2    3.05    1.67
   5   5   2    2.51    1.86
   7   5   2    9.98    2.29
   9   5   2   23.43    3.33
  11   5   2   28.75    3.82
  -6   6   2   47.13    4.44
  -4   6   2   12.29    2.73
  -2   6   2    8.32    2.52
   0   6   2    1.93    2.27
   2   6   2   39.07    4.17
   4   6   2   -2.01    3.06
  -4  -6   3   53.44    7.53
  -2  -6   3    1.61    2.29
   0  -6   3   53.79    5.20
   2  -6   3    2.68    3.56
 -13  -5   3    0.00    2.47
 -11  -5   3   51.93    4.84
  -9  -5   3  107.89    8.19
  -5  -5   3    2.71    1.81
  -3  -5   3    1.81    1.36
  -1  -5   3   -0.63    1.20
   1  -5   3    2.76    1.47
   3  -5   3    3.59    1.72
   5  -5   3  120.31    5.28
   7  -5   3   25.05    2.89
   9  -5   3   29.43    3.17
  11  -5   3    3.22    3.86
 -18  -4   3   17.60    6.05
 -16  -4   3    4.58    2.67
 -14  -4   3   56.88    5.06
 -12  -4   3   72.60    4.13
 -10  -4   3    5.02    1.47
  -8  -4   3   63.02    3.04
  -6  -4   3   24.33    1.31
  -4  -4   3  126.50    3.75
  -2  -4   3    1.63    0.96
   0  -4   3  151.83    5.00
   2  -4   3   21.78    2.28
   4  -4   3   91.60    3.99
   6  -4   3    1.71    1.26
   8  -4   3   19.57    2.31
  10  -4   3   16.39    2.29
  12  -4   3    3.07    1.68
  14  -4   3   12.24    2.95
 -19  -3   3    5.80    2.45
 -17  -3   3   21.52    3.31
 -15  -3   3   10.59    2.43
 -13  -3   3    1.39    1.26
 -11  -3   3   97.48    3.27
  -9  -3   3  225.64    5.25
  -7  -3   3    4.40    0.69
  -5  -3   3   10.59    0.86
  -3  -3   3    6.31    0.78
  -1  -3   3    2.00    0.68
   1  -3   3   16.91    1.51
   3  -3   3   13.72    1.34
   5  -3   3  262.76    5.88
   7  -3   3   49.47    3.10
   9  -3   3   60.20    3.61
  11  -3   3    2.68    1.57
  13  -3   3    2.47    1.78
  15  -3   3   11.61    2.61
 -22  -2   3    5.06    3.23
 -20  -2   3   19.82    3.14
 -18  -2   3   13.96    2.67
 -16  -2   3    7.85    1.75
 -14  -2   3   99.05    3.44
 -12  -2   3  134.43    3.78
 -10  -2   3    7.20    1.02
  -8  -2   3  111.17    2.66
  -6  -2   3   47.51    1.59
  -4  -2   3  251.22    4.29
  -2  -2   3    6.55    0.67
   0  -2   3  299.11    5.11
   2  -2   3   49.43    1.61
   4  -2   3  168.02    4.12
   6  -2   3    0.37    0.73
   8  -2   3   32.21    2.43
  10  -2   3   36.99    2.77
  12  -2   3    9.87    1.68
  14  -2   3   20.54    2.76
  16  -2   3   -0.95    2.33
  18  -2   3    1.57    2.81
 -23  -1   3   -1.31    2.81
 -21  -1   3   10.97    2.48
 -19  -1   3   11.20    2.00
 -17  -1   3   23.04    2.42
 -15  -1   3   15.32    1.92
 -13  -1   3    1.36    0.88
 -11  -1   3  147.34    3.76
  -9  -1   3  364.23    6.63
  -7  -1   3    7.15    0.70
  -5  -1   3   17.24    1.16
  -3  -1   3   17.21    0.97
  -1  -1   3    6.01    0.72
   1  -1   3   34.63    1.51
   3  -1   3   25.97    1.41
   5  -1   3  427.99    7.39
   7  -1   3   76.26    2.34
   9  -1   3   95.48    3.43
  11  -1   3   12.91    1.63
  13  -1   3    3.42    1.59
  15  -1   3   14.15    2.68
  17  -1   3   48.10    4.59
  19  -1   3    8.06    2.77
 -22   0   3    4.59    2.26
 -20   0   3   22.81    2.42
 -18   0   3   32.03    2.62
 -16   0   3    9.01    1.58
 -14   0   3  112.34    3.89
 -12   0   3  162.72    4.02
 -10   0   3    8.50    1.05
  -8   0   3  138.16    3.21
  -6   0   3   70.17    1.96
  -4   0   3  367.99    6.19
  -2   0   3   10.37    0.78
   0   0   3  445.02    7.14
   2   0   3   71.32    1.61
   4   0   3  221.47    4.23
   6   0   3    2.42    0.62
   8   0   3   47.14    1.93
  10   0   3   47.20    2.54
  12   0   3    8.00    1.38
  14   0   3   28.64    3.16
  16   0   3    1.32    1.68
  18   0   3    2.88    2.76
 -23   1   3   -0.21    2.38
 -21   1   3   15.83    2.84
 -19   1   3   14.68    2.66
 -17   1   3   21.67    2.74
 -15   1   3   21.36    2.03
 -13   1   3    2.68    0.95
 -11   1   3  147.05    3.05
  -9   1   3  351.00    6.41
  -7   1   3    6.95    0.73
  -5   1   3   16.20    0.98
  -3   1   3   14.08    1.11
  -1   1   3    5.86    0.61
   1   1   3   30.63    1.25
   3   1   3   23.79    1.41
   5   1   3  417.18    8.55
   7   1   3   73.74    2.76
   9   1   3   90.22    3.27
  11   1   3    9.28    1.39
  13   1   3    3.49    1.19
  15   1   3   17.66    2.03
  17   1   3   48.29    4.45
  19   1   3    4.80    3.43
 -22   2   3    3.54    2.68
 -20   2   3   19.15    3.21
 -18   2   3   25.48    3.30
 -16   2   3    9.40    2.19
 -14   2   3   89.39    4.59
 -12   2   3  135.70    3.52
 -10   2   3    5.49    1.06
  -8   2   3  111.60    3.39
  -6   2   3   48.22    1.60
  -4   2   3  237.33    4.62
  -2   2   3    4.06    0.82
   0   2   3  304.86    6.52
   2   2   3   50.58    2.15
   4   2   3  179.32    5.83
   6   2   3    1.31    1.08
   8   2   3   35.59    3.12
  10   2   3   41.53    3.47
  12   2   3    6.15    1.80
  14   2   3   15.88    2.52
  16   2   3    2.62    1.97
  18   2   3   -0.23    2.09
 -19   3   3    8.98    2.84
 -17   3   3   10.42    2.65
 -15   3   3   12.07    2.37
 -13   3   3    1.47    1.17
 -11   3   3   96.49    4.43
  -9   3   3  228.38    7.19
  -7   3   3    2.73    1.01
  -5   3   3   10.83    1.37
  -3   3   3    8.45    1.55
  -1   3   3    2.40    1.11
   1   3   3   15.64    1.55
   3   3   3   12.57    1.48
   5   3   3  256.61    6.54
   7   3   3   49.62    3.87
   9   3   3   57.08    4.37
  11   3   3    3.48    1.70
  13   3   3    3.48    1.96
  15   3   3   11.13    2.67
 -18   4   3   17.47    3.34
 -16   4   3    4.30    2.37
 -14   4   3   45.02    4.09
 -12   4   3   72.46    3.81
 -10   4   3    1.71    1.56
  -8   4   3   57.46    3.72
  -6   4   3   22.89    2.61
  -4   4   3  124.79    4.16
  -2   4   3    3.44    1.43
   0   4   3  145.03    5.67
   2   4   3   18.40    2.41
   4   4   3   87.33    4.43
   6   4   3    0.78    1.30
   8   4   3   21.55    2.36
  10   4   3   14.83    2.64
  12   4   3    1.54    1.97
  14   4   3    8.07    4.19
 -15   5   3    4.58    3.90
 -13   5   3    1.31    1.85
 -11   5   3   47.83    4.39
  -9   5   3  111.33    5.58
  -7   5   3    1.91    1.80
  -5   5   3    5.19    1.94
  -3   5   3   -0.39    1.56
  -1   5   3   -0.65    1.59
   1   5   3    4.93    1.89
   3   5   3    5.20    2.13
   5   5   3  121.34    6.03
   7   5   3   25.60    3.50
   9   5   3   28.93    3.74
  -6   6   3    4.26    3.74
  -4   6   3   50.11    6.38
  -2   6   3    3.75    3.04
   0   6   3   66.35    7.55
  -4  -6   4    6.73    4.22
 -13  -5   4    7.33    3.79
 -11  -5   4   33.51    5.80
  -9  -5   4    6.53    2.31
  -7  -5   4    2.26    1.85
  -5  -5   4   70.38    5.07
  -3  -5   4    0.50    1.60
  -1  -5   4   65.56    4.23
   1  -5   4    3.34    1.61
   3  -5   4    2.99    1.62
   5  -5   4    5.65    2.02
   7  -5   4    0.17    1.97
 -18  -4   4    8.49    7.01
 -16  -4   4   22.29    4.00
 -14  -4   4   38.43    3.57
 -12  -4   4    4.59    1.76
 -10  -4   4    7.08    1.62
  -8  -4   4    0.35    1.14
  -6  -4   4  117.86    3.72
  -4  -4   4   18.15    2.04
  -2  -4   4   69.67    3.56
   0  -4   4   45.13    2.76
   2  -4   4   47.37    3.46
   4  -4   4    6.63    1.65
   6  -4   4   41.67    3.36
   8  -4   4   21.80    3.16
  10  -4   4   -0.04    1.73
  12  -4   4   43.77    4.60
 -19  -3   4   36.99    4.40
 -17  -3   4   60.23    5.25
 -15  -3   4   34.44    3.13
 -13  -3   4    5.99    1.72
 -11  -3   4   54.01    3.45
  -9  -3   4   20.12    1.65
  -7  -3   4    4.90    0.97
  -5  -3   4  124.37    3.54
  -3  -3   4    1.10    0.77
  -1  -3   4  132.57    4.30
   1  -3   4    1.41    0.92
   3  -3   4    3.94    1.15
   5  -3   4   19.76    2.15
   7  -3   4    0.85    1.09
   9  -3   4    3.58    1.56
  11  -3   4  108.41    5.64
  13  -3   4    0.88    1.76
 -22  -2   4   24.97    5.19
 -20  -2   4    5.80    2.48
 -18  -2   4   22.35    3.31
 -16  -2   4   28.99    2.72
 -14  -2   4   60.09    3.64
 -12  -2   4    9.98    1.56
 -10  -2   4   16.17    1.80
  -8  -2   4    1.89    0.82
  -6  -2   4  225.98    4.75
  -4  -2   4   38.86    1.60
  -2  -2   4  130.34    3.30
   0  -2   4   81.90    2.54
   2  -2   4   85.74    3.20
   4  -2   4   18.51    1.89
   6  -2   4   70.45    3.12
   8  -2   4   48.60    3.12
  10  -2   4    3.76    1.28
  12  -2   4   78.39    4.20
  14  -2   4    2.10    2.45
  16  -2   4   64.71    7.51
 -23  -1   4    1.58    2.89
 -21  -1   4   67.18    5.23
 -19  -1   4   43.20    3.96
 -17  -1   4   79.36    3.66
 -15  -1   4   57.45    3.20
 -13  -1   4   15.22    1.77
 -11  -1   4   91.19    3.43
  -9  -1   4   39.48    2.46
  -7  -1   4    8.35    1.04
  -5  -1   4  201.81    4.34
  -3  -1   4    3.24    0.65
  -1  -1   4  230.79    4.75
   1  -1   4    4.38    0.80
   3  -1   4    4.88    0.81
   5  -1   4   37.86    1.98
   7  -1   4   -0.65    0.75
   9  -1   4    4.01    1.16
  11  -1   4  165.88    6.89
  13  -1   4   -1.46    1.33
  15  -1   4   11.66    2.75
  17  -1   4   11.32    3.02
 -22   0   4   16.42    4.35
 -20   0   4    9.97    2.27
 -18   0   4   21.93    2.80
 -16   0   4   42.43    2.44
 -14   0   4   69.86    2.68
 -12   0   4   14.11    1.39
 -10   0   4   27.48    1.67
  -8   0   4    0.95    0.61
  -6   0   4  309.97    5.63
  -4   0   4   51.22    1.69
  -2   0   4  172.65    3.52
   0   0   4  105.46    2.46
   2   0   4  117.17    2.42
   4   0   4   27.68    1.26
   6   0   4   97.04    2.77
   8   0   4   52.78    2.58
  10   0   4    2.52    1.02
  12   0   4   89.21    4.89
  14   0   4    3.52    1.93
  16   0   4   64.79    5.30
  18   0   4    2.27    2.37
 -21   1   4   57.79    6.93
 -19   1   4   47.02    4.16
 -17   1   4   78.72    3.71
 -15   1   4   58.99    3.13
 -13   1   4   16.66    1.47
 -11   1   4   82.83    2.61
  -9   1   4   33.97    1.67
  -7   1   4   10.45    0.94
  -5   1   4  201.99    3.98
  -3   1   4    3.31    0.62
  -1   1   4  234.15    4.43
   1   1   4    3.09    0.59
   3   1   4    5.76    0.76
   5   1   4   34.93    2.09
   7   1   4    0.36    0.75
   9   1   4    4.89    1.13
  11   1   4  166.16    5.16
  13   1   4    0.84    1.20
  15   1   4   10.74    3.77
  17   1   4    4.81    3.70
 -20   2   4    4.15    2.44
 -18   2   4   20.43    3.09
 -16   2   4   34.06    3.50
 -14   2   4   60.84    3.12
 -12   2   4   10.62    1.49
 -10   2   4   16.74    1.61
  -8   2   4    0.62    0.86
  -6   2   4  218.31    5.29
  -4   2   4   33.02    1.92
  -2   2   4  128.35    3.70
   0   2   4   86.29    2.96
   2   2   4   88.66    3.10
   4   2   4   18.70    1.74
   6   2   4   72.49    3.88
   8   2   4   43.25    3.64
  10   2   4    3.44    1.51
  12   2   4   81.00    4.81
  14   2   4    2.63    1.86
  16   2   4   68.89    7.30
 -19   3   4   31.23    4.00
 -17   3   4   55.18    4.71
 -15   3   4   32.57    3.48
 -13   3   4    7.61    1.89
 -11   3   4   51.13    3.81
  -9   3   4   19.21    1.86
  -7   3   4    4.17    1.16
  -5   3   4  128.89    3.99
  -3   3   4    0.43    1.13
  -1   3   4  136.38    5.03
   1   3   4    1.10    0.90
   3   3   4    3.69    1.09
   5   3   4   22.18    2.05
   7   3   4   -0.43    1.02
   9   3   4    2.24    1.60
  11   3   4  115.18    6.00
  13   3   4    0.72    1.84
  15   3   4    9.44    2.68
 -18   4   4   14.45    5.20
 -16   4   4   17.75    3.16
 -14   4   4   36.07    3.72
 -12   4   4    4.71    1.95
 -10   4   4    7.57    1.94
  -8   4   4    1.15    1.46
  -6   4   4  120.45    4.27
  -4   4   4   16.95    1.89
  -2   4   4   65.10    4.02
   0   4   4   45.12    3.66
   2   4   4   40.49    3.53
   4   4   4    7.32    1.93
   6   4   4   37.20    3.63
   8   4   4   19.64    2.83
  10   4   4    1.23    1.53
  12   4   4   47.40    3.73
 -13   5   4    4.84    2.38
 -11   5   4   22.80    3.41
  -9   5   4    5.12    2.24
  -7   5   4    1.30    1.87
  -5   5   4   59.79    4.59
  -3   5   4   -0.59    1.54
  -1   5   4   69.03    4.03
   1   5   4   -1.69    1.61
   3   5   4    2.17    1.88
   5   5   4    4.44    2.04
   7   5   4    1.76    2.14
 -11  -5   5   43.86    6.45
  -9  -5   5    0.79    1.95
  -7  -5   5   48.79    6.21
  -5  -5   5   30.51    3.64
  -3  -5   5   -1.51    1.67
  -1  -5   5   52.03    4.71
   1  -5   5   74.54    5.57
   3  -5   5    7.62    2.43
   5  -5   5   28.68    5.67
 -16  -4   5    3.93    2.48
 -14  -4   5   19.68    3.19
 -12  -4   5   15.52    2.70
 -10  -4   5   97.79    4.39
  -8  -4   5   23.45    2.40
  -6  -4   5    2.22    1.34
  -4  -4   5    1.38    1.26
  -2  -4   5   -0.45    1.06
   0  -4   5    9.17    1.75
   2  -4   5   25.37    3.19
   4  -4   5    7.33    2.22
   6  -4   5  139.95    6.59
   8  -4   5   29.78    3.69
  10  -4   5    7.26    2.56
 -19  -3   5    4.97    2.86
 -17  -3   5   -0.27    1.65
 -15  -3   5   62.86    4.47
 -13  -3   5    0.50    1.30
 -11  -3   5   82.08    3.23
  -9  -3   5    6.02    1.30
  -7  -3   5   94.78    3.72
  -5  -3   5   60.91    2.85
  -3  -3   5    1.15    0.99
  -1  -3   5  104.83    4.02
   1  -3   5  160.24    5.20
   3  -3   5   14.49    1.88
   5  -3   5   45.47    3.31
   7  -3   5   32.34    2.90
   9  -3   5    2.48    1.73
  11  -3   5    0.51    1.68
  13  -3   5   17.14    4.20
 -20  -2   5   -0.98    1.90
 -18  -2   5   16.89    2.46
 -16  -2   5    9.28    1.90
 -14  -2   5   37.76    3.12
 -12  -2   5   23.12    2.40
 -10  -2   5  172.42    4.62
  -8  -2   5   45.97    2.40
  -6  -2   5   13.94    1.56
  -4  -2   5    1.56    0.80
  -2  -2   5    1.45    0.77
   0  -2   5   24.28    1.78
   2  -2   5   57.94    3.11
   4  -2   5    9.90    1.55
   6  -2   5  219.27    6.40
   8  -2   5   45.07    3.23
  10  -2   5   18.43    2.22
  12  -2   5    6.34    2.30
  14  -2   5   21.18    3.40
 -21  -1   5    0.46    1.92
 -19  -1   5    5.50    2.04
 -17  -1   5    3.15    1.37
 -15  -1   5   94.84    3.94
 -13  -1   5    1.60    1.16
 -11  -1   5  115.89    4.13
  -9  -1   5    5.85    1.05
  -7  -1   5  155.33    4.05
  -5  -1   5   97.14    3.11
  -3  -1   5    3.31    0.92
  -1  -1   5  175.65    4.18
   1  -1   5  265.25    5.56
   3  -1   5   25.34    1.77
   5  -1   5   70.03    2.99
   7  -1   5   53.80    3.18
   9  -1   5    6.33    1.85
  11  -1   5    2.61    1.72
  13  -1   5   24.74    3.45
  15  -1   5   29.76    3.82
 -22   0   5   22.07    3.15
 -20   0   5    1.68    1.75
 -18   0   5   11.21    1.82
 -16   0   5   11.32    1.77
 -14   0   5   45.67    2.92
 -12   0   5   32.03    2.37
 -10   0   5  210.05    5.48
  -8   0   5   48.77    2.43
  -6   0   5   18.83    1.38
  -4   0   5    4.27    0.76
  -2   0   5    2.68    0.71
   0   0   5   29.88    1.53
   2   0   5   67.72    2.75
   4   0   5   15.77    1.40
   6   0   5  288.81    6.90
   8   0   5   59.93    2.99
  10   0   5   21.94    2.82
  12   0   5   13.33    2.57
  14   0   5   36.12    4.04
  16   0   5    0.24    2.06
 -21   1   5    1.93    2.89
 -19   1   5    8.55    2.16
 -17   1   5    1.94    1.58
 -15   1   5   91.67    4.55
 -13   1   5    0.12    0.92
 -11   1   5  112.53    3.73
  -9   1   5    6.55    0.95
  -7   1   5  156.46    3.56
  -5   1   5   96.88    2.30
  -3   1   5    1.93    0.65
  -1   1   5  171.43    3.80
   1   1   5  257.01    5.14
   3   1   5   24.01    1.52
   5   1   5   70.83    2.38
   7   1   5   50.67    2.64
   9   1   5    5.84    1.64
  11   1   5    0.22    1.51
  13   1   5   14.30    4.20
  15   1   5   18.24    5.11
 -20   2   5   -1.71    2.81
 -18   2   5   16.16    4.04
 -16   2   5    3.85    2.63
 -14   2   5   44.25    2.92
 -12   2   5   27.11    2.18
 -10   2   5  157.34    4.63
  -8   2   5   37.28    2.23
  -6   2   5   12.57    1.41
  -4   2   5    1.71    0.92
  -2   2   5    0.65    0.82
   0   2   5   23.58    1.95
   2   2   5   57.16    2.67
   4   2   5   11.96    1.54
   6   2   5  219.77    6.05
   8   2   5   46.38    3.01
  10   2   5   19.48    2.83
  12   2   5    8.67    2.33
  14   2   5   23.85    3.69
 -19   3   5    4.87    3.56
 -17   3   5   -0.26    2.04
 -15   3   5   68.46    4.89
 -13   3   5    2.27    1.63
 -11   3   5   80.16    3.42
  -9   3   5    4.31    1.33
  -7   3   5   94.14    3.56
  -5   3   5   58.03    3.03
  -3   3   5    1.05    1.23
  -1   3   5  102.42    4.57
   1   3   5  161.68    5.93
   3   3   5   11.95    1.61
   5   3   5   43.89    3.02
   7   3   5   28.46    2.52
   9   3   5    4.94    1.54
  11   3   5    2.42    1.66
  13   3   5   14.09    2.36
 -16   4   5    2.64    2.52
 -14   4   5   22.59    3.16
 -12   4   5   15.41    2.65
 -10   4   5  102.31    5.12
  -8   4   5   16.35    2.52
  -6   4   5    3.07    1.34
  -4   4   5    0.00    1.17
  -2   4   5    0.66    1.51
   0   4   5   10.52    2.17
   2   4   5   30.66    3.21
   4   4   5    2.97    1.74
   6   4   5  132.58    6.15
   8   4   5   27.19    3.34
  10   4   5    9.57    2.58
 -11   5   5   43.40    4.48
  -9   5   5   -0.01    1.91
  -7   5   5   42.26    4.14
  -5   5   5   21.90    3.14
  -3   5   5    1.45    1.90
  -1   5   5   49.01    3.56
   1   5   5   83.95    5.71
   3   5   5    4.64    2.17
   5   5   5   25.54    3.56
  -9  -5   6   13.16    3.00
  -7  -5   6   29.48    5.29
  -5  -5   6   56.88    4.99
  -3  -5   6    0.98    2.01
  -1  -5   6    2.72    2.13
   1  -5   6   72.00    8.18
 -14  -4   6    2.88    2.10
 -12  -4   6   16.34    3.00
 -10  -4   6    9.65    1.97
  -8  -4   6    7.98    2.09
  -6  -4   6   29.87    3.44
  -4  -4   6  154.94    5.68
  -2  -4   6   18.48    2.27
   0  -4   6   13.91    2.09
   2  -4   6   14.38    2.70
   4  -4   6    2.59    2.00
   6  -4   6   -1.65    1.87
   8  -4   6   13.63    4.13
 -19  -3   6    7.17    7.54
 -17  -3   6   -0.99    2.02
 -15  -3   6   12.50    2.57
 -13  -3   6   65.82    5.02
 -11  -3   6    7.49    1.56
  -9  -3   6   25.64    2.44
  -7  -3   6   62.09    3.64
  -5  -3   6   92.73    3.89
  -3  -3   6    7.07    1.47
  -1  -3   6    8.66    1.66
   1  -3   6  116.59    4.56
   3  -3   6   -0.15    1.15
   5  -3   6   16.73    2.23
   7  -3   6    2.86    1.56
   9  -3   6   79.71    5.66
 -20  -2   6   94.42    5.17
 -18  -2   6   42.25    3.62
 -16  -2   6   61.30    4.20
 -14  -2   6    6.11    1.80
 -12  -2   6   25.40    2.76
 -10  -2   6   19.59    2.04
  -8  -2   6   14.56    1.76
  -6  -2   6   52.54    3.13
  -4  -2   6  270.62    7.01
  -2  -2   6   31.90    2.21
   0  -2   6   19.50    2.15
   2  -2   6   26.75    2.49
   4  -2   6    2.71    1.22
   6  -2   6    0.49    1.11
   8  -2   6   18.62    2.39
  10  -2   6   28.92    3.75
  12  -2   6   34.01    4.17
 -21  -1   6   47.81    4.58
 -19  -1   6    6.72    1.85
 -17  -1   6    1.45    1.34
 -15  -1   6   26.01    2.57
 -13  -1   6   88.46    3.97
 -11  -1   6   13.20    1.79
  -9  -1   6   49.78    2.72
  -7  -1   6   86.51    3.38
  -5  -1   6  130.83    4.19
  -3  -1   6   14.18    1.66
  -1  -1   6   22.27    2.04
   1  -1   6  192.52    4.75
   3  -1   6    1.47    0.84
   5  -1   6   32.10    2.56
   7  -1   6    2.44    1.40
   9  -1   6   80.16    5.14
  11  -1   6    0.91    1.76
  13  -1   6   68.81    5.52
 -22   0   6   -2.30    2.56
 -20   0   6   99.52    5.51
 -18   0   6   44.58    3.27
 -16   0   6   72.94    3.62
 -14   0   6    8.07    1.56
 -12   0   6   37.78    2.67
 -10   0   6   21.28    2.02
  -8   0   6   17.90    1.55
  -6   0   6   58.85    2.34
  -4   0   6  336.63    6.42
  -2   0   6   41.17    2.65
   0   0   6   28.58    2.27
   2   0   6   38.83    2.60
   4   0   6    3.33    1.10
   6   0   6    1.54    0.99
   8   0   6   25.14    2.95
  10   0   6   43.63    4.10
  12   0   6   44.08    4.31
  14   0   6    3.11    3.53
 -21   1   6   43.21    6.42
 -19   1   6    5.17    2.07
 -17   1   6   -0.57    1.62
 -15   1   6   17.70    2.52
 -13   1   6   90.26    4.52
 -11   1   6   14.79    1.72
  -9   1   6   52.21    2.76
  -7   1   6   82.47    3.20
  -5   1   6  132.54    4.04
  -3   1   6   13.57    1.56
  -1   1   6   21.22    1.84
   1   1   6  185.93    5.07
   3   1   6   -0.54    1.04
   5   1   6   25.82    2.92
   7   1   6    0.72    1.36
   9   1   6   93.22    5.11
  11   1   6    8.49    3.71
 -20   2   6   81.65    8.62
 -18   2   6   36.72    5.64
 -16   2   6   62.52    4.63
 -14   2   6    4.35    1.86
 -12   2   6   26.33    2.92
 -10   2   6   17.36    2.48
  -8   2   6   11.72    2.06
  -6   2   6   46.67    3.50
  -4   2   6  272.44    6.72
  -2   2   6   31.00    2.37
   0   2   6   20.76    1.98
   2   2   6   25.90    2.19
   4   2   6    4.60    1.26
   6   2   6   -0.46    1.03
   8   2   6   16.22    2.69
  10   2   6   23.73    4.25
  12   2   6   20.43    3.29
 -17   3   6    0.12    2.60
 -15   3   6   17.49    4.16
 -13   3   6   56.76    4.33
 -11   3   6    8.92    2.15
  -9   3   6   33.97    2.63
  -7   3   6   51.60    3.14
  -5   3   6   86.36    3.56
  -3   3   6    8.59    1.85
  -1   3   6   13.13    2.09
   1   3   6  117.58    5.17
   3   3   6    0.63    1.17
   5   3   6   14.22    2.02
   7   3   6    0.33    1.38
  11   3   6   -0.78    2.37
 -14   4   6   -1.56    2.67
 -12   4   6   12.01    3.85
 -10   4   6   11.12    2.45
  -8   4   6    6.67    1.71
  -6   4   6   24.32    2.49
  -4   4   6  161.56    6.42
  -2   4   6   10.84    2.30
   0   4   6   11.24    2.41
   2   4   6   14.18    2.63
   4   4   6    3.62    1.85
   6   4   6    1.89    1.88
   8   4   6   12.03    3.71
  -9   5   6   19.53    4.73
  -7   5   6   33.02    3.93
  -5   5   6   38.48    4.14
  -3   5   6    5.91    1.97
  -1   5   6    6.78    1.97
   1   5   6   66.73    8.05
 -14  -4   7   28.14    5.65
 -12  -4   7    4.89    1.96
 -10  -4   7   94.27    5.92
  -8  -4   7   19.50    3.15
  -6  -4   7    0.79    1.88
  -4  -4   7    0.65    1.73
  -2  -4   7    8.16    1.99
   0  -4   7   51.19    3.96
   2  -4   7   55.50    5.03
   4  -4   7   39.08    6.22
 -17  -3   7   53.53    7.06
 -15  -3   7   32.20    3.81
 -13  -3   7   57.52    4.88
 -11  -3   7    3.05    1.47
  -9  -3   7   18.87    2.31
  -7  -3   7    9.94    1.75
  -5  -3   7    1.67    1.50
  -3  -3   7    0.24    1.16
  -1  -3   7   37.59    3.23
   1  -3   7    3.79    1.55
   3  -3   7   37.23    3.22
   5  -3   7    1.06    1.52
   7  -3   7   98.53    5.24
 -20  -2   7    8.06    4.92
 -18  -2   7    3.04    2.05
 -16  -2   7    8.37    2.33
 -14  -2   7   41.26    4.06
 -12  -2   7    6.38    1.95
 -10  -2   7  141.75    5.05
  -8  -2   7   42.77    3.06
  -6  -2   7    0.63    1.00
  -4  -2   7    0.93    1.06
  -2  -2   7   14.25    2.38
   0  -2   7   75.47    3.86
   2  -2   7   99.01    4.26
   4  -2   7   69.98    4.26
   6  -2   7    2.03    1.69
   8  -2   7    3.16    2.02
  10  -2   7   -0.24    2.02
 -21  -1   7   -2.64    2.34
 -19  -1   7   -0.46    1.51
 -17  -1   7   55.27    3.86
 -15  -1   7   47.19    3.36
 -13  -1   7   84.00    3.85
 -11  -1   7    4.79    1.57
  -9  -1   7   18.21    2.05
  -7  -1   7   13.55    1.73
  -5  -1   7   -0.20    0.81
  -3  -1   7   -0.34    0.86
  -1  -1   7   60.18    3.66
   1  -1   7   12.75    1.81
   3  -1   7   65.68    4.86
   5  -1   7   -0.18    1.35
   7  -1   7  135.72    8.52
   9  -1   7   -1.12    1.71
  11  -1   7   14.87    3.06
 -20   0   7   11.08    2.72
 -18   0   7    2.58    1.97
 -16   0   7   10.36    1.84
 -14   0   7   54.05    3.47
 -12   0   7   11.76    1.76
 -10   0   7  180.83    5.43
  -8   0   7   49.62    2.59
  -6   0   7    0.79    0.94
  -4   0   7    1.52    0.92
  -2   0   7   16.37    1.90
   0   0   7   94.52    3.76
   2   0   7  121.63    4.39
   4   0   7   78.11    3.70
   6   0   7    4.91    2.70
   8   0   7    2.13    2.45
  10   0   7   -0.98    2.54
 -21   1   7    3.08    2.86
 -19   1   7    0.55    1.81
 -17   1   7   56.69    4.57
 -15   1   7   36.13    3.62
 -13   1   7   83.67    4.55
 -11   1   7    4.91    1.37
  -9   1   7   23.06    2.14
  -7   1   7   14.63    1.69
  -5   1   7    0.71    0.95
  -3   1   7    0.79    1.18
  -1   1   7   64.35    4.62
   1   1   7    7.94    1.94
   3   1   7   48.24    4.09
   5   1   7    1.09    1.48
   7   1   7  129.31    6.21
   9   1   7   -0.84    1.74
  11   1   7   14.11    4.59
 -18   2   7   -2.23    2.94
 -16   2   7    7.54    2.19
 -14   2   7   40.83    3.91
 -12   2   7   10.43    2.26
 -10   2   7  133.21    5.71
  -8   2   7   35.61    3.41
  -6   2   7   -1.20    1.16
  -4   2   7    3.73    1.45
  -2   2   7   13.61    1.78
   0   2   7   85.31    3.54
   2   2   7   84.76    4.78
   4   2   7   59.95    4.79
   6   2   7    1.08    1.77
   8   2   7    0.16    1.84
  10   2   7    1.62    2.20
 -15   3   7   23.65    4.90
 -13   3   7   53.06    4.39
 -11   3   7    3.26    1.97
  -9   3   7   18.55    2.76
  -7   3   7    6.78    2.06
  -5   3   7    0.06    1.34
  -3   3   7   -0.07    1.40
  -1   3   7   37.72    3.53
   1   3   7    3.84    1.83
   3   3   7   34.16    3.43
   5   3   7    0.55    1.96
   7   3   7   68.03    7.53
   9   3   7    1.51    3.84
 -12   4   7    7.17    3.75
 -10   4   7   69.47    7.82
  -8   4   7   19.87    3.20
  -6   4   7    0.37    1.86
  -4   4   7    0.72    1.84
  -2   4   7    6.58    2.16
   0   4   7   50.63    4.40
   2   4   7   57.29    4.73
   4   4   7   35.25    5.42
  -8  -4   8   13.03    4.39
  -6  -4   8   17.84    4.98
  -4  -4   8   32.03    5.96
  -2  -4   8   34.51    6.17
   0  -4   8   12.52    4.49
 -15  -3   8    2.48    3.48
 -13  -3   8   -1.06    1.96
 -11  -3   8   21.18    2.62
  -9  -3   8    0.81    1.45
  -7  -3   8   48.03    4.51
  -5  -3   8  130.34    6.49
  -3  -3   8   59.55    5.22
  -1  -3   8    2.38    1.86
   1  -3   8    0.50    1.53
   3  -3   8    8.16    2.03
   5  -3   8   27.20    3.86
 -16  -2   8    3.19    2.19
 -14  -2   8    6.09    2.26
 -12  -2   8    0.69    1.30
 -10  -2   8   82.16    4.10
  -8  -2   8   18.02    2.18
  -6  -2   8   23.28    2.50
  -4  -2   8   47.11    4.41
  -2  -2   8   48.73    4.52
   0  -2   8   23.85    3.28
   2  -2   8   25.82    3.59
   4  -2   8   15.23    3.09
   6  -2   8   64.22    5.51
 -19  -1   8  106.16    8.53
 -17  -1   8   -0.89    1.87
 -15  -1   8   -0.99    1.44
 -13  -1   8    0.52    1.49
 -11  -1   8   27.50    3.19
  -9  -1   8   -0.58    0.96
  -7  -1   8   64.28    3.89
  -5  -1   8  184.85    5.68
  -3  -1   8   77.30    3.82
  -1  -1   8    3.88    1.34
   1  -1   8    1.85    1.64
   3  -1   8   11.99    2.54
   5  -1   8   37.51    4.10
   7  -1   8    9.32    2.78
 -20   0   8    6.58    3.92
 -18   0   8    7.24    2.29
 -16   0   8    2.62    1.68
 -14   0   8   11.90    2.04
 -12   0   8    3.73    1.77
 -10   0   8  103.98    5.18
  -8   0   8   24.68    2.38
  -6   0   8   35.73    2.80
  -4   0   8   47.72    4.11
  -2   0   8   64.59    4.77
   0   0   8   24.32    3.12
   2   0   8   21.99    3.15
   4   0   8   18.97    4.76
   6   0   8   56.93    7.49
   8   0   8    0.05    3.00
 -19   1   8   95.36    6.09
 -17   1   8    0.65    1.79
 -15   1   8    0.07    1.52
 -13   1   8   -0.13    1.56
 -11   1   8   26.22    3.07
  -9   1   8   -0.28    1.14
  -7   1   8   62.30    4.66
  -5   1   8  166.79    6.90
  -3   1   8   80.35    4.99
  -1   1   8    0.84    1.37
   1   1   8    1.47    1.60
   3   1   8    5.29    2.01
   5   1   8   29.11    5.31
   7   1   8    8.30    2.37
 -18   2   8    3.41    3.11
 -16   2   8    7.13    2.35
 -14   2   8   10.69    2.44
 -12   2   8    3.89    1.79
 -10   2   8   77.67    4.69
  -8   2   8   21.07    2.83
  -6   2   8   25.79    2.98
  -4   2   8   29.72    4.78
  -2   2   8   40.83    3.70
   0   2   8   18.13    2.81
   2   2   8   13.98    2.64
   4   2   8    7.46    2.15
   6   2   8   39.72    6.73
 -15   3   8   -4.04    2.59
 -13   3   8    1.06    1.95
 -11   3   8   13.58    2.73
  -9   3   8    5.27    2.02
  -7   3   8   39.84    3.96
  -5   3   8  122.27    5.80
  -3   3   8   46.86    4.13
  -1   3   8    3.87    2.95
   1   3   8    0.99    2.79
   3   3   8    2.56    3.19
 -10   4   8   60.37    7.71
  -8   4   8   14.89    3.20
  -6   4   8   12.88    3.02
  -4   4   8   22.82    3.29
  -2   4   8   22.82    4.64
   0   4   8   16.09    4.20
  -7  -3   9    4.95    2.16
  -5  -3   9   11.23    2.64
  -3  -3   9    3.20    2.19
 -14  -2   9    0.12    2.04
 -12  -2   9    1.94    1.56
 -10  -2   9    9.52    1.98
  -8  -2   9   20.37    2.61
  -6  -2   9   -0.15    1.72
  -4  -2   9   19.15    3.24
  -2  -2   9   46.87    4.64
   0  -2   9   41.14    4.41
   2  -2   9    0.78    1.94
 -17  -1   9   -0.46    3.45
 -15  -1   9   30.06    3.42
 -13  -1   9   77.35    5.70
 -11  -1   9   66.10    5.00
  -9  -1   9   23.41    2.55
  -7  -1   9    3.84    1.47
  -5  -1   9   21.17    2.42
  -3  -1   9    4.42    1.57
  -1  -1   9   18.15    3.02
   1  -1   9  148.78    7.04
   3  -1   9   -2.90    2.25
 -16   0   9  137.71    9.55
 -14   0   9    0.00    1.81
 -12   0   9    3.58    1.85
 -10   0   9   10.58    2.35
  -8   0   9   21.44    2.98
  -6   0   9    0.61    1.68
  -4   0   9   16.70    2.74
  -2   0   9   40.49    4.10
   0   0   9   42.89    4.22
   2   0   9    1.33    2.84
   4   0   9   33.50    6.16
 -17   1   9    2.09    3.58
 -15   1   9   20.42    4.57
 -13   1   9   87.24    8.39
 -11   1   9   59.39    7.01
  -9   1   9   19.61    4.35
  -7   1   9    4.83    2.04
  -5   1   9   13.03    2.54
  -3   1   9    5.01    2.05
  -1   1   9   13.32    2.55
   1   1   9  138.97   10.35
   3   1   9   -3.05    1.66
   5   1   9   11.78    3.86
 -14   2   9    0.65    1.92
 -12   2   9    3.39    2.07
 -10   2   9   16.54    4.11
  -8   2   9   17.04    4.16
  -6   2   9    0.41    2.54
  -4   2   9   16.31    3.76
  -2   2   9   29.52    4.91
   0   2   9   25.80    3.53
   2   2   9   -0.48    2.12
   4   2   9   32.08    6.46
 -11   3   9   28.31    5.27
  -9   3   9   17.24    3.12
  -7   3   9    0.56    3.00
  -5   3   9    3.74    3.31
 -10  -2  10   57.45    7.16
  -8  -2  10   57.94    7.39
  -6  -2  10    3.80    2.89
  -4  -2  10   30.36    5.58
 -11  -1  10    4.37    2.38
  -9  -1  10   32.36    3.80
  -7  -1  10    9.67    2.76
  -5  -1  10   55.64    5.09
  -3  -1  10    4.81    3.53
 -12   0  10   -0.99    1.86
 -10   0  10   67.95    5.40
  -8   0  10   63.39    5.32
  -6   0  10    6.58    2.53
  -4   0  10   48.12    4.68
  -2   0  10   17.26    2.97
  -9   1  10   34.37    5.65
  -7   1  10    2.05    2.85
  -5   1  10   43.98    4.31
  -3   1  10    2.02    2.10
  -1   1  10    2.93    2.45
   0   0   0    0.00    0.00
;
_shelx_hkl_checksum              92842
#END Tags that were not found in dictionaries
loop_
_space_group_symop_operation_xyz
'x, y, z'
'-x, y, -z'
'x+1/2, y+1/2, z'
'-x+1/2, y+1/2, -z'
'-x, -y, -z'
'x, -y, z'
'-x+1/2, -y+1/2, -z'
'x+1/2, -y+1/2, z'
loop_
_atom_site_label
_atom_site_type_symbol
_atom_site_fract_x
_atom_site_fract_y
_atom_site_fract_z
_atom_site_U_iso_or_equiv
_atom_site_adp_type
_atom_site_occupancy
_atom_site_site_symmetry_order
_atom_site_calc_flag
_atom_site_refinement_flags_posn
_atom_site_refinement_flags_adp
_atom_site_refinement_flags_occupancy
Er1 Er 0.34794(4) 0.0000 0.06828(8) 0.00911(14) Uani 1 2 d S T P
Er2 Er 0.58744(3) 0.0000 0.38492(8) 0.00865(14) Uani 1 2 d S T P
Ru Ru 0.22059(6) 0.0000 0.63335(13) 0.00852(19) Uani 1 2 d S T P
In In 0.0000 0.0000 0.0000 0.0106(3) Uani 0.980(5) 4 d S T .
Ge1 Ge 0.06421(8) 0.0000 0.65998(19) 0.0095(2) Uani 1 2 d S T P
Ge2 Ge 0.19976(9) 0.0000 0.25934(19) 0.0100(2) Uani 1 2 d S T P
loop_
_atom_site_aniso_label
_atom_site_aniso_U_11
_atom_site_aniso_U_22
_atom_site_aniso_U_33
_atom_site_aniso_U_23
_atom_site_aniso_U_13
_atom_site_aniso_U_12
Er1 0.0119(2) 0.0088(2) 0.0061(2) 0.000 0.00167(18) 0.000
Er2 0.0113(3) 0.0082(2) 0.0070(2) 0.000 0.00360(18) 0.000
Ru 0.0113(4) 0.0081(4) 0.0064(4) 0.000 0.0029(3) 0.000
In 0.0121(6) 0.0136(6) 0.0064(6) 0.000 0.0028(4) 0.000
Ge1 0.0114(6) 0.0087(5) 0.0082(5) 0.000 0.0023(4) 0.000
Ge2 0.0172(6) 0.0065(5) 0.0071(5) 0.000 0.0046(5) 0.000
loop_
_atom_type_symbol
_atom_type_description
_atom_type_scat_dispersion_real
_atom_type_scat_dispersion_imag
_atom_type_scat_source
Ge Ge 0.1547 1.8001 'International Tables Vol C Tables 4.2.6.8 and 6.1.1.4'
Ru Ru -1.2594 0.8363 'International Tables Vol C Tables 4.2.6.8 and 6.1.1.4'
In In -0.7276 1.3100 'International Tables Vol C Tables 4.2.6.8 and 6.1.1.4'
Er Er -0.2586 4.9576 'International Tables Vol C Tables 4.2.6.8 and 6.1.1.4'
loop_
_geom_angle_atom_site_label_1
_geom_angle_atom_site_label_2
_geom_angle_atom_site_label_3
_geom_angle
_geom_angle_site_symmetry_1
_geom_angle_site_symmetry_3
Ge1 Er1 Ge1 93.82(4) 7_556 7_546
Ge1 Er1 Ge2 89.49(4) 7_556 .
Ge1 Er1 Ge2 89.49(4) 7_546 .
Ge1 Er1 Ge2 164.23(4) 7_556 7_545
Ge1 Er1 Ge2 86.77(4) 7_546 7_545
Ge2 Er1 Ge2 106.27(3) . 7_545
Ge1 Er1 Ge2 86.77(4) 7_556 7
Ge1 Er1 Ge2 164.23(4) 7_546 7
Ge2 Er1 Ge2 106.27(3) . 7
Ge2 Er1 Ge2 88.46(4) 7_545 7
Ge1 Er1 Ru 132.99(2) 7_556 1_554
Ge1 Er1 Ru 132.99(2) 7_546 1_554
Ge2 Er1 Ru 94.23(4) . 1_554
Ge2 Er1 Ru 47.29(2) 7_545 1_554
Ge2 Er1 Ru 47.29(2) 7 1_554
Ge1 Er1 In 53.40(3) 7_556 3
Ge1 Er1 In 109.76(3) 7_546 3
Ge2 Er1 In 137.945(16) . 3
Ge2 Er1 In 111.66(3) 7_545 3
Ge2 Er1 In 58.45(3) 7 3
Ru Er1 In 98.24(2) 1_554 3
Ge1 Er1 In 109.76(3) 7_556 3_545
Ge1 Er1 In 53.40(3) 7_546 3_545
Ge2 Er1 In 137.945(16) . 3_545
Ge2 Er1 In 58.45(3) 7_545 3_545
Ge2 Er1 In 111.66(3) 7 3_545
Ru Er1 In 98.24(2) 1_554 3_545
In Er1 In 79.54(3) 3 3_545
Ge1 Er1 Ru 46.41(3) 7_556 7_556
Ge1 Er1 Ru 103.62(4) 7_546 7_556
Ge2 Er1 Ru 45.32(2) . 7_556
Ge2 Er1 Ru 148.43(3) 7_545 7_556
Ge2 Er1 Ru 88.18(3) 7 7_556
Ru Er1 Ru 111.97(3) 1_554 7_556
In Er1 Ru 93.02(2) 3 7_556
In Er1 Ru 149.66(2) 3_545 7_556
Ge1 Er1 Ru 103.62(4) 7_556 7_546
Ge1 Er1 Ru 46.41(3) 7_546 7_546
Ge2 Er1 Ru 45.32(2) . 7_546
Ge2 Er1 Ru 88.18(3) 7_545 7_546
Ge2 Er1 Ru 148.43(3) 7 7_546
Ru Er1 Ru 111.97(3) 1_554 7_546
In Er1 Ru 149.66(2) 3 7_546
In Er1 Ru 93.02(2) 3_545 7_546
Ru Er1 Ru 78.60(3) 7_556 7_546
Ge1 Er1 Er2 111.84(3) 7_556 5_655
Ge1 Er1 Er2 111.84(3) 7_546 5_655
Ge2 Er1 Er2 147.74(3) . 5_655
Ge2 Er1 Er2 53.92(3) 7_545 5_655
Ge2 Er1 Er2 53.92(3) 7 5_655
Ru Er1 Er2 53.52(3) 1_554 5_655
In Er1 Er2 58.540(12) 3 5_655
In Er1 Er2 58.540(12) 3_545 5_655
Ru Er1 Er2 140.092(16) 7_556 5_655
Ru Er1 Er2 140.092(16) 7_546 5_655
Ge1 Er1 Er1 143.42(4) 7_556 7_545
Ge1 Er1 Er1 86.86(3) 7_546 7_545
Ge2 Er1 Er1 53.93(3) . 7_545
Ge2 Er1 Er1 52.34(3) 7_545 7_545
Ge2 Er1 Er1 102.03(3) 7 7_545
Ru Er1 Er1 59.31(2) 1_554 7_545
In Er1 Er1 157.40(3) 3 7_545
In Er1 Er1 99.89(3) 3_545 7_545
Ru Er1 Er1 97.90(3) 7_556 7_545
Ru Er1 Er1 52.66(2) 7_546 7_545
Er2 Er1 Er1 101.63(2) 5_655 7_545
Ge1 Er2 Ge1 92.11(4) 3 3_545
Ge1 Er2 Ru 109.60(3) 3 5_656
Ge1 Er2 Ru 109.60(3) 3_545 5_656
Ge1 Er2 Ge2 82.68(3) 3 3
Ge1 Er2 Ge2 151.53(4) 3_545 3
Ru Er2 Ge2 47.88(2) 5_656 3
Ge1 Er2 Ge2 151.53(4) 3 3_545
Ge1 Er2 Ge2 82.68(3) 3_545 3_545
Ru Er2 Ge2 47.88(2) 5_656 3_545
Ge2 Er2 Ge2 88.68(4) 3 3_545
Ge1 Er2 Ru 48.56(3) 3 3
Ge1 Er2 Ru 108.58(4) 3_545 3
Ru Er2 Ru 61.05(3) 5_656 3
Ge2 Er2 Ru 48.39(3) 3 3
Ge2 Er2 Ru 106.72(4) 3_545 3
Ge1 Er2 Ru 108.58(4) 3 3_545
Ge1 Er2 Ru 48.56(3) 3_545 3_545
Ru Er2 Ru 61.05(3) 5_656 3_545
Ge2 Er2 Ru 106.72(4) 3 3_545
Ge2 Er2 Ru 48.39(3) 3_545 3_545
Ru Er2 Ru 85.81(3) 3 3_545
Ge1 Er2 Ge1 108.78(3) 3 7_546
Ge1 Er2 Ge1 49.01(5) 3_545 7_546
Ru Er2 Ge1 136.34(2) 5_656 7_546
Ge2 Er2 Ge1 158.26(4) 3 7_546
Ge2 Er2 Ge1 88.83(4) 3_545 7_546
Ru Er2 Ge1 151.76(3) 3 7_546
Ru Er2 Ge1 87.50(3) 3_545 7_546
Ge1 Er2 Ge1 49.01(5) 3 7_556
Ge1 Er2 Ge1 108.78(3) 3_545 7_556
Ru Er2 Ge1 136.34(2) 5_656 7_556
Ge2 Er2 Ge1 88.83(4) 3 7_556
Ge2 Er2 Ge1 158.26(4) 3_545 7_556
Ru Er2 Ge1 87.50(3) 3 7_556
Ru Er2 Ge1 151.76(3) 3_545 7_556
Ge1 Er2 Ge1 85.54(4) 7_546 7_556
Ge1 Er2 In 150.30(3) 3 3_545
Ge1 Er2 In 87.91(3) 3_545 3_545
Ru Er2 In 98.27(2) 5_656 3_545
Ge2 Er2 In 110.24(3) 3 3_545
Ge2 Er2 In 57.81(3) 3_545 3_545
Ru Er2 In 156.60(2) 3 3_545
Ru Er2 In 93.55(2) 3_545 3_545
Ge1 Er2 In 51.24(3) 7_546 3_545
Ge1 Er2 In 103.15(3) 7_556 3_545
Ge1 Er2 In 87.91(3) 3 3
Ge1 Er2 In 150.30(3) 3_545 3
Ru Er2 In 98.27(2) 5_656 3
Ge2 Er2 In 57.81(3) 3 3
Ge2 Er2 In 110.24(3) 3_545 3
Ru Er2 In 93.55(2) 3 3
Ru Er2 In 156.60(2) 3_545 3
Ge1 Er2 In 103.15(3) 7_546 3
Ge1 Er2 In 51.24(3) 7_556 3
In Er2 In 77.89(3) 3_545 3
Ge1 Er2 Er2 56.73(3) 3 5_656
Ge1 Er2 Er2 56.73(3) 3_545 5_656
Ru Er2 Er2 156.67(3) 5_656 5_656
Ge2 Er2 Er2 135.58(2) 3 5_656
Ge2 Er2 Er2 135.58(2) 3_545 5_656
Ru Er2 Er2 103.11(3) 3 5_656
Ru Er2 Er2 103.11(3) 3_545 5_656
Ge1 Er2 Er2 52.05(2) 7_546 5_656
Ge1 Er2 Er2 52.05(2) 7_556 5_656
In Er2 Er2 99.82(2) 3_545 5_656
In Er2 Er2 99.82(2) 3 5_656
Ge2 Ru Ge2 119.01(7) 7_556 7_546
Ge2 Ru Ge1 113.27(4) 7_556 .
Ge2 Ru Ge1 113.27(4) 7_546 .
Ge2 Ru Ge2 102.40(4) 7_556 .
Ge2 Ru Ge2 102.40(4) 7_546 .
Ge1 Ru Ge2 103.83(5) . .
Ge2 Ru Er2 66.13(3) 7_556 5_656
Ge2 Ru Er2 66.13(3) 7_546 5_656
Ge1 Ru Er2 178.23(5) . 5_656
Ge2 Ru Er2 77.93(4) . 5_656
Ge2 Ru Er1 65.18(3) 7_556 1_556
Ge2 Ru Er1 65.18(3) 7_546 1_556
Ge1 Ru Er1 106.94(5) . 1_556
Ge2 Ru Er1 149.23(5) . 1_556
Er2 Ru Er1 71.29(3) 5_656 1_556
Ge2 Ru Er2 161.96(4) 7_556 3_445
Ge2 Ru Er2 77.15(4) 7_546 3_445
Ge1 Ru Er2 62.17(3) . 3_445
Ge2 Ru Er2 64.13(3) . 3_445
Er2 Ru Er2 118.95(3) 5_656 3_445
Er1 Ru Er2 132.53(2) 1_556 3_445
Ge2 Ru Er2 77.15(4) 7_556 3_455
Ge2 Ru Er2 161.96(4) 7_546 3_455
Ge1 Ru Er2 62.17(3) . 3_455
Ge2 Ru Er2 64.13(3) . 3_455
Er2 Ru Er2 118.95(3) 5_656 3_455
Er1 Ru Er2 132.53(2) 1_556 3_455
Er2 Ru Er2 85.81(3) 3_445 3_455
Ge2 Ru Ru 123.76(5) 7_556 7_546
Ge2 Ru Ru 52.06(4) 7_546 7_546
Ge1 Ru Ru 120.30(4) . 7_546
Ge2 Ru Ru 50.34(3) . 7_546
Er2 Ru Ru 60.80(3) 5_656 7_546
Er1 Ru Ru 111.28(4) 1_556 7_546
Er2 Ru Ru 58.15(3) 3_445 7_546
Er2 Ru Ru 113.39(5) 3_455 7_546
Ge2 Ru Ru 52.06(4) 7_556 7_556
Ge2 Ru Ru 123.76(5) 7_546 7_556
Ge1 Ru Ru 120.30(4) . 7_556
Ge2 Ru Ru 50.34(3) . 7_556
Er2 Ru Ru 60.80(3) 5_656 7_556
Er1 Ru Ru 111.28(4) 1_556 7_556
Er2 Ru Ru 113.39(5) 3_445 7_556
Er2 Ru Ru 58.15(3) 3_455 7_556
Ru Ru Ru 85.56(5) 7_546 7_556
Ge2 Ru Er1 59.36(3) 7_556 7_556
Ge2 Ru Er1 125.58(5) 7_546 7_556
Ge1 Ru Er1 57.39(3) . 7_556
Ge2 Ru Er1 131.91(3) . 7_556
Er2 Ru Er1 121.44(2) 5_656 7_556
Er1 Ru Er1 68.03(3) 1_556 7_556
Er2 Ru Er1 119.53(4) 3_445 7_556
Er2 Ru Er1 68.32(3) 3_455 7_556
Ru Ru Er1 176.48(3) 7_546 7_556
Ru Ru Er1 97.92(3) 7_556 7_556
Ge2 Ru Er1 125.58(5) 7_556 7_546
Ge2 Ru Er1 59.36(3) 7_546 7_546
Ge1 Ru Er1 57.39(3) . 7_546
Ge2 Ru Er1 131.91(3) . 7_546
Er2 Ru Er1 121.44(2) 5_656 7_546
Er1 Ru Er1 68.03(3) 1_556 7_546
Er2 Ru Er1 68.32(3) 3_445 7_546
Er2 Ru Er1 119.53(4) 3_455 7_546
Ru Ru Er1 97.92(3) 7_546 7_546
Ru Ru Er1 176.48(3) 7_556 7_546
Er1 Ru Er1 78.60(3) 7_556 7_546
Ge1 In Ge1 180.00(4) 5_556 1_554
Ge1 In Ge2 93.09(4) 5_556 .
Ge1 In Ge2 86.91(4) 1_554 .
Ge1 In Ge2 86.91(4) 5_556 5
Ge1 In Ge2 93.09(4) 1_554 5
Ge2 In Ge2 180.0 . 5
Ge1 In Er1 55.815(19) 5_556 3_445
Ge1 In Er1 124.185(19) 1_554 3_445
Ge2 In Er1 123.64(2) . 3_445
Ge2 In Er1 56.36(2) 5 3_445
Ge1 In Er1 124.185(19) 5_556 7
Ge1 In Er1 55.815(19) 1_554 7
Ge2 In Er1 56.36(2) . 7
Ge2 In Er1 123.64(2) 5 7
Er1 In Er1 180.000(12) 3_445 7
Ge1 In Er1 124.185(19) 5_556 7_545
Ge1 In Er1 55.815(19) 1_554 7_545
Ge2 In Er1 56.36(2) . 7_545
Ge2 In Er1 123.64(2) 5 7_545
Er1 In Er1 100.46(3) 3_445 7_545
Er1 In Er1 79.54(3) 7 7_545
Ge1 In Er1 55.815(19) 5_556 3_455
Ge1 In Er1 124.185(19) 1_554 3_455
Ge2 In Er1 123.64(2) . 3_455
Ge2 In Er1 56.36(2) 5 3_455
Er1 In Er1 79.54(3) 3_445 3_455
Er1 In Er1 100.46(3) 7 3_455
Er1 In Er1 180.000(12) 7_545 3_455
Ge1 In Er2 59.78(3) 5_556 3_455
Ge1 In Er2 120.22(3) 1_554 3_455
Ge2 In Er2 55.607(18) . 3_455
Ge2 In Er2 124.393(18) 5 3_455
Er1 In Er2 115.48(2) 3_445 3_455
Er1 In Er2 64.52(2) 7 3_455
Er1 In Er2 111.96(2) 7_545 3_455
Er1 In Er2 68.04(2) 3_455 3_455
Ge1 In Er2 120.22(3) 5_556 7_545
Ge1 In Er2 59.78(3) 1_554 7_545
Ge2 In Er2 124.393(18) . 7_545
Ge2 In Er2 55.607(18) 5 7_545
Er1 In Er2 64.52(2) 3_445 7_545
Er1 In Er2 115.48(2) 7 7_545
Er1 In Er2 68.04(2) 7_545 7_545
Er1 In Er2 111.96(2) 3_455 7_545
Er2 In Er2 180.000(13) 3_455 7_545
Ge1 In Er2 120.22(3) 5_556 7
Ge1 In Er2 59.78(3) 1_554 7
Ge2 In Er2 124.393(18) . 7
Ge2 In Er2 55.607(18) 5 7
Er1 In Er2 111.96(2) 3_445 7
Er1 In Er2 68.04(2) 7 7
Er1 In Er2 115.48(2) 7_545 7
Er1 In Er2 64.52(2) 3_455 7
Er2 In Er2 102.11(3) 3_455 7
Er2 In Er2 77.89(3) 7_545 7
Ge1 In Er2 59.78(3) 5_556 3_445
Ge1 In Er2 120.22(3) 1_554 3_445
Ge2 In Er2 55.607(18) . 3_445
Ge2 In Er2 124.393(18) 5 3_445
Er1 In Er2 68.04(2) 3_445 3_445
Er1 In Er2 111.96(2) 7 3_445
Er1 In Er2 64.52(2) 7_545 3_445
Er1 In Er2 115.48(2) 3_455 3_445
Er2 In Er2 77.89(3) 3_455 3_445
Er2 In Er2 102.11(3) 7_545 3_445
Er2 In Er2 180.000(18) 7 3_445
Ru Ge1 Ge1 118.50(8) . 5_556
Ru Ge1 In 130.78(5) . 1_556
Ge1 Ge1 In 110.72(7) 5_556 1_556
Ru Ge1 Er1 76.21(4) . 7_556
Ge1 Ge1 Er1 132.56(2) 5_556 7_556
In Ge1 Er1 70.79(3) 1_556 7_556
Ru Ge1 Er1 76.21(4) . 7_546
Ge1 Ge1 Er1 132.56(2) 5_556 7_546
In Ge1 Er1 70.79(3) 1_556 7_546
Er1 Ge1 Er1 93.82(4) 7_556 7_546
Ru Ge1 Er2 69.27(3) . 3_445
Ge1 Ge1 Er2 69.17(4) 5_556 3_445
In Ge1 Er2 133.09(2) 1_556 3_445
Er1 Ge1 Er2 145.44(5) 7_556 3_445
Er1 Ge1 Er2 76.82(3) 7_546 3_445
Ru Ge1 Er2 69.27(3) . 3_455
Ge1 Ge1 Er2 69.17(4) 5_556 3_455
In Ge1 Er2 133.09(2) 1_556 3_455
Er1 Ge1 Er2 76.82(3) 7_556 3_455
Er1 Ge1 Er2 145.44(5) 7_546 3_455
Er2 Ge1 Er2 92.11(4) 3_445 3_455
Ru Ge1 Er2 135.99(2) . 7_546
Ge1 Ge1 Er2 61.82(4) 5_556 7_546
In Ge1 Er2 68.99(3) 1_556 7_546
Er1 Ge1 Er2 139.59(5) 7_556 7_546
Er1 Ge1 Er2 76.68(3) 7_546 7_546
Er2 Ge1 Er2 71.22(3) 3_445 7_546
Er2 Ge1 Er2 130.99(5) 3_455 7_546
Ru Ge1 Er2 135.99(2) . 7_556
Ge1 Ge1 Er2 61.82(4) 5_556 7_556
In Ge1 Er2 68.99(3) 1_556 7_556
Er1 Ge1 Er2 76.68(3) 7_556 7_556
Er1 Ge1 Er2 139.59(5) 7_546 7_556
Er2 Ge1 Er2 130.99(5) 3_445 7_556
Er2 Ge1 Er2 71.22(3) 3_455 7_556
Er2 Ge1 Er2 85.54(4) 7_546 7_556
Ru Ge2 Ru 119.01(7) 7_556 7_546
Ru Ge2 Ru 77.60(4) 7_556 .
Ru Ge2 Ru 77.60(4) 7_546 .
Ru Ge2 Er1 75.32(4) 7_556 .
Ru Ge2 Er1 75.32(4) 7_546 .
Ru Ge2 Er1 125.00(5) . .
Ru Ge2 Er2 142.91(5) 7_556 3_445
Ru Ge2 Er2 65.99(3) 7_546 3_445
Ru Ge2 Er2 67.48(3) . 3_445
Er1 Ge2 Er2 135.60(2) . 3_445
Ru Ge2 Er2 65.99(3) 7_556 3_455
Ru Ge2 Er2 142.91(5) 7_546 3_455
Ru Ge2 Er2 67.48(3) . 3_455
Er1 Ge2 Er2 135.60(2) . 3_455
Er2 Ge2 Er2 88.69(4) 3_445 3_455
Ru Ge2 Er1 145.08(5) 7_556 7_545
Ru Ge2 Er1 67.53(3) 7_546 7_545
Ru Ge2 Er1 134.50(2) . 7_545
Er1 Ge2 Er1 73.73(3) . 7_545
Er2 Ge2 Er1 72.01(3) 3_445 7_545
Er2 Ge2 Er1 131.77(5) 3_455 7_545
Ru Ge2 Er1 67.53(3) 7_556 7
Ru Ge2 Er1 145.08(5) 7_546 7
Ru Ge2 Er1 134.50(2) . 7
Er1 Ge2 Er1 73.73(3) . 7
Er2 Ge2 Er1 131.77(5) 3_445 7
Er2 Ge2 Er1 72.01(3) 3_455 7
Er1 Ge2 Er1 88.46(4) 7_545 7
Ru Ge2 In 120.49(3) 7_556 .
Ru Ge2 In 120.49(3) 7_546 .
Ru Ge2 In 113.85(5) . .
Er1 Ge2 In 121.15(5) . .
Er2 Ge2 In 66.58(3) 3_445 .
Er2 Ge2 In 66.58(3) 3_455 .
Er1 Ge2 In 65.20(3) 7_545 .
Er1 Ge2 In 65.20(3) 7 .
loop_
_geom_bond_atom_site_label_1
_geom_bond_atom_site_label_2
_geom_bond_distance
_geom_bond_site_symmetry_2
Er1 Ge1 2.8931(11) 7_556
Er1 Ge1 2.8931(11) 7_546
Er1 Ge2 2.9666(15) .
Er1 Ge2 3.0287(12) 7_545
Er1 Ge2 3.0287(12) 7
Er1 Ru 3.0837(13) 1_554
Er1 In 3.3025(8) 3
Er1 In 3.3025(8) 3_545
Er1 Ru 3.3355(10) 7_556
Er1 Ru 3.3355(10) 7_546
Er1 Er2 3.5571(12) 5_655
Er1 Er1 3.5971(12) 7_545
Er2 Ge1 2.9342(11) 3
Er2 Ge1 2.9342(11) 3_545
Er2 Ru 3.0196(14) 5_656
Er2 Ge2 3.0227(11) 3
Er2 Ge2 3.0227(11) 3_545
Er2 Ru 3.1032(10) 3
Er2 Ru 3.1032(10) 3_545
Er2 Ge1 3.1112(12) 7_546
Er2 Ge1 3.1112(12) 7_556
Er2 In 3.3612(8) 3_545
Er2 In 3.3612(8) 3
Er2 Er2 3.5230(13) 5_656
Ru Ge2 2.4518(10) 7_556
Ru Ge2 2.4518(10) 7_546
Ru Ge1 2.4876(17) .
Ru Ge2 2.5120(17) .
Ru Er2 3.0195(14) 5_656
Ru Er1 3.0836(13) 1_556
Ru Er2 3.1032(10) 3_445
Ru Er2 3.1032(10) 3_455
Ru Ru 3.1107(14) 7_546
Ru Ru 3.1107(14) 7_556
Ru Er1 3.3356(10) 7_556
Ru Er1 3.3356(10) 7_546
In Ge1 2.8076(14) 5_556
In Ge1 2.8076(14) 1_554
In Ge2 3.1001(15) .
In Ge2 3.1002(15) 5
In Er1 3.3025(8) 3_445
In Er1 3.3025(8) 7
In Er1 3.3025(8) 7_545
In Er1 3.3025(8) 3_455
In Er2 3.3612(8) 3_455
In Er2 3.3612(8) 7_545
In Er2 3.3612(8) 7
In Er2 3.3612(8) 3_445
Ge1 Ge1 2.513(3) 5_556
Ge1 In 2.8076(14) 1_556
Ge1 Er1 2.8931(11) 7_556
Ge1 Er1 2.8931(11) 7_546
Ge1 Er2 2.9343(11) 3_445
Ge1 Er2 2.9343(11) 3_455
Ge1 Er2 3.1112(12) 7_546
Ge1 Er2 3.1112(12) 7_556
Ge2 Ru 2.4518(10) 7_556
Ge2 Ru 2.4518(10) 7_546
Ge2 Er2 3.0227(11) 3_445
Ge2 Er2 3.0227(11) 3_455
Ge2 Er1 3.0287(12) 7_545
Ge2 Er1 3.0287(12) 7
