#------------------------------------------------------------------------------
#$Date: 2016-03-24 00:14:39 +0200 (Thu, 24 Mar 2016) $
#$Revision: 179528 $
#$URL: svn://www.crystallography.net/cod/cif/4/34/25/4342574.cif $
#------------------------------------------------------------------------------
#
# This file is available in the Crystallography Open Database (COD),
# http://www.crystallography.net/
#
# All data on this site have been placed in the public domain by the
# contributors.
#
data_4342574
loop_
_publ_author_name
'Oliynyk, Anton O.'
'Stoyko, Stanislav S.'
'Mar, Arthur'
_publ_section_title
;
 Many Metals Make the Cut: Quaternary Rare-Earth Germanides RE4M2InGe4 (M
 = Fe, Co, Ni, Ru, Rh, Ir) and RE4RhInGe4 Derived from Excision of Slabs
 in RE2InGe2.
;
_journal_issue                   6
_journal_name_full               'Inorganic chemistry'
_journal_page_first              2780
_journal_page_last               2792
_journal_paper_doi               10.1021/ic502955h
_journal_volume                  54
_journal_year                    2015
_chemical_formula_structural     'Sm4 Ru2 In Ge4'
_chemical_formula_sum            'Ge4 In Ru2 Sm4'
_chemical_formula_weight         1208.72
_chemical_name_common
'samarium ruthenium indium germanide (4/2/1/4)'
_chemical_name_systematic
'samarium ruthenium indium germanide (4/2/1/4)'
_space_group_crystal_system      monoclinic
_space_group_IT_number           12
_space_group_name_Hall           '-C 2y'
_space_group_name_H-M_alt        'C 1 2/m 1'
_symmetry_space_group_name_Hall  '-C 2y'
_symmetry_space_group_name_H-M   'C 1 2/m 1'
_atom_sites_solution_primary     direct
_atom_sites_solution_secondary   difmap
_audit_creation_method           SHELXL-2013
_cell_angle_alpha                90
_cell_angle_beta                 106.517(2)
_cell_angle_gamma                90
_cell_formula_units_Z            2
_cell_length_a                   15.877(3)
_cell_length_b                   4.3178(7)
_cell_length_c                   7.0936(12)
_cell_measurement_reflns_used    1891
_cell_measurement_temperature    173(2)
_cell_measurement_theta_max      32.45
_cell_measurement_theta_min      3.00
_cell_volume                     466.23(14)
_computing_cell_refinement       'Bruker SAINT 8.27B (Bruker, 2011)'
_computing_data_collection       'Bruker APEX 2 (Bruker, 2008)'
_computing_data_reduction        'Bruker SAINT 8.27B'
_computing_molecular_graphics    'ATOMS 5.1 (Dowty, 1999)'
_computing_publication_material  'Bruker SHELXTL'
_computing_structure_refinement  'Bruker SHELXTL'
_computing_structure_solution    'Bruker SHELXTL'
_diffrn_ambient_temperature      173(2)
_diffrn_measured_fraction_theta_full 1.000
_diffrn_measured_fraction_theta_max 0.990
_diffrn_measurement_device_type  'Bruker PLATFORM/SMART APEX II CCD'
_diffrn_measurement_method       '\w and \f scans'
_diffrn_radiation_type           MoK\a
_diffrn_radiation_wavelength     0.71073
_diffrn_reflns_av_R_equivalents  0.0340
_diffrn_reflns_av_unetI/netI     0.0310
_diffrn_reflns_Laue_measured_fraction_full 1.000
_diffrn_reflns_Laue_measured_fraction_max 0.990
_diffrn_reflns_limit_h_max       24
_diffrn_reflns_limit_h_min       -24
_diffrn_reflns_limit_k_max       6
_diffrn_reflns_limit_k_min       -6
_diffrn_reflns_limit_l_max       10
_diffrn_reflns_limit_l_min       -10
_diffrn_reflns_number            3389
_diffrn_reflns_point_group_measured_fraction_full 1.000
_diffrn_reflns_point_group_measured_fraction_max 0.990
_diffrn_reflns_theta_full        25.242
_diffrn_reflns_theta_max         33.225
_diffrn_reflns_theta_min         2.676
_diffrn_source                   'fine-focus sealed tube'
_exptl_absorpt_coefficient_mu    42.910
_exptl_absorpt_correction_T_max  0.5728
_exptl_absorpt_correction_T_min  0.1100
_exptl_absorpt_correction_type   numerical
_exptl_absorpt_process_details   'Bruker SHELXTL (Sheldrick, 2013)'
_exptl_crystal_colour            grey
_exptl_crystal_density_diffrn    8.610
_exptl_crystal_density_method    'not measured'
_exptl_crystal_description       irregular
_exptl_crystal_F_000             1026
_exptl_crystal_size_max          0.091
_exptl_crystal_size_mid          0.021
_exptl_crystal_size_min          0.019
_refine_diff_density_max         2.114
_refine_diff_density_min         -2.113
_refine_diff_density_rms         0.437
_refine_ls_extinction_coef       0.00087(6)
_refine_ls_extinction_expression Fc^*^=kFc[1+0.001xFc^2^\l^3^/sin(2\q)]^-1/4^
_refine_ls_extinction_method     SHELXL
_refine_ls_goodness_of_fit_ref   1.053
_refine_ls_hydrogen_treatment    undef
_refine_ls_matrix_type           full
_refine_ls_number_parameters     37
_refine_ls_number_reflns         988
_refine_ls_number_restraints     0
_refine_ls_restrained_S_all      1.053
_refine_ls_R_factor_all          0.0290
_refine_ls_R_factor_gt           0.0221
_refine_ls_shift/su_max          0.001
_refine_ls_shift/su_mean         0.000
_refine_ls_structure_factor_coef Fsqd
_refine_ls_weighting_details
'w=1/[\s^2^(Fo^2^)+(0.0181P)^2^] where P=(Fo^2^+2Fc^2^)/3'
_refine_ls_weighting_scheme      calc
_refine_ls_wR_factor_gt          0.0422
_refine_ls_wR_factor_ref         0.0439
_reflns_Friedel_coverage         0.000
_reflns_number_gt                849
_reflns_number_total             988
_reflns_threshold_expression     'I > 2\s(I)'
_cod_data_source_file            ic502955h_si_004.cif
_cod_data_source_block           Sm4Ru2InGe4
_cod_depositor_comments
'Adding full bibliography for 4342570--4342590.cif.'
_cod_original_cell_volume        466.23(13)
_cod_database_code               4342574
#BEGIN Tags that were not found in dictionaries:
_shelx_space_group_comment
;
The symmetry employed for this shelxl refinement is uniquely defined
by the following loop, which should always be used as a source of
symmetry information in preference to the above space-group names.
They are only intended as comments.
;
_shelx_estimated_absorpt_t_min   0.112
_shelx_estimated_absorpt_t_max   0.496
_shelxl_version_number           2013-4
_shelx_res_file
;
TITL Sm4Ru2InGe4 C2/m lsf final refinement
CELL 0.71073  15.87730   4.31780   7.09360  90.0000 106.5174  90.0000
ZERR    2.00   0.00260   0.00070   0.00120   0.0000   0.0023   0.0000
LATT  7
SYMM -X, Y, -Z
SFAC GE RU IN SM
UNIT 8 4 2 8
TEMP -100
SIZE 0.019 0.021 0.091

L.S. 4
ACTA

WGHT    0.018100
EXTI    0.000866
FVAR       0.04645
SM1   4    0.349015    0.000000    0.064766    10.50000    0.00668    0.00686 =
         0.00542    0.00000    0.00140    0.00000
SM2   4    0.588092    0.000000    0.382647    10.50000    0.00636    0.00599 =
         0.00632    0.00000    0.00267    0.00000
RU    2    0.219202    0.000000    0.629207    10.50000    0.00552    0.00526 =
         0.00574    0.00000    0.00215    0.00000
IN    3    0.000000    0.000000    0.000000     0.24134    0.00886    0.00905 =
         0.00723    0.00000    0.00317    0.00000
GE1   1    0.064887    0.000000    0.656159    10.50000    0.00626    0.00641 =
         0.00556    0.00000    0.00143    0.00000
GE2   1    0.206425    0.000000    0.268681    10.50000    0.00881    0.00549 =
         0.00642    0.00000    0.00291    0.00000
HKLF 4

REM  Sm4Ru2InGe4 C2/m lsf final refinement
REM R1 =  0.0221 for     849 Fo > 4sig(Fo)  and  0.0290 for all     988 data
REM     37 parameters refined using      0 restraints

END

WGHT      0.0181      0.0000

REM Highest difference peak  2.114,  deepest hole -2.113,  1-sigma level  0.437
Q1    1   0.3112  0.0000  0.7701  10.50000  0.05    2.11
Q2    1   0.5390 -0.3135  0.3720  11.00000  0.05    1.60
Q3    1   0.4676  0.0000 -0.0305  10.50000  0.05    1.60
Q4    1   0.1896  0.3214  0.5405  11.00000  0.05    1.58
Q5    1   0.0105  0.0000  0.2045  10.50000  0.05    1.54
Q6    1   0.6490  0.0000  0.5677  10.50000  0.05    1.50
Q7    1   0.6065 -0.1458  0.3259  11.00000  0.05    1.47
Q8    1   0.2317  0.1740  0.2680  11.00000  0.05    1.46
Q9    1   0.4791  0.0000  0.3834  10.50000  0.05    1.38
Q10   1   0.1797  0.1356  0.2665  11.00000  0.05    1.35
Q11   1   0.1913  0.1008  0.3712  11.00000  0.05    1.32
Q12   1   0.1864  0.1526  0.6108  11.00000  0.05    1.31
Q13   1   0.6710  0.0000  0.4838  10.50000  0.05    1.31
Q14   1   0.5635 -0.1371  0.4182  11.00000  0.05    1.31
Q15   1   0.1274  0.0000  0.9238  10.50000  0.05    1.30
Q16   1   0.4002  0.0000 -0.0451  10.50000  0.05    1.29
Q17   1   0.3195  0.1677  0.1497  11.00000  0.05    1.27
Q18   1   0.4235  0.0000  0.3136  10.50000  0.05    1.26
Q19   1   0.2076  0.0000  0.0788  10.50000  0.05    1.26
Q20   1   0.0931  0.0000  0.0879  10.50000  0.05    1.26
;
_shelx_res_checksum              98109
_shelx_hkl_file
;
   4  -2 -10    7.57    2.65
   6  -2 -10    1.41    1.70
   8  -2 -10   47.25    5.41
  10  -2 -10   95.81    6.87
  -1  -1 -10   -0.09    1.20
   1  -1 -10    1.00    1.27
   3  -1 -10    1.96    1.79
   5  -1 -10   55.98    5.72
   7  -1 -10    5.96    2.23
   9  -1 -10   23.18    2.64
  11  -1 -10    0.72    1.24
  13  -1 -10   24.25    2.78
  15  -1 -10    2.20    1.86
  -2   0 -10    6.87    1.73
   0   0 -10    4.23    1.50
   2   0 -10    4.63    1.55
   4   0 -10   17.94    3.33
   6   0 -10    5.09    2.04
   8   0 -10   61.35    4.10
  10   0 -10   92.52    6.06
  12   0 -10    2.78    1.31
  14   0 -10    3.15    1.12
  -1   1 -10   -0.45    1.25
   1   1 -10    0.96    1.22
   3   1 -10    0.81    1.22
   5   1 -10   51.18    5.27
   7   1 -10    6.04    1.57
   9   1 -10   25.94    2.80
  11   1 -10    1.90    1.23
  13   1 -10   21.78    2.63
   2   2 -10    4.79    1.59
   4   2 -10   13.03    2.18
   6   2 -10    0.73    1.34
   8   2 -10   44.62    3.87
  -1  -3  -9  124.75    8.48
   1  -3  -9    8.64    2.61
   3  -3  -9    1.46    1.74
   5  -3  -9   24.29    4.32
   7  -3  -9   11.43    2.36
   9  -3  -9   10.97    2.37
  11  -3  -9   44.64    4.29
  13  -3  -9   53.13    6.30
  -4  -2  -9   19.04    2.45
  -2  -2  -9    4.18    1.44
   0  -2  -9   50.50    3.89
   2  -2  -9   36.52    4.53
   4  -2  -9   16.63    3.25
   6  -2  -9    2.41    1.40
   8  -2  -9    8.76    1.98
  10  -2  -9   15.29    2.53
  12  -2  -9    0.71    1.46
  14  -2  -9    1.12    1.50
  -5  -1  -9   18.45    2.14
  -3  -1  -9    2.82    1.33
  -1  -1  -9  144.25    5.35
   1  -1  -9    9.69    1.80
   3  -1  -9    5.56    1.43
   5  -1  -9   38.82    3.19
   7  -1  -9   15.77    2.13
   9  -1  -9   12.22    1.96
  11  -1  -9   58.67    2.97
  13  -1  -9   86.60    3.36
  15  -1  -9   25.06    2.22
  17  -1  -9   -1.23    1.12
  -6   0  -9   15.20    3.30
  -4   0  -9   24.20    2.62
  -2   0  -9    8.06    1.59
   0   0  -9   60.32    3.62
   2   0  -9   52.05    3.58
   4   0  -9   22.16    2.32
   6   0  -9    4.51    1.30
   8   0  -9   12.40    1.88
  10   0  -9    9.25    1.64
  12   0  -9    0.16    0.95
  14   0  -9   -0.05    0.78
  16   0  -9  170.94    4.76
  18   0  -9    1.88    1.82
  -5   1  -9   26.70    4.11
  -3   1  -9    2.41    1.30
  -1   1  -9  137.66    5.29
   1   1  -9    6.72    1.57
   3   1  -9    1.00    1.07
   5   1  -9   43.44    2.66
   7   1  -9   15.71    2.11
   9   1  -9   13.84    2.00
  11   1  -9   49.42    3.67
  13   1  -9   75.27    3.96
  15   1  -9   24.15    2.68
  17   1  -9    0.33    1.08
  -2   2  -9    3.21    1.37
   0   2  -9   51.50    3.82
   2   2  -9   45.01    3.60
   4   2  -9   17.37    2.02
   6   2  -9    2.80    1.13
   8   2  -9    9.24    2.00
  10   2  -9    9.92    1.98
  12   2  -9   -0.28    1.18
  14   2  -9    3.21    1.52
  16   2  -9  153.24    8.41
   1   3  -9   11.36    2.26
   3   3  -9    1.97    1.42
   5   3  -9   29.50    2.84
   7   3  -9   14.80    2.17
   9   3  -9    4.77    1.94
  11   3  -9   27.39    5.64
  -2  -4  -8    6.32    3.30
   2  -4  -8   19.46    3.66
   4  -4  -8   21.41    4.03
   6  -4  -8   16.24    2.55
   8  -4  -8   13.96    2.48
  10  -4  -8   59.78    4.76
  -5  -3  -8   26.35    2.88
  -3  -3  -8    6.75    1.81
  -1  -3  -8    0.85    1.19
   1  -3  -8    4.72    1.50
   3  -3  -8   28.40    4.11
   5  -3  -8  113.93    5.13
   7  -3  -8   42.92    3.85
   9  -3  -8    1.52    1.51
  11  -3  -8   30.65    3.50
  13  -3  -8    0.55    2.82
  15  -3  -8    2.94    2.97
  -8  -2  -8    2.43    2.14
  -6  -2  -8   76.62    4.01
  -4  -2  -8   10.70    1.81
  -2  -2  -8   11.05    1.97
   0  -2  -8   28.70    2.88
   2  -2  -8   37.29    3.22
   4  -2  -8   42.48    3.31
   6  -2  -8   15.54    2.31
   8  -2  -8   26.53    3.07
  10  -2  -8   85.91    5.07
  12  -2  -8    1.83    1.44
  14  -2  -8    3.15    1.28
  16  -2  -8    1.68    1.46
  18  -2  -8   -0.37    1.29
  -9  -1  -8    1.25    1.88
  -7  -1  -8    7.10    2.37
  -5  -1  -8   36.27    2.99
  -3  -1  -8   10.86    1.74
  -1  -1  -8   -0.26    0.76
   1  -1  -8   12.80    1.89
   3  -1  -8   49.48    2.59
   5  -1  -8  150.16    5.25
   7  -1  -8   53.66    3.76
   9  -1  -8    0.31    0.72
  11  -1  -8   52.45    2.78
  13  -1  -8   -0.44    0.71
  15  -1  -8    2.59    0.98
  17  -1  -8    1.49    1.22
  19  -1  -8  109.11    5.14
  -8   0  -8    0.94    1.71
  -6   0  -8   83.11    6.04
  -4   0  -8   17.70    2.09
  -2   0  -8   11.76    1.74
   0   0  -8   33.59    2.82
   2   0  -8   45.71    3.18
   4   0  -8   55.80    2.56
   6   0  -8   21.33    1.80
   8   0  -8   32.96    2.80
  10   0  -8  108.10    4.32
  12   0  -8    2.96    1.10
  14   0  -8    5.52    1.09
  16   0  -8    3.01    1.16
  18   0  -8   -0.55    1.01
  20   0  -8    2.72    1.42
  -9   1  -8    0.77    1.66
  -7   1  -8    4.15    1.87
  -5   1  -8   33.69    4.63
  -3   1  -8   13.65    1.95
  -1   1  -8    0.87    0.89
   1   1  -8   10.71    1.69
   3   1  -8   50.39    2.82
   5   1  -8  157.52    4.30
   7   1  -8   56.45    2.68
   9   1  -8    0.50    0.92
  11   1  -8   49.85    3.60
  13   1  -8   -0.47    0.81
  15   1  -8    5.54    1.52
  17   1  -8    0.67    0.99
  19   1  -8  111.05    4.93
  -8   2  -8    2.23    2.16
  -6   2  -8   80.55    6.17
  -4   2  -8    8.52    2.64
  -2   2  -8   12.66    1.95
   0   2  -8   27.48    2.70
   2   2  -8   29.11    2.49
   4   2  -8   43.31    2.98
   6   2  -8   19.92    2.03
   8   2  -8   25.30    2.28
  10   2  -8   91.14    5.00
  12   2  -8    2.54    1.41
  14   2  -8    2.22    1.32
  16   2  -8    2.74    1.46
  18   2  -8   -0.25    1.64
  -5   3  -8   31.57    4.66
  -3   3  -8    9.74    2.93
  -1   3  -8    0.71    1.29
   1   3  -8    6.14    1.77
   3   3  -8   35.98    3.33
   5   3  -8  112.35    4.99
   7   3  -8   41.51    3.46
   9   3  -8    0.55    1.02
  11   3  -8   36.53    3.99
  13   3  -8   -1.37    1.31
  15   3  -8    5.04    1.95
  17   3  -8    0.56    2.14
   0   4  -8   16.92    3.68
   2   4  -8   21.05    2.81
   4   4  -8   29.10    3.23
   6   4  -8   14.20    2.44
   8   4  -8   15.72    2.46
   5  -5  -7   -0.74    1.67
  -6  -4  -7   -0.52    1.08
  -4  -4  -7   46.06    3.70
  -2  -4  -7   42.02    3.52
   0  -4  -7   53.27    3.87
   2  -4  -7   13.20    2.81
   4  -4  -7    2.81    1.20
   6  -4  -7    7.78    1.73
   8  -4  -7    8.91    1.90
  10  -4  -7   97.56    4.98
  12  -4  -7    2.94    2.74
  14  -4  -7   36.67    6.18
  -9  -3  -7    1.30    2.10
  -7  -3  -7   81.58    3.43
  -5  -3  -7    0.30    0.90
  -3  -3  -7   32.43    2.98
  -1  -3  -7    1.14    1.04
   1  -3  -7   55.23    3.28
   3  -3  -7    0.55    0.81
   5  -3  -7   -0.29    0.89
   7  -3  -7   10.40    1.92
   9  -3  -7    7.43    1.82
  11  -3  -7    4.32    1.52
  13  -3  -7   48.79    6.72
  15  -3  -7   30.76    3.40
  17  -3  -7   52.96    4.45
 -10  -2  -7    0.38    1.26
  -8  -2  -7    0.08    0.76
  -6  -2  -7    1.25    0.81
  -4  -2  -7   70.07    3.74
  -2  -2  -7   66.83    3.71
   0  -2  -7   65.21    3.72
   2  -2  -7   24.74    1.97
   4  -2  -7    2.34    0.90
   6  -2  -7   15.99    2.25
   8  -2  -7   22.71    2.89
  10  -2  -7  123.26    4.28
  12  -2  -7    6.50    1.36
  14  -2  -7   48.04    3.86
  16  -2  -7    2.42    1.45
  18  -2  -7    9.41    2.05
  20  -2  -7    9.46    2.21
 -11  -1  -7   10.50    2.06
  -9  -1  -7   -0.45    0.98
  -7  -1  -7  100.13    3.30
  -5  -1  -7    0.63    0.79
  -3  -1  -7   48.98    2.95
  -1  -1  -7    1.58    0.93
   1  -1  -7   69.88    2.62
   3  -1  -7   -0.72    0.58
   5  -1  -7    0.02    0.64
   7  -1  -7   17.56    2.20
   9  -1  -7    4.42    1.03
  11  -1  -7    7.67    1.20
  13  -1  -7   74.27    3.04
  15  -1  -7   46.00    3.56
  17  -1  -7   73.34    4.39
  19  -1  -7    0.08    1.07
  21  -1  -7    3.79    1.64
 -12   0  -7    3.53    1.53
 -10   0  -7    0.21    1.01
  -8   0  -7    1.38    1.05
  -6   0  -7    1.63    0.77
  -4   0  -7   85.30    3.56
  -2   0  -7   74.04    3.41
   0   0  -7   82.75    3.56
   2   0  -7   27.33    1.94
   4   0  -7    4.87    0.96
   6   0  -7   15.77    1.49
   8   0  -7   26.87    2.41
  10   0  -7  158.48    5.14
  12   0  -7    7.12    1.38
  14   0  -7   57.76    2.59
  16   0  -7    4.66    1.35
  18   0  -7   13.69    2.11
  20   0  -7    9.78    1.98
  22   0  -7    0.58    1.95
 -11   1  -7    9.71    1.95
  -9   1  -7    0.40    1.11
  -7   1  -7   92.24    4.57
  -5   1  -7    0.55    0.87
  -3   1  -7   47.35    3.21
  -1   1  -7    1.91    0.96
   1   1  -7   68.05    2.74
   3   1  -7   -0.54    0.61
   5   1  -7    0.93    0.68
   7   1  -7   16.67    1.64
   9   1  -7    5.55    1.34
  11   1  -7    5.33    1.40
  13   1  -7   64.96    3.48
  15   1  -7   43.37    3.36
  17   1  -7   74.77    3.83
  19   1  -7   -1.08    0.85
  21   1  -7    1.66    1.31
 -10   2  -7    2.10    1.65
  -8   2  -7    1.73    1.38
  -6   2  -7    2.63    1.46
  -4   2  -7   85.38    3.90
  -2   2  -7   71.23    3.64
   0   2  -7   70.31    3.65
   2   2  -7   20.62    2.35
   4   2  -7    2.58    1.09
   6   2  -7   10.61    1.48
   8   2  -7   21.58    2.00
  10   2  -7  130.28    5.52
  12   2  -7    7.91    1.79
  14   2  -7   47.13    3.86
  16   2  -7    4.38    1.38
  18   2  -7    9.13    2.89
  20   2  -7   10.57    2.01
  -9   3  -7    0.67    1.65
  -7   3  -7   66.73    6.78
  -5   3  -7    0.85    1.60
  -3   3  -7   31.84    3.12
  -1   3  -7    0.37    1.02
   1   3  -7   56.30    3.95
   3   3  -7    0.13    0.93
   5   3  -7    0.18    0.92
   7   3  -7    7.67    1.45
   9   3  -7    7.01    1.57
  11   3  -7    3.61    1.28
  13   3  -7   57.03    4.65
  15   3  -7   35.63    3.77
  17   3  -7   61.28    4.91
  -4   4  -7   48.29    6.16
  -2   4  -7   48.10    3.94
   0   4  -7   46.98    3.86
   2   4  -7   12.27    2.08
   4   4  -7    2.53    1.29
   6   4  -7    8.94    1.80
   8   4  -7   13.86    2.00
  10   4  -7   79.65    4.09
  12   4  -7    5.32    2.15
  14   4  -7   32.99    4.64
  -3  -5  -6    0.21    1.98
  -1  -5  -6   78.88    4.08
   1  -5  -6    1.03    1.51
   3  -5  -6    1.83    1.11
   5  -5  -6   52.90    3.86
   7  -5  -6   39.71    3.44
   9  -5  -6   26.31    2.88
  -8  -4  -6    4.11    1.22
  -6  -4  -6    2.62    1.04
  -4  -4  -6    8.84    1.64
  -2  -4  -6   25.88    2.53
   0  -4  -6    4.64    1.31
   2  -4  -6    9.90    1.28
   4  -4  -6  154.04    5.12
   6  -4  -6   28.09    2.67
   8  -4  -6    8.57    1.68
  10  -4  -6   16.16    2.22
  12  -4  -6   49.08    6.03
  14  -4  -6    1.55    2.12
  16  -4  -6   29.07    4.99
 -11  -3  -6   12.33    2.30
  -9  -3  -6   89.77    3.35
  -7  -3  -6    0.73    0.79
  -5  -3  -6   30.18    2.18
  -3  -3  -6    0.46    0.68
  -1  -3  -6  128.84    3.65
   1  -3  -6    3.81    0.81
   3  -3  -6    2.01    0.73
   5  -3  -6  101.52    4.00
   7  -3  -6   61.85    3.24
   9  -3  -6   40.40    3.13
  11  -3  -6   10.51    1.44
  13  -3  -6   56.52    4.03
  15  -3  -6   12.19    2.12
  17  -3  -6    4.05    1.61
  19  -3  -6    0.07    1.31
 -12  -2  -6   30.70    3.16
 -10  -2  -6   45.15    3.74
  -8  -2  -6    7.93    1.17
  -6  -2  -6    2.50    0.83
  -4  -2  -6   14.00    1.46
  -2  -2  -6   48.28    2.39
   0  -2  -6    7.48    0.85
   2  -2  -6   15.87    1.45
   4  -2  -6  245.11    5.00
   6  -2  -6   51.23    2.50
   8  -2  -6   13.99    1.58
  10  -2  -6   19.97    1.84
  12  -2  -6   71.23    2.97
  14  -2  -6    5.59    1.43
  16  -2  -6   42.33    3.60
  18  -2  -6   43.60    3.77
  20  -2  -6  117.41    5.38
  22  -2  -6   -0.42    2.12
 -13  -1  -6   43.27    3.77
 -11  -1  -6   12.25    2.09
  -9  -1  -6  124.07    5.05
  -7  -1  -6    0.71    0.60
  -5  -1  -6   40.68    2.13
  -3  -1  -6    0.59    0.56
  -1  -1  -6  184.35    3.47
   1  -1  -6    5.46    0.94
   3  -1  -6    2.16    0.80
   5  -1  -6  140.38    3.79
   7  -1  -6   79.70    3.88
   9  -1  -6   59.47    2.64
  11  -1  -6   15.57    1.61
  13  -1  -6   85.63    3.14
  15  -1  -6   14.68    2.02
  17  -1  -6    2.92    1.25
  19  -1  -6    1.46    1.20
  21  -1  -6   70.81    4.74
 -14   0  -6    4.92    1.66
 -12   0  -6   32.05    3.10
 -10   0  -6   46.05    3.57
  -8   0  -6    8.30    1.58
  -6   0  -6    2.54    0.78
  -4   0  -6   13.80    1.37
  -2   0  -6   61.30    2.32
   0   0  -6   11.43    1.22
   2   0  -6   22.18    1.64
   4   0  -6  290.65    5.38
   6   0  -6   61.70    2.31
   8   0  -6   18.43    1.46
  10   0  -6   27.38    2.42
  12   0  -6   94.50    3.79
  14   0  -6    6.53    1.04
  16   0  -6   63.86    3.61
  18   0  -6   43.83    3.41
  20   0  -6  124.94    5.20
  22   0  -6    0.73    1.27
 -15   1  -6   17.03    3.35
 -13   1  -6   38.07    3.58
 -11   1  -6   10.99    1.91
  -9   1  -6  125.68    5.29
  -7   1  -6    0.53    1.00
  -5   1  -6   43.36    2.54
  -3   1  -6    0.48    0.66
  -1   1  -6  191.65    3.98
   1   1  -6    6.56    1.11
   3   1  -6    1.95    0.82
   5   1  -6  136.81    3.78
   7   1  -6   82.58    2.84
   9   1  -6   56.55    2.40
  11   1  -6   16.65    2.06
  13   1  -6   79.41    3.70
  15   1  -6   12.95    1.81
  17   1  -6    1.62    0.99
  19   1  -6    4.43    1.31
  21   1  -6   74.07    3.98
 -14   2  -6    3.17    1.98
 -12   2  -6   27.07    3.29
 -10   2  -6   46.17    4.18
  -8   2  -6    5.77    1.86
  -6   2  -6    1.34    1.33
  -4   2  -6   16.00    1.78
  -2   2  -6   51.71    2.97
   0   2  -6    8.15    1.48
   2   2  -6   13.20    1.71
   4   2  -6  233.14    6.18
   6   2  -6   49.55    2.81
   8   2  -6   14.15    1.70
  10   2  -6   20.28    1.79
  12   2  -6   69.09    4.09
  14   2  -6    4.30    1.46
  16   2  -6   54.70    3.98
  18   2  -6   45.60    5.60
  20   2  -6  102.45    4.66
 -11   3  -6   10.25    2.60
  -9   3  -6   91.38   10.81
  -7   3  -6   -0.22    1.34
  -5   3  -6   30.07    3.37
  -3   3  -6   -0.53    0.79
  -1   3  -6  126.46    3.97
   1   3  -6    4.52    1.15
   3   3  -6    2.33    0.95
   5   3  -6   96.70    3.89
   7   3  -6   53.02    3.06
   9   3  -6   41.56    2.95
  11   3  -6   11.51    1.66
  13   3  -6   58.52    5.33
  15   3  -6   13.09    2.31
  17   3  -6    0.72    1.50
  19   3  -6   -0.36    2.29
  -8   4  -6    5.24    2.16
  -6   4  -6    2.28    1.72
  -4   4  -6    7.15    1.96
  -2   4  -6   26.87    2.86
   0   4  -6    6.69    1.49
   2   4  -6   10.93    1.77
   4   4  -6  135.94    4.99
   6   4  -6   30.53    2.69
   8   4  -6    7.40    1.49
  10   4  -6   12.79    1.85
  12   4  -6   48.07    3.47
  14   4  -6    4.56    2.11
  16   4  -6   37.03    3.87
  -1   5  -6   73.12    4.35
   1   5  -6   -0.04    1.09
   3   5  -6    1.42    1.14
   5   5  -6   50.65    3.84
   7   5  -6   28.39    2.92
   9   5  -6   25.41    2.81
  11   5  -6   10.70    2.81
  -5  -5  -5   17.38    2.17
  -3  -5  -5    5.20    1.30
  -1  -5  -5   86.36    3.98
   1  -5  -5   60.92    2.74
   3  -5  -5    0.65    0.85
   5  -5  -5   32.01    2.80
   7  -5  -5   33.86    2.90
   9  -5  -5    1.82    1.07
  11  -5  -5   44.44    5.55
 -10  -4  -5    9.47    1.48
  -8  -4  -5   35.83    2.55
  -6  -4  -5  138.33    4.21
  -4  -4  -5    2.47    1.00
  -2  -4  -5   35.54    2.67
   0  -4  -5   12.77    1.32
   2  -4  -5   -0.34    0.53
   4  -4  -5    1.63    0.82
   6  -4  -5   11.39    1.62
   8  -4  -5   19.61    2.08
  10  -4  -5   84.54    3.63
  12  -4  -5   18.02    3.43
  14  -4  -5   30.80    3.16
  16  -4  -5    8.72    1.99
  18  -4  -5   11.13    3.28
 -13  -3  -5   29.51    3.35
 -11  -3  -5    1.63    1.17
  -9  -3  -5    5.48    1.01
  -7  -3  -5   35.62    2.27
  -5  -3  -5   36.56    2.25
  -3  -3  -5    8.61    1.11
  -1  -3  -5  148.17    3.08
   1  -3  -5  106.23    2.90
   3  -3  -5    6.40    0.90
   5  -3  -5   60.14    2.77
   7  -3  -5   69.84    2.34
   9  -3  -5    4.90    0.88
  11  -3  -5   78.62    2.74
  13  -3  -5    6.39    1.39
  15  -3  -5  112.02    4.76
  17  -3  -5    1.66    1.28
  19  -3  -5    6.92    1.79
  21  -3  -5    1.80    2.14
 -14  -2  -5   34.09    3.36
 -12  -2  -5   16.76    2.30
 -10  -2  -5   10.59    1.82
  -8  -2  -5   54.12    2.42
  -6  -2  -5  213.00    4.63
  -4  -2  -5    8.42    1.08
  -2  -2  -5   55.68    1.69
   0  -2  -5   24.42    1.33
   2  -2  -5    1.33    0.56
   4  -2  -5    1.57    0.49
   6  -2  -5   33.44    1.36
   8  -2  -5   40.57    2.04
  10  -2  -5  136.23    3.59
  12  -2  -5   22.66    1.72
  14  -2  -5   39.99    3.16
  16  -2  -5   11.86    1.95
  18  -2  -5   22.06    2.62
  20  -2  -5   13.54    1.71
  22  -2  -5    9.63    2.65
 -17  -1  -5   30.63    2.87
 -15  -1  -5   44.39    2.90
 -13  -1  -5   37.34    2.54
 -11  -1  -5    3.48    0.91
  -9  -1  -5    7.46    0.84
  -7  -1  -5   49.22    2.11
  -5  -1  -5   50.83    2.01
  -3  -1  -5   15.57    1.35
  -1  -1  -5  239.20    3.82
   1  -1  -5  173.47    3.14
   3  -1  -5   11.75    0.91
   5  -1  -5   85.95    2.72
   7  -1  -5   95.79    2.32
   9  -1  -5    4.30    0.94
  11  -1  -5   90.99    3.05
  13  -1  -5    6.07    1.04
  15  -1  -5  133.46    4.90
  17  -1  -5    1.66    1.03
  19  -1  -5    8.35    1.71
  21  -1  -5    5.55    1.23
  23  -1  -5    1.62    1.64
 -16   0  -5    1.61    0.91
 -14   0  -5   39.81    2.58
 -12   0  -5   22.50    1.88
 -10   0  -5   14.27    1.45
  -8   0  -5   66.82    1.96
  -6   0  -5  256.72    4.11
  -4   0  -5    8.18    1.09
  -2   0  -5   71.92    1.99
   0   0  -5   30.11    1.35
   2   0  -5    1.64    0.47
   4   0  -5    3.69    0.77
   6   0  -5   35.01    1.81
   8   0  -5   49.44    1.90
  10   0  -5  171.61    5.04
  12   0  -5   29.30    2.33
  14   0  -5   44.96    2.20
  16   0  -5   10.87    1.70
  18   0  -5   20.67    2.35
  20   0  -5   24.11    2.60
  22   0  -5   11.95    1.89
 -15   1  -5   48.27    3.94
 -13   1  -5   39.49    3.43
 -11   1  -5    2.82    1.16
  -9   1  -5    7.60    1.60
  -7   1  -5   49.70    2.33
  -5   1  -5   44.85    2.29
  -3   1  -5   12.98    1.43
  -1   1  -5  234.22    5.07
   1   1  -5  168.85    3.96
   3   1  -5   12.15    1.15
   5   1  -5   84.88    2.71
   7   1  -5  100.60    2.89
   9   1  -5    5.78    0.92
  11   1  -5   95.86    3.87
  13   1  -5    8.05    1.35
  15   1  -5  143.19    4.76
  17   1  -5    0.83    0.86
  19   1  -5    9.86    1.72
  21   1  -5    4.18    1.84
  23   1  -5    0.69    1.09
 -14   2  -5   35.61    3.56
 -12   2  -5   16.63    2.62
 -10   2  -5   11.44    2.17
  -8   2  -5   53.53    4.30
  -6   2  -5  218.54    5.20
  -4   2  -5    6.23    1.15
  -2   2  -5   54.27    2.33
   0   2  -5   22.52    1.71
   2   2  -5    0.44    0.55
   4   2  -5    3.77    0.71
   6   2  -5   25.52    2.01
   8   2  -5   37.35    2.16
  10   2  -5  146.15    4.06
  12   2  -5   23.58    1.75
  14   2  -5   44.04    3.33
  16   2  -5   12.15    1.92
  18   2  -5   17.91    2.24
  20   2  -5   14.40    2.78
  22   2  -5    7.36    2.36
 -13   3  -5   25.69    3.46
 -11   3  -5    0.39    1.33
  -9   3  -5    2.46    1.54
  -7   3  -5   33.04    3.41
  -5   3  -5   32.03    2.36
  -3   3  -5    9.17    1.29
  -1   3  -5  152.09    3.93
   1   3  -5  105.34    3.10
   3   3  -5    6.99    0.94
   5   3  -5   55.60    2.66
   7   3  -5   63.63    2.86
   9   3  -5    2.27    0.85
  11   3  -5   75.88    3.14
  13   3  -5    2.76    0.98
  15   3  -5  113.61    5.17
  17   3  -5    1.55    2.29
  19   3  -5    6.52    1.72
 -12   4  -5   15.27    3.48
 -10   4  -5    5.29    2.19
  -8   4  -5   37.42    3.90
  -6   4  -5  128.46    5.79
  -4   4  -5    3.09    1.00
  -2   4  -5   33.91    2.39
   0   4  -5   12.96    1.47
   2   4  -5    0.38    0.63
   4   4  -5    1.07    0.70
   6   4  -5   13.33    1.67
   8   4  -5   25.49    2.32
  10   4  -5   83.90    3.58
  12   4  -5   11.64    1.73
  14   4  -5   24.55    2.46
  16   4  -5    7.15    2.34
  18   4  -5    9.21    4.35
  -7   5  -5   20.37    3.11
  -5   5  -5   22.55    3.09
  -3   5  -5    2.62    1.41
  -1   5  -5   90.83    3.57
   1   5  -5   52.32    3.07
   3   5  -5    2.11    1.07
   5   5  -5   25.21    2.56
   7   5  -5   30.83    2.80
   9   5  -5    1.14    0.95
  11   5  -5   34.61    3.02
  13   5  -5    2.12    1.30
  -2  -6  -4   13.87    3.41
   0  -6  -4   21.62    2.54
   2  -6  -4   23.99    2.62
   4  -6  -4    7.96    1.67
   6  -6  -4   67.41    4.92
  -9  -5  -4    0.24    1.36
  -7  -5  -4    0.17    0.92
  -5  -5  -4    5.36    1.33
  -3  -5  -4   -0.10    0.76
  -1  -5  -4   -0.12    0.61
   1  -5  -4   62.85    2.54
   3  -5  -4    1.08    0.85
   5  -5  -4   58.81    3.04
   7  -5  -4    2.49    1.05
   9  -5  -4   14.84    2.92
  11  -5  -4   32.60    4.48
  13  -5  -4    3.19    2.09
 -12  -4  -4   46.54    4.08
 -10  -4  -4    4.20    1.06
  -8  -4  -4   42.00    2.58
  -6  -4  -4   33.15    2.24
  -4  -4  -4   14.01    1.66
  -2  -4  -4   32.27    1.78
   0  -4  -4   43.82    1.98
   2  -4  -4   52.76    2.06
   4  -4  -4   15.01    1.31
   6  -4  -4  134.90    4.23
   8  -4  -4    1.16    0.72
  10  -4  -4    3.73    1.08
  12  -4  -4    5.14    1.32
  14  -4  -4   29.44    2.79
  16  -4  -4   16.20    2.24
  18  -4  -4    9.72    1.99
 -15  -3  -4   18.30    2.67
 -13  -3  -4    1.63    1.24
 -11  -3  -4   90.69    3.17
  -9  -3  -4    0.54    0.62
  -7  -3  -4   -0.08    0.48
  -5  -3  -4   12.90    1.29
  -3  -3  -4    0.36    0.39
  -1  -3  -4   -0.11    0.34
   1  -3  -4  120.56    2.87
   3  -3  -4    0.78    0.46
   5  -3  -4  110.23    2.23
   7  -3  -4    5.67    0.81
   9  -3  -4   41.13    1.90
  11  -3  -4   63.20    3.11
  13  -3  -4    2.99    0.79
  15  -3  -4   38.52    2.36
  17  -3  -4   67.95    2.83
  19  -3  -4   40.47    2.69
 -18  -2  -4    0.22    1.45
 -16  -2  -4   53.02    3.19
 -14  -2  -4    2.00    0.89
 -12  -2  -4   86.83    4.21
 -10  -2  -4    4.15    0.82
  -8  -2  -4   71.00    2.42
  -6  -2  -4   52.93    2.09
  -4  -2  -4   26.28    1.63
  -2  -2  -4   61.11    1.62
   0  -2  -4   68.87    1.71
   2  -2  -4   91.90    1.80
   4  -2  -4   24.30    1.03
   6  -2  -4  259.76    3.62
   8  -2  -4    1.02    0.54
  10  -2  -4   11.18    1.09
  12  -2  -4   14.11    1.70
  14  -2  -4   38.79    2.91
  16  -2  -4   22.44    1.82
  18  -2  -4   17.20    1.69
  20  -2  -4   14.37    1.68
  22  -2  -4   47.36    3.66
 -17  -1  -4    7.02    1.37
 -15  -1  -4   27.06    2.16
 -13  -1  -4    3.57    0.84
 -11  -1  -4  130.13    3.70
  -9  -1  -4    0.37    0.40
  -7  -1  -4    0.35    0.39
  -5  -1  -4   28.18    1.51
  -3  -1  -4   -0.18    0.30
  -1  -1  -4    0.53    0.33
   1  -1  -4  192.56    3.01
   3  -1  -4    2.39    0.43
   5  -1  -4  167.11    3.34
   7  -1  -4   11.20    0.79
   9  -1  -4   62.09    2.22
  11  -1  -4   90.59    2.70
  13  -1  -4    5.12    1.14
  15  -1  -4   46.13    3.13
  17  -1  -4   88.91    3.82
  19  -1  -4   47.08    2.71
  21  -1  -4   76.54    3.73
  23  -1  -4    7.83    1.58
 -18   0  -4    1.19    1.18
 -16   0  -4   60.54    2.87
 -14   0  -4    4.68    1.02
 -12   0  -4   90.13    3.04
 -10   0  -4    4.00    0.85
  -8   0  -4   86.56    2.09
  -6   0  -4   74.74    1.87
  -4   0  -4   35.51    1.12
  -2   0  -4   86.62    2.06
   0   0  -4   91.39    2.10
   2   0  -4  120.06    2.29
   4   0  -4   31.27    1.63
   6   0  -4  333.19    7.09
   8   0  -4    1.46    0.55
  10   0  -4   16.75    1.73
  12   0  -4   15.56    1.34
  14   0  -4   50.70    2.69
  16   0  -4   22.08    2.19
  18   0  -4   25.45    2.45
  20   0  -4   17.93    2.01
  22   0  -4   54.22    3.58
 -19   1  -4   23.31    3.69
 -17   1  -4    7.50    1.72
 -15   1  -4   25.89    2.06
 -13   1  -4    0.02    0.70
 -11   1  -4  130.76    3.72
  -9   1  -4   -0.43    0.51
  -7   1  -4    0.03    0.41
  -5   1  -4   30.67    1.35
  -3   1  -4    0.05    0.37
  -1   1  -4    0.08    0.27
   1   1  -4  186.52    3.69
   3   1  -4    1.88    0.48
   5   1  -4  170.75    2.92
   7   1  -4   11.65    0.73
   9   1  -4   62.54    1.97
  11   1  -4   99.45    2.48
  13   1  -4    4.43    1.08
  15   1  -4   55.18    2.88
  17   1  -4   76.36    3.49
  19   1  -4   45.78    3.26
  21   1  -4   78.90    3.63
  23   1  -4   11.19    1.74
 -16   2  -4   46.85    7.54
 -14   2  -4    4.33    1.61
 -12   2  -4   76.98    4.55
 -10   2  -4    5.55    1.58
  -8   2  -4   66.81    3.94
  -6   2  -4   57.69    2.50
  -4   2  -4   26.20    1.86
  -2   2  -4   60.17    2.14
   0   2  -4   68.01    2.17
   2   2  -4   91.93    2.40
   4   2  -4   25.38    1.32
   6   2  -4  256.17    4.24
   8   2  -4    1.90    0.48
  10   2  -4   14.54    1.36
  12   2  -4   11.48    1.22
  14   2  -4   42.77    2.72
  16   2  -4   20.68    3.86
  18   2  -4   21.08    2.31
  20   2  -4   10.50    2.33
  22   2  -4   45.25    3.32
 -15   3  -4   21.42    6.58
 -13   3  -4   -0.33    1.39
 -11   3  -4   99.44    5.29
  -9   3  -4    0.78    1.19
  -7   3  -4    0.59    0.96
  -5   3  -4   12.90    1.39
  -3   3  -4   -0.37    0.52
  -1   3  -4    0.12    0.47
   1   3  -4  118.74    3.04
   3   3  -4    0.55    0.46
   5   3  -4  109.55    2.81
   7   3  -4    6.10    0.79
   9   3  -4   40.95    1.72
  11   3  -4   60.61    2.62
  13   3  -4    0.84    0.70
  15   3  -4   31.38    3.48
  17   3  -4   49.39    6.78
 -12   4  -4   36.34    6.84
 -10   4  -4    3.25    1.66
  -8   4  -4   43.74    3.91
  -6   4  -4   34.83    3.26
  -4   4  -4   11.19    1.37
  -2   4  -4   34.29    2.19
   0   4  -4   42.90    2.20
   2   4  -4   49.28    2.17
   4   4  -4   12.32    1.62
   6   4  -4  141.90    4.54
   8   4  -4    0.12    0.69
  10   4  -4    6.66    1.65
  12   4  -4    4.78    1.18
  14   4  -4   27.23    2.41
  16   4  -4   16.76    2.84
  -9   5  -4    1.96    1.80
  -7   5  -4    1.61    1.45
  -5   5  -4    5.48    1.78
  -3   5  -4    0.11    0.81
  -1   5  -4    0.23    0.74
   1   5  -4   56.25    2.84
   3   5  -4    0.02    0.89
   5   5  -4   61.27    3.36
   7   5  -4    2.64    1.17
   9   5  -4   17.24    3.00
  11   5  -4   37.53    4.38
  13   5  -4    2.11    1.09
  15   5  -4   23.09    2.56
   0   6  -4   24.27    2.83
   2   6  -4   22.84    2.72
   4   6  -4    5.18    2.60
  -4  -6  -3   50.79    5.66
  -2  -6  -3    7.82    1.30
   0  -6  -3   83.21    3.20
   2  -6  -3    1.76    1.06
   4  -6  -3   47.74    3.41
   6  -6  -3   15.71    2.10
 -11  -5  -3    4.35    1.70
  -9  -5  -3   25.92    2.49
  -7  -5  -3   35.67    2.84
  -5  -5  -3  148.51    4.94
  -3  -5  -3    2.71    0.78
  -1  -5  -3    9.35    1.18
   1  -5  -3    3.84    0.81
   3  -5  -3    4.74    0.89
   5  -5  -3    2.01    0.89
   7  -5  -3    0.05    0.66
   9  -5  -3  101.33    6.36
  11  -5  -3   64.18    3.54
  13  -5  -3   -0.41    0.96
  15  -5  -3    1.28    1.34
 -14  -4  -3   20.72    2.80
 -12  -4  -3   15.16    1.61
 -10  -4  -3   44.13    2.64
  -8  -4  -3    7.41    1.15
  -6  -4  -3    0.32    0.55
  -4  -4  -3   80.35    2.47
  -2  -4  -3   21.21    1.47
   0  -4  -3  169.43    3.74
   2  -4  -3    4.26    0.75
   4  -4  -3  104.69    2.80
   6  -4  -3   30.66    1.61
   8  -4  -3   38.20    1.84
  10  -4  -3    4.33    1.04
  12  -4  -3   92.09    3.82
  14  -4  -3   67.17    3.45
  16  -4  -3   14.21    2.01
  18  -4  -3   25.77    2.77
 -17  -3  -3   20.41    2.82
 -15  -3  -3   31.90    3.33
 -13  -3  -3    1.41    1.08
 -11  -3  -3    6.87    1.02
  -9  -3  -3   52.57    2.21
  -7  -3  -3   59.03    2.23
  -5  -3  -3  274.96    4.18
  -3  -3  -3    7.91    0.76
  -1  -3  -3   22.43    1.27
   1  -3  -3    4.63    0.68
   3  -3  -3   12.46    0.80
   5  -3  -3    8.52    0.70
   7  -3  -3    0.89    0.45
   9  -3  -3  223.28    3.38
  11  -3  -3  100.77    2.74
  13  -3  -3    1.15    0.59
  15  -3  -3   11.89    1.32
  17  -3  -3   37.02    2.37
  19  -3  -3   10.65    1.75
  21  -3  -3    1.89    1.67
 -18  -2  -3    5.25    1.31
 -16  -2  -3   -0.07    0.74
 -14  -2  -3   32.95    2.36
 -12  -2  -3   21.15    1.80
 -10  -2  -3   64.48    1.97
  -8  -2  -3   11.59    1.09
  -6  -2  -3    0.41    0.42
  -4  -2  -3  136.39    2.40
  -2  -2  -3   43.15    1.24
   0  -2  -3  327.92    3.41
   2  -2  -3   10.18    0.62
   4  -2  -3  215.44    2.91
   6  -2  -3   60.12    1.36
   8  -2  -3   65.83    1.88
  10  -2  -3   11.45    0.96
  12  -2  -3  155.11    4.50
  14  -2  -3  124.96    3.24
  16  -2  -3   28.58    1.92
  18  -2  -3   37.02    2.29
  20  -2  -3   29.47    2.71
  22  -2  -3    0.64    1.09
 -19  -1  -3   12.55    2.27
 -17  -1  -3   31.21    2.32
 -15  -1  -3   47.93    2.53
 -13  -1  -3    0.49    0.59
 -11  -1  -3   11.35    1.23
  -9  -1  -3   73.01    1.87
  -7  -1  -3   88.80    1.99
  -5  -1  -3  434.62    4.47
  -3  -1  -3   11.75    0.68
  -1  -1  -3   47.47    1.20
   1  -1  -3    7.90    0.57
   3  -1  -3   26.46    0.86
   5  -1  -3   11.76    0.66
   7  -1  -3    1.56    0.46
   9  -1  -3  339.05    5.15
  11  -1  -3  146.48    3.04
  13  -1  -3    0.01    0.62
  15  -1  -3   14.63    1.71
  17  -1  -3   50.68    2.28
  19  -1  -3    5.35    1.18
  21  -1  -3    3.75    1.15
  23  -1  -3    0.59    1.05
 -20   0  -3   58.47    5.62
 -18   0  -3    3.02    1.36
 -16   0  -3    0.80    0.67
 -14   0  -3   35.83    2.21
 -12   0  -3   23.34    1.72
 -10   0  -3   77.14    2.53
  -8   0  -3   14.30    0.89
  -6   0  -3   -0.17    0.26
  -4   0  -3  184.29    2.45
  -2   0  -3   64.44    1.34
   0   0  -3  467.11    5.61
   2   0  -3   13.02    0.75
   4   0  -3  296.10    4.70
   6   0  -3   80.60    1.97
   8   0  -3   86.43    1.92
  10   0  -3   13.29    1.15
  12   0  -3  196.66    3.90
  14   0  -3  133.30    4.23
  16   0  -3   30.54    2.42
  18   0  -3   46.09    2.68
  20   0  -3   32.07    2.61
  22   0  -3    1.42    1.07
  24   0  -3   11.01    2.76
 -19   1  -3   15.99    2.41
 -17   1  -3   33.29    3.15
 -15   1  -3   42.40    2.55
 -13   1  -3    0.80    0.64
 -11   1  -3   10.40    1.22
  -9   1  -3   79.49    2.63
  -7   1  -3   91.61    2.04
  -5   1  -3  434.27    5.45
  -3   1  -3   12.98    0.74
  -1   1  -3   47.24    1.09
   1   1  -3    7.41    0.70
   3   1  -3   24.57    0.95
   5   1  -3   10.49    0.68
   7   1  -3    0.45    0.26
   9   1  -3  336.84    5.04
  11   1  -3  148.73    2.98
  13   1  -3    0.64    0.48
  15   1  -3   11.95    1.55
  17   1  -3   53.77    2.79
  19   1  -3    5.01    1.12
  21   1  -3    3.48    1.14
  23   1  -3    1.63    1.10
 -18   2  -3    4.33    1.54
 -16   2  -3    0.70    1.02
 -14   2  -3   38.71    2.56
 -12   2  -3   18.83    1.70
 -10   2  -3   59.23    2.42
  -8   2  -3   13.48    1.31
  -6   2  -3    0.53    0.43
  -4   2  -3  135.54    2.44
  -2   2  -3   45.42    1.21
   0   2  -3  325.18    3.87
   2   2  -3   10.08    0.84
   4   2  -3  213.82    3.13
   6   2  -3   63.07    1.55
   8   2  -3   66.24    2.22
  10   2  -3    9.81    0.88
  12   2  -3  161.60    3.79
  14   2  -3  119.66    4.08
  16   2  -3   25.93    2.38
  18   2  -3   40.82    2.73
  20   2  -3   27.06    2.40
  22   2  -3    0.85    1.46
 -17   3  -3   24.33    6.75
 -15   3  -3   35.85    7.54
 -13   3  -3    0.37    2.48
 -11   3  -3    9.23    1.91
  -9   3  -3   52.37    3.84
  -7   3  -3   63.67    3.38
  -5   3  -3  278.64    5.13
  -3   3  -3    8.08    0.96
  -1   3  -3   27.19    2.10
   1   3  -3    6.19    1.02
   3   3  -3   13.40    1.43
   5   3  -3    6.24    1.03
   7   3  -3    0.53    0.54
   9   3  -3  224.37    5.24
  11   3  -3  101.65    3.40
  13   3  -3   -0.47    0.51
  15   3  -3   11.15    1.38
 -14   4  -3   22.59    5.73
 -12   4  -3   10.55    3.85
 -10   4  -3   40.72    3.71
  -8   4  -3    8.42    1.74
  -6   4  -3    0.14    0.86
  -4   4  -3   77.74    3.70
  -2   4  -3   15.66    1.89
   0   4  -3  165.21    5.09
   2   4  -3    4.85    1.07
   4   4  -3  107.10    3.81
   6   4  -3   31.69    2.45
   8   4  -3   35.46    2.58
  10   4  -3    7.04    1.30
  12   4  -3   95.10    3.79
  14   4  -3   76.81    4.67
  16   4  -3   21.43    3.13
  -9   5  -3   26.11    3.24
  -7   5  -3   31.55    3.39
  -5   5  -3  147.84    5.83
  -3   5  -3    3.61    1.34
  -1   5  -3    9.08    1.73
   1   5  -3    3.05    1.11
   3   5  -3    4.82    1.22
   5   5  -3    2.56    1.06
   7   5  -3    0.23    0.82
   9   5  -3  109.06    4.47
  11   5  -3   60.24    3.68
  13   5  -3    0.44    1.36
  15   5  -3    5.64    2.21
  -4   6  -3   43.01    5.44
  -2   6  -3    8.71    1.99
   0   6  -3   81.31    4.44
   2   6  -3    1.55    1.27
   4   6  -3   53.14    4.00
   6   6  -3   16.58    2.33
   8   6  -3   12.47    3.10
  -6  -6  -2    0.87    1.71
  -4  -6  -2    0.61    0.79
  -2  -6  -2   30.78    2.26
   0  -6  -2    3.32    0.95
   2  -6  -2    7.37    1.45
   4  -6  -2   10.32    1.64
   6  -6  -2   68.77    5.42
   8  -6  -2    2.68    1.65
 -13  -5  -2    1.30    1.46
 -11  -5  -2   39.76    3.05
  -9  -5  -2   24.35    2.31
  -7  -5  -2   11.35    1.62
  -5  -5  -2    2.12    0.71
  -3  -5  -2    1.21    0.62
  -1  -5  -2  109.69    3.21
   1  -5  -2   37.97    2.18
   3  -5  -2  126.85    3.41
   5  -5  -2    3.18    0.92
   7  -5  -2   -0.25    0.56
   9  -5  -2    0.64    1.17
  11  -5  -2    0.68    0.98
  13  -5  -2    2.72    1.14
  15  -5  -2   65.36    3.90
 -16  -4  -2    1.89    1.31
 -14  -4  -2   41.31    3.56
 -12  -4  -2   47.89    2.46
 -10  -4  -2   46.97    2.42
  -8  -4  -2   35.57    2.18
  -6  -4  -2    4.93    0.78
  -4  -4  -2    1.64    0.55
  -2  -4  -2   74.15    2.29
   0  -4  -2    6.42    0.85
   2  -4  -2   11.87    1.11
   4  -4  -2   18.37    1.32
   6  -4  -2  148.82    3.25
   8  -4  -2   10.83    1.06
  10  -4  -2    3.95    0.97
  12  -4  -2    7.00    1.34
  14  -4  -2   21.51    2.24
  16  -4  -2   25.23    2.53
  18  -4  -2   33.91    4.40
 -19  -3  -2    0.54    1.59
 -17  -3  -2   65.26    3.97
 -15  -3  -2   81.56    4.38
 -13  -3  -2    0.97    0.90
 -11  -3  -2   79.14    2.62
  -9  -3  -2   44.40    1.93
  -7  -3  -2   26.19    1.27
  -5  -3  -2    5.51    0.64
  -3  -3  -2    0.80    0.37
  -1  -3  -2  227.32    3.85
   1  -3  -2   87.08    2.14
   3  -3  -2  280.18    3.65
   5  -3  -2    7.91    0.65
   7  -3  -2    0.11    0.31
   9  -3  -2    0.50    0.32
  11  -3  -2    2.67    0.63
  13  -3  -2    8.53    1.03
  15  -3  -2   96.89    2.96
  17  -3  -2    7.75    1.14
  19  -3  -2   13.32    1.90
  21  -3  -2    0.67    1.67
 -18  -2  -2   33.50    2.44
 -16  -2  -2    6.82    1.22
 -14  -2  -2   66.09    2.77
 -12  -2  -2   81.49    2.90
 -10  -2  -2   81.30    2.06
  -8  -2  -2   73.12    1.85
  -6  -2  -2    6.25    0.58
  -4  -2  -2    3.61    0.45
  -2  -2  -2  140.71    2.27
   0  -2  -2   12.44    0.55
   2  -2  -2   21.04    0.72
   4  -2  -2   33.73    0.91
   6  -2  -2  297.35    3.52
   8  -2  -2   20.60    1.02
  10  -2  -2    4.03    0.47
  12  -2  -2   11.66    1.05
  14  -2  -2   37.03    1.77
  16  -2  -2   41.57    1.97
  18  -2  -2   46.27    3.08
  20  -2  -2  104.83    4.24
  22  -2  -2    0.06    0.91
 -19  -1  -2    1.43    1.22
 -17  -1  -2   78.55    3.10
 -15  -1  -2  113.81    3.45
 -13  -1  -2    0.72    0.58
 -11  -1  -2  115.06    3.17
  -9  -1  -2   68.89    1.69
  -7  -1  -2   44.29    1.29
  -5  -1  -2   10.18    0.45
  -3  -1  -2    2.68    0.28
  -1  -1  -2  406.59    4.37
   1  -1  -2  171.90    1.91
   3  -1  -2  504.18    4.99
   5  -1  -2   14.48    0.51
   7  -1  -2    0.05    0.27
   9  -1  -2    0.58    0.31
  11  -1  -2    3.51    0.79
  13  -1  -2    8.88    0.95
  15  -1  -2  128.86    3.17
  17  -1  -2   11.79    1.49
  19  -1  -2   15.37    1.77
  21  -1  -2   -0.05    0.82
  23  -1  -2   36.13    3.08
 -20   0  -2    7.13    1.73
 -18   0  -2   29.14    2.91
 -16   0  -2    8.13    1.16
 -14   0  -2   83.42    2.74
 -12   0  -2  104.29    2.94
 -10   0  -2   99.47    2.68
  -8   0  -2   93.13    1.75
  -6   0  -2   10.50    0.67
  -4   0  -2    4.92    0.48
  -2   0  -2  221.57    2.62
   0   0  -2   20.39    1.01
   2   0  -2   26.08    1.16
   4   0  -2   50.99    1.33
   6   0  -2  399.12    5.11
   8   0  -2   28.70    0.80
  10   0  -2    6.78    0.76
  12   0  -2   14.39    1.42
  14   0  -2   41.35    2.11
  16   0  -2   47.58    1.90
  18   0  -2   57.02    2.75
  20   0  -2  113.13    4.14
  22   0  -2   -0.49    0.81
  24   0  -2   -0.21    1.56
 -21   1  -2    2.93    1.77
 -19   1  -2    0.52    1.09
 -17   1  -2   79.75    4.10
 -15   1  -2  116.48    3.42
 -13   1  -2    0.50    0.59
 -11   1  -2  113.97    4.29
  -9   1  -2   67.43    2.30
  -7   1  -2   43.97    1.28
  -5   1  -2   10.77    0.74
  -3   1  -2    2.58    0.37
  -1   1  -2  410.39    4.30
   1   1  -2  171.49    2.61
   3   1  -2  505.02    5.90
   5   1  -2   14.27    1.09
   9   1  -2    0.52    0.42
  11   1  -2    3.33    0.56
  13   1  -2    8.94    0.89
  15   1  -2  128.76    3.18
  17   1  -2   12.32    1.43
  19   1  -2   14.98    1.71
  21   1  -2   -0.06    0.76
  23   1  -2   35.58    4.27
 -20   2  -2   12.35    2.69
 -18   2  -2   30.22    3.24
 -16   2  -2    6.13    1.62
 -14   2  -2   68.41    3.83
 -12   2  -2   89.07    2.97
 -10   2  -2   85.99    2.74
  -8   2  -2   73.59    2.37
  -6   2  -2   10.14    0.73
  -4   2  -2    4.94    0.52
  -2   2  -2  142.60    2.63
   0   2  -2   11.92    0.71
   2   2  -2   19.07    0.83
   4   2  -2   33.47    1.07
   6   2  -2  297.52    4.32
  14   2  -2   36.52    2.40
  16   2  -2   34.04    2.29
  18   2  -2   48.16    3.58
  20   2  -2  108.42    5.61
  22   2  -2    0.82    1.04
 -19   3  -2    0.58    1.42
 -17   3  -2   59.99    4.03
 -15   3  -2   86.97    4.51
 -13   3  -2   -0.44    0.79
 -11   3  -2   74.71    2.90
  -9   3  -2   47.78    2.19
  -7   3  -2   28.00    1.31
  -5   3  -2    6.58    0.81
  -3   3  -2    0.78    0.47
  -1   3  -2  228.00    3.96
   1   3  -2   87.04    2.18
   3   3  -2  275.56    4.43
   5   3  -2    6.70    0.76
   7   3  -2   -0.07    0.37
   9   3  -2    0.83    0.63
  11   3  -2    1.96    0.60
  13   3  -2    9.32    1.33
  15   3  -2   99.09    4.89
  17   3  -2   11.99    2.19
  19   3  -2   14.23    2.64
  21   3  -2    0.42    1.44
 -16   4  -2    0.91    3.51
 -14   4  -2   39.99    6.63
 -12   4  -2   40.46    6.06
 -10   4  -2   51.95    3.91
  -8   4  -2   38.31    3.19
  -6   4  -2    4.46    1.24
  -4   4  -2    1.83    0.92
  -2   4  -2   72.52    3.20
   0   4  -2    5.47    1.15
   2   4  -2   12.39    1.54
   4   4  -2   17.26    1.80
   6   4  -2  147.08    4.54
   8   4  -2   10.22    1.44
  10   4  -2    2.73    0.95
  12   4  -2    6.18    2.04
  14   4  -2   18.06    3.28
 -11   5  -2   38.41    6.14
  -9   5  -2   26.70    4.88
  -7   5  -2   11.30    2.06
  -5   5  -2    0.38    1.05
  -3   5  -2    1.29    0.96
  -1   5  -2   99.05    4.25
   1   5  -2   41.29    3.14
   3   5  -2  118.14    4.55
   5   5  -2    2.51    1.04
   7   5  -2   -0.26    0.77
   9   5  -2    0.16    0.88
  11   5  -2    1.06    1.00
  13   5  -2    1.72    1.20
  15   5  -2   53.44    3.95
  -6   6  -2    0.40    1.97
  -4   6  -2    0.32    1.29
  -2   6  -2   33.10    3.27
   0   6  -2    2.08    1.25
   2   6  -2    4.18    1.41
   4   6  -2    9.32    1.83
   6   6  -2   70.38    3.99
   8   6  -2    4.21    1.51
  -6  -6  -1   73.56    2.99
  -4  -6  -1    8.14    1.28
  -2  -6  -1    0.38    0.71
   0  -6  -1    1.54    0.95
   2  -6  -1    1.08    0.88
   4  -6  -1    0.54    0.95
   6  -6  -1   56.85    5.53
   8  -6  -1    1.46    1.44
 -13  -5  -1    0.78    0.98
 -11  -5  -1   42.30    3.03
  -9  -5  -1    0.49    0.69
  -7  -5  -1   24.05    1.80
  -5  -5  -1    4.97    0.89
  -3  -5  -1   98.98    3.00
  -1  -5  -1    1.42    0.57
   1  -5  -1    0.13    0.47
   3  -5  -1    4.50    1.02
   5  -5  -1   71.94    3.05
   7  -5  -1    6.13    1.85
   9  -5  -1   57.12    4.42
  11  -5  -1   89.96    5.72
  13  -5  -1   11.78    2.64
  15  -5  -1    1.63    1.50
 -16  -4  -1   -1.01    1.06
 -14  -4  -1    0.43    0.69
 -12  -4  -1   27.93    2.02
 -10  -4  -1   15.48    1.47
  -8  -4  -1   95.24    2.72
  -6  -4  -1  146.74    3.38
  -4  -4  -1   12.27    1.11
  -2  -4  -1    0.27    0.37
   0  -4  -1    2.62    0.58
   2  -4  -1    0.34    0.38
   4  -4  -1    0.44    0.50
   6  -4  -1  138.58    3.79
   8  -4  -1    1.27    0.46
  10  -4  -1   56.40    2.72
  12  -4  -1   66.14    3.11
  14  -4  -1    1.75    0.89
  16  -4  -1   12.14    2.65
  18  -4  -1    0.93    1.63
 -19  -3  -1    0.94    1.41
 -17  -3  -1    1.22    0.86
 -15  -3  -1    0.91    0.80
 -13  -3  -1   -0.28    0.46
 -11  -3  -1   68.25    2.31
  -9  -3  -1    0.13    0.33
  -7  -3  -1   40.24    1.40
  -5  -3  -1   10.22    0.80
  -3  -3  -1  225.77    3.80
  -1  -3  -1    3.77    0.56
   1  -3  -1    0.25    0.30
   3  -3  -1    8.96    0.66
   5  -3  -1  157.41    2.36
   7  -3  -1    8.03    0.63
   9  -3  -1  114.70    2.64
  11  -3  -1  178.34    3.67
  13  -3  -1   17.23    1.36
  15  -3  -1    5.78    0.93
  17  -3  -1    1.32    0.84
  19  -3  -1   37.70    2.92
  21  -3  -1   75.25    5.26
 -20  -2  -1   94.36    4.89
 -18  -2  -1    8.54    1.75
 -16  -2  -1    0.11    0.66
 -14  -2  -1    0.55    0.61
 -12  -2  -1   44.84    1.55
 -10  -2  -1   24.10    1.16
  -8  -2  -1  185.50    2.61
  -6  -2  -1  287.29    3.71
  -4  -2  -1   16.19    0.76
  -2  -2  -1    0.09    0.21
   0  -2  -1    4.22    0.46
   2  -2  -1    0.23    0.14
   4  -2  -1    0.04    0.14
   6  -2  -1  267.95    3.20
   8  -2  -1    1.44    0.31
  10  -2  -1  103.46    2.40
  12  -2  -1  109.39    2.69
  14  -2  -1    4.53    0.76
  16  -2  -1   21.12    1.93
  18  -2  -1    2.98    0.96
  20  -2  -1    3.10    1.12
  22  -2  -1   14.66    2.05
 -21  -1  -1    2.04    1.35
 -19  -1  -1    1.58    1.10
 -17  -1  -1    1.45    0.97
 -15  -1  -1    0.98    0.60
 -13  -1  -1    1.06    0.55
 -11  -1  -1  100.92    2.01
  -9  -1  -1    0.63    0.28
  -7  -1  -1   67.61    1.21
  -5  -1  -1   22.04    0.60
  -3  -1  -1  414.97    3.87
  -1  -1  -1    8.61    0.44
   1  -1  -1    1.52    0.21
   3  -1  -1   23.80    0.58
   5  -1  -1  277.00    3.47
   7  -1  -1   15.42    0.62
   9  -1  -1  175.33    2.24
  11  -1  -1  274.12    4.39
  13  -1  -1   26.35    1.37
  15  -1  -1    4.47    0.91
  17  -1  -1    3.62    0.96
  19  -1  -1   48.71    2.88
  21  -1  -1   69.77    3.44
  23  -1  -1   14.24    2.90
 -22   0  -1    0.77    1.33
 -20   0  -1  122.24    5.25
 -18   0  -1   13.50    1.98
 -16   0  -1    0.55    0.57
 -14   0  -1    0.65    0.43
 -12   0  -1   49.41    1.61
 -10   0  -1   32.53    1.20
  -8   0  -1  249.62    2.81
  -6   0  -1  397.60    4.30
  -4   0  -1   23.04    0.59
  -2   0  -1    0.72    0.24
   0   0  -1    9.92    0.66
   2   0  -1    0.56    0.19
   4   0  -1   -0.21    0.39
   6   0  -1  372.53    4.59
   8   0  -1    3.14    0.42
  10   0  -1  127.41    2.31
  12   0  -1  134.79    2.80
  14   0  -1    6.04    0.78
  16   0  -1   22.80    1.85
  18   0  -1    2.73    0.85
  20   0  -1    2.16    0.95
  22   0  -1   20.04    2.23
 -21   1  -1    3.43    1.34
 -19   1  -1   -0.46    0.65
 -17   1  -1    2.15    0.75
 -15   1  -1    1.79    0.72
 -13   1  -1    0.69    0.42
 -11   1  -1  101.09    2.29
  -9   1  -1   -0.28    0.27
  -7   1  -1   64.49    1.53
  -5   1  -1   21.21    0.64
  -3   1  -1  422.15    4.36
  -1   1  -1    8.15    0.51
   1   1  -1    1.25    0.24
   9   1  -1  174.76    5.08
  11   1  -1  277.42    5.74
  13   1  -1   27.31    1.50
  15   1  -1    7.58    1.05
  17   1  -1    1.94    0.76
  19   1  -1   56.88    2.75
  21   1  -1   76.90    3.52
  23   1  -1   20.67    2.37
 -20   2  -1  105.43    5.12
 -18   2  -1   11.99    1.52
 -16   2  -1   -0.07    0.60
 -14   2  -1    0.11    0.53
 -12   2  -1   44.24    1.60
 -10   2  -1   26.27    1.28
  -8   2  -1  189.77    2.50
  -6   2  -1  286.77    3.73
  -4   2  -1   16.38    0.68
  -2   2  -1    0.31    0.15
   0   2  -1    5.20    0.53
   2   2  -1   -0.26    0.15
   4   2  -1    0.08    0.21
   6   2  -1  264.38    6.79
  12   2  -1  110.29    3.03
  14   2  -1    5.79    0.90
  16   2  -1   25.01    1.98
  18   2  -1    3.18    0.99
  20   2  -1    3.60    1.17
  22   2  -1   19.29    2.23
 -19   3  -1    2.54    1.40
 -17   3  -1    0.51    1.30
 -15   3  -1    1.49    0.99
 -13   3  -1    2.83    1.03
 -11   3  -1   70.92    2.62
  -9   3  -1    0.09    0.55
  -7   3  -1   45.51    1.86
  -5   3  -1   11.44    1.07
  -3   3  -1  227.40    4.07
  -1   3  -1    3.34    0.61
   1   3  -1   -0.05    0.33
   3   3  -1    8.56    1.04
   5   3  -1  152.74    2.82
   7   3  -1    9.04    0.84
   9   3  -1  114.43    2.82
  11   3  -1  183.31    4.61
  13   3  -1   22.95    2.00
  15   3  -1    5.40    1.22
  17   3  -1    3.60    1.58
  19   3  -1   45.55    4.63
  21   3  -1   63.69    5.87
 -18   4  -1    7.26    2.39
 -16   4  -1    0.74    1.24
 -14   4  -1    0.37    1.04
 -12   4  -1   27.74    2.79
 -10   4  -1   13.23    1.90
  -8   4  -1  103.57    3.19
  -6   4  -1  154.78    3.80
  -4   4  -1   10.09    1.13
  -2   4  -1    0.34    0.49
   0   4  -1    3.27    0.68
   2   4  -1   -0.36    0.40
   4   4  -1    0.14    0.45
   6   4  -1  135.99    4.30
   8   4  -1    0.90    0.83
  10   4  -1   59.80    3.15
  12   4  -1   72.59    3.71
  14   4  -1    3.12    1.37
  16   4  -1   10.27    3.06
  18   4  -1    1.88    1.68
 -13   5  -1    3.59    2.86
 -11   5  -1   43.53    6.24
  -9   5  -1    1.18    1.81
  -7   5  -1   24.78    2.68
  -5   5  -1    2.32    1.10
  -3   5  -1   95.66    4.11
  -1   5  -1    1.24    0.82
   1   5  -1    1.01    0.86
   3   5  -1    3.92    1.12
   5   5  -1   72.70    3.52
   7   5  -1    1.53    0.95
   9   5  -1   57.49    6.03
  11   5  -1  103.14    7.09
  15   5  -1   -0.39    2.03
  -6   6  -1   75.04    7.88
  -4   6  -1    5.63    1.69
  -2   6  -1    0.50    1.06
   0   6  -1    1.55    1.17
   2   6  -1    0.20    1.03
   4   6  -1    0.15    0.99
   6   6  -1   56.54    4.17
   8   6  -1    0.30    1.10
  -8  -6   0    2.18    0.93
  -6  -6   0    0.47    0.79
  -4  -6   0    1.58    1.01
  -2  -6   0    0.60    0.88
   0  -6   0  233.79    6.66
   2  -6   0    0.08    0.80
   4  -6   0    1.93    1.03
   6  -6   0    1.87    1.57
   8  -6   0    2.44    1.75
 -13  -5   0    8.48    1.57
 -11  -5   0   13.71    1.81
  -9  -5   0   27.43    1.96
  -7  -5   0   38.86    2.28
  -5  -5   0   87.96    2.87
  -3  -5   0   13.44    1.30
  -1  -5   0    2.16    0.80
   1  -5   0    3.82    0.93
   3  -5   0   13.31    1.57
   5  -5   0   82.69    3.33
   7  -5   0   44.72    4.41
   9  -5   0   32.40    3.91
  11  -5   0   13.73    2.75
  13  -5   0    7.97    2.35
 -18  -4   0   -0.16    1.16
 -16  -4   0   55.68    3.58
 -14  -4   0  113.28    3.53
 -12  -4   0   14.62    1.45
 -10  -4   0    5.33    0.84
  -8  -4   0    5.18    0.79
  -6  -4   0    4.58    0.74
  -4  -4   0    6.14    0.83
  -2  -4   0    0.74    0.45
   0  -4   0  506.85    7.17
   2  -4   0    0.95    0.52
   4  -4   0    5.01    0.90
   6  -4   0    4.07    0.82
   8  -4   0    4.89    1.46
  10  -4   0    6.68    1.16
  12  -4   0   13.13    1.65
  14  -4   0  116.27    5.90
  16  -4   0   42.52    4.54
 -19  -3   0   14.68    2.52
 -17  -3   0   88.59    3.38
 -15  -3   0   59.66    2.66
 -13  -3   0   16.32    1.23
 -11  -3   0   20.60    1.25
  -9  -3   0   50.63    1.57
  -7  -3   0   79.89    1.91
  -5  -3   0  183.50    3.36
  -3  -3   0   33.53    1.28
  -1  -3   0    5.64    0.64
   1  -3   0    6.44    0.67
   3  -3   0   34.17    1.05
   5  -3   0  182.58    2.65
   7  -3   0   80.62    1.70
   9  -3   0   50.37    1.74
  11  -3   0   21.33    1.43
  13  -3   0   18.48    1.43
  15  -3   0   52.72    2.67
  17  -3   0   75.59    3.42
  19  -3   0   13.27    1.82
 -22  -2   0    1.49    2.35
 -20  -2   0   14.19    2.30
 -18  -2   0    2.29    1.19
 -16  -2   0   70.63    2.66
 -14  -2   0  191.34    4.32
 -12  -2   0   27.69    1.28
 -10  -2   0    9.56    0.69
  -8  -2   0   11.78    0.69
  -6  -2   0   10.54    0.62
  -4  -2   0    9.15    0.48
  -2  -2   0    3.54    0.26
   0  -2   0  972.62   10.60
   2  -2   0    2.88    0.26
   4  -2   0    9.91    0.54
   6  -2   0    9.31    0.56
   8  -2   0    9.91    0.61
  10  -2   0    8.71    0.86
  12  -2   0   27.98    1.45
  14  -2   0  181.65    4.75
  16  -2   0   71.89    3.01
  18  -2   0    0.59    0.73
  20  -2   0   14.38    1.88
  22  -2   0    1.36    1.11
 -23  -1   0    3.77    2.71
 -21  -1   0   47.74    3.80
 -19  -1   0   14.33    1.60
 -17  -1   0   96.73    3.22
 -15  -1   0   78.13    2.15
 -13  -1   0   22.82    1.20
 -11  -1   0   33.43    1.00
  -9  -1   0   89.05    1.43
  -7  -1   0  137.74    1.68
  -5  -1   0  335.19    2.75
  -3  -1   0   68.43    0.86
  -1  -1   0   10.07    0.41
   1  -1   0   10.59    0.31
   3  -1   0   69.40    1.01
   5  -1   0  343.90    3.45
   7  -1   0  132.64    2.34
   9  -1   0   87.46    1.94
  11  -1   0   31.77    1.30
  13  -1   0   21.45    1.67
  15  -1   0   73.51    2.85
  17  -1   0  102.71    3.63
  19  -1   0   13.47    1.68
  21  -1   0   44.31    3.14
  23  -1   0    3.22    1.83
 -22   0   0    1.31    0.88
 -20   0   0   20.36    1.87
 -18   0   0    0.24    0.57
 -16   0   0   77.52    2.71
 -14   0   0  223.57    3.68
 -12   0   0   29.00    1.21
 -10   0   0   13.01    0.83
  -8   0   0   13.05    0.44
  -6   0   0   14.29    0.42
  -4   0   0   11.72    0.46
  -2   0   0    6.28    0.22
   2   0   0    6.26    0.30
   4   0   0   11.60    0.49
   6   0   0   13.58    0.61
   8   0   0   12.63    0.74
  10   0   0   13.17    0.82
  12   0   0   31.55    1.20
  14   0   0  215.42    4.86
  16   0   0   74.45    2.86
  18   0   0    0.43    0.60
  20   0   0   20.00    1.67
  22   0   0    2.03    1.08
 -23   1   0    3.12    2.57
 -21   1   0   46.79    2.90
 -19   1   0   11.47    1.44
 -17   1   0  102.79    3.33
 -15   1   0   74.63    2.74
 -13   1   0   21.95    1.64
 -11   1   0   30.57    1.20
  -9   1   0   86.86    1.84
  -7   1   0  136.25    2.65
  -5   1   0  343.83    3.83
  -3   1   0   69.25    1.26
  -1   1   0    9.90    0.45
   1   1   0   10.25    0.49
   5   1   0  348.27    6.89
   7   1   0  140.64    2.68
   9   1   0   87.72    2.00
  11   1   0   31.95    1.23
  13   1   0   21.98    1.56
  15   1   0   79.27    2.76
  17   1   0   96.80    3.51
  19   1   0   12.36    1.61
  21   1   0   38.88    2.97
 -22   2   0    1.73    1.35
 -20   2   0   20.02    2.01
 -18   2   0    0.93    0.76
 -16   2   0   67.08    2.75
 -14   2   0  185.53    4.34
 -12   2   0   23.69    1.64
 -10   2   0    9.95    0.84
  -8   2   0   10.75    0.78
  -6   2   0   10.48    0.68
  -4   2   0    9.54    0.58
  -2   2   0    3.62    0.35
   0   2   0  983.20   10.64
   2   2   0    3.86    0.42
   4   2   0   10.07    0.81
   6   2   0    9.70    0.66
   8   2   0   10.83    0.94
  10   2   0    9.98    0.77
  12   2   0   26.44    1.75
  14   2   0  190.18    4.64
  16   2   0   69.24    2.87
  18   2   0   -0.25    0.61
  20   2   0   14.44    1.84
  22   2   0    0.84    1.50
 -19   3   0   10.30    2.22
 -17   3   0   77.18    4.56
 -15   3   0   51.45    3.40
 -13   3   0   19.97    2.25
 -11   3   0   18.25    2.02
  -9   3   0   52.35    2.04
  -7   3   0   79.06    1.82
  -5   3   0  187.19    2.83
  -3   3   0   35.15    1.04
  -1   3   0    8.25    0.59
   1   3   0    6.02    0.60
   3   3   0   34.29    1.29
   5   3   0  184.65    3.39
   7   3   0   79.00    2.53
   9   3   0   52.31    2.18
  11   3   0   23.03    1.91
  13   3   0   17.68    1.87
  15   3   0   53.85    3.15
  17   3   0   77.93    3.79
  19   3   0   11.53    1.96
 -18   4   0   -0.73    1.30
 -16   4   0   58.56    4.43
 -14   4   0  109.40    4.90
 -12   4   0   11.99    1.90
 -10   4   0    2.98    1.16
  -8   4   0    7.48    1.06
  -6   4   0    5.05    0.90
  -4   4   0    6.43    0.96
  -2   4   0    1.58    0.60
   0   4   0  500.72    7.56
   2   4   0    0.12    0.57
   4   4   0    5.05    1.08
   6   4   0    5.61    1.18
   8   4   0    4.24    1.17
  10   4   0    3.23    1.09
  12   4   0   15.21    2.11
  14   4   0  120.10    7.23
  16   4   0   63.99    6.55
  18   4   0    0.56    2.24
 -15   5   0   33.59    4.47
 -13   5   0    6.39    1.92
 -11   5   0   15.82    2.36
  -9   5   0   30.44    2.99
  -7   5   0   40.25    2.56
  -5   5   0   90.76    3.14
  -3   5   0   13.75    1.42
  -1   5   0    3.43    0.88
   1   5   0    2.17    0.81
   3   5   0   17.71    1.59
   5   5   0   85.48    3.89
   7   5   0   35.89    3.08
   9   5   0   29.27    2.97
  11   5   0   12.82    2.16
  13   5   0    8.03    2.04
  15   5   0   22.79    4.43
  -8   6   0    1.26    2.14
  -6   6   0    2.24    2.31
  -4   6   0    3.55    1.41
  -2   6   0    1.66    1.11
   0   6   0  240.71    7.42
   2   6   0    0.91    1.11
   4   6   0    1.75    1.14
   6   6   0    2.35    1.32
   8   6   0    0.98    1.16
  -8  -6   1   -0.52    0.88
  -6  -6   1   59.46    3.51
  -4  -6   1   -0.22    0.80
  -2  -6   1   -0.08    0.80
   0  -6   1    1.32    0.90
   2  -6   1    0.41    0.82
   4  -6   1    5.88    2.09
   6  -6   1   70.20    5.43
   8  -6   1   44.81    5.02
 -15  -5   1    3.28    1.20
 -13  -5   1    8.88    1.50
 -11  -5   1   95.58    3.23
  -9  -5   1   55.64    2.41
  -7  -5   1    4.23    0.88
  -5  -5   1   74.42    2.65
  -3  -5   1    4.23    1.02
  -1  -5   1   -0.02    0.62
   1  -5   1    0.92    0.66
   3  -5   1  102.34    3.68
   5  -5   1    5.86    1.16
   7  -5   1   23.76    3.31
   9  -5   1    0.16    1.07
  11  -5   1   43.15    4.53
 -18  -4   1    0.79    1.21
 -16  -4   1   14.90    2.01
 -14  -4   1    2.16    0.80
 -12  -4   1   63.04    2.37
 -10  -4   1   60.61    2.23
  -8  -4   1    0.47    0.47
  -6  -4   1  131.27    3.21
  -4  -4   1    0.18    0.39
  -2  -4   1    0.18    0.51
   0  -4   1    1.34    0.56
   2  -4   1   -0.51    0.41
   4  -4   1    9.78    1.19
   6  -4   1  152.98    4.02
   8  -4   1  100.79    5.05
  10  -4   1   14.68    2.40
  12  -4   1   18.51    2.77
 -21  -3   1   57.81    4.60
 -19  -3   1   42.04    3.83
 -17  -3   1    2.92    0.97
 -15  -3   1    3.59    0.93
 -13  -3   1   19.89    1.18
 -11  -3   1  180.12    3.31
  -9  -3   1  113.87    2.05
  -7  -3   1    7.27    0.62
  -5  -3   1  156.62    2.42
  -3  -3   1   10.91    0.65
  -1  -3   1    0.84    0.31
   1  -3   1    4.41    0.49
   3  -3   1  226.15    3.49
   5  -3   1   12.89    0.89
   7  -3   1   43.05    1.25
   9  -3   1    0.13    0.35
  11  -3   1   72.60    2.23
  13  -3   1    0.75    0.74
  15  -3   1    1.80    0.87
  17  -3   1    1.61    0.97
  19  -3   1    1.49    1.06
 -22  -2   1   16.63    2.49
 -20  -2   1    3.81    1.11
 -18  -2   1    1.24    0.72
 -16  -2   1   19.13    1.36
 -14  -2   1    5.72    0.73
 -12  -2   1  114.01    1.78
 -10  -2   1   99.67    1.54
  -8  -2   1    2.23    0.28
  -6  -2   1  267.99    2.52
  -4  -2   1    0.18    0.16
  -2  -2   1    0.24    0.18
   0  -2   1    5.41    0.45
   2  -2   1    0.00    0.19
   4  -2   1   15.17    0.64
   6  -2   1  285.89    3.42
   8  -2   1  184.86    3.26
  10  -2   1   24.79    1.28
  12  -2   1   41.41    2.03
  14  -2   1    0.17    0.59
  16  -2   1    0.49    0.67
  18  -2   1   10.36    1.27
  20  -2   1  105.30    3.43
 -23  -1   1   18.54    2.31
 -21  -1   1   68.39    3.11
 -19  -1   1   51.01    2.63
 -17  -1   1    3.61    0.83
 -15  -1   1    6.90    1.00
 -13  -1   1   26.34    1.11
 -11  -1   1  284.87    3.02
  -9  -1   1  178.17    1.98
  -7  -1   1   15.60    0.53
  -5  -1   1  278.85    2.34
  -3  -1   1   23.45    0.46
  -1  -1   1    1.14    0.24
   1  -1   1    8.13    0.33
   3  -1   1  418.02    4.09
   5  -1   1   22.69    0.77
   7  -1   1   67.02    1.49
   9  -1   1    0.18    0.29
  11  -1   1   96.96    2.89
  13  -1   1    0.61    0.53
  15  -1   1    1.58    0.70
  17  -1   1    1.20    0.59
  19  -1   1    1.39    0.65
  21  -1   1    1.70    1.07
 -22   0   1   19.17    1.93
 -20   0   1    2.42    0.85
 -18   0   1    1.62    0.71
 -16   0   1   24.63    1.77
 -14   0   1    7.06    0.91
 -12   0   1  138.05    2.18
 -10   0   1  120.41    2.04
  -8   0   1    3.16    0.32
  -6   0   1  372.89    3.57
  -4   0   1    0.04    0.14
  -2   0   1    0.17    0.15
   0   0   1    9.61    0.30
   2   0   1    0.59    0.18
   4   0   1   22.61    0.68
   6   0   1  395.17    4.55
   8   0   1  248.29    3.31
  10   0   1   32.72    1.48
  12   0   1   48.85    2.00
  14   0   1   -0.28    0.38
  16   0   1    0.34    0.49
  18   0   1   12.62    1.57
  20   0   1  110.04    4.21
  22   0   1    1.28    1.06
 -23   1   1   17.72    2.24
 -21   1   1   73.33    3.17
 -19   1   1   46.89    2.54
 -17   1   1    2.86    0.84
 -15   1   1    6.31    1.02
 -13   1   1   27.90    1.82
 -11   1   1  283.31    3.81
  -9   1   1  177.95    2.30
  -7   1   1   16.33    0.60
  -5   1   1  274.59    3.01
  -3   1   1   23.14    0.64
  -1   1   1    1.14    0.20
   1   1   1    9.12    0.42
   3   1   1  419.93    4.75
   5   1   1   22.10    0.67
   7   1   1   66.28    1.41
   9   1   1   -0.15    0.23
  11   1   1  103.20    2.24
  13   1   1    0.81    0.41
  15   1   1    0.95    0.68
  17   1   1    0.61    0.70
  19   1   1    1.19    0.84
  21   1   1    0.50    0.86
 -22   2   1   15.73    1.76
 -20   2   1    4.74    1.14
 -18   2   1    1.91    0.81
 -16   2   1   20.85    1.83
 -14   2   1    4.66    0.89
 -12   2   1  114.66    3.04
 -10   2   1   99.28    2.08
  -8   2   1    2.98    0.44
  -6   2   1  269.02    3.88
  -4   2   1    0.11    0.21
  -2   2   1    0.12    0.27
   0   2   1    5.34    0.53
   2   2   1   -0.03    0.16
   4   2   1   14.27    0.68
   6   2   1  290.91    3.30
   8   2   1  191.07    2.89
  10   2   1   23.94    1.61
  12   2   1   43.81    2.03
  14   2   1    0.57    0.60
  16   2   1    1.33    0.75
  18   2   1    9.96    1.51
  20   2   1  100.75    4.15
 -21   3   1   44.98    7.77
 -19   3   1   40.90    4.01
 -17   3   1    2.21    1.38
 -15   3   1    4.59    0.96
 -13   3   1   17.35    1.51
 -11   3   1  182.67    3.94
  -9   3   1  115.09    2.36
  -7   3   1    7.75    0.71
  -5   3   1  158.63    2.65
  -3   3   1    9.79    0.86
  -1   3   1    0.77    0.37
   1   3   1    3.37    0.58
   3   3   1  230.68    4.50
   5   3   1   11.52    1.01
   7   3   1   41.86    1.94
   9   3   1    0.21    0.52
  11   3   1   74.24    2.98
  13   3   1    0.26    0.65
  15   3   1   -0.26    0.81
  17   3   1    0.09    0.93
  19   3   1   -0.20    1.07
 -18   4   1    2.12    1.52
 -16   4   1   11.13    2.14
 -14   4   1    2.95    1.32
 -12   4   1   64.10    3.53
 -10   4   1   67.48    3.37
  -8   4   1    0.67    0.83
  -6   4   1  142.62    3.51
  -4   4   1    1.23    0.58
  -2   4   1    0.22    0.47
   0   4   1    1.86    0.80
   2   4   1    0.56    0.64
   4   4   1    8.60    1.38
   6   4   1  145.88    4.87
   8   4   1   98.67    5.34
  10   4   1   15.51    2.10
  12   4   1   26.25    3.68
  14   4   1    0.44    1.46
  16   4   1    1.63    1.82
 -15   5   1    0.57    1.55
 -13   5   1    9.65    2.10
 -11   5   1   98.29    4.61
  -9   5   1   55.41    3.96
  -7   5   1    0.91    1.05
  -5   5   1   73.17    2.82
  -3   5   1    5.96    1.05
  -1   5   1   -0.23    0.54
   1   5   1    2.18    1.03
   3   5   1  101.08    4.24
   5   5   1    3.32    1.21
   7   5   1   23.01    2.59
   9   5   1   -1.05    1.00
  11   5   1   46.01    4.05
  13   5   1    0.79    1.57
 -10   6   1   30.52    4.37
  -8   6   1    1.77    1.39
  -6   6   1   58.48    4.30
  -4   6   1   -0.50    0.85
  -2   6   1    1.13    0.90
   0   6   1    2.70    1.02
   2   6   1    1.19    0.91
   4   6   1    7.57    1.43
   6   6   1   71.26    4.99
   8   6   1   51.84    5.82
 -10  -6   2    0.63    1.83
  -8  -6   2    2.17    1.14
  -6  -6   2   74.91    3.69
  -4  -6   2   12.63    1.81
  -2  -6   2    3.29    1.14
   0  -6   2    2.73    1.10
   2  -6   2   36.14    2.95
   4  -6   2   -1.30    1.18
   6  -6   2    5.71    2.20
 -15  -5   2   59.88    3.42
 -13  -5   2    1.93    1.03
 -11  -5   2    0.67    0.69
  -9  -5   2   -0.01    0.69
  -7  -5   2    0.32    0.68
  -5  -5   2    3.89    0.99
  -3  -5   2  123.88    4.23
  -1  -5   2   39.08    2.66
   1  -5   2  109.13    3.87
   3  -5   2   -0.25    0.59
   5  -5   2    0.28    1.06
   7  -5   2   15.93    2.77
   9  -5   2   24.57    3.44
 -16  -4   2   29.16    2.39
 -14  -4   2   21.16    1.67
 -12  -4   2    5.53    0.88
 -10  -4   2    2.02    0.67
  -8  -4   2   11.20    1.12
  -6  -4   2  142.72    4.16
  -4  -4   2   19.13    1.69
  -2  -4   2   10.47    1.22
   0  -4   2    7.03    1.01
   2  -4   2   70.00    2.70
   4  -4   2    0.85    0.61
   6  -4   2    5.36    1.44
   8  -4   2   35.57    3.49
  10  -4   2   49.47    3.60
 -21  -3   2    0.50    2.37
 -19  -3   2   16.31    3.86
 -17  -3   2    9.37    1.35
 -15  -3   2   99.91    2.05
 -13  -3   2    8.44    0.65
 -11  -3   2    2.00    0.39
  -9  -3   2    0.41    0.28
  -7  -3   2    0.04    0.30
  -5  -3   2    8.23    0.67
  -3  -3   2  275.78    4.20
  -1  -3   2   85.20    1.99
   1  -3   2  225.06    3.63
   3  -3   2    1.03    0.38
   5  -3   2    6.50    0.69
   7  -3   2   26.92    1.79
   9  -3   2   47.79    2.11
  11  -3   2   78.68    4.22
  13  -3   2   -0.55    0.86
  15  -3   2   90.20    5.14
  17  -3   2   59.11    4.48
 -22  -2   2   -0.62    1.05
 -20  -2   2  101.56    4.31
 -18  -2   2   55.04    2.58
 -16  -2   2   45.30    1.87
 -14  -2   2   36.88    1.12
 -12  -2   2   11.07    0.66
 -10  -2   2    4.70    0.42
  -8  -2   2   25.08    0.73
  -6  -2   2  297.42    2.91
  -4  -2   2   33.26    0.86
  -2  -2   2   20.24    0.89
   0  -2   2   13.03    0.79
   2  -2   2  147.65    1.92
   4  -2   2    3.89    0.37
   6  -2   2    7.94    0.65
   8  -2   2   70.52    1.56
  10  -2   2   85.34    2.19
  12  -2   2   88.88    2.43
  14  -2   2   69.04    2.29
  16  -2   2    6.02    0.93
  18  -2   2   33.52    2.18
  20  -2   2    6.10    1.41
 -23  -1   2   35.18    3.10
 -21  -1   2   -0.16    0.74
 -19  -1   2   16.71    1.57
 -17  -1   2   15.25    1.43
 -15  -1   2  129.34    2.79
 -13  -1   2   10.46    0.72
 -11  -1   2    4.00    0.46
  -9  -1   2    0.42    0.20
  -7  -1   2    0.09    0.16
  -5  -1   2   14.97    0.52
  -3  -1   2  505.66    4.39
  -1  -1   2  173.36    2.12
   1  -1   2  408.38    4.74
   3  -1   2    1.61    0.29
   5  -1   2   10.17    0.57
   7  -1   2   46.38    1.08
   9  -1   2   67.43    1.81
  11  -1   2  116.10    2.64
  13  -1   2    1.05    0.49
  15  -1   2  119.38    3.09
  17  -1   2   78.12    2.65
  19  -1   2   -0.42    0.79
  21  -1   2    5.58    2.08
 -22   0   2   -1.29    0.74
 -20   0   2  112.68    4.27
 -18   0   2   56.93    2.40
 -16   0   2   46.76    1.78
 -14   0   2   41.20    1.50
 -12   0   2   14.18    0.97
 -10   0   2    6.19    0.44
  -8   0   2   31.69    1.01
  -6   0   2  415.08    4.42
  -4   0   2   49.05    1.14
  -2   0   2   25.69    0.72
   0   0   2   19.28    0.63
   2   0   2  215.91    3.59
   4   0   2    4.46    0.55
   6   0   2   10.44    0.69
   8   0   2   92.56    1.96
  10   0   2   89.43    2.12
  12   0   2  106.58    2.51
  14   0   2   80.53    2.33
  16   0   2    7.34    1.24
  18   0   2   33.52    2.63
  20   0   2   10.63    1.73
 -23   1   2   29.40    2.83
 -21   1   2   -0.86    0.72
 -19   1   2   15.41    1.62
 -17   1   2   12.57    1.42
 -15   1   2  122.42    3.49
 -13   1   2    9.12    0.85
 -11   1   2    3.98    0.59
  -9   1   2    0.33    0.27
  -7   1   2   -0.24    0.20
  -5   1   2   14.66    0.66
  -3   1   2  510.08    5.09
  -1   1   2  173.95    2.45
   1   1   2  405.38    4.77
   3   1   2    2.68    0.38
   5   1   2   10.77    0.52
   7   1   2   43.27    1.14
   9   1   2   70.24    1.69
  11   1   2  119.50    3.38
  13   1   2    1.15    0.64
  15   1   2  119.33    3.91
  17   1   2   73.73    3.21
  19   1   2    0.43    0.84
  21   1   2    3.79    1.87
 -22   2   2    0.29    0.91
 -20   2   2  105.00    4.22
 -18   2   2   50.54    2.96
 -16   2   2   38.62    2.46
 -14   2   2   33.67    2.08
 -12   2   2    9.54    1.07
 -10   2   2    4.45    0.58
  -8   2   2   20.51    0.77
  -6   2   2  298.89    3.54
  -4   2   2   32.76    0.93
  -2   2   2   19.60    0.71
   0   2   2   11.88    0.56
   2   2   2  144.81    3.20
   4   2   2    3.31    0.45
   6   2   2    8.11    0.72
   8   2   2   71.37    1.93
  10   2   2   82.95    2.70
  12   2   2   88.99    3.02
  14   2   2   68.05    2.82
  16   2   2    7.46    1.33
  18   2   2   30.93    2.58
 -19   3   2   13.81    1.66
 -17   3   2    6.47    1.19
 -15   3   2   91.22    3.14
 -13   3   2    5.43    0.91
 -11   3   2    1.24    0.55
  -9   3   2    0.18    0.46
  -7   3   2   -0.47    0.33
  -5   3   2    6.13    0.80
  -3   3   2  283.46    4.64
  -1   3   2   84.62    2.23
   1   3   2  217.74    3.97
   3   3   2    1.47    0.53
   5   3   2    6.29    0.96
   7   3   2   28.10    1.95
   9   3   2   46.36    2.46
  11   3   2   78.06    3.15
  13   3   2    0.96    0.77
  15   3   2   86.88    5.71
  17   3   2   58.99    3.62
 -18   4   2   30.20    3.48
 -16   4   2   28.12    3.12
 -14   4   2   18.91    2.40
 -12   4   2    7.07    1.56
 -10   4   2    4.06    1.10
  -8   4   2   11.45    1.71
  -6   4   2  148.07    3.61
  -4   4   2   19.53    1.97
  -2   4   2   13.34    1.64
   0   4   2    5.05    1.10
   2   4   2   75.46    3.24
   4   4   2    1.59    0.87
   6   4   2    4.61    0.89
   8   4   2   40.17    2.20
  10   4   2   46.26    2.78
  12   4   2   50.97    3.05
  14   4   2   43.91    3.27
  16   4   2    0.55    1.85
 -15   5   2   64.25    4.93
 -13   5   2    3.66    1.56
 -11   5   2    1.16    1.08
  -9   5   2   -0.04    0.98
  -7   5   2   -0.15    0.87
  -5   5   2    2.98    0.89
  -3   5   2  125.72    3.69
  -1   5   2   34.68    2.93
   1   5   2  108.33    4.44
   3   5   2   -0.41    0.82
   5   5   2    0.90    0.97
   7   5   2    9.73    1.84
   9   5   2   20.23    2.70
  11   5   2   46.11    4.16
  -8   6   2    2.79    1.53
  -6   6   2   75.68    4.23
  -4   6   2    8.96    1.89
  -2   6   2    6.79    1.38
   0   6   2    2.49    1.07
   2   6   2   36.99    3.51
   4   6   2   -0.04    1.28
   6   6   2    1.38    2.05
  -8  -6   3   16.55    3.44
  -6  -6   3   12.96    1.97
  -4  -6   3   55.73    3.77
  -2  -6   3    1.05    0.96
   0  -6   3   85.57    5.41
   2  -6   3    8.88    1.68
   4  -6   3   36.26    4.64
 -15  -5   3    3.85    1.72
 -13  -5   3   -0.59    0.94
 -11  -5   3   53.48    3.26
  -9  -5   3  109.60    4.31
  -7  -5   3    0.54    0.71
  -5  -5   3    1.56    0.80
  -3  -5   3    4.36    1.12
  -1  -5   3    2.76    0.88
   1  -5   3   10.59    1.57
   3  -5   3    3.35    1.02
   5  -5   3  142.70    7.01
   7  -5   3   36.60    4.16
 -16  -4   3   19.55    2.91
 -14  -4   3   71.86    3.56
 -12  -4   3   94.25    3.72
 -10  -4   3    4.57    1.07
  -8  -4   3   35.86    2.53
  -6  -4   3   31.65    2.27
  -4  -4   3  106.14    3.56
  -2  -4   3    3.87    0.88
   0  -4   3  169.67    4.57
   2  -4   3   18.48    1.68
   4  -4   3   77.12    2.96
   6  -4   3    0.65    0.93
   8  -4   3    6.44    1.65
 -17  -3   3   42.91    2.76
 -15  -3   3   10.61    0.83
 -13  -3   3    0.20    0.41
 -11  -3   3   99.12    2.68
  -9  -3   3  216.14    4.06
  -7  -3   3    0.24    0.38
  -5  -3   3    6.58    0.73
  -3  -3   3   12.89    1.01
  -1  -3   3    4.93    0.65
   1  -3   3   24.73    1.35
   3  -3   3    8.18    0.82
   5  -3   3  277.45    5.70
   7  -3   3   64.43    2.50
   9  -3   3   55.34    3.53
  11  -3   3    8.55    1.86
  13  -3   3    0.50    1.19
  15  -3   3   27.81    3.51
  17  -3   3   24.75    3.55
 -22  -2   3    1.24    1.15
 -20  -2   3   25.61    2.58
 -18  -2   3   38.79    2.33
 -16  -2   3   27.73    1.83
 -14  -2   3  122.59    2.21
 -12  -2   3  162.10    2.22
 -10  -2   3   11.30    0.69
  -8  -2   3   65.49    1.39
  -6  -2   3   61.67    1.44
  -4  -2   3  216.07    2.89
  -2  -2   3    9.87    0.56
   0  -2   3  329.44    4.21
   2  -2   3   44.79    1.22
   4  -2   3  137.50    2.46
   6  -2   3    0.07    0.32
   8  -2   3   12.50    1.17
  10  -2   3   62.50    2.39
  12  -2   3   20.49    1.74
  14  -2   3   38.69    2.36
  16  -2   3    0.70    1.19
  18  -2   3    4.19    1.82
 -23  -1   3    2.90    1.19
 -21  -1   3    0.41    0.91
 -19  -1   3    7.41    1.09
 -17  -1   3   46.66    2.11
 -15  -1   3   14.49    1.10
 -13  -1   3    0.61    0.39
 -11  -1   3  152.33    2.63
  -9  -1   3  343.20    3.94
  -7  -1   3    0.98    0.33
  -5  -1   3   10.51    0.60
  -3  -1   3   23.38    0.97
  -1  -1   3    7.53    0.59
   1  -1   3   44.67    1.22
   3  -1   3   13.20    0.73
   5  -1   3  442.57    5.57
   7  -1   3   91.76    2.61
   9  -1   3   74.24    2.52
  11  -1   3   11.86    1.02
  13  -1   3    0.30    0.48
  15  -1   3   48.22    2.00
  17  -1   3   33.13    2.62
  19  -1   3   18.07    2.15
 -24   0   3   18.39    3.27
 -22   0   3    0.64    0.89
 -20   0   3   30.25    2.58
 -18   0   3   44.27    2.22
 -16   0   3   30.94    1.89
 -14   0   3  146.68    2.86
 -12   0   3  191.40    3.18
 -10   0   3   13.64    0.86
  -8   0   3   82.69    1.58
  -6   0   3   77.50    1.73
  -4   0   3  301.49    3.92
  -2   0   3   13.49    0.66
   0   0   3  458.65    5.38
   2   0   3   60.29    1.80
   4   0   3  179.28    3.64
   6   0   3   -0.31    0.30
   8   0   3   14.01    1.23
  10   0   3   75.11    2.01
  12   0   3   19.72    1.30
  14   0   3   37.47    2.53
  16   0   3    0.87    0.77
  18   0   3    3.59    1.09
  20   0   3   44.18    3.35
 -23   1   3    2.45    1.22
 -21   1   3    2.04    1.00
 -19   1   3    5.75    1.27
 -17   1   3   48.96    2.30
 -15   1   3   15.96    1.23
 -13   1   3    0.90    0.46
 -11   1   3  153.80    2.84
  -9   1   3  335.12    4.35
  -7   1   3    1.50    0.33
  -5   1   3   10.79    0.62
  -3   1   3   23.46    0.77
  -1   1   3    6.68    0.58
   1   1   3   46.09    1.25
   3   1   3   12.43    0.82
   5   1   3  430.43    5.69
   7   1   3   85.87    2.60
   9   1   3   74.01    2.53
  11   1   3   11.83    1.29
  13   1   3    0.71    0.62
  15   1   3   48.05    2.75
  17   1   3   32.03    2.63
  19   1   3   14.61    1.97
 -22   2   3    0.68    0.99
 -20   2   3   29.87    2.68
 -18   2   3   39.14    2.90
 -16   2   3   26.91    2.23
 -14   2   3  121.66    2.83
 -12   2   3  156.97    3.04
 -10   2   3   10.65    0.85
  -8   2   3   63.72    1.60
  -6   2   3   58.77    1.46
  -4   2   3  216.15    3.01
  -2   2   3    9.98    0.66
   0   2   3  326.03    4.44
   2   2   3   46.41    1.36
   4   2   3  133.67    3.44
   6   2   3    0.22    0.39
   8   2   3   11.08    0.99
  10   2   3   62.65    2.06
  12   2   3   18.85    1.45
  14   2   3   33.71    2.05
  16   2   3    0.56    0.66
  18   2   3    7.25    1.63
 -21   3   3    3.22    1.83
 -19   3   3    4.91    1.35
 -17   3   3   33.81    2.75
 -15   3   3    8.32    1.18
 -13   3   3    0.12    0.56
 -11   3   3  102.19    2.95
  -9   3   3  218.33    4.35
  -7   3   3    0.94    0.50
  -5   3   3    4.28    0.74
  -3   3   3   14.87    1.19
  -1   3   3    4.79    0.73
   1   3   3   21.74    1.45
   3   3   3    8.15    1.09
   5   3   3  274.67    5.91
   7   3   3   58.62    2.62
   9   3   3   51.15    2.53
  11   3   3    5.74    1.09
  13   3   3   -0.47    0.68
  15   3   3   32.86    2.86
  17   3   3   23.27    2.57
 -18   4   3   20.26    3.72
 -16   4   3    9.25    2.58
 -14   4   3   72.04    3.87
 -12   4   3   97.78    4.22
 -10   4   3    4.68    1.20
  -8   4   3   38.88    2.91
  -6   4   3   36.15    2.73
  -4   4   3  103.52    3.83
  -2   4   3    4.72    0.83
   0   4   3  176.12    3.94
   2   4   3   21.20    1.63
   4   4   3   77.86    2.71
   6   4   3   -0.17    0.56
   8   4   3    9.22    1.41
  10   4   3   41.44    3.00
  12   4   3   14.18    1.95
  14   4   3   23.46    2.61
 -13   5   3   -0.84    1.12
 -11   5   3   57.33    4.16
  -9   5   3  124.74    5.03
  -7   5   3    0.78    0.96
  -5   5   3    3.24    1.23
  -3   5   3    2.69    1.08
  -1   5   3    3.98    1.28
   1   5   3   13.56    2.02
   3   5   3    1.92    1.07
   5   5   3  138.39    7.28
   7   5   3   30.73    3.15
   9   5   3   24.00    2.98
  11   5   3    3.95    2.05
  -8   6   3   15.45    2.41
  -6   6   3   12.46    2.29
  -4   6   3   55.69    4.29
  -2   6   3    3.27    1.46
   0   6   3   79.78    4.42
   2   6   3   11.44    2.23
   4   6   3   43.56    5.44
  -4  -6   4    4.74    1.90
  -2  -6   4   24.34    3.65
   0  -6   4   26.63    3.77
 -13  -5   4    2.90    1.25
 -11  -5   4   34.49    3.04
  -9  -5   4   15.24    1.99
  -7  -5   4    3.15    1.13
  -5  -5   4   54.66    3.24
  -3  -5   4    1.85    0.98
  -1  -5   4   60.79    3.13
   1  -5   4    0.12    0.78
   3  -5   4   -0.61    1.01
   5  -5   4    2.67    1.56
 -16  -4   4   14.60    3.70
 -14  -4   4   24.24    2.46
 -12  -4   4    5.81    1.33
 -10  -4   4    2.88    0.98
  -8  -4   4    1.38    0.77
  -6  -4   4  138.01    4.50
  -4  -4   4   12.83    1.56
  -2  -4   4   50.58    2.54
   0  -4   4   38.80    2.59
   2  -4   4   33.02    3.44
   4  -4   4   10.39    2.06
   6  -4   4   37.00    3.69
 -19  -3   4   36.45    3.94
 -17  -3   4   63.53    4.16
 -15  -3   4   37.22    2.95
 -13  -3   4    3.21    0.78
 -11  -3   4   62.40    2.24
  -9  -3   4   39.25    1.92
  -7  -3   4    5.33    0.80
  -5  -3   4  108.04    2.78
  -3  -3   4    0.58    0.44
  -1  -3   4  117.01    3.50
   1  -3   4   -0.14    0.44
   3  -3   4   -0.37    0.43
   5  -3   4   15.38    1.51
   7  -3   4    0.99    0.99
   9  -3   4    0.32    1.02
  11  -3   4  109.44    5.47
  13  -3   4    1.59    1.44
  15  -3   4   22.19    3.28
 -22  -2   4   53.35    5.29
 -20  -2   4   17.37    1.94
 -18  -2   4   17.31    1.87
 -16  -2   4   21.43    1.97
 -14  -2   4   37.36    2.00
 -12  -2   4   12.69    1.24
 -10  -2   4   13.67    1.16
  -8  -2   4    2.03    0.53
  -6  -2   4  260.50    4.22
  -4  -2   4   23.80    1.15
  -2  -2   4   94.97    2.09
   0  -2   4   69.49    1.73
   2  -2   4   61.67    1.66
   4  -2   4   26.61    1.18
   6  -2   4   59.13    1.75
   8  -2   4   71.22    2.54
  10  -2   4    6.34    1.05
  12  -2   4   78.52    4.71
  14  -2   4    3.04    1.44
  16  -2   4   61.37    5.40
 -23  -1   4    9.40    1.80
 -21  -1   4   78.53    3.04
 -19  -1   4   45.56    2.53
 -17  -1   4   86.02    2.80
 -15  -1   4   54.23    2.12
 -13  -1   4    4.38    0.70
 -11  -1   4   88.53    2.39
  -9  -1   4   61.46    1.75
  -7  -1   4   11.31    0.80
  -5  -1   4  168.41    2.41
  -3  -1   4    1.75    0.42
  -1  -1   4  186.11    3.20
   1  -1   4    0.14    0.21
   3  -1   4    0.85    0.40
   5  -1   4   26.15    1.16
   7  -1   4    0.19    0.45
   9  -1   4    0.73    0.54
  11  -1   4  128.37    3.86
  13  -1   4   -0.08    0.56
  15  -1   4   27.75    2.38
  17  -1   4    6.66    1.39
 -24   0   4   12.59    2.99
 -22   0   4   55.72    3.72
 -20   0   4   15.79    1.60
 -18   0   4   21.71    1.72
 -16   0   4   23.53    1.60
 -14   0   4   50.36    1.93
 -12   0   4   17.14    1.27
 -10   0   4   15.61    1.09
  -8   0   4    1.54    0.44
  -6   0   4  331.50    4.61
  -4   0   4   33.18    1.09
  -2   0   4  120.14    2.18
   0   0   4   93.43    1.88
   2   0   4   84.48    1.88
   4   0   4   36.54    1.65
   6   0   4   70.47    2.41
   8   0   4   87.55    2.85
  10   0   4    5.62    0.95
  12   0   4   88.63    3.28
  14   0   4    5.94    1.22
  16   0   4   62.09    3.17
  18   0   4    0.44    1.00
 -23   1   4    7.64    1.63
 -21   1   4   75.55    3.71
 -19   1   4   45.14    2.51
 -17   1   4   82.77    2.76
 -15   1   4   53.21    2.06
 -13   1   4    5.48    0.85
 -11   1   4   90.38    2.42
  -9   1   4   62.02    1.57
  -7   1   4   11.47    0.70
  -5   1   4  168.79    2.47
  -3   1   4    2.06    0.35
  -1   1   4  192.77    3.17
   1   1   4   -0.12    0.30
   3   1   4   -0.40    0.29
   5   1   4   28.02    1.35
   7   1   4    0.38    0.41
   9   1   4   -0.13    0.51
  11   1   4  129.36    3.90
  13   1   4    0.52    0.63
  15   1   4   31.85    2.57
  17   1   4    5.79    1.37
 -22   2   4   52.27    3.76
 -20   2   4   21.92    2.39
 -18   2   4   17.22    1.99
 -16   2   4   23.42    1.70
 -14   2   4   39.49    1.97
 -12   2   4   10.17    1.04
 -10   2   4   11.38    0.90
  -8   2   4    1.33    0.41
  -6   2   4  260.66    3.66
  -4   2   4   23.23    1.01
  -2   2   4   94.58    1.91
   0   2   4   70.24    1.87
   2   2   4   64.19    1.81
   4   2   4   24.43    1.38
   6   2   4   57.59    1.91
   8   2   4   73.24    2.21
  10   2   4    6.36    0.90
  12   2   4   84.38    2.73
  14   2   4    1.62    0.96
  16   2   4   57.54    3.87
 -21   3   4   59.78    5.52
 -19   3   4   34.38    2.96
 -17   3   4   57.14    3.36
 -15   3   4   35.88    2.72
 -13   3   4    2.48    0.93
 -11   3   4   59.66    2.30
  -9   3   4   40.84    1.89
  -7   3   4    5.31    0.87
  -5   3   4  106.34    2.85
  -3   3   4    1.99    0.60
  -1   3   4  118.83    3.00
   1   3   4    0.77    0.49
   3   3   4   -0.21    0.52
   5   3   4   14.43    1.60
   7   3   4    0.89    0.67
   9   3   4   -0.01    0.64
  11   3   4   97.54    3.90
  13   3   4   -0.09    0.84
  15   3   4   19.59    2.34
 -18   4   4    9.50    2.65
 -16   4   4   11.85    2.85
 -14   4   4   22.23    3.50
 -12   4   4    4.54    1.77
 -10   4   4    6.10    1.06
  -8   4   4    0.00    0.60
  -6   4   4  142.92    3.71
  -4   4   4   13.84    1.37
  -2   4   4   49.62    2.23
   0   4   4   39.40    2.24
   2   4   4   35.57    2.16
   4   4   4   12.44    1.41
   6   4   4   31.97    2.26
   8   4   4   44.51    3.15
  10   4   4    3.47    1.19
  12   4   4   45.66    3.48
  14   4   4    2.83    1.90
 -13   5   4    1.95    1.76
 -11   5   4   25.43    3.92
  -9   5   4   15.94    2.17
  -7   5   4    2.59    1.19
  -5   5   4   51.42    3.77
  -3   5   4    0.91    0.98
  -1   5   4   61.48    3.75
   1   5   4    0.96    1.10
   3   5   4   -0.19    0.98
   5   5   4    5.43    1.61
   7   5   4   -0.56    1.08
   9   5   4    0.99    1.48
  -8   6   4    3.06    2.37
  -6   6   4   59.51    6.65
  -4   6   4    7.41    1.86
  -2   6   4   22.43    2.80
   0   6   4   20.49    4.17
 -13  -5   5    2.24    2.01
 -11  -5   5   40.86    5.38
  -9  -5   5    0.92    1.03
  -7  -5   5   32.21    2.93
  -5  -5   5   37.33    4.57
  -3  -5   5    2.60    1.64
  -1  -5   5   57.13    5.52
   3  -5   5    2.24    1.68
 -18  -4   5    9.82    4.31
 -16  -4   5   12.53    4.18
 -14  -4   5   24.42    4.36
 -12  -4   5    8.96    2.58
 -10  -4   5   88.37    6.06
  -8  -4   5   22.12    3.42
  -6  -4   5   14.53    2.73
  -4  -4   5    0.34    0.99
  -2  -4   5    0.57    1.12
   0  -4   5   14.88    2.60
   2  -4   5   34.99    2.54
   4  -4   5    5.66    1.22
   6  -4   5  142.67    6.52
   8  -4   5   30.68    3.67
  10  -4   5    4.49    2.08
  12  -4   5    9.14    2.40
 -21  -3   5    2.61    1.80
 -19  -3   5    6.65    1.99
 -17  -3   5    0.34    1.23
 -15  -3   5  114.28    4.72
 -13  -3   5    3.60    1.18
 -11  -3   5   73.24    3.32
  -9  -3   5    2.60    0.91
  -7  -3   5   68.95    2.98
  -5  -3   5   53.40    2.54
  -3  -3   5    7.54    1.19
  -1  -3   5  105.97    3.58
   1  -3   5  156.12    4.38
   3  -3   5   10.25    1.36
   5  -3   5   39.77    3.62
   7  -3   5   29.80    3.38
   9  -3   5    0.89    1.20
  11  -3   5    2.74    1.52
 -22  -2   5   11.58    1.86
 -20  -2   5   14.00    1.87
 -18  -2   5   21.57    2.13
 -16  -2   5   12.00    1.57
 -14  -2   5   43.74    2.46
 -12  -2   5   20.69    1.64
 -10  -2   5  143.96    3.47
  -8  -2   5   40.39    1.75
  -6  -2   5   26.84    1.45
  -4  -2   5    2.75    0.58
  -2  -2   5    1.02    0.43
   0  -2   5   25.33    1.89
   2  -2   5   56.07    2.39
   4  -2   5    5.96    1.01
   6  -2   5  207.57    7.50
   8  -2   5   57.92    3.88
  10  -2   5   11.01    2.12
  12  -2   5   16.78    2.65
  14  -2   5   31.15    3.80
 -23  -1   5    3.45    1.95
 -21  -1   5    6.52    1.46
 -19  -1   5    5.74    1.24
 -17  -1   5    1.32    0.79
 -15  -1   5  146.97    4.40
 -13  -1   5    5.31    0.99
 -11  -1   5  102.54    3.25
  -9  -1   5    3.88    0.82
  -7  -1   5   99.49    2.70
  -5  -1   5   87.40    2.42
  -3  -1   5   11.52    1.02
  -1  -1   5  167.66    3.35
   1  -1   5  231.71    4.13
   3  -1   5   13.67    1.12
   5  -1   5   45.08    2.05
   7  -1   5   52.63    2.30
   9  -1   5    7.38    1.11
  11  -1   5    3.00    0.87
  13  -1   5   38.31    2.75
  15  -1   5   49.85    3.34
  17  -1   5   36.46    4.33
 -24   0   5   36.90    4.72
 -22   0   5   10.53    1.43
 -20   0   5   15.71    1.59
 -18   0   5   23.81    1.80
 -16   0   5   13.38    1.33
 -14   0   5   45.72    1.99
 -12   0   5   27.22    1.61
 -10   0   5  172.51    3.46
  -8   0   5   46.45    1.60
  -6   0   5   37.44    1.35
  -4   0   5    2.95    0.51
  -2   0   5    0.85    0.37
   0   0   5   27.89    1.21
   2   0   5   70.59    1.87
   4   0   5    9.04    0.87
   6   0   5  257.71    4.42
   8   0   5   63.73    2.61
  10   0   5   12.24    1.42
  12   0   5   18.96    1.92
  14   0   5   37.36    2.86
  16   0   5    0.52    0.94
 -23   1   5    2.81    1.87
 -21   1   5    4.76    1.09
 -19   1   5    6.52    1.08
 -17   1   5    0.49    0.60
 -15   1   5  143.24    3.59
 -13   1   5    5.06    0.79
 -11   1   5   99.28    2.62
  -9   1   5    3.65    0.66
  -7   1   5  100.89    2.42
  -5   1   5   83.65    2.14
  -3   1   5   11.89    0.96
  -1   1   5  166.90    3.14
   1   1   5  234.33    3.95
   3   1   5   15.23    1.12
   5   1   5   45.74    1.71
   7   1   5   48.52    1.87
   9   1   5    7.90    0.95
  11   1   5    1.17    0.58
  13   1   5   36.37    2.23
  15   1   5   47.33    2.73
  17   1   5   25.24    2.65
 -22   2   5    9.81    1.82
 -20   2   5   19.37    1.85
 -18   2   5   17.47    1.62
 -16   2   5   11.47    1.28
 -14   2   5   39.47    2.00
 -12   2   5   18.21    1.43
 -10   2   5  138.66    3.26
  -8   2   5   35.44    1.61
  -6   2   5   27.09    1.55
  -4   2   5    2.25    0.47
  -2   2   5    0.25    0.37
   0   2   5   20.98    1.33
   2   2   5   53.77    1.82
   4   2   5    8.50    0.94
   6   2   5  212.05    5.35
   8   2   5   57.21    2.13
  10   2   5   10.72    1.23
  12   2   5   17.34    2.02
  14   2   5   36.31    2.98
 -19   3   5    7.34    1.57
 -17   3   5    2.03    1.02
 -15   3   5  108.05    4.22
 -13   3   5    3.98    1.07
 -11   3   5   74.63    3.26
  -9   3   5    3.32    0.97
  -7   3   5   63.44    2.88
  -5   3   5   58.20    2.16
  -3   3   5    5.92    0.92
  -1   3   5  104.80    2.93
   1   3   5  155.92    3.73
   3   3   5   11.44    1.45
   5   3   5   34.08    2.54
   7   3   5   31.83    2.55
   9   3   5    3.90    1.14
  11   3   5    3.90    1.20
  13   3   5   35.43    3.05
 -16   4   5    9.37    2.51
 -14   4   5   21.91    2.35
 -12   4   5   12.13    1.79
 -10   4   5   83.28    3.68
  -8   4   5   21.62    2.18
  -6   4   5   14.29    1.43
  -4   4   5    2.01    0.75
  -2   4   5    0.02    0.62
   0   4   5   11.79    1.28
   2   4   5   30.24    2.13
   4   4   5    4.88    1.07
   6   4   5  141.84    4.92
   8   4   5   32.13    2.85
  10   4   5    6.82    1.59
 -11   5   5   39.66    4.86
  -9   5   5    1.58    1.54
  -7   5   5   32.02    4.24
  -5   5   5   33.09    3.07
  -3   5   5    2.50    1.18
  -1   5   5   51.96    3.77
   1   5   5   80.05    4.22
   3   5   5    1.43    1.18
   5   5   5   17.81    2.57
   7   5   5   15.88    4.25
  -9  -5   6   22.52    4.20
  -7  -5   6   36.08    4.89
  -5  -5   6   55.39    5.84
  -3  -5   6    0.67    1.62
  -1  -5   6   -0.35    1.62
   1  -5   6   78.08    5.85
 -16  -4   6   29.29    6.10
 -14  -4   6    4.31    2.65
 -12  -4   6   49.46    6.03
 -10  -4   6    9.87    2.70
  -8  -4   6    6.90    2.33
  -6  -4   6   29.71    4.15
  -4  -4   6  131.24    7.21
  -2  -4   6    9.37    1.49
   0  -4   6    6.53    1.33
   2  -4   6   26.77    2.49
   4  -4   6    5.74    1.86
   6  -4   6   -1.16    1.22
   8  -4   6    4.46    2.04
 -19  -3   6    0.67    1.38
 -17  -3   6    3.27    1.61
 -15  -3   6   16.79    2.34
 -13  -3   6   59.33    3.54
 -11  -3   6   10.41    1.70
  -9  -3   6   41.67    2.97
  -7  -3   6   60.09    2.96
  -5  -3   6  101.61    3.78
  -3  -3   6    1.19    0.80
  -1  -3   6    3.73    0.99
   1  -3   6  128.58    4.29
   3  -3   6    0.16    0.97
   5  -3   6   28.99    3.46
   7  -3   6    0.98    1.20
   9  -3   6   87.72    5.56
  11  -3   6   11.07    2.68
 -22  -2   6    2.05    1.77
 -20  -2   6  104.85    4.34
 -18  -2   6   45.61    3.21
 -16  -2   6   52.15    2.97
 -14  -2   6    5.29    1.16
 -12  -2   6   75.62    2.83
 -10  -2   6   22.71    1.73
  -8  -2   6   13.93    1.29
  -6  -2   6   56.34    2.77
  -4  -2   6  235.34    6.02
  -2  -2   6   16.58    1.75
   0  -2   6    9.25    1.26
   2  -2   6   47.39    2.44
   4  -2   6   15.26    2.33
   6  -2   6    3.74    1.40
   8  -2   6    8.59    2.00
  10  -2   6   43.19    4.43
  12  -2   6   38.42    4.25
 -21  -1   6   67.23    3.78
 -19  -1   6    2.74    1.09
 -17  -1   6    1.76    0.87
 -15  -1   6   12.93    1.60
 -13  -1   6   87.40    3.31
 -11  -1   6   15.41    1.61
  -9  -1   6   63.94    2.61
  -7  -1   6   81.66    2.88
  -5  -1   6  141.65    3.81
  -3  -1   6    2.13    0.64
  -1  -1   6    5.04    0.82
   1  -1   6  182.44    3.94
   3  -1   6    0.48    0.53
   5  -1   6   42.23    2.20
   7  -1   6    1.11    0.70
   9  -1   6  126.77    4.14
  11  -1   6   11.44    1.65
  13  -1   6   43.27    4.27
  15  -1   6   16.83    2.94
 -22   0   6   -0.14    0.96
 -20   0   6  122.90    4.65
 -18   0   6   44.53    3.11
 -16   0   6   51.58    2.73
 -14   0   6    7.13    0.94
 -12   0   6   92.21    2.63
 -10   0   6   25.26    1.99
  -8   0   6   15.92    1.53
  -6   0   6   59.73    2.48
  -4   0   6  276.32    5.87
  -2   0   6   21.63    1.74
   0   0   6   10.03    1.21
   2   0   6   64.15    1.92
   4   0   6   14.07    1.15
   6   0   6    4.16    0.74
   8   0   6   10.25    1.12
  10   0   6   49.14    2.28
  12   0   6   38.42    2.88
  14   0   6    3.40    1.26
 -23   1   6    1.84    1.81
 -21   1   6   67.98    3.05
 -19   1   6    2.02    0.81
 -17   1   6    2.21    0.79
 -15   1   6   14.17    1.37
 -13   1   6   80.76    2.58
 -11   1   6   16.12    1.30
  -9   1   6   63.46    2.09
  -7   1   6   82.71    2.32
  -5   1   6  145.28    3.09
  -3   1   6    1.94    0.54
  -1   1   6    6.02    0.79
   1   1   6  188.49    3.68
   3   1   6    0.32    0.45
   5   1   6   42.82    1.80
   7   1   6    1.06    0.60
   9   1   6  128.73    4.20
  11   1   6   14.45    1.46
  13   1   6   42.86    2.58
  15   1   6   17.36    2.21
 -20   2   6  106.73    3.64
 -18   2   6   42.78    2.52
 -16   2   6   44.67    2.48
 -14   2   6    7.86    1.09
 -12   2   6   71.50    2.47
 -10   2   6   19.36    1.48
  -8   2   6   11.78    1.14
  -6   2   6   49.26    1.89
  -4   2   6  239.90    4.41
  -2   2   6   16.30    1.25
   0   2   6    8.80    0.95
   2   2   6   47.69    1.97
   4   2   6   14.30    1.28
   6   2   6    3.25    0.96
   8   2   6    5.92    1.19
  10   2   6   39.04    2.95
  12   2   6   31.39    2.77
  14   2   6    5.27    2.15
 -19   3   6    1.82    1.20
 -17   3   6    1.69    1.10
 -15   3   6   10.10    1.67
 -13   3   6   56.32    3.21
 -11   3   6   10.15    1.55
  -9   3   6   39.55    2.83
  -7   3   6   58.03    2.89
  -5   3   6  106.26    3.82
  -3   3   6    1.76    0.83
  -1   3   6    2.57    0.74
   1   3   6  129.53    3.56
   3   3   6   -0.11    0.70
   5   3   6   32.04    2.59
   7   3   6    0.40    0.85
   9   3   6   88.99    3.99
  11   3   6   10.66    1.86
 -16   4   6   40.24    4.85
 -14   4   6    3.53    1.28
 -12   4   6   46.29    3.40
 -10   4   6   15.39    1.98
  -8   4   6    7.35    1.45
  -6   4   6   33.85    2.80
  -4   4   6  143.32    4.87
  -2   4   6    8.54    1.53
   0   4   6    4.99    1.02
   2   4   6   25.63    2.02
   4   4   6    5.32    1.19
   6   4   6    2.17    1.00
   8   4   6    6.32    1.58
  -9   5   6   20.00    3.55
  -7   5   6   33.95    4.52
  -5   5   6   53.56    5.58
  -3   5   6    0.51    1.41
  -1   5   6    0.60    1.44
   1   5   6   72.18    4.40
   3   5   6   -0.69    1.99
 -14  -4   7   34.14    6.57
 -12  -4   7    4.98    2.83
 -10  -4   7   82.08    8.01
  -8  -4   7   13.03    3.25
  -6  -4   7    4.78    2.08
  -4  -4   7    1.26    1.01
  -2  -4   7   14.70    2.00
   0  -4   7   43.83    3.28
   2  -4   7   40.87    4.37
   4  -4   7   61.97    5.50
   6  -4   7   -0.40    1.40
 -17  -3   7   66.74    4.95
 -15  -3   7   32.79    3.93
 -13  -3   7   45.69    3.67
 -11  -3   7    4.49    1.42
  -9  -3   7    4.47    1.34
  -7  -3   7   12.96    1.84
  -5  -3   7    0.71    0.81
  -3  -3   7    0.29    0.75
  -1  -3   7   50.50    3.32
   1  -3   7   -0.38    1.01
   3  -3   7   39.87    4.13
   5  -3   7    0.38    1.18
   7  -3   7   79.92    5.47
   9  -3   7    0.17    1.32
 -20  -2   7   10.98    2.74
 -18  -2   7   10.89    2.48
 -16  -2   7    4.64    1.76
 -14  -2   7   47.75    4.53
 -12  -2   7    8.49    2.06
 -10  -2   7  136.13    5.16
  -8  -2   7   21.88    2.37
  -6  -2   7   13.67    1.83
  -4  -2   7    3.27    1.20
  -2  -2   7   23.54    2.31
   0  -2   7   66.01    3.30
   2  -2   7   65.10    4.35
   4  -2   7   69.91    4.69
   6  -2   7    1.35    1.23
   8  -2   7   -0.64    1.05
  10  -2   7   -1.49    1.20
 -21  -1   7    1.62    1.13
 -19  -1   7    1.06    1.00
 -17  -1   7   78.80    3.62
 -15  -1   7   45.09    3.04
 -13  -1   7   68.16    3.08
 -11  -1   7    5.92    1.13
  -9  -1   7    4.65    1.00
  -7  -1   7   14.45    1.53
  -5  -1   7   -0.24    0.54
  -3  -1   7   -0.20    0.50
  -1  -1   7   70.32    2.85
   1  -1   7    1.16    0.69
   3  -1   7   49.22    2.62
   5  -1   7    0.45    0.68
   7  -1   7   98.46    3.76
   9  -1   7    0.63    0.87
  11  -1   7   11.08    2.46
 -20   0   7   13.07    1.91
 -18   0   7   13.47    1.75
 -16   0   7    6.32    1.31
 -14   0   7   58.57    2.86
 -12   0   7    9.08    1.37
 -10   0   7  158.15    4.58
  -8   0   7   28.48    2.19
  -6   0   7   10.50    1.37
  -4   0   7    6.51    1.11
  -2   0   7   29.60    2.16
   0   0   7   86.96    3.23
   2   0   7   77.40    3.10
   4   0   7   96.67    3.52
   6   0   7    1.09    0.79
   8   0   7    0.17    0.81
  10   0   7    0.27    0.87
  12   0   7    1.16    1.06
 -21   1   7    1.41    1.12
 -19   1   7    0.48    0.91
 -17   1   7   81.44    3.66
 -15   1   7   44.57    3.04
 -13   1   7   73.78    3.21
 -11   1   7    6.85    0.89
  -9   1   7    5.00    0.82
  -7   1   7   15.12    1.28
  -5   1   7   -0.18    0.42
  -3   1   7    0.86    0.53
  -1   1   7   71.01    2.25
   1   1   7    1.35    0.60
   3   1   7   54.30    2.08
   5   1   7    0.35    0.55
   7   1   7   98.48    3.05
   9   1   7   -0.60    0.80
  11   1   7   20.80    2.32
  13   1   7    0.82    1.61
 -20   2   7    7.53    1.37
 -18   2   7   12.60    1.52
 -16   2   7    5.65    1.07
 -14   2   7   49.16    2.46
 -12   2   7    9.23    1.17
 -10   2   7  136.85    3.50
  -8   2   7   21.08    1.61
  -6   2   7   10.45    1.15
  -4   2   7    4.46    0.80
  -2   2   7   20.93    1.52
   0   2   7   67.44    2.33
   2   2   7   68.62    3.05
   4   2   7   81.51    3.40
   6   2   7    0.20    0.75
   8   2   7    1.01    0.91
  10   2   7   -0.22    0.93
  12   2   7    2.05    1.76
 -17   3   7   67.26    6.03
 -15   3   7   31.30    2.81
 -13   3   7   47.99    3.33
 -11   3   7    4.11    1.23
  -9   3   7    4.68    1.21
  -7   3   7    7.29    1.39
  -5   3   7   -0.56    0.70
  -3   3   7   -0.32    0.71
  -1   3   7   45.04    3.08
   1   3   7    1.35    0.91
   3   3   7   37.48    2.89
   5   3   7    0.38    0.89
   7   3   7   76.85    3.74
   9   3   7   -0.27    1.04
 -14   4   7   35.15    3.11
 -12   4   7    4.84    1.46
 -10   4   7   84.76    4.04
  -8   4   7   15.44    2.01
  -6   4   7    5.79    1.42
  -4   4   7    1.51    1.06
  -2   4   7   10.51    1.71
   0   4   7   45.63    3.34
   2   4   7   46.54    3.48
   4   4   7   53.82    3.71
   6   4   7    1.65    1.76
 -10  -4   8   61.17    8.00
  -8  -4   8   18.82    4.38
  -6  -4   8   16.13    2.35
  -4  -4   8   30.86    3.06
  -2  -4   8   24.74    2.72
   0  -4   8   14.59    2.92
   2  -4   8    4.19    2.04
 -15  -3   8    4.32    1.90
 -13  -3   8   -0.20    1.17
 -11  -3   8   40.29    3.62
  -9  -3   8    0.28    1.12
  -7  -3   8   38.06    3.34
  -5  -3   8  114.78    4.83
  -3  -3   8   31.90    2.98
  -1  -3   8    6.68    1.95
   1  -3   8    2.22    1.57
   3  -3   8    9.84    2.43
   5  -3   8   24.20    3.56
 -18  -2   8   -0.47    1.33
 -16  -2   8    0.99    1.47
 -14  -2   8    4.95    1.83
 -12  -2   8    1.61    1.30
 -10  -2   8   86.90    5.34
  -8  -2   8   24.46    3.17
  -6  -2   8   22.52    3.08
  -4  -2   8   40.84    3.32
  -2  -2   8   33.53    3.01
   0  -2   8   26.07    3.46
   2  -2   8   12.40    2.53
   4  -2   8    8.30    2.26
   6  -2   8   78.15    5.41
   8  -2   8   -1.35    1.31
 -19  -1   8  113.15    4.64
 -17  -1   8    0.17    0.86
 -15  -1   8    3.87    1.17
 -13  -1   8    1.29    0.81
 -11  -1   8   54.05    2.77
  -9  -1   8    0.42    0.68
  -7  -1   8   57.58    2.74
  -5  -1   8  159.45    4.66
  -3  -1   8   41.60    2.74
  -1  -1   8   14.01    1.66
   1  -1   8   -0.17    0.73
   3  -1   8   11.46    1.59
   5  -1   8   40.63    4.34
   7  -1   8    4.23    1.93
   9  -1   8    4.12    1.90
 -20   0   8    2.69    1.34
 -18   0   8    0.61    0.89
 -16   0   8    2.36    1.02
 -14   0   8    3.41    1.03
 -12   0   8    1.82    0.84
 -10   0   8  105.44    3.90
  -8   0   8   30.08    2.38
  -6   0   8   19.26    1.97
  -4   0   8   53.96    2.69
  -2   0   8   38.66    2.69
   0   0   8   31.08    2.50
   2   0   8    9.81    1.53
   4   0   8   15.78    1.89
   6   0   8   84.53    3.74
   8   0   8    2.31    1.16
  10   0   8  107.21    6.34
 -19   1   8   97.71    4.47
 -17   1   8    0.57    0.97
 -15   1   8    4.90    1.24
 -13   1   8    0.73    0.79
 -11   1   8   48.48    2.91
  -9   1   8   -0.44    0.68
  -7   1   8   54.95    2.81
  -5   1   8  158.69    4.78
  -3   1   8   51.75    2.88
  -1   1   8   14.95    1.73
   1   1   8   -0.22    0.65
   3   1   8   13.45    1.77
   5   1   8   39.96    2.99
   7   1   8    9.61    1.66
   9   1   8    2.39    1.21
 -18   2   8    0.41    1.02
 -16   2   8    2.09    1.05
 -14   2   8    4.86    1.28
 -12   2   8    1.92    1.00
 -10   2   8   92.68    3.75
  -8   2   8   29.04    2.45
  -6   2   8   21.78    2.12
  -4   2   8   44.01    4.43
  -2   2   8   35.00    3.93
   0   2   8   23.18    3.27
   2   2   8   10.47    2.37
   4   2   8   14.18    2.73
   6   2   8   72.00    5.29
   8   2   8   -0.26    1.42
 -17   3   8    2.12    1.98
 -15   3   8    3.93    1.34
 -13   3   8   -0.10    1.00
 -11   3   8   36.82    3.03
  -9   3   8    0.05    0.87
  -7   3   8   38.23    3.04
  -5   3   8  120.38    4.54
  -3   3   8   37.24    2.99
  -1   3   8    5.98    1.41
   1   3   8    0.32    0.90
   3   3   8   11.73    1.90
   5   3   8   24.06    2.50
 -10   4   8   61.66    5.97
  -8   4   8   14.95    2.15
  -6   4   8   14.14    2.04
  -4   4   8   25.10    2.53
  -2   4   8   22.28    2.58
   0   4   8   17.17    2.33
 -11  -3   9   40.44    4.50
  -9  -3   9    8.82    2.49
  -7  -3   9   11.71    2.08
  -5  -3   9   31.14    3.30
  -3  -3   9    2.96    1.62
  -1  -3   9    9.77    2.55
 -14  -2   9    0.94    1.37
 -12  -2   9   -0.83    1.19
 -10  -2   9    5.92    1.98
  -8  -2   9   12.25    2.58
  -6  -2   9    2.56    1.43
  -4  -2   9   19.90    3.13
  -2  -2   9   43.22    4.58
   0  -2   9   56.82    5.17
   2  -2   9    4.98    2.07
   4  -2   9   24.83    3.77
 -17  -1   9    0.37    1.02
 -15  -1   9   29.85    2.73
 -13  -1   9   83.24    3.73
 -11  -1   9   55.70    2.97
  -9  -1   9   14.54    1.87
  -7  -1   9   19.63    2.09
  -5  -1   9   41.08    2.92
  -3  -1   9    2.82    1.45
  -1  -1   9    8.88    2.21
   1  -1   9  140.66    7.34
   3  -1   9    1.86    1.64
   5  -1   9   18.70    3.23
 -18   0   9    4.95    2.04
 -16   0   9  167.10    5.67
 -14   0   9    1.53    1.04
 -12   0   9    0.17    0.81
 -10   0   9    8.06    1.43
  -8   0   9   13.81    1.80
  -6   0   9    2.03    0.98
  -4   0   9   20.91    2.17
  -2   0   9   52.23    3.39
   0   0   9   63.84    3.23
   2   0   9    6.80    1.43
   4   0   9   27.78    2.61
   6   0   9   18.38    2.24
 -17   1   9   -0.17    0.99
 -15   1   9   23.05    2.49
 -13   1   9   83.43    3.80
 -11   1   9   54.28    3.55
  -9   1   9   14.86    1.92
  -7   1   9   18.67    2.07
  -5   1   9   43.85    3.09
  -3   1   9    1.97    1.03
  -1   1   9   11.95    1.71
   1   1   9  150.26    5.06
   3   1   9    1.92    1.12
   5   1   9   18.32    2.24
   7   1   9    4.55    2.14
 -14   2   9    1.29    1.38
 -12   2   9   -0.09    1.29
 -10   2   9    9.98    2.40
  -8   2   9    6.88    2.04
  -6   2   9    0.69    1.46
  -4   2   9   15.81    2.96
  -2   2   9   46.46    4.89
   0   2   9   47.45    4.86
   2   2   9    4.26    1.96
   4   2   9   22.16    3.63
 -11   3   9   40.23    4.76
  -9   3   9    8.68    2.40
  -7   3   9   12.21    2.78
  -5   3   9   33.39    4.35
  -3   3   9    1.76    1.61
  -1   3   9    4.84    2.10
  -8  -2  10   50.46    5.24
  -6  -2  10    1.41    1.75
  -4  -2  10   17.53    3.34
 -13  -1  10   22.54    3.71
 -11  -1  10    1.03    1.47
  -9  -1  10   21.82    3.46
  -7  -1  10    7.31    2.16
  -5  -1  10   54.61    5.24
  -3  -1  10   -0.23    1.32
  -1  -1  10   -0.33    1.26
 -14   0  10    1.44    1.14
 -12   0  10    8.40    1.64
 -10   0  10  102.17    4.31
  -8   0  10   58.26    3.46
  -6   0  10    3.35    1.23
  -4   0  10   16.38    2.13
  -2   0  10    6.34    1.47
   0   0  10    4.56    1.45
   2   0  10    6.18    2.23
 -13   1  10   20.52    2.41
 -11   1  10    1.62    1.12
  -9   1  10   19.02    2.03
  -7   1  10    8.35    1.65
  -5   1  10   53.03    3.62
  -3   1  10   -0.20    1.03
  -1   1  10    0.81    1.09
   1   1  10    0.08    1.09
  -8   2  10   44.14    5.01
  -6   2  10    3.74    1.97
  -4   2  10   12.07    2.94
   0   0   0    0.00    0.00
;
_shelx_hkl_checksum              52232
#END Tags that were not found in dictionaries
loop_
_space_group_symop_operation_xyz
'x, y, z'
'-x, y, -z'
'x+1/2, y+1/2, z'
'-x+1/2, y+1/2, -z'
'-x, -y, -z'
'x, -y, z'
'-x+1/2, -y+1/2, -z'
'x+1/2, -y+1/2, z'
loop_
_atom_site_label
_atom_site_type_symbol
_atom_site_fract_x
_atom_site_fract_y
_atom_site_fract_z
_atom_site_U_iso_or_equiv
_atom_site_adp_type
_atom_site_occupancy
_atom_site_site_symmetry_order
_atom_site_calc_flag
_atom_site_refinement_flags_posn
_atom_site_refinement_flags_adp
_atom_site_refinement_flags_occupancy
Sm1 Sm 0.34901(2) 0.0000 0.06477(5) 0.00638(9) Uani 1 2 d S T P
Sm2 Sm 0.58809(2) 0.0000 0.38265(5) 0.00604(9) Uani 1 2 d S T P
Ru Ru 0.21920(3) 0.0000 0.62921(8) 0.00540(11) Uani 1 2 d S T P
In In 0.0000 0.0000 0.0000 0.0082(2) Uani 0.965(3) 4 d S T .
Ge1 Ge 0.06489(5) 0.0000 0.65616(11) 0.00613(14) Uani 1 2 d S T P
Ge2 Ge 0.20642(5) 0.0000 0.26868(11) 0.00675(14) Uani 1 2 d S T P
loop_
_atom_site_aniso_label
_atom_site_aniso_U_11
_atom_site_aniso_U_22
_atom_site_aniso_U_33
_atom_site_aniso_U_23
_atom_site_aniso_U_13
_atom_site_aniso_U_12
Sm1 0.00668(15) 0.00686(16) 0.00542(16) 0.000 0.00140(12) 0.000
Sm2 0.00636(15) 0.00599(16) 0.00632(16) 0.000 0.00267(12) 0.000
Ru 0.0055(2) 0.0053(2) 0.0057(2) 0.000 0.00215(18) 0.000
In 0.0089(3) 0.0091(3) 0.0072(3) 0.000 0.0032(3) 0.000
Ge1 0.0063(3) 0.0064(3) 0.0056(3) 0.000 0.0014(3) 0.000
Ge2 0.0088(3) 0.0055(3) 0.0064(3) 0.000 0.0029(3) 0.000
loop_
_atom_type_symbol
_atom_type_description
_atom_type_scat_dispersion_real
_atom_type_scat_dispersion_imag
_atom_type_scat_source
Ge Ge 0.1547 1.8001 'International Tables Vol C Tables 4.2.6.8 and 6.1.1.4'
Ru Ru -1.2594 0.8363 'International Tables Vol C Tables 4.2.6.8 and 6.1.1.4'
In In -0.7276 1.3100 'International Tables Vol C Tables 4.2.6.8 and 6.1.1.4'
Sm Sm -0.1638 3.4418 'International Tables Vol C Tables 4.2.6.8 and 6.1.1.4'
loop_
_geom_angle_atom_site_label_1
_geom_angle_atom_site_label_2
_geom_angle_atom_site_label_3
_geom_angle
_geom_angle_site_symmetry_1
_geom_angle_site_symmetry_3
Ge1 Sm1 Ge1 92.65(2) 7_556 7_546
Ge1 Sm1 Ge2 86.94(2) 7_556 .
Ge1 Sm1 Ge2 86.94(2) 7_546 .
Ge1 Sm1 Ge2 167.15(2) 7_556 7_545
Ge1 Sm1 Ge2 88.840(19) 7_546 7_545
Ge2 Sm1 Ge2 105.891(18) . 7_545
Ge1 Sm1 Ge2 88.840(19) 7_556 7
Ge1 Sm1 Ge2 167.15(2) 7_546 7
Ge2 Sm1 Ge2 105.891(18) . 7
Ge2 Sm1 Ge2 86.94(2) 7_545 7
Ge1 Sm1 Ru 133.663(13) 7_556 1_554
Ge1 Sm1 Ru 133.663(13) 7_546 1_554
Ge2 Sm1 Ru 95.64(2) . 1_554
Ge2 Sm1 Ru 45.915(13) 7_545 1_554
Ge2 Sm1 Ru 45.915(13) 7 1_554
Ge1 Sm1 In 54.182(16) 7_556 3
Ge1 Sm1 In 110.247(19) 7_546 3
Ge2 Sm1 In 136.861(9) . 3
Ge2 Sm1 In 113.449(17) 7_545 3
Ge2 Sm1 In 60.795(15) 7 3
Ru Sm1 In 99.064(14) 1_554 3
Ge1 Sm1 In 110.247(19) 7_556 3_545
Ge1 Sm1 In 54.182(16) 7_546 3_545
Ge2 Sm1 In 136.861(9) . 3_545
Ge2 Sm1 In 60.795(15) 7_545 3_545
Ge2 Sm1 In 113.449(17) 7 3_545
Ru Sm1 In 99.064(14) 1_554 3_545
In Sm1 In 80.152(15) 3 3_545
Ge1 Sm1 Ru 45.253(18) 7_556 7_556
Ge1 Sm1 Ru 101.65(2) 7_546 7_556
Ge2 Sm1 Ru 44.295(11) . 7_556
Ge2 Sm1 Ru 146.567(19) 7_545 7_556
Ge2 Sm1 Ru 88.441(18) 7 7_556
Ru Sm1 Ru 112.199(16) 1_554 7_556
In Sm1 Ru 92.746(12) 3 7_556
In Sm1 Ru 148.683(14) 3_545 7_556
Ge1 Sm1 Ru 101.65(2) 7_556 7_546
Ge1 Sm1 Ru 45.253(18) 7_546 7_546
Ge2 Sm1 Ru 44.295(11) . 7_546
Ge2 Sm1 Ru 88.441(18) 7_545 7_546
Ge2 Sm1 Ru 146.567(19) 7 7_546
Ru Sm1 Ru 112.199(16) 1_554 7_546
In Sm1 Ru 148.683(14) 3 7_546
In Sm1 Ru 92.746(12) 3_545 7_546
Ru Sm1 Ru 77.551(18) 7_556 7_546
Ge1 Sm1 Sm2 113.361(18) 7_556 5_655
Ge1 Sm1 Sm2 113.361(18) 7_546 5_655
Ge2 Sm1 Sm2 149.396(19) . 5_655
Ge2 Sm1 Sm2 54.702(15) 7_545 5_655
Ge2 Sm1 Sm2 54.702(15) 7 5_655
Ru Sm1 Sm2 53.759(17) 1_554 5_655
In Sm1 Sm2 59.282(7) 3 5_655
In Sm1 Sm2 59.282(7) 3_545 5_655
Ru Sm1 Sm2 140.657(9) 7_556 5_655
Ru Sm1 Sm2 140.657(9) 7_546 5_655
Ge1 Sm1 Sm1 141.41(2) 7_556 7_545
Ge1 Sm1 Sm1 86.527(16) 7_546 7_545
Ge2 Sm1 Sm1 54.483(15) . 7_545
Ge2 Sm1 Sm1 51.408(15) 7_545 7_545
Ge2 Sm1 Sm1 100.218(19) 7 7_545
Ru Sm1 Sm1 59.406(13) 1_554 7_545
In Sm1 Sm1 158.399(17) 3 7_545
In Sm1 Sm1 100.373(13) 3_545 7_545
Ru Sm1 Sm1 97.158(17) 7_556 7_545
Ru Sm1 Sm1 52.793(13) 7_546 7_545
Sm2 Sm1 Sm1 102.150(14) 5_655 7_545
Ge1 Sm2 Ge1 92.26(3) 3 3_545
Ge1 Sm2 Ru 108.866(17) 3 5_656
Ge1 Sm2 Ru 108.866(17) 3_545 5_656
Ge1 Sm2 Ge2 82.120(18) 3 3
Ge1 Sm2 Ge2 149.54(2) 3_545 3
Ru Sm2 Ge2 46.918(13) 5_656 3
Ge1 Sm2 Ge2 149.54(2) 3 3_545
Ge1 Sm2 Ge2 82.120(18) 3_545 3_545
Ru Sm2 Ge2 46.918(13) 5_656 3_545
Ge2 Sm2 Ge2 87.72(2) 3 3_545
Ge1 Sm2 Ru 48.071(18) 3 3
Ge1 Sm2 Ru 108.48(2) 3_545 3
Ru Sm2 Ru 60.829(15) 5_656 3
Ge2 Sm2 Ru 47.093(19) 3 3
Ge2 Sm2 Ru 105.43(2) 3_545 3
Ge1 Sm2 Ru 108.48(2) 3 3_545
Ge1 Sm2 Ru 48.071(18) 3_545 3_545
Ru Sm2 Ru 60.829(15) 5_656 3_545
Ge2 Sm2 Ru 105.43(2) 3 3_545
Ge2 Sm2 Ru 47.093(19) 3_545 3_545
Ru Sm2 Ru 86.203(19) 3 3_545
Ge1 Sm2 Ge1 108.161(15) 3 7_546
Ge1 Sm2 Ge1 48.67(2) 3_545 7_546
Ru Sm2 Ge1 137.021(12) 5_656 7_546
Ge2 Sm2 Ge1 160.62(2) 3 7_546
Ge2 Sm2 Ge1 90.525(18) 3_545 7_546
Ru Sm2 Ge1 150.74(2) 3 7_546
Ru Sm2 Ge1 87.202(17) 3_545 7_546
Ge1 Sm2 Ge1 48.67(2) 3 7_556
Ge1 Sm2 Ge1 108.161(15) 3_545 7_556
Ru Sm2 Ge1 137.021(12) 5_656 7_556
Ge2 Sm2 Ge1 90.525(18) 3 7_556
Ge2 Sm2 Ge1 160.62(2) 3_545 7_556
Ru Sm2 Ge1 87.202(17) 3 7_556
Ru Sm2 Ge1 150.74(2) 3_545 7_556
Ge1 Sm2 Ge1 84.77(2) 7_546 7_556
Ge1 Sm2 In 150.071(19) 3 3_545
Ge1 Sm2 In 87.790(17) 3_545 3_545
Ru Sm2 In 99.351(13) 5_656 3_545
Ge2 Sm2 In 111.724(19) 3 3_545
Ge2 Sm2 In 60.011(16) 3_545 3_545
Ru Sm2 In 157.218(15) 3 3_545
Ru Sm2 In 93.673(13) 3_545 3_545
Ge1 Sm2 In 51.729(14) 7_546 3_545
Ge1 Sm2 In 103.122(16) 7_556 3_545
Ge1 Sm2 In 87.790(17) 3 3
Ge1 Sm2 In 150.071(19) 3_545 3
Ru Sm2 In 99.351(12) 5_656 3
Ge2 Sm2 In 60.011(16) 3 3
Ge2 Sm2 In 111.724(19) 3_545 3
Ru Sm2 In 93.673(13) 3 3
Ru Sm2 In 157.218(15) 3_545 3
Ge1 Sm2 In 103.122(16) 7_546 3
Ge1 Sm2 In 51.729(14) 7_556 3
In Sm2 In 77.774(15) 3_545 3
Ge1 Sm2 Ge2 78.650(19) 3 5_656
Ge1 Sm2 Ge2 78.650(19) 3_545 5_656
Ru Sm2 Ge2 44.313(19) 5_656 5_656
Ge2 Sm2 Ge2 70.89(2) 3 5_656
Ge2 Sm2 Ge2 70.89(2) 3_545 5_656
Ru Sm2 Ge2 43.236(10) 3 5_656
Ru Sm2 Ge2 43.236(9) 3_545 5_656
Ge1 Sm2 Ge2 126.472(16) 7_546 5_656
Ge1 Sm2 Ge2 126.472(16) 7_556 5_656
In Sm2 Ge2 130.394(11) 3_545 5_656
In Sm2 Ge2 130.394(11) 3 5_656
Ge2 Ru Ge2 121.99(4) 7_556 7_546
Ge2 Ru Ge2 101.10(2) 7_556 .
Ge2 Ru Ge2 101.10(2) 7_546 .
Ge2 Ru Ge1 111.92(2) 7_556 .
Ge2 Ru Ge1 111.92(2) 7_546 .
Ge2 Ru Ge1 106.25(3) . .
Ge2 Ru Sm2 67.205(19) 7_556 5_656
Ge2 Ru Sm2 67.205(19) 7_546 5_656
Ge2 Ru Sm2 76.43(2) . 5_656
Ge1 Ru Sm2 177.31(3) . 5_656
Ge2 Ru Sm2 160.90(2) 7_556 3_445
Ge2 Ru Sm2 75.508(19) 7_546 3_445
Ge2 Ru Sm2 65.535(17) . 3_445
Ge1 Ru Sm2 62.523(17) . 3_445
Sm2 Ru Sm2 119.172(15) 5_656 3_445
Ge2 Ru Sm2 75.508(19) 7_556 3_455
Ge2 Ru Sm2 160.90(2) 7_546 3_455
Ge2 Ru Sm2 65.535(17) . 3_455
Ge1 Ru Sm2 62.523(17) . 3_455
Sm2 Ru Sm2 119.172(15) 5_656 3_455
Sm2 Ru Sm2 86.201(19) 3_445 3_455
Ge2 Ru Sm1 65.940(19) 7_556 1_556
Ge2 Ru Sm1 65.940(19) 7_546 1_556
Ge2 Ru Sm1 146.17(3) . 1_556
Ge1 Ru Sm1 107.58(3) . 1_556
Sm2 Ru Sm1 69.733(16) 5_656 1_556
Sm2 Ru Sm1 132.752(12) 3_445 1_556
Sm2 Ru Sm1 132.752(12) 3_455 1_556
Ge2 Ru Sm1 58.48(2) 7_556 7_556
Ge2 Ru Sm1 124.94(3) 7_546 7_556
Ge2 Ru Sm1 133.910(15) . 7_556
Ge1 Ru Sm1 57.590(15) . 7_556
Sm2 Ru Sm1 120.586(14) 5_656 7_556
Sm2 Ru Sm1 120.07(2) 3_445 7_556
Sm2 Ru Sm1 69.216(15) 3_455 7_556
Sm1 Ru Sm1 67.801(16) 1_556 7_556
Ge2 Ru Sm1 124.94(3) 7_556 7_546
Ge2 Ru Sm1 58.48(2) 7_546 7_546
Ge2 Ru Sm1 133.910(16) . 7_546
Ge1 Ru Sm1 57.590(15) . 7_546
Sm2 Ru Sm1 120.586(14) 5_656 7_546
Sm2 Ru Sm1 69.216(15) 3_445 7_546
Sm2 Ru Sm1 120.066(19) 3_455 7_546
Sm1 Ru Sm1 67.801(16) 1_556 7_546
Sm1 Ru Sm1 77.551(18) 7_556 7_546
Ge1 In Ge1 180.00(2) 5_556 1_554
Ge1 In Sm1 56.426(11) 5_556 3_445
Ge1 In Sm1 123.574(11) 1_554 3_445
Ge1 In Sm1 123.574(11) 5_556 7
Ge1 In Sm1 56.426(11) 1_554 7
Sm1 In Sm1 180.0 3_445 7
Ge1 In Sm1 123.574(11) 5_556 7_545
Ge1 In Sm1 56.426(11) 1_554 7_545
Sm1 In Sm1 99.848(15) 3_445 7_545
Sm1 In Sm1 80.152(15) 7 7_545
Ge1 In Sm1 56.426(11) 5_556 3_455
Ge1 In Sm1 123.574(11) 1_554 3_455
Sm1 In Sm1 80.152(15) 3_445 3_455
Sm1 In Sm1 99.848(15) 7 3_455
Sm1 In Sm1 180.0 7_545 3_455
Ge1 In Sm2 59.936(14) 5_556 3_455
Ge1 In Sm2 120.064(14) 1_554 3_455
Sm1 In Sm2 116.244(12) 3_445 3_455
Sm1 In Sm2 63.756(11) 7 3_455
Sm1 In Sm2 111.478(11) 7_545 3_455
Sm1 In Sm2 68.522(11) 3_455 3_455
Ge1 In Sm2 120.064(14) 5_556 7_545
Ge1 In Sm2 59.936(14) 1_554 7_545
Sm1 In Sm2 63.756(11) 3_445 7_545
Sm1 In Sm2 116.244(12) 7 7_545
Sm1 In Sm2 68.522(11) 7_545 7_545
Sm1 In Sm2 111.478(11) 3_455 7_545
Sm2 In Sm2 180.0 3_455 7_545
Ge1 In Sm2 59.936(14) 5_556 3_445
Ge1 In Sm2 120.064(14) 1_554 3_445
Sm1 In Sm2 68.522(11) 3_445 3_445
Sm1 In Sm2 111.478(11) 7 3_445
Sm1 In Sm2 63.756(11) 7_545 3_445
Sm1 In Sm2 116.244(11) 3_455 3_445
Sm2 In Sm2 77.775(15) 3_455 3_445
Sm2 In Sm2 102.225(15) 7_545 3_445
Ge1 In Sm2 120.064(14) 5_556 7
Ge1 In Sm2 59.936(14) 1_554 7
Sm1 In Sm2 111.478(11) 3_445 7
Sm1 In Sm2 68.522(11) 7 7
Sm1 In Sm2 116.244(11) 7_545 7
Sm1 In Sm2 63.756(11) 3_455 7
Sm2 In Sm2 102.225(15) 3_455 7
Sm2 In Sm2 77.775(15) 7_545 7
Sm2 In Sm2 180.0 3_445 7
Ru Ge1 Ge1 119.78(5) . 5_556
Ru Ge1 In 130.58(3) . 1_556
Ge1 Ge1 In 109.64(4) 5_556 1_556
Ru Ge1 Sm1 77.16(2) . 7_556
Ge1 Ge1 Sm1 132.679(14) 5_556 7_556
In Ge1 Sm1 69.392(18) 1_556 7_556
Ru Ge1 Sm1 77.16(2) . 7_546
Ge1 Ge1 Sm1 132.679(14) 5_556 7_546
In Ge1 Sm1 69.392(18) 1_556 7_546
Sm1 Ge1 Sm1 92.65(2) 7_556 7_546
Ru Ge1 Sm2 69.406(18) . 3_445
Ge1 Ge1 Sm2 69.90(2) 5_556 3_445
In Ge1 Sm2 133.024(13) 1_556 3_445
Sm1 Ge1 Sm2 146.47(3) 7_556 3_445
Sm1 Ge1 Sm2 77.922(16) 7_546 3_445
Ru Ge1 Sm2 69.406(18) . 3_455
Ge1 Ge1 Sm2 69.90(2) 5_556 3_455
In Ge1 Sm2 133.024(13) 1_556 3_455
Sm1 Ge1 Sm2 77.922(16) 7_556 3_455
Sm1 Ge1 Sm2 146.47(3) 7_546 3_455
Sm2 Ge1 Sm2 92.26(3) 3_445 3_455
Ru Ge1 Sm2 136.554(13) . 7_546
Ge1 Ge1 Sm2 61.42(2) 5_556 7_546
In Ge1 Sm2 68.335(16) 1_556 7_546
Sm1 Ge1 Sm2 137.54(3) 7_556 7_546
Sm1 Ge1 Sm2 76.265(15) 7_546 7_546
Sm2 Ge1 Sm2 71.838(15) 3_445 7_546
Sm2 Ge1 Sm2 131.32(2) 3_455 7_546
Ru Ge1 Sm2 136.554(13) . 7_556
Ge1 Ge1 Sm2 61.42(2) 5_556 7_556
In Ge1 Sm2 68.335(16) 1_556 7_556
Sm1 Ge1 Sm2 76.265(15) 7_556 7_556
Sm1 Ge1 Sm2 137.54(3) 7_546 7_556
Sm2 Ge1 Sm2 131.32(2) 3_445 7_556
Sm2 Ge1 Sm2 71.838(15) 3_455 7_556
Sm2 Ge1 Sm2 84.77(2) 7_546 7_556
Ru Ge2 Ru 121.99(4) 7_556 7_546
Ru Ge2 Ru 78.90(2) 7_556 .
Ru Ge2 Ru 78.90(2) 7_546 .
Ru Ge2 Sm1 77.22(2) 7_556 .
Ru Ge2 Sm1 77.22(2) 7_546 .
Ru Ge2 Sm1 129.47(3) . .
Ru Ge2 Sm2 143.45(3) 7_556 3_445
Ru Ge2 Sm2 65.879(18) 7_546 3_445
Ru Ge2 Sm2 67.372(18) . 3_445
Sm1 Ge2 Sm2 135.670(12) . 3_445
Ru Ge2 Sm2 65.879(18) 7_556 3_455
Ru Ge2 Sm2 143.45(3) 7_546 3_455
Ru Ge2 Sm2 67.372(18) . 3_455
Sm1 Ge2 Sm2 135.670(12) . 3_455
Sm2 Ge2 Sm2 87.72(2) 3_445 3_455
Ru Ge2 Sm1 146.22(3) 7_556 7_545
Ru Ge2 Sm1 68.146(17) 7_546 7_545
Ru Ge2 Sm1 133.858(15) . 7_545
Sm1 Ge2 Sm1 74.108(18) . 7_545
Sm2 Ge2 Sm1 70.017(15) 3_445 7_545
Sm2 Ge2 Sm1 127.71(3) 3_455 7_545
Ru Ge2 Sm1 68.146(17) 7_556 7
Ru Ge2 Sm1 146.22(3) 7_546 7
Ru Ge2 Sm1 133.858(15) . 7
Sm1 Ge2 Sm1 74.108(18) . 7
Sm2 Ge2 Sm1 127.71(3) 3_445 7
Sm2 Ge2 Sm1 70.017(15) 3_455 7
Sm1 Ge2 Sm1 86.94(2) 7_545 7
Ru Ge2 Sm2 61.255(18) 7_556 5_656
Ru Ge2 Sm2 61.255(18) 7_546 5_656
Ru Ge2 Sm2 59.25(2) . 5_656
Sm1 Ge2 Sm2 70.22(2) . 5_656
Sm2 Ge2 Sm2 109.11(2) 3_445 5_656
Sm2 Ge2 Sm2 109.11(2) 3_455 5_656
Sm1 Ge2 Sm2 122.665(17) 7_545 5_656
Sm1 Ge2 Sm2 122.665(17) 7 5_656
loop_
_geom_bond_atom_site_label_1
_geom_bond_atom_site_label_2
_geom_bond_distance
_geom_bond_site_symmetry_2
Sm1 Ge1 2.9849(6) 7_556
Sm1 Ge1 2.9849(6) 7_546
Sm1 Ge2 3.0133(9) .
Sm1 Ge2 3.1380(7) 7_545
Sm1 Ge2 3.1380(7) 7
Sm1 Ru 3.1896(8) 1_554
Sm1 In 3.3533(5) 3
Sm1 In 3.3533(5) 3_545
Sm1 Ru 3.4472(6) 7_556
Sm1 Ru 3.4472(6) 7_546
Sm1 Sm2 3.5878(7) 5_655
Sm1 Sm1 3.7079(7) 7_545
Sm2 Ge1 2.9945(7) 3
Sm2 Ge1 2.9945(7) 3_545
Sm2 Ru 3.0846(8) 5_656
Sm2 Ge2 3.1158(6) 3
Sm2 Ge2 3.1158(6) 3_545
Sm2 Ru 3.1596(5) 3
Sm2 Ru 3.1596(5) 3_545
Sm2 Ge1 3.2025(7) 7_546
Sm2 Ge1 3.2025(7) 7_556
Sm2 In 3.4389(5) 3_545
Sm2 In 3.4389(5) 3
Sm2 Ge2 3.4890(9) 5_656
Ru Ge2 2.4685(5) 7_556
Ru Ge2 2.4685(5) 7_546
Ru Ge2 2.5073(10) .
Ru Ge1 2.5112(9) .
Ru Sm2 3.0847(8) 5_656
Ru Sm2 3.1596(5) 3_445
Ru Sm2 3.1596(5) 3_455
Ru Sm1 3.1895(8) 1_556
Ru Sm1 3.4472(6) 7_556
Ru Sm1 3.4472(6) 7_546
In Ge1 2.9051(8) 5_556
In Ge1 2.9051(8) 1_554
In Sm1 3.3534(5) 3_445
In Sm1 3.3534(5) 7
In Sm1 3.3534(5) 7_545
In Sm1 3.3534(5) 3_455
In Sm2 3.4389(5) 3_455
In Sm2 3.4389(5) 7_545
In Sm2 3.4389(5) 3_445
In Sm2 3.4389(5) 7
Ge1 Ge1 2.5609(15) 5_556
Ge1 In 2.9050(8) 1_556
Ge1 Sm1 2.9849(6) 7_556
Ge1 Sm1 2.9849(6) 7_546
Ge1 Sm2 2.9946(7) 3_445
Ge1 Sm2 2.9946(7) 3_455
Ge1 Sm2 3.2025(7) 7_546
Ge1 Sm2 3.2025(7) 7_556
Ge2 Ru 2.4685(5) 7_556
Ge2 Ru 2.4685(5) 7_546
Ge2 Sm2 3.1158(6) 3_445
Ge2 Sm2 3.1158(6) 3_455
Ge2 Sm1 3.1379(7) 7_545
Ge2 Sm1 3.1379(7) 7
Ge2 Sm2 3.4890(9) 5_656
