#------------------------------------------------------------------------------
#$Date: 2016-03-24 00:18:40 +0200 (Thu, 24 Mar 2016) $
#$Revision: 179530 $
#$URL: svn://www.crystallography.net/cod/cif/4/34/27/4342746.cif $
#------------------------------------------------------------------------------
#
# This file is available in the Crystallography Open Database (COD),
# http://www.crystallography.net/
#
# All data on this site have been placed in the public domain by the
# contributors.
#
data_4342746
loop_
_publ_author_name
'Mesbah, Adel'
'Prakash, Jai'
'Beard, Jessica C.'
'Leb\`egue, S\'ebastien'
'Malliakas, Christos D.'
'Ibers, James A.'
_publ_section_title
;
 Syntheses, Crystal Structures, Optical and Theoretical Studies of the
 Actinide Thiophosphates SrU(PS4)2, BaU(PS4)2, and SrTh(PS4)2.
;
_journal_issue                   6
_journal_name_full               'Inorganic chemistry'
_journal_page_first              2970
_journal_page_last               2975
_journal_paper_doi               10.1021/acs.inorgchem.5b00071
_journal_volume                  54
_journal_year                    2015
_chemical_formula_sum            'P2 S8 Sr Th'
_chemical_formula_weight         638.08
_chemical_name_common            SrThP2S8
_space_group_crystal_system      tetragonal
_space_group_IT_number           135
_space_group_name_Hall           '-P 4c 2ab'
_space_group_name_H-M_alt        'P 42/m b c'
_symmetry_space_group_name_Hall  '-P 4c 2ab'
_symmetry_space_group_name_H-M   'P 42/m b c'
_atom_sites_solution_primary     direct
_atom_sites_solution_secondary   difmap
_audit_creation_method           SHELXL-2014/6
_cell_angle_alpha                90
_cell_angle_beta                 90
_cell_angle_gamma                90
_cell_formula_units_Z            4
_cell_length_a                   11.0284(12)
_cell_length_b                   11.0284(12)
_cell_length_c                   9.6725(9)
_cell_measurement_reflns_used    9150
_cell_measurement_temperature    100(2)
_cell_measurement_theta_max      30.00
_cell_measurement_theta_min      3.69
_cell_volume                     1176.4(2)
_computing_cell_refinement       'Bruker SAINT'
_computing_data_collection       'Bruker APEX2'
_computing_data_reduction        'Bruker SAINT'
_computing_molecular_graphics    'Bruker SHELXTL'
_computing_publication_material  'Bruker SHELXTL'
_computing_structure_refinement  'SHELXL-2014/6 (Sheldrick, 2014)'
_computing_structure_solution    'SHELXL-2012/1 (Sheldrick, 2012)'
_diffrn_ambient_temperature      100(2)
_diffrn_measured_fraction_theta_full 0.998
_diffrn_measured_fraction_theta_max 0.999
_diffrn_measurement_device_type  'Bruker APEX-II CCD'
_diffrn_measurement_method       '\f and \w scans'
_diffrn_radiation_type           MoK\a
_diffrn_radiation_wavelength     0.71073
_diffrn_reflns_av_R_equivalents  0.0233
_diffrn_reflns_av_unetI/netI     0.0069
_diffrn_reflns_Laue_measured_fraction_full 0.998
_diffrn_reflns_Laue_measured_fraction_max 0.999
_diffrn_reflns_limit_h_max       15
_diffrn_reflns_limit_h_min       -15
_diffrn_reflns_limit_k_max       15
_diffrn_reflns_limit_k_min       -15
_diffrn_reflns_limit_l_max       13
_diffrn_reflns_limit_l_min       -13
_diffrn_reflns_number            23672
_diffrn_reflns_point_group_measured_fraction_full 0.998
_diffrn_reflns_point_group_measured_fraction_max 0.999
_diffrn_reflns_theta_full        25.242
_diffrn_reflns_theta_max         30.036
_diffrn_reflns_theta_min         3.695
_diffrn_source                   'fine-focus sealed tube'
_exptl_absorpt_coefficient_mu    18.795
_exptl_absorpt_correction_T_max  0.70644
_exptl_absorpt_correction_T_min  0.35247
_exptl_absorpt_correction_type   numerical
_exptl_absorpt_process_details   'face indexed (SADABS; Sheldrick, 2012/1)'
_exptl_crystal_colour            yellow
_exptl_crystal_density_diffrn    3.603
_exptl_crystal_density_meas      ?
_exptl_crystal_density_method    'not measured'
_exptl_crystal_description       Needle
_exptl_crystal_F_000             1144
_exptl_crystal_size_max          0.111
_exptl_crystal_size_mid          0.043
_exptl_crystal_size_min          0.025
_refine_diff_density_max         0.648
_refine_diff_density_min         -0.618
_refine_diff_density_rms         0.138
_refine_ls_extinction_coef       0.00033(5)
_refine_ls_extinction_expression Fc^*^=kFc[1+0.001xFc^2^\l^3^/sin(2\q)]^-1/4^
_refine_ls_extinction_method     SHELXL
_refine_ls_goodness_of_fit_ref   1.472
_refine_ls_hydrogen_treatment    undef
_refine_ls_matrix_type           full
_refine_ls_number_parameters     34
_refine_ls_number_reflns         909
_refine_ls_number_restraints     0
_refine_ls_restrained_S_all      1.472
_refine_ls_R_factor_all          0.0130
_refine_ls_R_factor_gt           0.0103
_refine_ls_shift/su_max          0.000
_refine_ls_shift/su_mean         0.000
_refine_ls_structure_factor_coef Fsqd
_refine_ls_weighting_details
'w=1/[\s^2^(Fo^2^)+(0.0116P)^2^] where P=(1.0000Fo^2^+0.0000Fc^2^)'
_refine_ls_weighting_scheme      calc
_refine_ls_wR_factor_gt          0.0258
_refine_ls_wR_factor_ref         0.0277
_reflns_Friedel_coverage         0.000
_reflns_number_gt                829
_reflns_number_total             909
_reflns_threshold_expression     'I > 2\s(I)'
_cod_data_source_file            ic5b00071_si_001.cif
_cod_data_source_block           SrThP2S8
_cod_depositor_comments
;
The following automatic conversions were performed:

'_exptl_crystal_density_meas' value 'not measured' was changed to '?'
- the value is perceived as not measured.

Automatic conversion script
Id: cif_fix_values 3143 2015-03-26 13:38:13Z robertas 
;
_cod_original_cell_volume        1176.4(3)
_cod_database_code               4342746
#BEGIN Tags that were not found in dictionaries:
_shelx_space_group_comment
;
The symmetry employed for this shelxl refinement is uniquely defined
by the following loop, which should always be used as a source of
symmetry information in preference to the above space-group names.
They are only intended as comments.
;
_shelx_estimated_absorpt_t_min   0.229
_shelx_estimated_absorpt_t_max   0.651
_shelxl_version_number           2014/6
_shelx_res_file
;
TITL t in P4(2)/mbc
CELL 0.71073  11.0284  11.0284   9.6725  90.000  90.000  90.000
ZERR    4.00   0.0012   0.0012   0.0009   0.000   0.000   0.000
LATT  1
SYMM -X, -Y, Z
SYMM -Y, X, 0.5+Z
SYMM Y, -X, 0.5+Z
SYMM 0.5-X, 0.5+Y, -Z
SYMM 0.5+X, 0.5-Y, -Z
SYMM 0.5+Y, 0.5+X, 0.5-Z
SYMM 0.5-Y, 0.5-X, 0.5-Z
SFAC P S SR TH
UNIT 8 32 4 4
TEMP -173.430
SIZE 0.025 0.043 0.111
acta
omit 1 1 0
L.S. 4
BOND
FMAP 2
PLAN 20
WGHT    0.011600    0.000000    0.000000    0.000000    0.000000    1.000000
EXTI    0.000331
FVAR       0.19279
TH1   4    0.000000    0.000000    0.250000    10.25000    0.00541    0.00541 =
         0.00437    0.00000    0.00000    0.00000
SR1   3    0.000000    0.500000    0.250000    10.25000    0.00714    0.00714 =
         0.00608    0.00000    0.00000   -0.00008
P1    1    0.035157    0.240980    0.000000    10.50000    0.00565    0.00555 =
         0.00505    0.00000    0.00000    0.00043
S1    2    0.235978    0.071420    0.327377    11.00000    0.00641    0.00887 =
         0.00729    0.00258   -0.00010   -0.00080
S2    2    0.135886    0.082732    0.000000    10.50000    0.00639    0.00629 =
         0.00569    0.00000    0.00000    0.00083
S3    2    0.136735    0.391076    0.000000    10.50000    0.00751    0.00651 =
         0.00846    0.00000    0.00000   -0.00114
HKLF 4

REM  t in P4(2)/mbc
REM R1 =  0.0103 for     829 Fo > 4sig(Fo)  and  0.0130 for all     909 data
REM     34 parameters refined using      0 restraints

END

WGHT      0.0116      0.8229

REM Highest difference peak  0.648,  deepest hole -0.618,  1-sigma level  0.138
Q1    1   0.0000  0.0000  0.1728  10.50000  0.05    0.65
Q2    1   0.0000  0.5000  0.1956  10.50000  0.05    0.48
Q3    1   0.2393  0.0741  0.3960  11.00000  0.05    0.36
Q4    1   0.0209  0.1021  0.1262  11.00000  0.05    0.35
Q5    1   0.0628  0.4791  0.1172  11.00000  0.05    0.34
Q6    1   0.0013  0.2397  0.0665  11.00000  0.05    0.34
Q7    1   0.1267  0.4191  0.1096  11.00000  0.05    0.34
Q8    1   0.2245  0.0237  0.1394  11.00000  0.05    0.31
Q9    1   0.0878  0.1578  0.0600  11.00000  0.05    0.29
Q10   1   0.2861  0.1199  0.3652  11.00000  0.05    0.29
Q11   1   0.3705  0.1541  0.3680  11.00000  0.05    0.29
Q12   1   0.1153 -0.0189 -0.1304  11.00000  0.05    0.28
Q13   1   0.1021  0.0779  0.1136  11.00000  0.05    0.28
Q14   1   0.1422  0.0607  0.0901  11.00000  0.05    0.28
Q15   1   0.3575  0.0620  0.3698  11.00000  0.05    0.27
Q16   1   0.3029  0.1784  0.3147  11.00000  0.05    0.26
Q17   1   0.2267  0.1195  0.1265  11.00000  0.05    0.26
Q18   1   0.1713  0.0123  0.3878  11.00000  0.05    0.26
Q19   1   0.0062  0.0311  0.0896  11.00000  0.05    0.25
Q20   1   0.3448  0.0865  0.3577  11.00000  0.05    0.25
;
_shelx_res_checksum              50933
_shelx_hkl_file
;
  -1   0   0 -10.072   0.440   4
   1   1   0 -2.4138  0.7783   4
  -1  -1   0 -2.0758  0.7810   4
  -1   1   0 -2.4273  0.7407   4
   1  -1   0 -2.0338  0.7706   4
  -2   0   0 6432.48  117.76   4
   0  -2   0 6395.19  112.72   9
   2   0   0 6296.36  117.75   4
  -1  -2   0 -4.2640  1.4318   9
   2  -1   0 -2.4428  1.5718   4
  -2   1   0 2.02393 1.84792   4
  -2   1   0 -2.7083  1.5184   9
   2   1   0 -3.0593  1.6001   4
   1   2   0 -2.3713  1.5339   9
  -2  -1   0 0.23858 1.52956   9
  -1   2   0 -2.3289  1.5967   9
   1  -2   0 -3.6543  1.4843   9
   2  -1   0 -3.9933  1.5202   9
  -1  -2   0 -3.0183  1.7386   4
   1   2   0 -2.5095  1.7042   4
   2   1   0 -4.3187  1.5388   9
  -2  -1   0 -0.7524  1.7862   4
   2   2   0 1436.66   26.67   9
  -2  -2   0 1390.43   28.16   4
   2   2   0 1419.33   28.19   4
  -2  -2   0 1420.66   26.47   9
  -2   2   0 1376.43   28.13   4
  -2   2   0 1385.01   26.49   9
   2  -2   0 1411.25   26.58   9
   0   3   0 1.35170 1.85281   9
  -3   0   0 1.06280 1.74690   9
   0  -3   0 -2.9511  1.5916   9
   0   3   0 -1.8352  1.8907   2
  -3   0   0 -0.5049  1.9576   4
   3   0   0 -1.7779  1.7286   4
   3   0   0 -2.0387  1.7211   9
   3   1   0 834.922  16.680   9
  -1   3   0 834.540  17.308   2
   1   3   0 834.580  16.654   9
  -3  -1   0 834.958  16.550   9
  -1   3   0 844.230  16.578   9
   1  -3   0 854.384  16.646   9
  -3  -1   0 839.576  17.170   2
  -3   1   0 860.587  17.850   4
   3  -1   0 809.398  16.572   9
   3  -1   0 815.412  17.291   2
  -1  -3   0 857.171  16.584   9
   3   1   0 809.648  17.793   4
  -1  -3   0 839.332  17.901   4
   3  -1   0 821.763  17.803   4
  -3  -1   0 790.447  17.766   4
  -3   1   0 836.237  16.576   9
  -3   1   0 835.767  17.212   2
   3  -2   0 1006.23   19.73   9
   2   3   0 996.243  19.791   9
   2  -3   0 1000.61   19.74   9
  -2  -3   0 1002.05   19.69   9
  -2  -3   0 998.206  20.425   2
   3   2   0 1004.78   20.43   2
  -3   2   0 987.365  20.348   2
   3  -2   0 996.093  21.122   4
  -2  -3   0 1018.17   20.49   2
   3   2   0 1004.80   21.13   4
  -3   2   0 985.559  19.613   9
  -3  -2   0 973.600  21.184   4
   2  -3   0 971.845  21.039   4
   3   2   0 1003.12   19.77   9
  -3  -2   0 966.723  19.557   9
   2  -3   0 1018.16   20.49   2
  -2  -3   0 963.901  21.082   4
  -2   3   0 994.662  20.354   2
  -2   3   0 1010.85   19.69   9
   3  -2   0 991.345  20.463   2
   2   3   0 969.671  20.448   2
  -3   2   0 988.366  21.060   4
  -3  -3   0 357.639   8.936   9
  -3   3   0 347.592   9.581   2
   3   3   0 376.803   9.220   9
  -3  -3   0 338.247   9.979   4
   3  -3   0 369.170   9.081   9
   3  -3   0 373.228   9.954   4
   3   3   0 367.336   9.662   2
   3   3   0 372.247   9.979   4
  -3  -3   0 373.225   9.591   2
   3  -3   0 351.051   9.602   2
  -3   3   0 362.991   8.991   9
   0  -4   0 5127.49   93.53   2
   4   0   0 4924.19   91.61   9
   4   0   0 5289.96   96.18   4
  -4   0   0 5225.37   93.43   2
   4   0   0 5112.97   93.45   2
  -4   0   0 5062.37   96.11   4
   0   4   0 5099.41   93.57   2
   0  -4   0 5006.58   91.62   9
  -4   0   0 5075.51   91.51   9
   0   4   0 5043.95   91.63   9
  -1  -4   0 337.214   9.778   4
  -1  -4   0 363.694   8.994   9
  -4   1   0 349.547   9.868   4
   4  -1   0 344.922   8.883   9
  -1   4   0 354.631   8.997   9
   1  -4   0 370.081   9.544   2
  -4  -1   0 359.374   9.566   2
  -1   4   0 359.644   9.487   2
   4   1   0 343.524   9.758   4
  -4  -1   0 339.000   9.864   4
  -4   1   0 359.453   8.828   9
  -1  -4   0 353.992   9.584   2
   1   4   0 366.578   9.059   9
   1   4   0 367.618   9.578   2
  -4  -1   0 364.237   8.854   9
   4   1   0 359.139   8.971   9
   4  -1   0 361.322   9.843   4
   1  -4   0 360.753   8.908   9
   4   1   0 363.436   9.620   2
   4  -1   0 374.001   9.554   2
   4  -2   0 6993.62  131.21   4
  -2  -4   0 6975.78  127.54   2
  -4  -2   0 6807.21  131.19   4
  -4   2   0 6950.00  127.49   2
  -2   4   0 6889.19  125.18   9
  -4  -2   0 6975.10  125.10   9
   4   2   0 7164.99  127.62   2
   4   2   0 7054.33  125.32   9
   2   4   0 6979.89  127.57   2
  -2  -4   0 7141.68  125.18   9
   2  -4   0 6835.85  125.19   9
  -4  -2   0 6994.86  127.53   2
   4  -2   0 6823.97  125.25   9
   2  -4   0 7129.63  127.58   2
  -4   2   0 7091.57  131.24   4
  -4   2   0 6806.62  125.07   9
   4  -2   0 7106.81  127.62   2
  -2   4   0 7115.31  127.60   2
   2   4   0 7098.10  125.33   9
   4   2   0 7065.28  131.19   4
  -2  -4   0 7103.18  131.25   4
  -3  -4   0 -0.9203  2.1353   9
   4  -3   0 1.67869 2.22188   9
   4   3   0 4.04269 2.57110   2
   4  -3   0 -0.9809  2.3484   4
  -3  -4   0 1.37859 2.52540   2
  -3   4   0 -4.5662  2.0249   2
  -4  -3   0 1.49007 2.27136   9
   4   3   0 0.14459 2.30019   6
   4  -3   0 -1.1314  2.4597   2
   3  -4   0 0.41443 2.50631   4
  -4  -3   0 0.84286 2.70675   4
  -4   3   0 2.46585 2.12559   9
   3   4   0 -5.6034  2.0873   4
  -3   4   0 -0.0043  2.2062   9
   4   3   0 -0.4076  0.7478   8
   4   3   0 -2.0133  2.2874   4
  -3  -4   0 -3.9203  2.1468   4
   3   4   0 -1.2971  2.4640   2
  -3  -4   0 -2.7209  2.4032   2
   3   4   0 -0.1468  2.3129   9
   4   3   0 -1.8699  2.2200   9
   3  -4   0 -1.4420  2.4292   2
   3  -4   0 0.20475 2.27700   9
  -4   3   0 1.02432 2.31442   4
  -4   3   0 1.47174 2.27385   2
  -4  -3   0 0.07336 2.55561   2
   4   4   0 8082.96  149.99   6
  -4  -4   0 8264.62  146.67   2
   4  -4   0 7872.41  143.78   9
   4   4   0 7902.38  146.56   2
   4  -4   0 8143.36  150.77   4
  -4   4   0 7912.23  146.47   2
  -4   4   0 8086.45  143.67   9
  -4  -4   0 8056.60  150.81   4
   4  -4   0 8003.75  146.57   2
   4   4   0 8041.87  143.80   9
  -4  -4   0 7867.25  143.63   9
  -5   0   0 -0.2822  2.3102   2
   5   0   0 -0.2674  2.0417   9
  -5   0   0 1.87247 2.05167   9
   0   5   0 -0.4655  2.0224   9
  -5   0   0 -4.1143  1.9282   4
   5   0   0 -2.4073  2.2987   2
   0  -5   0 -2.6667  2.1289   9
   5   0   0 1.08109 2.47766   4
   0   5   0 -1.8107  2.1308   2
   0  -5   0 2.35887 2.53784   2
  -5  -1   0 1352.69   28.30   4
  -1  -5   0 1307.22   26.27   9
  -5   1   0 1324.33   26.13   9
  -1  -5   0 1313.69   27.26   2
  -5  -1   0 1307.98   26.11   9
  -5   1   0 1324.31   28.36   4
  -1   5   0 1342.17   26.35   9
   5   1   0 1302.37   28.21   4
  -1   5   0 1321.34   26.28   9
  -1   5   0 1287.45   27.26   2
  -5   1   0 1329.23   27.31   2
   5   1   0 1336.71   27.40   2
   1  -5   0 1325.61   27.43   2
   5  -1   0 1320.97   27.39   2
   1  -5   0 1332.85   26.36   9
   1   5   0 1352.57   27.45   2
   5   1   0 1306.85   26.32   9
  -5  -1   0 1332.43   27.23   2
   5  -1   0 1362.36   28.29   4
   1   5   0 1327.12   26.36   9
   5  -1   0 1304.01   26.34   9
   2  -5   0 21.8856  3.4003   2
   2  -5   0 27.8273  3.1221   9
  -5   2   0 20.4539  3.2767   2
  -2  -5   0 22.3123  3.3860   2
  -5   2   0 27.3213  3.0363   9
   5   2   0 28.5820  3.5694   2
  -2  -5   0 24.5417  3.4230   4
   5  -2   0 28.0942  3.1392   9
   5  -2   0 28.8076  3.5140   2
  -5  -2   0 23.3424  3.0009   9
   5  -2   0 26.5444  3.4596   4
  -2   5   0 32.7301  3.6710   2
   2   5   0 22.5972  3.1021   9
  -5   2   0 23.0688  3.3492   4
  -2  -5   0 32.0633  3.2656   9
   5   2   0 27.4131  3.5793   4
  -5  -2   0 30.7602  3.7052   4
   5   2   0 25.2594  3.1036   9
   2   5   0 23.6694  3.4105   2
   2   5   0 23.0215  3.4798   6
  -2   5   0 24.9288  3.0940   9
  -5  -2   0 23.9320  3.4008   2
   3   5   0 920.838  20.079   9
   5   3   0 923.996  21.621   6
  -5  -3   0 935.591  20.991   2
  -3  -5   0 938.355  20.988   2
   5  -3   0 936.533  21.792   4
  -5   3   0 943.853  21.932   4
   3  -5   0 981.339  20.205   9
   5   3   0 925.897  20.091   9
   5  -3   0 938.120  20.047   9
  -5   3   0 930.488  20.953   2
  -5  -3   0 918.198  19.898   9
   5   3   0 935.195  21.773   4
  -5  -3   0 958.872  21.981   4
  -3   5   0 949.776  19.989   9
   5   3   0 924.509  21.042   2
   3   5   0 949.938  21.485   6
  -3  -5   0 916.692  19.883   9
  -3   5   0 924.717  21.045   2
  -3  -5   0 961.551  21.175   2
  -5   3   0 928.087  19.892   9
   3   5   0 964.705  21.195   2
   5  -3   0 924.569  21.137   2
   3  -5   0 964.337  21.935   4
   3  -5   0 920.860  21.042   2
  -3  -5   0 932.354  21.963   4
   4  -5   0 43.3382  4.5190   4
   5  -4   0 49.2131  4.6817   4
  -4  -5   0 49.5186  4.6787   1
   4  -5   0 46.2013  4.5362   1
  -4  -5   0 35.8849  4.2406   4
  -5  -4   0 48.0068  2.9547   7
   5  -4   0 50.7381  4.2158   9
  -5  -4   0 44.5276  3.9231   9
   5   4   0 38.3137  4.4284   6
  -4   5   0 46.5941  4.4591   2
  -5   4   0 50.9983  4.5990   2
   4  -5   0 45.5182  4.5137   2
   4   5   0 55.1124  4.7193   2
   4   5   0 46.6582  4.5095   6
  -5  -4   0 43.2811  4.6898   4
  -5  -4   0 47.1619  4.3988   2
  -4  -5   0 44.5395  3.8347   9
  -4   5   0 48.4111  3.9848   9
   5   4   0 46.1258  3.9680   9
  -4  -5   0 40.9178  4.2549   2
   5   4   0 39.8919  4.3637   2
   4   5   0 42.0863  3.9597   9
   4  -5   0 46.8521  4.0450   9
  -5   4   0 41.3172  4.4549   4
  -5  -4   0 45.8638  4.3315   1
   5  -4   0 49.6635  4.6674   2
  -5   4   0 42.5952  3.8854   9
   5   5   0 411.604  12.401   2
   5   5   0 415.001  12.014   1
  -5   5   0 424.143  11.495   9
   5  -5   0 437.641  12.495   2
   5   5   0 427.425  11.671   9
   5   5   0 404.125  12.581   6
  -5   5   0 415.012  12.338   2
   5  -5   0 432.210  11.531   9
  -5  -5   0 423.085  12.381   2
  -5   5   0 417.798  12.230   1
  -5  -5   0 449.344  11.502   9
  -5  -5   0 408.283  12.285   1
   6   0   0 1080.26   23.04   4
   6   0   0 987.533  22.070   2
   0  -6   0 968.700  20.900   9
   0   6   0 961.379  21.830   2
  -6   0   0 981.937  20.803   9
  -6   0   0 965.037  21.756   2
   6   0   0 973.865  20.917   9
   0   6   0 962.127  20.836   9
   0  -6   0 988.051  21.972   2
  -6  -1   0 81.3900  4.6082   9
  -1   6   0 74.8220  4.5769   9
   1  -6   0 79.6010  4.4758   9
   6   1   0 77.8894  5.3109   4
   1   6   0 75.8600  4.6107   9
   1   6   0 81.3372  4.9544   6
  -1  -6   0 88.6174  5.3683   2
  -6  -1   0 84.5220  5.1723   4
   6   1   0 79.8500  4.9294   2
  -6   1   0 74.5909  5.3074   4
   6  -1   0 83.7970  4.7049   9
  -1   6   0 80.5142  4.8927   2
  -6   1   0 85.0190  4.9878   2
   6   1   0 82.1396  4.7368   9
   1  -6   0 75.2452  5.2328   2
   6  -1   0 81.9559  5.3112   4
  -1  -6   0 78.1691  4.4634   9
  -6   1   0 88.6966  4.5821   9
   6  -1   0 84.6497  5.3407   2
  -6  -1   0 80.0456  5.1279   2
   1   6   0 80.1307  5.2421   2
  -6  -2   0 4161.60   79.25   2
  -6   2   0 4142.14   77.12   9
  -6  -2   0 4140.93   81.72   4
   2  -6   0 4318.67   79.11   1
  -6  -2   0 4131.55   77.17   9
   2   6   0 4152.12   80.94   6
   6  -2   0 4276.79   81.75   4
  -6   2   0 4161.02   81.70   4
  -2  -6   0 4276.98   77.31   9
  -6   2   0 4149.92   79.03   2
   6  -2   0 4225.53   77.43   9
   2   6   0 4154.00   79.27   2
  -2  -6   0 4218.63   81.90   4
   6   2   0 4141.17   77.27   9
   6   2   0 4111.65   81.66   4
  -2   6   0 4240.27   79.33   2
   2  -6   0 4248.41   79.36   2
  -2   6   0 4232.99   77.24   9
  -2   6   0 4200.39   77.22   9
   2   6   0 4195.30   77.34   9
   2  -6   0 4105.08   77.28   9
   6   2   0 4250.11   79.37   2
   6  -2   0 4232.54   79.40   2
  -2  -6   0 4262.96   79.43   2
  -2  -6   0 4135.44   79.04   1
  -3  -6   0 95.4820  5.8235   2
  -6   3   0 99.7834  5.7065   2
   6  -3   0 92.3572  5.7687   2
  -6   3   0 93.2527  4.8932   9
   6   3   0 91.7682  5.1197   9
  -6  -3   0 104.581   5.847   1
   3  -6   0 97.5363  5.7959   1
   6  -3   0 91.3699  5.1676   9
   3  -6   0 101.935   5.618   2
  -6  -3   0 97.5017  5.7567   2
  -3  -6   0 96.9260  5.7696   1
   6   3   0 96.1399  5.6802   6
   6   3   0 92.5363  5.6975   2
   3  -6   0 90.0767  4.9623   9
  -3   6   0 90.8199  5.7416   2
  -3   6   0 87.8827  4.9939   9
  -6  -3   0 95.7479  5.9789   4
   6  -3   0 84.5701  5.5124   1
  -3  -6   0 91.4126  4.8741   9
   3   6   0 98.8005  5.8550   2
   3   6   0 95.6997  5.1614   9
  -6  -3   0 94.2316  5.0202   9
   3   6   0 95.9444  5.5537   6
  -3  -6   0 90.6819  5.9515   4
  -3  -6   0 85.3070  5.7085   2
   6   4   0 3153.78   60.29   1
   6   4   0 3189.57   58.97   9
  -6  -4   0 3042.63   58.51   9
   6  -4   0 3066.51   60.58   2
   4  -6   0 3124.42   58.90   9
  -6   4   0 3084.89   58.54   9
   4   6   0 3138.96   60.19   1
  -6  -4   0 3119.71   57.49   7
   6  -4   0 3164.09   60.44   1
   4   6   0 3146.75   58.78   9
   6  -4   0 3038.66   58.69   9
   6   4   0 3116.17   60.21   1
  -4  -6   0 3130.99   58.61   9
  -6   4   0 3039.36   60.42   2
  -6   4   0 3070.96   60.13   1
   4  -6   0 3074.33   60.58   2
   6   4   0 3021.97   61.99   6
   6   4   0 3115.73   60.69   2
  -4   6   0 3077.74   60.33   1
  -4   6   0 3105.42   58.69   9
  -6  -4   0 3144.05   60.51   1
   4   6   0 3163.00   60.73   2
  -4  -6   0 3086.48   60.53   2
   4   6   0 3022.63   61.84   6
  -4  -6   0 3120.29   60.41   1
   4  -6   0 3074.44   60.36   1
  -4   6   0 3102.71   60.67   2
  -6  -4   0 3080.55   60.49   2
   6   5   0 38.8699  4.9009   6
   5   6   0 42.9625  5.0496   6
  -6   5   0 53.7903  5.2430   2
   5  -6   0 46.9279  4.6042   9
   6  -5   0 44.9546  4.9255   1
  -5   6   0 42.9383  4.8634   2
   5   6   0 48.6625  5.0140   1
   6  -5   0 45.4682  5.0207   2
   5  -6   0 44.6084  4.9449   2
   5  -6   0 51.8464  5.2168   1
   6  -5   0 45.8925  4.5078   9
   5   6   0 57.9594  4.8241   9
  -5  -6   0 46.5916  4.3324   9
  -5  -6   0 55.1661  5.3649   1
   6   5   0 50.1730  5.0145   1
  -6  -5   0 66.4532  5.6531   1
   6   5   0 63.4406  4.9694   9
  -5   6   0 50.3308  4.4668   9
  -5  -6   0 54.0877  5.3392   2
   5   6   0 57.8573  5.4410   2
  -6   5   0 45.1769  4.4021   9
  -6  -5   0 54.7718  5.0864   2
  -5   6   0 61.5969  5.5965   1
   6   5   0 52.5456  5.2527   2
  -6  -5   0 51.4215  4.5894   9
  -6   5   0 49.7109  5.1689   1
  -6  -6   0 4002.30   73.62   9
  -6   6   0 3867.66   75.87   2
  -6  -6   0 3850.87   75.79   2
   6   6   0 3829.08   76.04   2
   6  -6   0 3972.78   75.74   1
   6  -6   0 3838.08   75.95   2
  -6  -6   0 3887.96   75.64   1
   6   6   0 3953.97   73.66   9
  -6   6   0 3880.67   73.37   9
  -6   6   0 3988.55   75.72   1
   6   6   0 3744.69   77.59   6
   6  -6   0 3950.61   73.72   9
   6   6   0 3977.79   75.53   1
   7   0   0 -1.5375  2.3570   9
  -7   0   0 0.66844 2.91978   1
   0  -7   0 -6.3927  2.7106   2
   0  -7   0 0.88179 2.96994   1
   0   7   0 -1.5411  2.5712   2
   7   0   0 -4.9481  2.2419   2
  -7   0   0 -1.5251  2.4450   9
   0   7   0 -1.5028  2.4954   9
   0  -7   0 -1.8749  2.3632   9
   7   0   0 1.53489 2.82330   1
  -7   0   0 0.41538 2.52279   2
   1  -7   0 173.801   6.769   9
  -1   7   0 150.020   7.150   2
  -7   1   0 148.696   7.151   1
  -1  -7   0 156.999   7.087   1
   7   1   0 161.272   6.581   9
  -1  -7   0 160.993   6.425   9
   1  -7   0 170.462   7.466   1
   1   7   0 154.262   6.418   9
  -7  -1   0 160.816   7.256   1
  -7   1   0 180.212   6.716   9
   1   7   0 158.371   7.406   2
  -7   1   0 162.197   7.255   2
   7  -1   0 168.778   6.551   9
   7  -1   0 151.700   6.963   2
  -7  -1   0 165.281   6.465   9
  -1  -7   0 165.270   7.236   2
   7   1   0 158.376   7.111   1
  -7  -1   0 159.324   7.309   2
  -1   7   0 159.056   6.549   9
   7   1   0 169.618   7.442   2
   1  -7   0 155.056   7.363   2
   7  -1   0 168.616   7.218   1
   2  -7   0 11.2813  3.6217   2
   2   7   0 21.0927  3.8740   1
  -7   2   0 19.8372  3.7579   2
   7   2   0 17.8969  3.4597   9
   7  -2   0 14.0401  3.3087   9
   7  -2   0 18.0342  3.8548   2
  -7  -2   0 11.7359  3.4487   2
   2   7   0 19.5158  3.6496   2
  -7   2   0 20.2963  3.9095   1
   7   2   0 17.7529  3.7523   2
   2  -7   0 19.8428  3.8488   1
  -2  -7   0 13.7092  3.8032   2
  -7  -2   0 14.3433  3.5894   1
  -2   7   0 14.3724  3.6065   1
  -2   7   0 17.9311  3.2936   9
   7   2   0 17.0107  3.7127   1
   7  -2   0 20.9987  3.8505   1
  -2  -7   0 14.6964  3.1641   9
  -2   7   0 13.0654  3.1630   9
  -7  -2   0 16.9382  3.1133   9
  -2  -7   0 16.2578  3.7331   1
  -7   2   0 13.2192  2.9804   9
   2   7   0 17.7802  3.5919   6
   2   7   0 13.5402  3.2260   9
   2  -7   0 13.1343  3.2739   9
  -2   7   0 14.0962  3.6162   2
  -7   3   0 1058.78   24.72   2
  -7  -3   0 1106.28   24.91   2
   3  -7   0 1057.95   23.45   9
  -3  -7   0 1113.27   24.81   1
   7   3   0 1078.89   23.50   9
  -3   7   0 1063.51   23.32   9
   7  -3   0 1072.22   23.57   9
   3   7   0 1073.83   24.83   2
  -3  -7   0 1082.36   23.43   9
   3   7   0 1090.20   24.45   1
   3   7   0 1044.09   25.16   6
   3   7   0 1079.22   23.45   9
  -3   7   0 1084.62   24.88   2
   7  -3   0 1106.24   24.93   2
  -7   3   0 1041.90   23.19   9
  -7  -3   0 1096.69   23.32   9
   7   3   0 1051.02   25.49   6
  -7  -3   0 1056.33   24.61   1
  -3   7   0 1087.88   24.63   1
   7   3   0 1089.54   24.37   1
   7   3   0 1070.11   24.63   2
  -3  -7   0 1041.44   24.59   2
   3  -7   0 1072.74   24.63   1
  -3   7   0 1092.70   23.40   9
  -7   3   0 1102.12   24.76   1
   3  -7   0 1070.23   24.95   2
   7  -4   0 113.264   6.569   2
  -4  -7   0 97.2330  6.5751   2
   4  -7   0 105.844   6.635   1
   7  -4   0 106.891   5.979   9
  -4   7   0 107.925   5.836   9
  -4   7   0 116.080   6.735   1
  -7   4   0 122.628   5.979   9
   7   4   0 93.9548  6.1435   2
   7  -4   0 111.600   6.668   1
  -4  -7   0 112.648   6.789   2
   7   4   0 112.197   6.093   9
   4  -7   0 103.465   6.373   2
   4   7   0 102.102   5.885   9
   4  -7   0 111.103   6.147   9
   7   4   0 110.944   6.612   1
   4   7   0 112.011   6.631   1
   7   4   0 107.897   6.899   6
  -7  -4   0 109.027   6.388   2
  -4  -7   0 98.9525  5.8351   9
  -7  -4   0 98.2883  5.4530   9
  -7   4   0 121.275   6.744   2
   7   4   0 101.509   6.509   1
   4   7   0 106.492   6.679   2
   4   7   0 104.413   6.424   6
  -7  -4   0 113.165   6.705   1
  -4   7   0 106.959   6.683   2
  -7   4   0 115.085   6.821   1
  -4  -7   0 105.213   6.634   1
  -5  -7   0 620.701  17.396   1
   5  -7   0 605.579  16.179   9
   5   7   0 615.597  17.791   6
  -7  -5   0 674.736  17.601   2
   7   5   0 598.253  17.736   6
   5   7   0 651.766  17.401   1
  -7  -5   0 647.414  17.329   1
  -5   7   0 635.514  16.147   9
   7  -5   0 641.632  16.290   9
   7  -5   0 663.237  17.800   2
  -5  -7   0 647.602  17.575   2
  -7  -5   0 624.237  16.039   9
   7   5   0 652.666  17.213   1
  -7   5   0 617.155  15.939   9
  -7   5   0 631.626  17.492   2
   7  -5   0 648.557  17.426   1
   5   7   0 626.696  17.308   2
  -5   7   0 602.636  17.252   2
  -5  -7   0 656.054  16.174   9
   7   5   0 613.652  17.229   2
   5  -7   0 675.458  17.634   1
  -7   5   0 626.034  17.287   1
   5  -7   0 660.294  17.689   2
   5   7   0 660.649  16.285   9
   7   5   0 647.253  16.330   9
  -5   7   0 669.126  17.506   1
   7  -6   0 27.6352  5.0194   2
  -7   6   0 30.9208  4.7547   2
  -6  -7   0 45.4113  5.6080   1
   6   7   0 33.1731  5.0061   6
  -6   7   0 33.8311  4.5465   9
   7   6   0 44.1639  5.4154   6
  -7  -6   0 34.6756  5.2418   2
   7   6   0 28.1336  4.9920   2
   7  -6   0 34.0449  4.5569   9
  -6  -7   0 28.2853  4.3152   9
   6  -7   0 43.6344  5.4357   1
   7   6   0 30.9183  4.4899   9
  -7   6   0 35.4942  4.4953   9
  -7  -6   0 39.0497  5.4961   1
   6  -7   0 34.0885  5.2933   2
  -6  -7   0 33.4696  5.0706   2
   6   7   0 37.5693  4.7669   9
  -7  -6   0 23.8586  4.1675   9
  -6   7   0 36.7504  4.9513   2
   6  -7   0 38.4049  4.7464   9
   7  -6   0 39.7762  5.4309   1
   6   7   0 32.6118  4.8148   2
  -7   7   0 585.565  17.481   2
   7   7   0 583.279  17.584   2
   7   7   0 584.109  17.725   6
   7  -7   0 580.021  17.491   2
  -7  -7   0 579.408  17.219   2
  -7  -7   0 577.374  15.844   9
  -7  -7   0 588.404  17.474   1
   7  -7   0 569.997  16.005   9
  -7   7   0 592.120  15.747   9
   7   7   0 593.518  16.068   9
  -8   0   0 4911.23   91.71   9
   0   8   0 5015.63   93.86   1
   0  -8   0 4908.31   94.47   2
   8   0   0 4964.51   94.44   2
  -8   0   0 4990.82   94.03   1
   0  -8   0 4954.98   91.96   9
   8   0   0 4995.47   93.87   1
   0  -8   0 5089.72   94.19   1
  -8   0   0 4915.18   94.26   2
   0   8   0 4964.64   94.63   2
   8   0   0 4897.00   91.98   9
   0   8   0 5030.95   91.91   9
  -8   1   0 147.528   6.509   9
  -8  -1   0 144.692   7.597   1
   1   8   0 143.227   7.547   2
   1  -8   0 146.629   6.828   9
  -1  -8   0 138.068   7.521   2
   8   1   0 160.587   7.393   1
  -8  -1   0 136.226   7.075   2
  -1  -8   0 148.293   7.557   1
   1   8   0 142.017   7.306   1
  -1   8   0 138.296   7.338   2
   1  -8   0 151.304   7.548   1
   8   1   0 143.191   7.521   2
  -8   1   0 139.970   7.357   1
  -1   8   0 144.960   7.444   1
  -1   8   0 137.407   6.609   9
  -8  -1   0 156.718   6.682   9
   8  -1   0 140.157   7.485   2
  -8   1   0 138.480   7.367   2
   1   8   0 136.538   6.660   9
   8   1   0 141.141   6.527   9
   1  -8   0 137.252   7.188   2
   8  -1   0 135.780   6.596   9
  -1  -8   0 134.356   6.596   9
   8  -1   0 166.012   7.602   1
  -2   8   0 6601.39  122.14   2
   8  -2   0 6412.32  122.07   2
   8   2   0 6338.96  121.93   2
   2  -8   0 6453.72  121.61   1
  -2  -8   0 6581.95  121.81   1
  -2  -8   0 6400.89  118.93   9
  -8   2   0 6712.12  121.62   1
   8  -2   0 6529.40  121.41   1
  -2  -8   0 6412.69  121.97   2
  -2   8   0 6464.17  118.96   9
  -8   2   0 6505.66  121.79   2
  -8  -2   0 6372.64  121.67   2
   2  -8   0 6372.45  118.94   9
  -2   8   0 6531.43  121.49   1
  -8  -2   0 6554.76  121.59   1
   2  -8   0 6709.52  122.37   2
   8   2   0 6422.17  119.09   9
   2   8   0 6477.91  121.42   1
   8  -2   0 6717.36  119.34   9
   8   2   0 6579.46  121.47   1
   2   8   0 6576.46  119.14   9
  -8   2   0 6607.59  118.90   9
   2   8   0 6636.06  122.12   2
  -8  -2   0 6416.85  118.79   9
   2   8   0 6377.73  124.55   6
   8  -3   0 96.6474  6.5802   1
  -3   8   0 78.9833  6.3943   2
   3  -8   0 89.0343  5.8993   9
  -3   8   0 103.153   6.779   1
  -8   3   0 104.427   6.762   1
   8   3   0 88.2760  6.5020   2
  -8  -3   0 88.8049  5.4374   9
   8   3   0 97.4330  6.5778   6
   3   8   0 92.2350  6.6253   6
  -8  -3   0 96.5181  6.6560   1
  -8   3   0 83.6639  5.5430   9
  -3   8   0 99.0870  5.8479   9
   8   3   0 99.3514  6.0675   9
  -3  -8   0 93.8348  5.5927   9
  -8  -3   0 94.0241  6.6632   2
   8  -3   0 103.628   6.845   2
  -8   3   0 99.4618  6.2387   2
   3   8   0 90.8515  6.5855   2
   3   8   0 93.5844  5.7847   9
   8   3   0 104.539   6.710   1
  -3  -8   0 101.475   6.427   2
  -3   8   0 90.7020  5.7434   9
  -3  -8   0 90.4573  6.6422   1
   3   8   0 104.235   6.850   1
   8  -3   0 93.2137  5.7037   9
   3  -8   0 94.1171  6.7050   2
   3  -8   0 87.2922  6.6395   1
   8  -4   0 1426.53   32.02   2
  -4  -8   0 1398.66   31.74   1
   8   4   0 1429.21   31.59   1
   4   8   0 1370.88   32.47   6
   4  -8   0 1448.95   32.23   2
  -4  -8   0 1386.22   31.84   2
  -8   4   0 1410.00   29.92   9
  -4  -8   0 1448.10   32.00   2
   8   4   0 1432.98   30.28   9
   8   4   0 1429.54   31.59   1
  -8  -4   0 1417.30   31.86   1
  -4   8   0 1442.11   31.97   2
  -4   8   0 1439.71   30.12   9
  -8   4   0 1412.30   31.97   2
  -4   8   0 1369.61   29.90   9
  -8  -4   0 1400.92   31.83   2
   8   4   0 1434.36   32.01   2
  -4  -8   0 1441.31   30.19   9
   4  -8   0 1414.32   30.31   9
  -8  -4   0 1424.62   30.05   9
   8  -4   0 1424.09   30.35   9
   4   8   0 1374.26   31.82   2
   8   4   0 1319.46   32.61   6
  -8   4   0 1389.15   31.69   1
   4  -8   0 1433.93   31.89   1
   4   8   0 1417.04   30.27   9
  -8   5   0 33.8968  4.4718   9
   8  -5   0 32.7295  5.2417   2
  -8  -5   0 42.9733  5.6642   1
  -5  -8   0 28.9004  5.0866   1
   5   8   0 27.7501  4.3343   9
   5   8   0 29.2058  5.1343   2
  -8  -5   0 26.8073  4.8942   2
   5   8   0 22.0252  4.9675   6
  -5  -8   0 28.2278  4.4651   9
   8  -5   0 37.4578  5.4041   1
   8  -5   0 32.6445  4.6339   9
   8   5   0 29.9386  5.2749   6
   5  -8   0 32.4200  5.2531   2
  -5   8   0 27.8445  5.0627   2
   8   5   0 36.5562  5.2718   2
  -5   8   0 37.6914  4.7113   9
  -8  -5   0 25.1378  4.2385   9
  -5  -8   0 36.2426  5.3317   2
  -8   5   0 33.9893  5.1948   2
   5  -8   0 35.3876  5.4622   1
   5  -8   0 27.8016  4.5279   9
   8   5   0 30.4474  4.4896   9
   6   8   0 2181.85   43.34   9
  -6  -8   0 2187.60   45.68   2
  -6   8   0 2093.60   45.44   2
  -8  -6   0 2190.62   45.83   2
   8   6   0 2034.11   46.55   6
   6   8   0 2190.04   45.76   2
  -8  -6   0 2035.74   43.02   9
   6   8   0 2094.95   46.59   6
   8   6   0 2158.59   43.32   9
   8   6   0 2103.09   45.56   2
   8  -6   0 2061.60   45.48   2
   6  -8   0 2100.50   45.63   2
  -6   8   0 2076.86   42.93   9
  -6  -8   0 2109.51   43.10   9
  -8   6   0 2144.51   43.12   9
  -8   6   0 2053.49   45.10   2
   6  -8   0 2157.58   43.48   9
   8  -6   0 2127.20   43.29   9
   7  -8   0 100.155   8.404   2
   7   8   0 87.6819  8.0380   6
   7   8   0 106.583   7.985   2
   8   7   0 95.7326  8.3369   6
   7   8   0 114.840   7.053   9
   8  -7   0 91.1783  6.7859   9
  -8  -7   0 105.462   8.006   2
  -8   7   0 103.563   7.050   9
  -7  -8   0 94.7605  8.0603   2
  -7   8   0 92.2285  7.9373   2
  -7  -8   0 103.482   6.958   9
  -8   7   0 103.816   7.795   2
   8  -7   0 90.6320  7.9733   2
  -8  -7   0 90.6483  6.6014   9
  -7   8   0 85.2671  6.7466   9
   8   7   0 100.060   8.158   2
   8   7   0 111.161   7.007   9
   7  -8   0 98.6875  7.1137   9
   8   8   0 985.052  27.119   6
  -8  -8   0 1028.36   26.67   2
  -8   8   0 1029.74   24.28   9
   8  -8   0 1012.55   26.72   2
   8  -8   0 1039.84   24.67   9
  -8   8   0 1007.08   26.50   2
   8   8   0 953.187  26.223   2
  -8  -8   0 1007.65   24.27   9
   0  -9   0 -0.2541  3.4651   2
   0  -9   0 3.19307 3.80308   1
   9   0   0 1.42794 3.15549   9
   9   0   0 -0.3373  3.4862   2
  -9   0   0 0.36362 3.49352   1
   9   0   0 -1.1604  3.4278   1
  -9   0   0 0.30397 3.07789   2
   0   9   0 -0.8069  3.5001   2
  -9   0   0 -2.5244  2.8469   9
   0   9   0 4.10952 3.29031   9
   0  -9   0 4.82322 3.18501   9
   1  -9   0 847.267  20.288   9
   9   1   0 838.558  20.248   9
  -9  -1   0 883.223  21.735   1
  -1  -9   0 814.532  21.448   1
   9  -1   0 835.218  21.635   2
   1  -9   0 832.117  21.642   2
  -1  -9   0 823.308  21.577   2
   1   9   0 848.095  20.120   9
   9   1   0 835.386  21.303   1
  -9   1   0 862.555  20.068   9
  -9   1   0 844.081  21.510   1
  -9   1   0 869.040  21.564   2
   1   9   0 829.930  21.530   2
  -1   9   0 837.761  21.614   2
   9  -1   0 845.201  20.326   9
  -9  -1   0 842.002  20.047   9
  -1   9   0 853.633  20.113   9
  -1  -9   0 839.884  20.279   9
   9   1   0 822.287  21.513   2
   9  -1   0 890.357  21.525   1
   1  -9   0 877.203  21.795   1
  -9  -1   0 840.045  21.602   2
   9   2   0 139.558   7.162   9
   9  -2   0 124.847   7.575   1
  -9  -2   0 138.247   6.744   9
  -2   9   0 123.224   6.732   9
  -2  -9   0 138.004   7.147   9
  -2   9   0 150.904   8.145   2
   2   9   0 137.777   7.054   9
   2   9   0 142.055   8.058   2
   2  -9   0 126.116   7.016   9
  -9  -2   0 130.387   8.006   1
  -9   2   0 131.629   6.833   9
  -9  -2   0 138.939   8.038   2
  -9   2   0 135.746   8.366   1
  -2  -9   0 143.701   8.266   2
   9  -2   0 138.696   8.053   2
   9  -2   0 148.268   7.331   9
   2  -9   0 144.776   8.101   1
  -2  -9   0 146.122   8.310   1
   9   2   0 148.221   7.778   2
  -9   2   0 151.786   8.035   2
   2  -9   0 137.769   7.818   2
   9   2   0 154.457   8.187   1
   3   9   0 1090.51   25.19   9
   9   3   0 1116.34   25.38   9
  -3  -9   0 1084.61   26.68   1
   3   9   0 1099.19   27.41   6
   9   3   0 1138.00   27.10   2
  -9  -3   0 1121.31   27.04   2
   9  -3   0 1123.74   27.12   2
  -9   3   0 1097.94   25.06   9
  -3   9   0 1168.94   25.37   9
   3  -9   0 1153.26   27.40   2
  -3  -9   0 1091.95   26.98   2
  -9   3   0 1126.86   26.87   2
   3  -9   0 1107.76   26.86   1
   9  -3   0 1139.32   25.57   9
  -3   9   0 1155.70   27.24   2
  -3  -9   0 1140.19   25.43   9
  -9  -3   0 1090.01   26.74   1
   3   9   0 1102.51   26.90   2
   3  -9   0 1092.13   25.25   9
   9  -3   0 1139.47   26.81   1
  -9  -3   0 1117.95   25.16   9
   9   3   0 1074.83   27.75   6
  -9   4   0 0.48294 3.82046   2
  -9  -4   0 2.80298 3.91876   2
   4  -9   0 -0.7939  3.4079   9
  -4  -9   0 -2.8182  3.7908   2
   4   9   0 -0.0212  3.9265   2
   9  -4   0 2.34912 3.92755   2
  -4  -9   0 11.9111  4.5447   1
  -4   9   0 -1.5200  3.2362   9
   4   9   0 -1.1048  3.5244   9
  -4  -9   0 -3.5331  3.7881   2
   9  -4   0 0.43077 3.34282   9
   4   9   0 1.78929 3.95802   6
   9   4   0 -3.7971  3.3838   6
   9   4   0 4.43364 3.55239   9
   4  -9   0 -1.9928  3.9018   2
  -9  -4   0 3.61423 3.35312   9
  -4   9   0 -2.1133  3.2269   9
   9   4   0 1.55291 4.01815   2
   4  -9   0 0.60707 4.23547   1
  -4  -9   0 -4.7086  3.1255   9
  -4   9   0 3.58987 3.98222   2
  -9   4   0 4.55950 3.37016   9
  -5  -9   0 311.989  11.103   9
  -5   9   0 320.765  11.022   9
  -5  -9   0 305.485  12.388   2
  -9  -5   0 293.816  12.219   2
   5   9   0 312.505  12.405   2
   9   5   0 336.969  12.587   2
   9   5   0 302.564  12.472   6
  -9   5   0 327.142  11.036   9
   5  -9   0 288.081  12.007   2
  -5   9   0 304.565  12.209   2
  -9   5   0 314.133  12.439   2
  -9  -5   0 310.315  10.995   9
   5   9   0 294.681  10.814   9
   5   9   0 333.350  13.068   6
   9   5   0 319.751  11.101   9
   5  -9   0 328.444  11.304   9
   9  -5   0 324.105  11.196   9
   9  -5   0 290.324  12.274   2
  -5   9   0 313.181  11.073   9
   9   6   0 12.8949  4.8359   2
   9   6   0 10.2851  5.0440   6
  -6   9   0 8.85069 4.25450   9
  -6  -9   0 9.13228 4.13336   9
   6  -9   0 6.06972 4.19446   9
  -6  -9   0 10.6500  4.8350   2
   6   9   0 13.0984  4.8648   2
  -9   6   0 9.90653 4.14082   9
  -9  -6   0 9.21054 4.08646   9
   9  -6   0 12.6098  4.9994   2
   9  -6   0 9.02680 4.12194   9
   6   9   0 11.3546  4.1452   9
  -9   6   0 13.1433  4.5598   2
   6  -9   0 2.08772 4.59017   2
   6   9   0 12.7221  5.1258   6
  -6   9   0 12.4211  4.8830   2
   9   6   0 6.41233 4.13658   9
  -9  -6   0 7.12788 4.17183   2
  -9   7   0 161.599   9.797   2
  -9   7   0 158.217   8.333   9
   7   9   0 156.600   9.399   2
  -7   9   0 158.950   9.705   2
   9  -7   0 163.922   8.619   9
   9   7   0 144.532   9.829   6
  -7  -9   0 161.396   8.633   9
  -9  -7   0 159.049   8.401   9
  -9  -7   0 177.636  10.090   2
   9  -7   0 164.597   9.962   2
   9   7   0 170.518   9.873   2
   7  -9   0 158.160   9.510   2
   7   9   0 154.777   9.864   6
  -7  -9   0 150.864   9.701   2
   7  -9   0 158.212   8.707   9
   8  -9   0 125.605   9.858   2
   9   8   0 80.2320  8.6345   6
   9  -8   0 108.771   8.017   9
  -9  -8   0 91.2062  8.5620   2
  -8  -9   0 125.332   9.231   2
   9  -8   0 108.964   9.427   2
  -9  -8   0 103.640   7.416   9
   9   8   0 115.877   9.423   2
   8   9   0 129.164   9.157   2
  -9   8   0 114.054   9.206   2
  -8   9   0 106.240   9.157   2
   8  -9   0 117.354   8.351   9
  -8  -9   0 118.826   7.940   9
   8   9   0 118.646   9.911   6
   9   9   0 92.7003  9.0259   2
  -9  -9   0 94.2454  9.0477   2
  -9   9   0 88.4613  8.7405   2
   9  -9   0 82.0393  8.7789   2
   9   9   0 76.0674  8.7817   6
   0  10   0 1120.73   27.82   2
   0 -10   0 1161.16   28.21   2
   0 -10   0 1159.78   28.12   1
 -10   0   0 1161.83   26.05   9
   0 -10   0 1175.99   26.40   9
   0  10   0 1151.05   26.13   9
  10   0   0 1168.22   26.41   9
  10   0   0 1145.38   28.08   2
 -10   0   0 1105.94   27.66   2
  10   1   0 696.605  19.889   2
  -1 -10   0 715.006  19.969   1
   1  10   0 724.327  19.947   2
  -1  10   0 740.689  20.349   2
   1 -10   0 727.433  20.047   1
 -10  -1   0 711.822  19.736   2
   1 -10   0 705.621  18.523   9
  10   1   0 716.571  18.514   9
  10  -1   0 714.823  20.004   2
  10  -1   0 700.392  18.432   9
 -10   1   0 702.906  19.713   2
   1 -10   0 691.459  19.975   2
  -1 -10   0 709.764  20.088   2
 -10   1   0 714.591  18.179   9
  -1  10   0 752.567  18.466   9
 -10  -1   0 688.300  18.098   9
   1  10   0 714.245  18.352   9
  -1 -10   0 710.530  18.456   9
  -2 -10   0 1784.26   37.99   9
  -2 -10   0 1811.14   40.26   2
   2  10   0 1813.39   40.22   2
  -2  10   0 1791.11   37.73   9
  10  -2   0 1881.65   40.46   2
 -10  -2   0 1827.73   37.92   9
  10   2   0 1812.21   40.13   2
   2 -10   0 1766.26   38.00   9
 -10   2   0 1816.30   40.03   2
 -10  -2   0 1809.47   40.13   2
  -2  10   0 1842.36   40.19   2
  10   2   0 1757.85   37.89   9
  10  -2   0 1791.96   38.03   9
 -10   2   0 1823.65   37.79   9
   2  10   0 1832.14   37.99   9
   2 -10   0 1802.43   40.12   2
  10   3   0 15.5829  5.1291   6
   3 -10   0 5.49308 3.78355   9
  -3 -10   0 15.3128  4.2211   9
  -3 -10   0 22.5767  5.3080   2
   3  10   0 17.3249  4.9282   2
  10   3   0 18.1546  5.0229   2
   3  10   0 21.4620  4.8681   6
 -10  -3   0 23.3091  5.1907   2
   3  10   0 17.9639  4.3488   9
  -3  10   0 24.3693  4.6747   9
  10  -3   0 21.8468  5.2663   2
  10  -3   0 18.3560  4.4333   9
  -3  10   0 18.7684  5.0511   2
   3 -10   0 21.3069  5.2377   2
 -10  -3   0 12.9132  4.0691   9
 -10   3   0 25.5379  5.1749   2
 -10   3   0 12.1004  3.9652   9
  10   3   0 21.1740  4.5200   9
 -10  -4   0 1553.59   35.92   2
   4 -10   0 1578.73   36.15   2
  10   4   0 1583.00   36.09   2
  -4 -10   0 1578.38   36.17   2
   4  10   0 1532.57   36.59   6
  -4  10   0 1467.39   33.19   9
  10   4   0 1494.52   37.00   6
  10  -4   0 1543.94   33.68   9
 -10  -4   0 1539.82   33.47   9
 -10   4   0 1521.41   35.70   2
  -4  10   0 1549.41   35.85   2
  -4 -10   0 1529.96   35.81   2
   4 -10   0 1567.27   33.79   9
  10  -4   0 1527.34   35.93   2
   4  10   0 1507.04   35.93   2
 -10   4   0 1564.68   33.37   9
  10   4   0 1551.16   33.79   9
   4  10   0 1556.53   33.60   9
  -4 -10   0 1554.57   33.77   9
  -5  10   0 114.825   8.401   2
  -5 -10   0 108.925   7.378   9
  10   5   0 104.582   7.363   9
 -10   5   0 107.575   8.685   2
  10  -5   0 113.304   7.391   9
   5 -10   0 113.317   7.484   9
   5 -10   0 100.241   8.677   2
  10   5   0 100.666   8.708   6
 -10   5   0 102.051   7.067   9
  10   5   0 105.836   8.699   2
  10  -5   0 98.8111  8.3689   2
   5  10   0 108.906   8.952   6
 -10  -5   0 106.130   7.832   2
  -5 -10   0 95.2661  8.5762   2
 -10  -5   0 117.213   7.280   9
   5  10   0 101.853   8.758   2
  10   6   0 3353.97   71.04   2
   6 -10   0 3467.05   68.25   9
  10  -6   0 3506.88   68.11   9
 -10   6   0 3558.85   71.36   2
  10  -6   0 3386.09   71.17   2
  10   6   0 3433.45   73.13   6
   6 -10   0 3423.99   71.26   2
 -10  -6   0 3560.22   68.05   9
   6  10   0 3455.47   72.90   6
  -6  10   0 3442.57   71.15   2
 -10  -6   0 3452.36   71.10   2
  -6 -10   0 3490.77   71.49   2
   6  10   0 3476.68   71.10   2
  -6 -10   0 3480.84   68.07   9
   7  10   0 340.920  14.468   2
  10   7   0 315.160  14.240   2
 -10  -7   0 348.247  12.825   9
   7  10   0 361.180  15.099   6
  10  -7   0 375.807  15.002   2
  10  -7   0 355.124  13.024   9
 -10   7   0 369.947  14.776   2
  -7 -10   0 377.185  14.770   2
 -10  -7   0 354.235  14.544   2
  -7 -10   0 341.956  12.856   9
   7 -10   0 369.804  13.346   9
   7 -10   0 404.251  15.492   2
  10   7   0 376.563  15.401   6
  -7  10   0 353.034  14.582   2
  10   8   0 2113.05   48.88   6
   8 -10   0 2104.45   47.53   2
   8  10   0 2018.22   47.17   2
 -10  -8   0 2109.36   47.33   2
   8  10   0 2047.13   48.41   6
  10  -8   0 2078.41   47.48   2
  -8 -10   0 2065.36   47.28   2
 -10   8   0 2023.35   47.11   2
  -8  10   0 2058.30   47.21   2
  10   8   0 2095.27   47.39   2
  -9 -10   0 1.50562 5.61414   2
  10   9   0 10.9226  6.1078   6
 -10   9   0 16.9141  6.1064   2
   9 -10   0 9.82845 6.11904   2
  10  -9   0 3.99654 5.86229   2
   9  10   0 3.90275 5.77062   2
  -9  10   0 7.71907 5.85783   2
   9  10   0 10.2488  6.1214   6
 -10  -9   0 8.57749 5.96515   2
  10   9   0 4.18677 5.48225   2
  10  10   0 1223.04   34.43   6
  10 -10   0 1267.10   34.11   2
  10  10   0 1277.05   33.85   2
 -10 -10   0 1264.54   33.95   2
 -10  10   0 1301.58   33.78   2
   0  11   0 -1.8456  3.5812   9
  11   0   0 6.08096 4.16077   9
   0 -11   0 1.61252 4.54183   2
   0  11   0 -1.8718  4.2158   2
   0 -11   0 2.10455 4.00393   9
  11   0   0 -3.2441  4.2117   2
 -11   0   0 -2.8216  3.6224   9
 -11   0   0 7.19348 4.56745   2
 -11  -1   0 162.005   9.383   2
 -11  -1   0 163.889   8.165   9
 -11   1   0 149.459   8.056   9
   1  11   0 147.013   8.124   9
 -11   1   0 156.382   9.261   2
   1  11   0 148.930   9.275   2
  -1  11   0 153.372   9.435   2
  11   1   0 158.969   9.073   2
   1 -11   0 141.536   9.445   2
  11   1   0 166.374   8.422   9
  -1  11   0 144.605   7.994   9
  -1 -11   0 161.038   9.654   2
  -1 -11   0 157.992   8.451   9
  11  -1   0 142.114   9.281   2
   1 -11   0 149.691   8.273   9
  11  -1   0 149.638   8.307   9
  11  -2   0 8.35561 4.26673   9
   2 -11   0 5.80229 4.05763   9
  11  -2   0 7.97103 4.81329   2
 -11  -2   0 1.81657 4.39171   2
  11   2   0 -0.2819  4.4807   2
  11   2   0 10.2951  4.4324   9
   2 -11   0 -1.9944  4.4986   2
  -2 -11   0 0.17402 4.62532   2
 -11   2   0 0.92025 4.38971   2
 -11  -2   0 12.0246  4.2119   9
 -11   2   0 1.19747 3.67541   9
  -2 -11   0 5.07350 4.11486   9
   2  11   0 13.3589  4.9145   2
  -2  11   0 1.76667 4.46865   2
  11  -3   0 162.944   9.878   2
  11   3   0 154.794   9.244   2
 -11   3   0 150.015   9.535   2
  11  -3   0 150.661   8.447   9
  -3  11   0 162.120   9.712   2
  11   3   0 151.928   8.719   9
  -3 -11   0 166.070   9.878   2
  11   3   0 139.516   9.900   6
   3 -11   0 153.697   8.592   9
 -11  -3   0 134.997   8.050   9
 -11   3   0 157.712   8.363   9
 -11  -3   0 145.504   9.389   2
   3 -11   0 141.502   9.681   2
   3  11   0 166.875   9.899   2
  -3 -11   0 156.318   8.513   9
   4  11   0 29.2796  6.2086   2
  11   4   0 28.2617  6.0225   2
  11  -4   0 9.83980 5.32384   2
  -4  11   0 23.4526  5.7645   2
  11  -4   0 26.1454  5.1841   9
  -4 -11   0 14.8772  4.7776   9
  -4 -11   0 24.2902  5.9420   2
 -11   4   0 24.5820  5.8155   2
  11   4   0 33.0376  6.5278   6
 -11  -4   0 31.2749  5.9879   2
   4 -11   0 25.7923  5.9846   2
   4 -11   0 28.4072  5.3702   9
   4  11   0 17.9904  5.7170   6
  -4 -11   0 36.0245  6.6082   2
 -11  -4   0 24.0947  5.0751   9
  -5 -11   0 459.373  16.983   2
   5 -11   0 467.990  17.027   2
   5  11   0 445.856  16.616   2
  -5 -11   0 484.938  15.212   9
  11  -5   0 481.144  15.126   9
   5  11   0 462.094  17.132   6
  11   5   0 448.589  17.324   6
  11   5   0 447.999  16.582   2
  -5  11   0 465.663  16.710   2
 -11  -5   0 462.155  16.796   2
  11  -5   0 472.420  17.023   2
 -11   5   0 465.423  16.618   2
   5 -11   0 472.009  15.064   9
   6 -11   0 57.0043  7.8450   2
  11   6   0 57.3064  8.0642   6
  -6 -11   0 54.8227  7.9146   2
   6  11   0 55.4255  7.8829   6
   6 -11   0 60.7063  6.9656   9
  11   6   0 49.0762  7.1233   2
   6  11   0 56.6972  7.4214   2
  11  -6   0 53.0547  7.6910   2
 -11   6   0 53.3452  7.5168   2
  -6  11   0 60.2107  7.5018   2
 -11  -6   0 50.5884  7.4227   2
  -6 -11   0 44.1684  6.2474   9
  11   7   0 915.323  27.600   6
 -11   7   0 927.595  26.755   2
   7 -11   0 967.586  27.249   2
  -7 -11   0 982.988  27.199   2
  -7  11   0 966.371  26.917   2
   7  11   0 948.375  26.811   2
   7  11   0 960.440  27.794   6
  11   7   0 932.218  26.829   2
 -11  -7   0 975.260  27.269   2
  11  -7   0 944.892  26.945   2
  -8  11   0 -2.9094  5.6690   2
  11   8   0 7.76960 5.88745   2
 -11  -8   0 8.16315 5.81046   2
   8 -11   0 2.96763 6.12627   2
   8  11   0 21.9823  6.3603   2
  -8 -11   0 8.73007 6.13442   2
   8  11   0 2.41204 5.96705   6
 -11   8   0 9.18947 5.65772   2
  11   8   0 6.98019 6.07979   6
  11  -8   0 4.47711 5.83379   2
  11   9   0 623.152  21.614   2
   9  11   0 655.556  22.431   6
  11  -9   0 635.461  21.921   2
 -11   9   0 620.759  21.230   2
 -11  -9   0 645.942  21.662   2
  11   9   0 626.979  22.239   6
  -9  11   0 611.025  21.324   2
   9  11   0 624.901  21.544   2
  -9 -11   0 641.449  21.979   2
   9 -11   0 609.007  21.696   2
  11 -10   0 125.668  11.654   2
 -10 -11   0 132.568  11.752   2
 -11 -10   0 121.044  11.249   2
  11  10   0 115.301  11.398   6
 -11  10   0 129.576  11.365   2
  11  10   0 116.833  10.915   2
  10  11   0 124.272  11.673   6
  10  11   0 128.597  11.702   2
  10 -11   0 144.836  12.246   2
 -10  11   0 142.721  11.706   2
   0  12   0 2331.06   51.62   2
 -12   0   0 2352.15   51.69   2
  12   0   0 2410.59   52.13   2
   0 -12   0 2356.55   51.93   2
   0 -12   0 2408.00   49.34   9
 -12  -1   0 31.2476  6.0809   2
 -12   1   0 22.3915  6.0229   2
  -1 -12   0 31.5115  5.5455   9
  -1  12   0 33.1104  6.3947   2
  12  -1   0 37.3769  6.6786   2
  -1 -12   0 33.6450  6.1232   2
  12   1   0 31.2894  6.2476   2
   1  12   0 33.4632  6.2528   2
   1 -12   0 30.5399  5.6269   9
   1 -12   0 31.0848  6.5510   2
 -12  -2   0 1877.14   43.51   2
  -2 -12   0 1853.91   43.76   2
  -2  12   0 1948.41   43.92   2
  -2 -12   0 1877.40   41.05   9
   2  12   0 1837.41   43.32   2
 -12   2   0 1958.34   43.64   2
   2 -12   0 1889.41   40.98   9
  12  -2   0 1935.65   43.90   2
  12   2   0 1858.85   43.47   2
   2 -12   0 1981.60   44.11   2
  -3 -12   0 304.019  13.841   2
  12  -3   0 326.804  14.201   2
   3  12   0 327.623  14.002   2
 -12   3   0 330.039  13.963   2
  -3 -12   0 316.532  12.207   9
  -3  12   0 320.012  13.779   2
 -12  -3   0 325.164  13.954   2
  12   3   0 329.904  14.385   6
  12   3   0 293.739  13.629   2
   3 -12   0 287.274  13.710   2
   3 -12   0 321.908  12.347   9
  12   4   0 1852.74   43.96   2
  12   4   0 1964.99   46.25   6
  -4 -12   0 1874.03   44.44   2
  -4 -12   0 1877.56   44.30   2
  12  -4   0 1908.77   44.49   2
 -12  -4   0 1932.83   44.23   2
   4 -12   0 1905.08   41.51   9
   4  12   0 1955.16   44.63   2
  -4  12   0 1871.41   44.22   2
  -4 -12   0 1961.55   41.63   9
 -12   4   0 1896.39   44.26   2
   4 -12   0 1968.00   44.87   2
  -5 -12   0 -2.1709  5.5193   2
  12   5   0 4.97193 5.98068   6
  -5  12   0 2.76847 5.35508   2
  12   5   0 0.11696 5.12919   2
 -12   5   0 3.10790 5.37588   2
  12  -5   0 6.92455 5.50725   2
   5  12   0 1.91990 5.46414   6
 -12  -5   0 2.19939 5.14411   2
   5 -12   0 4.63206 5.51407   2
   5  12   0 -5.5594  4.9103   2
  12  -6   0 1561.91   38.87   2
 -12   6   0 1559.23   38.60   2
   6 -12   0 1546.05   39.11   2
 -12  -6   0 1564.95   38.73   2
   6  12   0 1538.78   38.32   2
  12   6   0 1592.22   38.72   2
  -6 -12   0 1618.28   39.22   2
   6  12   0 1582.43   39.71   6
  12   6   0 1574.46   39.99   6
  -6  12   0 1521.99   38.48   2
  12   7   0 6.22069 5.84905   2
  12  -7   0 0.46695 5.48177   2
  12   7   0 6.37502 6.19958   6
   7  12   0 2.58722 5.37630   2
   7  12   0 8.43840 6.23982   6
  -7 -12   0 -3.8711  5.5829   2
 -12  -7   0 -3.3453  5.4334   2
  -7  12   0 -5.9664  5.2350   2
   7 -12   0 -5.4719  5.9020   2
 -12   7   0 -7.4655  5.0778   2
   8  12   0 1168.44   32.90   6
  12   8   0 1184.25   32.11   2
  12  -8   0 1112.68   32.07   2
  12   8   0 1188.85   33.30   6
 -12  -8   0 1138.78   31.80   2
  -8 -12   0 1133.25   32.16   2
  -8  12   0 1193.13   32.04   2
   8  12   0 1119.53   31.65   2
 -12   8   0 1207.32   32.05   2
   8 -12   0 1160.66   32.27   2
  -9  12   0 319.416  15.503   2
  12  -9   0 327.985  16.125   2
 -12   9   0 329.587  15.584   2
   9  12   0 284.433  15.675   6
  -9 -12   0 326.321  16.024   2
   9  12   0 316.110  15.432   2
  12   9   0 321.151  16.271   6
  12   9   0 320.345  15.425   2
   9 -12   0 323.965  16.049   2
 -12  -9   0 306.261  15.587   2
   0 -13   0 1.63613 5.36388   2
 -13   0   0 1.67311 5.15136   2
  13   0   0 -0.0078  5.1534   2
   0  13   0 5.75389 5.27430   2
  -1 -13   0 1004.22   28.53   2
  13   1   0 1090.37   28.79   2
  13  -1   0 1013.72   28.29   2
 -13  -1   0 1052.63   28.41   2
   1 -13   0 1007.21   28.41   2
   1  13   0 1040.50   28.51   2
  -1  13   0 991.457  28.184   2
 -13   1   0 1070.92   28.36   2
 -13   2   0 8.55334 5.56165   2
  13   2   0 5.16749 5.08164   6
 -13  -2   0 4.21963 5.41481   2
  -2  13   0 -2.5972  5.0590   2
  -2 -13   0 1.17829 5.61852   2
  13   2   0 4.20366 5.35922   2
   2 -13   0 2.32846 5.41503   2
  13  -2   0 1.81038 5.28120   2
   2  13   0 -1.0041  4.9418   2
  13   3   0 204.284  12.660   6
  -3  13   0 175.237  11.463   2
 -13   3   0 236.400  12.259   2
 -13  -3   0 218.512  12.210   2
   3 -13   0 203.844  12.344   2
  -3 -13   0 219.761  12.635   2
  -3 -13   0 230.909  12.748   2
  13   3   0 214.606  12.073   2
  13  -3   0 208.161  12.189   2
   3  13   0 204.785  12.093   2
   4 -13   0 1.92857 5.76846   2
   4  13   0 -2.6218  5.2702   2
  13   4   0 1.78975 5.71932   6
 -13   4   0 -3.8505  5.1390   2
  -4 -13   0 0.85602 5.67864   2
  -4 -13   0 3.65774 5.67639   2
  13   4   0 -1.0131  5.3324   2
  -4  13   0 0.73782 5.94886   2
 -13  -4   0 10.3142  5.8291   2
  13  -4   0 8.61975 5.88354   2
   5  13   0 169.501  11.544   2
  13   5   0 190.026  11.914   2
  -5 -13   0 158.333  11.704   2
 -13  -5   0 171.666  11.504   2
  -5  13   0 168.297  11.365   2
  13   5   0 175.926  12.289   6
 -13   5   0 185.745  11.755   2
   5 -13   0 171.575  12.089   2
  13  -5   0 166.947  11.721   2
   6  13   0 2.58768 5.65027   2
   6 -13   0 0.26182 5.87475   2
  13   6   0 3.79748 6.36129   6
 -13  -6   0 -5.3038  5.6695   2
  13   6   0 -11.281   4.845   2
 -13   6   0 3.84730 6.00722   2
  13  -6   0 -0.2493  5.7750   2
  -6 -13   0 6.20775 6.39797   2
   6  13   0 3.13610 6.01994   6
  -6  13   0 2.27495 5.80203   2
   7  13   0 157.124  12.189   6
  -7  13   0 185.830  12.151   2
  13   7   0 166.286  12.601   6
  13  -7   0 160.406  11.905   2
 -13  -7   0 195.772  12.852   2
  13   7   0 158.287  11.845   2
   7  13   0 178.155  12.013   2
   7 -13   0 169.666  12.484   2
 -13   7   0 177.899  12.038   2
  -7 -13   0 171.892  12.298   2
 -13  -8   0 55.6895  8.9899   2
  13  -8   0 39.5344  8.5362   2
   8  13   0 41.1461  8.8540   6
  -8  13   0 58.2568  8.8324   2
 -13   8   0 51.1094  8.5957   2
  13   8   0 42.5452  8.2950   2
   8  13   0 44.0280  8.3066   2
  13   8   0 44.1947  8.6036   6
   0  14   0 1537.20   38.35   2
   0 -14   0 1543.14   38.73   2
 -14   0   0 1545.96   38.48   2
  14   0   0 1483.51   38.41   2
  14   1   0 0.04887 5.46786   2
  -1 -14   0 6.98585 6.29548   2
   1 -14   0 10.0969  6.4353   2
  14  -1   0 0.29346 5.93661   2
  -1  14   0 0.59069 5.47309   2
 -14   1   0 5.72906 6.23699   2
   1  14   0 8.75458 5.76052   2
 -14  -1   0 14.4189  6.3272   2
  14   2   0 1010.60   28.61   2
   2  14   0 1017.21   28.72   2
   2 -14   0 1026.55   28.96   2
  -2 -14   0 909.551  28.084   2
  -2  14   0 973.273  28.245   2
 -14  -2   0 959.219  28.358   2
  14   2   0 975.294  29.680   6
 -14   2   0 985.204  28.223   2
  14  -2   0 1030.42   28.86   2
  -3 -14   0 -1.5626  5.9779   2
   3  14   0 -3.4305  5.5369   2
  14   3   0 -5.4929  5.3259   2
  -3 -14   0 8.20623 6.10366   2
   3 -14   0 -1.4229  5.7658   2
  -3  14   0 1.15522 5.77721   2
  14   3   0 2.88928 6.10490   6
 -14  -3   0 4.67717 5.94559   2
  14  -3   0 4.82045 6.18236   2
 -14   3   0 2.22094 5.72612   2
   4  14   0 1155.77   31.93   2
  -4  14   0 1153.57   31.81   2
  14  -4   0 1119.18   31.65   2
   4 -14   0 1097.76   31.75   2
  14   4   0 1116.89   31.42   2
  14   4   0 1124.88   32.81   6
 -14  -4   0 1174.80   31.83   2
  -4 -14   0 1095.23   31.51   2
 -14   4   0 1133.36   31.28   2
  -4 -14   0 1114.62   31.64   2
  -5  14   0 26.8610  7.3063   2
 -14   5   0 30.8430  7.4470   2
  14   5   0 35.3695  8.0348   6
   5  14   0 33.7074  7.6487   2
 -14  -5   0 27.9194  7.2910   2
  -5 -14   0 46.7772  8.6319   2
   5 -14   0 41.3077  8.3619   2
  14  -5   0 34.2161  7.7634   2
  14   5   0 30.1095  7.4848   2
   6  14   0 725.423  24.385   2
  -6  14   0 730.343  24.307   2
  14  -6   0 779.689  25.173   2
 -14   6   0 770.093  24.797   2
  14   6   0 755.517  25.903   6
  14   6   0 721.791  24.488   2
 -14  -6   0 731.028  24.784   2
   0  15   0 3.78913 6.06956   2
  15   0   0 9.20026 6.39220   2
 -15   0   0 -3.3835  5.6302   2
  15  -1   0 87.4235 10.1663   2
 -15  -1   0 104.771  10.512   2
   1  15   0 106.777  10.684   2
  -1  15   0 114.768  11.054   2
  15   1   0 117.343  10.913   2
 -15   1   0 106.082  10.564   2
  -2  15   0 7.73973 5.92969   2
 -15   2   0 6.48488 6.20871   2
  15  -2   0 3.36886 6.36928   2
   2  15   0 7.93960 6.75164   2
  15   2   0 15.8659  6.6838   2
  15   2   0 15.8001  7.1652   6
 -15  -2   0 0.31167 5.85008   2
 -15   3   0 131.498  11.554   2
 -15  -3   0 110.129  10.975   2
  15   3   0 108.269  11.775   6
  15  -3   0 111.636  10.929   2
  15   3   0 125.051  11.566   2
   3  15   0 141.655  12.136   2
  -3  15   0 126.688  11.527   2
   4  15   0 -1.1045  5.8709   2
  15   4   0 -3.4462  6.2734   6
  15   4   0 -4.7484  5.8103   2
  -4  15   0 -2.1415  5.8683   2
  15  -4   0 -0.1245  6.0728   2
 -15   4   0 4.23049 6.57528   2
 -15  -4   0 6.42162 6.62899   2
   0   0   1 -2.3515  0.7102   8
  -1   0   1 -5.5958  0.7427   4
   1   0  -1 -8.4878  0.6002   4
   1   0   1 -7.3352  0.9969   8
  -1   0  -1 -7.5498  0.6178   4
   0   1   1 -4.4486  0.9836   8
  -1   0   1 -4.9222  1.0570   8
   0  -1   1 -6.5047  0.9536   8
  -1  -1   1 -7.8246  1.1060   4
   1  -1  -1 -9.7862  0.9045   4
  -1  -1  -1 -9.7565  0.9085   4
  -1  -1   1 -4.3113  1.0324   8
  -1   1  -1 -10.083   0.951   4
   1   1   1 -7.4999  1.0337   8
  -2   0  -1 607.219  12.819   4
   2   0  -1 580.777  11.848   9
   0   2  -1 611.156  11.952   9
  -2   0   1 612.074  13.011   7
  -2   0  -1 599.189  11.768   9
   2   1   1 40.3450  2.7456   2
   1   2  -1 43.7513  2.5039   9
  -1  -2  -1 44.9318  2.3510   9
  -1   2   1 41.5436  2.6652   2
  -2  -1   1 35.5638  2.7427   2
  -1  -2  -1 39.0022  2.8346   4
   2   1   1 38.7135  2.4003   8
  -2   1  -1 44.0291  2.3555   9
  -2   1  -1 41.5247  2.8995   4
   2  -1  -1 44.1115  2.3677   9
   1   2  -1 46.0107  2.5322   9
   1  -2  -1 35.8099  2.3127   9
  -2  -1  -1 37.3742  2.7988   4
  -2   1   1 46.5536  2.8851   4
   2   1  -1 42.3314  2.5142   9
  -2   1   1 41.8121  2.6226   2
  -1  -2   1 41.7859  2.1827   8
  -2  -1  -1 42.0792  2.4048   9
  -1  -2   1 38.2869  2.8992   4
   2  -1   1 42.3751  2.7713   2
  -1   2  -1 42.9946  2.4262   9
   1   2   1 35.3763  2.7528   2
  -2   2  -1 -1.2133  1.8942   4
   2   2   1 -1.4582  1.7283   2
   2   2  -1 -1.4240  1.6694   9
  -2  -2  -1 -4.4851  1.8025   4
   2  -2   1 -1.1077  1.5364   9
  -2   2  -1 -1.4291  1.5546   9
   2  -2   1 -0.4105  1.8408   2
  -2  -2  -1 -1.7393  1.5964   9
  -2   2   1 0.46745 1.79138   2
  -2  -2   1 -1.2140  1.5814   2
  -2  -2   1 -1.7613  1.4676   9
  -2  -2   1 -1.0608  1.9048   4
  -2  -2   1 -0.7193  1.0086   8
   2   2   1 -2.7450  1.2962   8
   2  -2  -1 1.22832 1.67068   9
   3   0   1 -2.9126  1.7544   9
  -3   0   1 -2.8816  1.8687   2
   3   0   1 -7.8458  1.7784   2
   3   0  -1 -5.2102  1.6734   9
   0   3  -1 -2.0023  1.7798   9
   0  -3  -1 -5.0730  1.6220   9
   0   3   1 -3.3269  1.9080   2
  -3   0  -1 -4.8956  1.5761   9
  -3   0  -1 -3.4380  1.9356   4
  -3   0   1 -4.5847  1.4793   9
   0  -3   1 -4.7450  1.9498   2
  -3   0   1 -3.8061  1.7105   4
   0  -3   1 -3.7593  1.6439   9
  -3   1  -1 -4.5183  1.6481   9
   3   1   1 -5.8491  1.9131   2
  -3  -1   1 -7.2228  1.7479   4
  -3  -1   1 -6.1875  1.5511   9
   1  -3   1 -2.5827  1.7575   9
  -1  -3  -1 -4.0468  1.6883   9
  -1  -3  -1 -5.3841  2.0552   4
  -3  -1   1 -6.7198  2.1834   7
   3  -1  -1 -3.2110  1.8126   9
  -1   3   1 -6.1342  1.8683   2
   1   3  -1 -4.8228  1.7350   9
  -3  -1   1 -6.3985  1.8803   2
   3   1   1 -3.2514  1.7112   9
   1  -3   1 -8.8248  1.9137   2
  -3   1  -1 -3.8521  2.0151   4
  -1  -3   1 -1.5332  2.1497   4
  -3  -1  -1 -8.1179  1.6089   9
  -3   1   1 -4.1105  1.6125   9
  -1   3  -1 -5.5263  1.7680   9
  -3  -1  -1 -3.2723  2.0682   4
  -1  -3   1 -8.6525  1.9061   2
  -1  -3   1 -3.8610  1.6711   9
   3  -1   1 -4.2970  1.9658   2
   1   3   1 -6.4009  1.8647   2
   1  -3  -1 -8.0333  1.7186   9
  -3   1   1 -4.6876  1.8933   2
   3  -1   1 -3.7833  1.7364   9
  -3   1   1 -1.2345  2.0892   4
   3   1  -1 -3.1851  1.8786   9
  -2   3   1 362.898   8.389   9
  -3  -2   1 366.473   9.615   4
  -2   3   1 359.716   9.113   2
  -2   3   1 362.846   8.379   9
  -2  -3  -1 348.596   9.513   4
   3   2   1 371.464   9.184   2
   3   2   1 361.184   7.949   8
   2  -3   1 361.466   9.208   2
   2   3  -1 364.077   8.779   9
  -3   2  -1 358.454   8.578   9
   2  -3   1 360.646   8.513   9
   3  -2  -1 352.855   8.606   9
  -3   2  -1 374.679   9.583   4
  -3  -2   1 371.689   8.446   9
  -2  -3  -1 358.304   8.518   9
   3   2   1 355.349   8.337   9
  -3  -2   1 359.401   9.118   2
  -3  -2   1 360.820   8.384   7
  -3  -2  -1 360.641   9.554   4
  -3   2   1 368.621   9.075   2
  -2  -3   1 362.245   9.222   2
   2   3   1 363.060   8.461   9
  -2  -3   1 360.518   8.478   9
   3  -2   1 355.741   8.486   9
  -3   2   1 353.552   9.519   4
  -3   2   1 346.101   8.323   9
  -2   3  -1 367.071   8.689   9
   2  -3  -1 355.664   8.605   9
   3  -2   1 384.734   9.328   2
   2   3   1 359.866   9.091   2
  -2  -3   1 371.104   7.351   8
  -3  -2  -1 367.713   8.538   9
   3   2  -1 362.681   8.797   9
   3   3  -1 -7.5901  2.0377   2
  -3  -3  -1 -4.5057  2.0008   9
  -3  -3   1 -5.7989  2.1693   2
   3   3  -1 -3.6070  2.2148   9
   3  -3   1 -5.4977  2.2998   2
  -3  -3  -1 -2.6599  2.2852   4
   3   3   1 -8.9011  2.1429   2
   3  -3  -1 -6.3374  2.0573   2
  -3  -3  -1 -4.2392  2.2624   2
  -3   3  -1 -6.8157  2.1791   2
   3  -3   1 -9.7474  1.9105   9
   3  -3  -1 -5.6222  2.0585   9
  -3   3   1 -4.6812  1.8993   9
   3   3   1 -5.7644  2.0715   9
   3   3   1 -5.2008  1.3739   8
  -3   3   1 -4.5380  2.2173   2
  -3  -3   1 -4.2047  1.9451   9
  -3   3  -1 -9.1508  1.7727   9
  -3  -3   1 -7.4385  2.1100   4
   4   0   1 265.844   7.102   9
   0   4   1 275.802   7.073   9
   0   4  -1 290.134   7.542   9
  -4   0   1 274.900   6.970   9
   0  -4   1 281.145   7.937   2
   0  -4   1 276.390   7.130   9
  -4   0   1 274.774   7.641   2
   0  -4  -1 281.763   7.286   9
  -4   0  -1 273.598   7.238   9
   0   4   1 264.464   7.763   2
   4   0  -1 286.164   7.976   2
   4   0  -1 280.053   7.360   9
  -4   0  -1 254.085   7.989   4
   0   4  -1 271.953   7.955   2
   4   0   1 282.168   7.825   2
   4   1   1 0.20142 2.25654   2
  -4   1  -1 0.98452 2.22169   4
  -4  -1   1 -6.3061  2.1763   4
  -4  -1   1 -3.6786  2.1852   2
   4  -1  -1 -4.3093  1.9757   2
   4  -1  -1 -5.2153  1.9045   9
  -1   4   1 -4.1109  1.9222   9
   4   1   1 -1.9717  1.8622   9
  -4  -1   1 -3.6860  1.7955   9
  -4   1  -1 -2.3712  1.8590   9
   1  -4   1 -6.9799  1.8426   9
  -4   1  -1 -2.5618  2.1682   2
  -1   4   1 -2.4475  2.2363   2
   1   4  -1 -2.4977  2.2703   2
   1  -4   1 -7.8443  2.1811   2
  -1  -4  -1 -1.7994  1.8316   9
   1   4  -1 -2.6482  2.0819   9
  -4   1   1 -3.2629  2.1656   4
  -4   1   1 -4.2514  2.0645   2
   4  -1   1 0.17190 2.03935   9
  -4  -1  -1 -2.8146  2.1936   2
   4   1  -1 -1.9438  2.0228   9
  -1  -4   1 -3.3838  2.0574   4
   1  -4  -1 -2.1696  1.8659   9
  -1  -4   1 -6.8641  1.8740   9
   1   4   1 -5.2531  1.8662   9
   1   4   1 -4.9026  2.0435   2
   4  -1   1 3.85212 2.42005   2
  -4   1   1 1.95916 2.00789   9
  -4  -1  -1 -1.1074  2.3591   4
  -4  -1  -1 -0.5518  1.9903   9
  -1   4  -1 -0.1507  2.3637   2
  -1  -4   1 -0.0220  2.0845   2
   4   1  -1 -2.8662  2.2053   2
  -1   4  -1 1.05948 2.08118   9
   2  -4   1 474.900  11.923   2
  -2   4   1 464.519  10.874   9
  -2   4   1 484.019  10.999   9
  -4   2  -1 487.239  11.171   9
   2   4  -1 483.935  11.380   9
  -2  -4  -1 489.758  11.195   9
  -4  -2   1 487.880  10.984   9
  -2  -4  -1 481.952  12.273   4
   4   2   1 482.030  10.507   8
   4  -2  -1 493.005  11.912   2
   4   2   1 471.713  11.846   2
  -2   4   1 478.750  11.820   2
  -4  -2   1 482.365  11.298   7
   2  -4   1 501.423  11.204   9
   4   2   1 493.428  11.045   9
   2   4  -1 485.448  12.031   2
  -4  -2   1 467.951  11.767   2
   4  -2  -1 478.994  11.266   9
  -2  -4  -1 508.920  12.040   2
  -4   2  -1 485.699  12.341   4
  -4   2   1 478.030  11.717   2
   4   2  -1 463.034  11.918   2
   4   2  -1 493.263  11.362   9
  -2   4  -1 497.141  12.055   2
  -2  -4   1 474.031  11.048   9
  -4  -2  -1 470.583  12.383   4
  -4   2   1 487.744  10.946   9
   2   4   1 481.423  11.032   9
  -2   4  -1 468.954  11.258   9
  -4  -2  -1 492.312  11.170   9
  -4   2   1 468.820  12.274   4
  -2  -4   1 488.061  11.879   2
   4  -2   1 497.811  11.976   2
   2  -4  -1 495.582  11.967   2
   2  -4  -1 483.476  11.201   9
   4  -2   1 490.084  11.204   9
  -2  -4   1 508.244  11.989   2
  -4  -2  -1 479.984  11.804   2
   2   4   1 475.337  11.887   2
   4   3   1 -3.1166  2.3825   2
   4  -3  -1 -2.0438  2.2520   9
  -4   3  -1 0.80809 2.12165   9
  -4   3  -1 -3.3497  2.1265   2
   3  -4   1 -3.7500  2.1119   9
  -4  -3   1 -1.4638  2.4118   2
  -3  -4  -1 -1.1961  2.4764   4
  -4   3  -1 -4.3374  2.3416   4
  -4  -3   1 -0.2807  2.0428   9
  -3  -4  -1 0.78087 2.18623   9
  -4  -3   1 -4.0698  2.2388   4
  -3  -4  -1 -0.8733  2.4129   2
   4   3   1 -3.9607  2.1250   9
   3   4  -1 -3.7066  2.2147   9
   4   3   1 -4.4441  2.4110   6
  -3  -4  -1 -6.2318  2.2792   2
   4  -3  -1 -8.6236  2.2046   2
  -4  -3   1 -2.9420  1.7676   7
   4   3   1 -3.0622  1.4276   8
   3  -4   1 -3.4044  2.4351   2
   3   4  -1 -3.6353  2.2297   2
  -3   4   1 -3.3542  1.9390   9
  -3   4   1 -6.3525  2.1912   2
  -4  -3  -1 -0.3969  2.1274   9
  -4   3   1 -0.3490  2.4947   4
  -4   3   1 -0.8058  2.0103   9
   3   4   1 -2.7568  2.0751   2
   4  -3   1 2.80372 2.54271   2
  -4  -3  -1 -2.4988  2.2254   4
   4  -3   1 -2.6668  2.1029   9
   3  -4  -1 -3.7216  2.3575   2
   4   3  -1 3.83892 2.45735   9
   4   3  -1 -4.8440  2.3688   2
  -4   3   1 -1.2326  2.3455   2
  -3   4  -1 -2.9363  2.3892   2
   3   4   1 -0.6931  2.5805   6
  -4  -3  -1 0.13872 2.45751   2
  -3  -4   1 -3.5723  2.2952   2
   3  -4  -1 1.92609 2.31248   9
  -3  -4   1 -3.3203  2.2386   4
   3   4   1 -2.7956  2.0419   9
  -3  -4   1 -5.2479  1.9902   9
  -3   4  -1 -1.3580  2.0498   9
  -4  -4  -1 -0.1096  2.5756   2
  -4  -4   1 -2.0355  1.4690   7
  -4  -4  -1 -0.4071  1.9682   9
   4  -4   1 -0.6214  2.4602   2
   4   4  -1 -1.4410  2.5175   6
   4  -4  -1 -2.1636  2.0563   9
  -4  -4  -1 -0.1132  2.3522   4
   4   4   1 -2.8265  1.2632   8
  -4  -4   1 -0.6539  2.4746   4
  -4  -4  -1 -0.8621  2.4932   1
   4   4   1 -2.8983  2.0966   9
  -4  -4   1 1.78497 2.58860   2
  -4  -4   1 2.07350 2.24921   9
   4  -4  -1 0.96518 2.59148   1
   4   4  -1 -4.0158  2.3905   1
  -4   4  -1 3.06192 2.70794   1
   4   4   1 -2.8400  2.4349   6
   4   4   1 1.41982 2.52474   2
  -4   4  -1 -3.5944  2.3737   2
   4   4  -1 -2.6572  2.1650   2
   4  -4  -1 0.28121 2.58898   2
  -4   4   1 0.60160 2.41171   2
  -4   4   1 -3.5941  1.9569   9
   4   4  -1 -4.6767  2.1746   9
   4  -4   1 -3.5171  2.1373   9
  -4   4  -1 2.20843 2.17734   9
   4   4  -1 -4.6566  2.3597   1
   0   5  -1 -1.5042  2.4761   2
  -5   0  -1 -1.2922  2.3758   2
  -5   0  -1 -0.4515  2.0194   9
   5   0   1 -0.7637  2.4351   2
   0  -5  -1 0.29457 2.03739   9
   0  -5   1 -4.0553  2.0146   9
   0   5   1 -0.1765  2.1706   9
   5   0  -1 -3.2462  1.9104   9
  -5   0  -1 -2.6788  2.2523   4
   5   0   1 -3.4230  2.0377   9
   0  -5  -1 -3.0207  2.3349   2
   0   5  -1 -3.5588  2.0552   9
   0   5  -1 -5.8326  1.9542   9
   0   5   1 -4.7185  2.3589   2
  -5   0   1 4.14102 2.13868   9
   0  -5   1 -1.2704  2.4108   2
  -5   0   1 -3.0581  2.2755   2
  -5   0   1 -1.9885  2.1022   4
   5   0  -1 -1.3035  2.5062   2
  -1   5   1 31.6242  3.6132   2
   5   1   1 30.5247  3.5013   2
  -5  -1   1 36.5366  3.6663   4
  -5   1  -1 31.4730  3.6398   4
   5  -1  -1 32.6759  3.2854   9
   1   5  -1 26.5935  3.6494   2
  -5  -1   1 33.1090  3.5165   2
   1  -5   1 37.3255  3.8234   2
  -1   5   1 27.8561  3.0488   9
  -5   1  -1 35.1320  3.7171   2
   5   1   1 33.3684  3.1515   9
   1   5  -1 31.6741  3.3782   9
  -5  -1   1 34.2910  3.0956   9
  -1  -5  -1 35.0387  3.7928   2
   1  -5   1 34.8745  3.2504   9
  -1  -5  -1 40.3533  3.3598   9
  -5   1  -1 29.4377  3.0686   9
   5  -1  -1 41.5196  3.8734   2
  -1   5  -1 31.6381  3.2304   9
  -5  -1  -1 32.4255  3.1770   9
  -1  -5   1 28.0715  3.4802   4
  -5   1   1 40.0077  3.8651   4
  -1   5  -1 36.1639  3.6938   2
   1   5   1 36.6898  3.9928   6
   1  -5  -1 30.8885  3.2805   9
  -5  -1  -1 35.7446  3.8681   4
   5   1  -1 32.4289  3.3444   9
   5  -1   1 31.0160  3.2477   9
  -5  -1  -1 34.9075  3.7660   2
  -1  -5   1 35.7056  3.2439   9
   1  -5  -1 39.9679  3.7332   2
  -5   1   1 34.8596  3.0520   9
   5  -1   1 33.8278  3.5402   2
  -1  -5   1 31.4624  3.4599   2
  -5   1   1 32.8457  3.6401   2
   1   5   1 31.7316  3.1042   9
   1   5   1 33.2903  3.4178   2
   5   1  -1 32.6829  3.6280   2
   5  -2  -1 0.06482 2.58234   2
  -2   5   1 -3.5566  1.9712   9
  -2  -5  -1 -2.4663  2.3003   4
  -2  -5  -1 0.97767 2.63893   1
  -5  -2   1 -0.2897  2.0349   9
   2  -5   1 -5.1602  1.9371   9
   5   2   1 -1.4059  2.4246   2
  -2  -5  -1 -2.9394  1.9852   9
   2  -5   1 -4.5901  2.1154   2
  -5   2  -1 -3.5600  2.1412   2
   5   2   1 -4.1773  2.0671   9
  -5   2  -1 -3.9373  1.9499   9
  -5  -2   1 0.23658 2.53128   2
  -5  -2   1 -4.4989  2.4326   7
  -2  -5  -1 -1.4996  2.2868   2
   5  -2  -1 1.08738 2.40360   9
   5   2   1 2.92091 2.48383   6
  -5  -2   1 -2.0731  2.5787   4
   5   2   1 -3.9125  1.7628   8
   2   5  -1 -3.1527  2.2431   9
  -2   5   1 0.13227 2.52180   2
  -5   2  -1 -2.6194  2.1873   4
   2   5  -1 -2.4701  2.4127   2
  -5   2   1 -4.9068  2.2442   2
  -2   5  -1 -6.4646  2.2883   2
   2   5   1 -1.7279  2.1508   9
  -2  -5   1 0.07833 2.16179   9
   2   5   1 -1.8335  2.4114   2
  -5  -2  -1 -1.7597  2.4677   2
  -5  -2  -1 -4.8722  2.0801   9
   2  -5  -1 -1.7232  2.0960   9
   2   5   1 -5.2651  2.1776   6
  -5  -2  -1 1.30317 2.61636   1
  -5   2   1 -1.6931  2.5112   4
   2  -5  -1 -1.4835  2.5738   2
   2  -5  -1 -1.4417  2.5283   1
  -2  -5   1 -8.7630  2.3977   4
  -5   2   1 -6.9945  1.8954   9
  -2  -5   1 -1.8953  2.4088   2
  -5  -2  -1 -2.0515  2.2448   4
   5   2  -1 -1.7167  2.2326   9
   5  -2   1 -1.5922  2.1802   9
  -2   5  -1 2.94809 2.25817   9
   5   2  -1 -6.4143  2.3027   2
   5  -2   1 -0.7815  2.5083   2
   5   3   1 11.0914  3.1239   6
  -5  -3   1 1.09911 2.69343   2
   3   5  -1 5.18147 2.77671   6
   5  -3  -1 2.44579 2.63552   2
  -3  -5  -1 2.41444 2.71161   2
  -5  -3   1 5.12089 2.86257   4
  -5   3  -1 2.03203 2.70041   1
   5   3   1 8.72944 2.90215   2
   3  -5   1 1.92542 2.74634   2
  -3   5   1 7.27196 2.74100   2
  -3   5   1 5.62166 2.30127   9
   5  -3  -1 3.89736 2.70874   1
  -5   3  -1 3.98197 2.51846   2
   3   5  -1 9.46444 2.91737   1
  -5  -3   1 7.62420 2.26497   7
   5  -3  -1 5.20040 2.51987   9
   3   5  -1 6.24998 2.60601   9
   5   3   1 1.89067 1.65475   8
   3   5  -1 5.39125 2.66105   2
  -5   3  -1 2.59752 2.29139   9
  -5   3  -1 7.25752 2.81148   4
  -3  -5  -1 3.99563 2.86049   1
  -3   5   1 0.88137 2.11858   9
  -3  -5  -1 3.52611 2.28674   9
   3  -5   1 1.66382 2.36082   9
   5   3   1 3.61991 2.29599   9
  -3  -5  -1 1.19565 2.74129   4
  -5  -3   1 5.76131 2.35039   9
  -3   5  -1 7.20273 2.87968   1
   3   5   1 3.42999 2.61372   2
  -3   5  -1 4.45316 2.47231   9
  -3   5  -1 7.21417 2.95864   2
  -3  -5   1 3.45197 2.37097   9
  -3  -5   1 4.08356 2.46655   2
  -5   3   1 1.54449 2.55751   2
  -5   3   1 3.38738 2.52639   4
   5   3  -1 6.70434 2.89414   6
   3  -5  -1 6.09781 2.50603   9
  -5  -3  -1 5.18644 2.83908   1
   3  -5  -1 5.33247 2.89427   1
   5   3  -1 8.30450 2.92923   2
  -3  -5   1 2.36158 2.50979   4
   3   5   1 2.63063 2.81447   6
  -5  -3  -1 1.01903 2.64414   2
   3   5   1 5.73061 2.41823   9
  -3  -5   1 6.02577 1.11030   8
   5   3  -1 5.10699 2.69640   1
  -3  -5   1 3.00218 2.46250   2
   5  -3   1 0.13576 2.61162   2
  -5  -3  -1 3.24165 2.82737   4
   5   3  -1 4.60364 2.54417   9
   3  -5  -1 3.37192 2.80074   2
  -5   3   1 4.18194 2.44348   9
   5  -3   1 5.74668 2.54127   9
  -5  -3  -1 4.37299 2.28532   9
   5  -4  -1 14.3184  3.3466   2
  -5   4  -1 13.7261  3.4053   1
   5   4   1 9.13506 3.14456   2
  -5  -4   1 17.5219  2.3958   7
   4   5  -1 15.3042  3.4828   1
  -5  -4   1 16.4165  2.8443   9
  -4  -5  -1 6.18324 3.19468   4
   4  -5   1 8.27392 3.19515   2
   5  -4  -1 9.54929 2.82079   9
  -5   4  -1 14.2987  3.5060   4
  -4  -5  -1 8.32830 3.25163   1
  -5  -4   1 12.4453  3.2290   2
   4  -5   1 12.4450  2.8739   9
   5  -4  -1 9.10067 3.20552   1
  -4  -5  -1 20.4707  3.5494   2
  -4   5   1 10.1550  2.6017   9
  -4  -5  -1 15.2814  2.8315   9
   4   5  -1 12.2838  3.2350   6
   5   4   1 11.6516  2.9304   9
  -5   4  -1 14.5440  2.9797   9
   4   5  -1 13.4907  3.1356   4
  -5   4  -1 13.9005  3.0852   2
   5   4   1 14.2136  1.6090   8
  -4   5   1 10.0281  2.8246   2
   4   5  -1 13.0529  2.9850   9
   5   4   1 13.5427  3.4277   6
   4   5  -1 12.4222  3.4270   2
  -4  -5   1 11.5588  3.1749   4
  -4  -5   1 8.76627 3.17644   2
   5   4  -1 14.9994  3.3437   1
   4  -5  -1 11.7029  2.8211   9
   4  -5  -1 9.35919 3.18443   2
  -5  -4  -1 12.7551  2.8967   9
  -5  -4  -1 14.3708  3.3604   4
   5   4  -1 13.2268  3.2336   2
  -5  -4  -1 14.4933  3.3510   1
   4   5   1 12.0130  3.1476   6
  -4  -5   1 11.9468  2.8165   9
  -4   5  -1 11.4632  2.8571   9
   4  -5  -1 8.87146 3.08598   1
  -5  -4  -1 16.1310  3.0976   2
   5  -4   1 12.6961  3.2484   2
  -4   5  -1 17.8974  3.4541   2
   5   4  -1 19.4791  3.5379   6
  -4   5  -1 16.4767  3.3904   1
  -5   4   1 14.4655  3.3545   2
   5  -4   1 12.7315  2.9092   9
  -5   4   1 13.2761  2.6944   9
   5   4  -1 11.5510  2.8013   9
   4   5   1 10.8706  2.7755   9
   5   4  -1 14.4173  3.2945   1
   4   5   1 17.2723  3.4030   2
  -5   5  -1 -3.7605  2.4301   9
  -5   5   1 -4.8405  2.3252   9
   5   5  -1 -2.0220  2.8808   6
  -5  -5  -1 -1.1058  2.7137   2
   5  -5   1 -1.7908  2.8269   2
  -5   5   1 2.15692 2.84165   2
  -5  -5  -1 -4.1949  2.3189   9
   5   5  -1 0.15133 2.64854   9
  -5  -5   1 1.08526 2.51634   9
   5   5  -1 2.34770 2.94784   1
  -5  -5   1 1.06524 2.66060   2
  -5  -5  -1 -2.5067  2.5682   4
  -5   5  -1 -1.3951  2.8728   2
   5  -5  -1 -0.8168  2.9815   2
   5   5   1 -2.9526  2.7823   2
   5  -5  -1 3.46789 2.57286   9
   5  -5  -1 2.55452 3.01279   1
   5   5   1 -4.3092  2.4838   6
   5   5  -1 -4.2983  2.3952   2
  -5  -5  -1 -2.0420  2.8319   1
  -5   5  -1 -7.8049  2.6220   1
   5   5   1 -1.8907  2.3763   9
   5  -5   1 -6.2343  2.1853   9
   0  -6  -1 624.391  14.273   9
   6   0  -1 594.166  14.177   9
   0   6  -1 601.518  14.258   9
   0   6   1 580.300  14.886   2
  -6   0  -1 612.845  13.976   9
   6   0   1 590.991  13.905   9
   0   6  -1 598.100  14.865   1
   0  -6  -1 582.225  14.911   2
   6   0   1 605.445  15.066   2
   0   6   1 598.195  13.793   9
  -6   0  -1 597.839  14.956   1
   6   0  -1 608.451  15.107   2
   0  -6  -1 617.900  15.013   1
   0  -6   1 600.597  15.083   2
   0   6  -1 559.126  14.892   2
   0  -6   1 599.759  13.984   9
  -6   0   1 612.205  14.877   2
   6   0  -1 597.017  14.890   1
  -6   0  -1 623.033  15.076   2
  -6   0   1 602.452  13.764   9
  -6   1  -1 -3.4607  2.4754   1
   6  -1  -1 -4.3458  2.0082   9
   6   1   1 -0.9868  2.2750   2
  -1   6   1 -0.9526  2.4780   2
  -1  -6  -1 -2.4921  2.5761   1
   1   6  -1 1.56796 2.58093   1
  -6   1  -1 -5.2556  2.1442   4
  -1  -6  -1 3.27236 2.46899   9
  -1  -6  -1 -2.0256  2.5288   2
  -1   6   1 1.19479 2.13037   9
   6  -1  -1 -0.3831  2.5411   1
   6  -1  -1 0.56420 2.41226   2
  -6   1  -1 -0.3207  2.2373   9
   1  -6   1 -5.0345  2.0810   9
  -6   1  -1 2.69652 2.65372   2
   1   6  -1 -0.8297  2.5298   6
   6   1   1 -3.3394  2.0847   9
  -6  -1   1 1.01143 2.25442   2
  -6  -1   1 -2.5506  2.1927   9
   1  -6   1 -1.5557  2.3636   2
   1   6  -1 -2.4997  2.3668   9
  -6  -1   1 -3.3444  2.4798   4
   1   6  -1 -2.3486  2.3110   2
  -6  -1  -1 0.63452 2.24396   9
  -6  -1  -1 -1.9028  2.3218   2
  -6  -1  -1 -0.3295  2.5971   1
   1  -6  -1 3.82468 2.76438   2
   6  -1   1 -1.6892  2.1969   9
  -1  -6   1 -4.3867  2.0591   9
   1   6   1 0.77443 2.50264   6
   1  -6  -1 4.17699 2.80767   1
  -1   6  -1 -1.6516  2.5166   1
  -1  -6   1 -2.2486  2.5890   2
   1  -6  -1 -2.2685  2.0946   9
   1   6   1 -2.2860  2.3982   2
   1   6   1 1.51409 2.28078   9
  -6   1   1 -5.1170  1.8459   9
   6   1  -1 2.50858 2.74471   2
  -6   1   1 -2.4471  2.4131   2
   6  -1   1 -1.1165  2.5531   2
  -1   6  -1 -1.0702  2.3573   9
   6   1  -1 -1.1401  2.4404   1
  -6   1   1 4.21053 2.62538   4
  -6  -1  -1 1.07872 2.36425   4
  -1  -6   1 0.32388 2.68104   4
  -1   6  -1 -1.6230  2.5140   2
   6   1  -1 -0.2482  2.3381   9
   2   6  -1 181.440   6.870   9
  -6   2  -1 192.921   7.254   2
   2   6  -1 167.227   7.012   6
  -2   6   1 168.983   7.101   2
   6  -2  -1 170.289   6.613   9
   2  -6   1 176.337   6.443   9
   2  -6   1 171.519   7.245   2
   6   2   1 176.178   7.209   2
  -2  -6  -1 185.252   7.398   2
   2   6  -1 177.771   7.182   1
  -6   2  -1 186.588   7.823   4
  -6  -2   1 173.718   6.260   9
   6   2   1 181.033   7.616   6
  -2   6   1 168.152   6.212   9
  -6  -2   1 182.141   6.371   3
   2   6  -1 182.006   7.367   2
   6   2   1 174.931   6.344   9
  -6   2  -1 164.353   6.403   9
   6  -2  -1 169.528   7.072   1
  -6  -2   1 179.916   7.175   2
  -2  -6  -1 160.375   7.588   4
   6  -2  -1 171.242   7.285   2
  -2  -6  -1 179.668   7.246   1
  -2  -6  -1 169.907   6.408   9
  -6   2  -1 181.217   7.326   1
  -6   2   1 174.777   7.609   4
  -2   6  -1 186.153   7.506   2
   2   6   1 178.209   7.536   6
  -2  -6   1 175.239   7.299   2
   6   2  -1 179.777   7.154   1
   2   6   1 184.597   6.555   9
  -2   6  -1 161.069   6.564   9
  -2  -6   1 182.429   6.496   9
   6   2  -1 177.314   6.688   9
  -6  -2  -1 183.568   7.329   2
   2  -6  -1 175.881   7.112   2
  -2   6  -1 179.876   7.346   1
   6  -2   1 180.228   6.494   9
   2   6   1 172.317   7.097   2
   2  -6  -1 182.228   6.751   9
  -6  -2  -1 192.339   7.478   1
   6   2  -1 167.694   7.232   2
   6  -2   1 173.766   7.105   2
  -6  -2  -1 192.890   6.623   9
  -6   2   1 186.481   6.404   9
  -6  -2  -1 173.848   7.595   4
   2  -6  -1 178.132   7.214   1
  -2  -6   1 176.975   7.686   4
  -6   2   1 178.122   7.185   2
  -6  -3   1 176.294   7.454   2
   6  -3  -1 197.539   7.023   9
  -3  -6  -1 186.586   8.047   4
  -6   3  -1 198.279   7.715   1
  -3  -6  -1 202.780   7.872   2
   3  -6   1 191.976   7.842   2
  -6   3  -1 188.458   7.670   2
  -3   6   1 205.339   7.756   2
  -6  -3   1 191.606   6.856   7
  -3   6   1 184.818   6.602   9
   3  -6   1 179.360   6.695   9
  -3  -6  -1 172.361   6.817   9
  -3  -6  -1 184.007   7.659   1
   6   3   1 198.106   7.026   9
  -6   3  -1 197.083   7.059   9
   3   6  -1 193.745   7.246   9
  -3   6   1 196.356   6.825   9
  -6   3  -1 178.779   7.766   4
   3   6  -1 189.217   7.584   6
   6  -3  -1 183.441   7.566   2
   6  -3  -1 195.842   7.635   1
   6   3   1 196.246   8.198   6
   6   3   1 190.058   5.535   8
   6   3   1 203.643   7.580   2
   3   6  -1 193.639   7.692   1
   3   6  -1 193.467   7.764   2
  -6  -3   1 192.329   6.741   9
   6   3  -1 186.501   7.884   6
  -3   6  -1 194.160   7.758   1
   6   3  -1 186.750   7.698   2
  -6  -3  -1 182.602   7.574   1
   3   6   1 177.433   7.467   2
  -3   6  -1 186.876   7.565   2
  -6  -3  -1 191.956   6.989   9
   6   3  -1 186.275   7.167   9
   6   3  -1 192.067   7.621   1
  -3  -6   1 199.940   6.892   9
   3   6   1 198.545   6.949   9
  -3  -6   1 178.803   7.535   2
   3  -6  -1 184.309   7.670   1
  -6   3   1 192.568   6.644   9
   6  -3   1 199.371   7.835   2
  -3  -6   1 186.612   7.695   2
   6  -3   1 196.687   6.978   9
  -3   6  -1 188.877   7.033   9
  -6  -3  -1 174.520   7.354   2
  -6   3   1 192.650   7.670   2
   3  -6  -1 184.866   7.656   2
   3   6   1 178.451   7.657   6
   3  -6  -1 196.079   7.172   9
   6   4   1 212.873   8.347   2
  -6   4  -1 204.180   8.312   1
   6  -4  -1 190.960   7.434   9
  -6   4  -1 194.198   8.197   2
   6   4   1 207.780   7.449   9
   4   6  -1 194.578   7.581   9
  -4   6   1 201.631   7.148   9
  -4  -6  -1 190.711   8.101   2
  -4   6   1 191.473   7.949   2
  -4  -6  -1 201.207   8.228   1
   6   4   1 219.156   8.827   6
   4   6  -1 187.894   8.073   6
  -6  -4   1 213.960   6.526   7
  -4  -6  -1 213.289   8.419   2
   6  -4  -1 215.002   8.330   1
   4   6  -1 213.945   8.360   1
  -6  -4   1 204.116   7.311   9
  -4  -6  -1 198.852   7.325   9
  -4   6   1 212.134   7.179   9
   4   6  -1 199.520   8.390   2
  -6   4  -1 199.764   7.396   9
  -6  -4   1 219.336   8.203   2
   4  -6   1 190.945   8.218   2
   4  -6   1 210.215   7.436   9
   6  -4  -1 208.522   8.443   2
   6   4  -1 204.807   8.116   1
  -6  -4  -1 197.315   8.180   2
  -4  -6   1 209.456   7.383   9
  -4   6  -1 195.728   8.217   2
   6   4  -1 203.863   7.521   9
   6   4  -1 216.976   8.421   2
   4   6   1 219.596   7.406   9
   4   6   1 197.602   8.083   2
  -6  -4  -1 207.770   8.289   1
   6   4  -1 209.875   8.184   1
  -4   6  -1 208.088   8.299   1
   4  -6  -1 208.223   7.691   9
  -4   6  -1 202.150   7.542   9
  -4  -6   1 193.823   8.214   2
   4   6   1 189.009   8.475   6
  -6   4   1 202.173   7.180   9
   6  -4   1 209.583   7.451   9
  -6  -4  -1 192.318   7.226   9
   6   4  -1 206.205   8.555   6
  -6   4   1 197.997   8.119   2
   6  -4   1 206.822   8.364   2
   4  -6  -1 185.254   7.939   2
   4  -6  -1 210.279   8.349   1
  -6   5  -1 11.5848  3.7107   2
   6   5   1 7.56891 3.61189   6
  -6   5  -1 10.2948  3.1804   9
  -6  -5   1 10.0310  3.6320   1
   5   6  -1 8.74145 3.20521   9
   5  -6   1 13.0536  3.7344   1
   6   5   1 16.8734  3.7686   2
   5  -6   1 17.0707  3.3896   9
   6  -5  -1 11.3814  3.1236   9
  -5  -6  -1 15.9475  3.8750   2
  -5   6   1 12.7275  3.6154   2
   5   6  -1 13.5176  3.7306   6
  -5   6   1 12.3746  3.0241   9
  -6   5  -1 16.3137  3.8456   1
   6  -5  -1 16.7887  3.8122   1
  -6  -5   1 13.1035  3.6823   2
   5   6  -1 12.6945  3.6655   2
   5  -6   1 14.2795  3.7633   2
  -6  -5   1 9.66943 2.95455   9
   6  -5  -1 15.0142  3.8401   2
   6   5   1 7.00909 3.08620   9
   5   6  -1 5.70795 3.29921   1
  -5  -6  -1 14.8207  3.1169   9
  -5  -6  -1 10.5007  3.7476   1
  -5  -6   1 8.76368 2.98072   9
   5  -6  -1 20.8381  3.7879   2
   5   6   1 12.8447  3.5854   2
  -6   5   1 14.4855  3.5952   2
   5   6   1 10.0268  3.7223   6
   5  -6  -1 7.09497 3.40097   1
   5  -6  -1 13.4292  3.3860   9
  -6  -5  -1 5.31977 3.12409   2
   6   5  -1 12.7110  3.8615   2
  -6   5   1 15.5512  3.1580   9
  -5   6  -1 7.87010 3.49968   2
  -5  -6   1 10.6289  3.7085   1
   6  -5   1 9.21635 3.58726   1
   6  -5   1 18.6898  3.6405   2
  -6  -5  -1 10.4716  3.1917   9
   6   5  -1 11.3088  3.5674   1
  -5   6  -1 10.2297  2.9731   9
  -5   6  -1 18.1019  4.0290   1
   6   5  -1 6.32516 3.04437   1
   5   6   1 14.1976  3.2791   9
  -6  -5  -1 6.66212 3.35932   1
   6   5  -1 9.28000 3.64158   6
   6   5  -1 10.5319  3.2201   9
   6  -5   1 10.7862  3.2216   9
  -5  -6   1 12.0603  3.5485   2
   6  -6   1 1.14371 3.12311   9
  -6   6   1 2.07905 3.37084   2
  -6  -6   1 1.62529 3.40734   2
   6   6  -1 -0.1214  3.3289   6
   6  -6  -1 9.81054 3.77622   2
  -6  -6  -1 5.34754 3.55975   2
   6  -6  -1 -0.4817  3.0301   9
  -6   6  -1 -5.8163  3.1388   1
  -6  -6  -1 0.95921 3.31364   1
  -6  -6   1 1.28678 2.85741   9
   6   6  -1 1.89272 3.31526   1
   6   6  -1 0.81805 3.34841   2
   6   6  -1 -1.3643  2.5549   9
   6   6   1 -2.3735  3.0044   9
  -6   6   1 5.40234 2.94834   9
   6   6   1 2.81897 3.56834   6
  -6   6  -1 -5.5106  3.0115   2
   6  -6  -1 3.96791 3.59301   1
  -6  -6  -1 -2.9434  2.8581   9
   6   6   1 -4.0286  3.0061   2
  -6   6  -1 0.61824 2.81873   9
   6  -6   1 -2.9625  3.3296   2
  -7   0   1 -1.6892  2.6321   2
  -7   0  -1 -2.8297  2.2021   9
  -7   0   1 -0.7257  2.2915   9
   0  -7  -1 3.67925 2.76034   2
   0   7  -1 -0.3234  2.7753   2
   0   7  -1 -2.1638  2.8705   1
   7   0  -1 -1.8680  2.8308   2
   0  -7  -1 3.73885 2.94642   1
   0  -7  -1 -3.7454  2.2329   9
  -7   0  -1 -3.7951  2.3896   2
   7   0  -1 -5.1887  2.6163   1
   0  -7   1 0.31397 2.89069   2
   0   7   1 -2.8547  2.6974   2
   7   0  -1 -4.4535  2.3313   9
   0  -7   1 -1.8812  2.3711   9
   0   7   1 -2.2104  2.2897   9
  -7   0  -1 -2.4591  2.7606   1
   7   0   1 -1.3325  2.4809   9
   0   7  -1 -0.3636  2.6912   9
   7   0   1 -2.8498  2.7513   2
  -7   1  -1 85.2608  5.1031   9
   7   1   1 97.1097  5.1071   9
   1  -7   1 92.8382  5.8701   2
   7  -1  -1 92.7339  5.8291   2
  -7   1  -1 93.7093  5.9099   1
  -1   7   1 90.2556  5.0578   9
   7   1   1 84.8235  5.7438   2
  -1  -7  -1 85.5609  5.6989   1
  -1  -7  -1 88.8011  5.1449   9
  -7  -1   1 102.993   5.883   2
   1  -7   1 96.9068  5.1821   9
   1   7  -1 88.3208  5.8655   2
  -7   1  -1 78.2719  5.5273   2
   7  -1  -1 85.8555  4.9951   9
   7  -1  -1 84.5625  5.5930   1
  -7  -1   1 94.2719  5.0145   9
   1   7  -1 91.6830  5.3378   9
   1   7  -1 86.1965  5.7100   1
  -1   7   1 86.6817  5.6341   2
  -1  -7  -1 96.7503  5.6273   2
   1   7   1 87.4450  5.2978   2
   1  -7  -1 96.2171  5.9210   1
  -1   7  -1 98.3245  6.0388   2
   1   7   1 96.6580  5.1217   9
  -7  -1  -1 88.8288  5.1122   9
   7   1  -1 82.3757  4.9510   9
   7   1  -1 86.7901  5.6650   1
   7  -1   1 82.8213  5.4236   2
   1  -7  -1 98.3834  6.0829   2
  -1   7  -1 86.8197  5.1728   9
  -7  -1  -1 95.8870  5.7856   1
  -7   1   1 88.5281  4.9773   9
   7   1  -1 95.0491  5.5912   2
  -1   7  -1 80.5692  5.6633   1
  -7  -1  -1 101.434   5.673   2
  -7   1   1 74.4779  5.1384   2
   1  -7  -1 84.3752  5.2162   9
  -1  -7   1 86.0707  5.7792   2
  -1   7  -1 100.158   5.194   9
  -1  -7   1 95.8014  5.0834   9
   7  -1   1 88.8358  4.9591   9
   7  -2  -1 39.5474  4.1865   9
  -2   7   1 47.9054  4.1701   9
   2  -7   1 50.9312  4.4129   9
   7  -2  -1 50.6716  5.0306   1
  -7  -2   1 52.2805  4.0913   3
   2   7  -1 40.0118  4.2363   9
   7   2   1 49.3835  4.9915   2
   2   7  -1 46.3820  4.7191   2
   7   2   1 55.9346  4.3885   9
  -7  -2   1 44.1320  4.0261   9
  -7   2  -1 46.0843  4.8564   1
   2  -7   1 46.0999  4.7749   2
   2   7  -1 48.9814  4.9532   1
  -2  -7  -1 48.1650  4.9555   1
  -2  -7  -1 47.4006  4.3856   9
  -7  -2   1 46.4983  4.6873   2
  -7   2  -1 53.5354  5.0842   2
  -2   7   1 48.5831  4.9006   2
  -2  -7  -1 50.8880  5.0101   2
   7  -2  -1 50.4690  4.8990   2
  -7   2  -1 42.9882  4.1065   9
   2   7  -1 54.6326  5.1116   6
  -2  -7   1 45.6485  4.9344   2
  -7  -2  -1 50.2038  4.8712   2
  -2  -7   1 38.3049  4.0358   9
  -7   2   1 51.7933  4.1955   9
   7  -2   1 43.9503  4.8044   2
  -7  -2  -1 40.2430  4.1686   9
   2   7   1 52.5960  4.4312   9
   2  -7  -1 43.6568  4.7931   2
   7   2  -1 43.1391  4.7602   1
   7  -2   1 45.7790  4.2837   9
  -7  -2  -1 49.1774  5.1157   1
  -2   7  -1 49.1422  5.0603   2
  -2   7  -1 44.6418  4.9529   1
  -2   7  -1 50.9604  4.6357   9
   2   7   1 53.5541  4.9458   2
   7   2  -1 55.1959  5.2308   2
   2   7   1 40.7072  4.8962   6
  -7   2   1 46.5019  4.7454   2
   7   2  -1 46.9092  4.4686   9
   2  -7  -1 51.1905  4.5240   9
   2  -7  -1 46.6410  4.9354   1
   3   7  -1 4.09250 3.33905   2
   7  -3  -1 -0.7768  2.6214   9
  -7   3  -1 2.25044 3.16317   1
  -3   7   1 4.61503 3.15366   2
   7   3   1 4.20300 3.15333   2
  -7  -3   1 3.21204 2.88122   3
  -3   7   1 3.80900 2.85536   9
   7   3   1 3.13505 2.74829   9
   3   7  -1 7.31547 3.37905   1
  -3  -7  -1 1.90376 2.62290   9
   7   3   1 -0.6316  3.1077   6
   3  -7   1 5.62851 3.34492   1
   3   7  -1 -4.2003  2.8025   6
  -7  -3   1 3.62356 2.87288   7
  -3  -7  -1 4.90629 3.35844   1
  -7   3  -1 -0.9581  2.6313   9
   7  -3  -1 3.35483 3.17955   1
   7  -3  -1 1.63981 3.23970   2
   3  -7   1 0.02411 2.76514   2
   3  -7   1 3.63979 2.73826   9
  -7  -3   1 -4.1526  2.8095   2
  -7  -3   1 3.29845 2.68830   9
   3   7  -1 4.23490 2.77354   9
  -7   3  -1 -2.6180  2.6716   2
  -3  -7  -1 5.28838 3.38815   2
  -3   7  -1 1.63123 2.78163   9
   3  -7  -1 2.19849 2.78463   9
  -7  -3  -1 0.45667 3.03118   1
   3  -7  -1 4.52783 3.26834   1
  -3   7  -1 3.43357 2.94110   2
  -3  -7   1 1.02041 3.18982   2
  -7  -3  -1 -0.6872  2.7879   2
   3   7   1 -0.1388  2.8949   6
   7  -3   1 -2.1818  2.9626   2
   3   7   1 0.09181 3.03288   2
  -3  -7   1 -0.0210  2.9737   2
   3  -7  -1 8.03271 3.55428   2
  -7  -3  -1 2.49606 2.72086   9
  -3   7  -1 1.87694 3.17124   1
   3   7   1 -0.6911  2.5858   9
   7   3  -1 5.66573 3.33828   2
   7  -3   1 1.56534 2.67406   9
   7   3  -1 4.73162 3.06979   9
  -3  -7   1 1.58820 2.56228   9
  -7   3   1 2.82561 3.17087   2
  -7   3   1 6.46353 2.82855   9
   7   3  -1 -0.7112  3.0535   1
  -3  -7   1 6.56179 3.48591   1
  -4  -7  -1 -2.4802  3.1705   1
  -4   7   1 -1.6508  2.4587   9
   7  -4  -1 -4.1859  2.9412   1
   7   4   1 -2.7814  2.7585   9
   4   7  -1 -2.4198  3.0845   2
  -7  -4   1 0.38902 2.64385   9
  -4  -7  -1 4.24459 3.34350   2
   4   7  -1 5.65265 2.97175   9
   7   4   1 1.68035 3.10683   2
  -4   7   1 6.04422 3.03530   2
  -4  -7  -1 4.25198 2.94938   9
  -7  -4   1 -2.1078  2.6076   2
   4   7  -1 -4.0325  2.9500   6
   7  -4  -1 2.59616 2.92165   9
   4  -7   1 5.49149 3.55720   1
   7  -4  -1 -1.5175  3.2302   2
  -7   4  -1 1.56988 3.09069   2
   4  -7   1 4.93316 3.00376   9
   4  -7   1 4.88585 3.38294   2
  -7   4  -1 3.61846 3.43737   1
  -7  -4   1 2.71034 3.46846   1
  -4   7   1 -1.9310  2.5942   9
   7   4   1 5.42904 3.52744   6
  -4  -7  -1 -1.2712  3.1486   2
   4   7  -1 2.03724 3.19300   1
  -7   4  -1 4.98421 2.96303   9
  -4  -7   1 -0.7800  3.0951   2
  -7  -4  -1 -0.3095  2.5610   9
   7  -4   1 7.28090 3.42874   1
   7  -4   1 2.51542 2.91144   9
   7   4  -1 5.63662 3.41030   1
   4  -7  -1 1.29583 3.19970   2
  -7  -4  -1 2.44424 3.37179   2
   7   4  -1 1.38786 3.06283   9
  -4  -7   1 9.82634 3.65768   1
  -7   4   1 0.19475 3.06467   2
   7   4  -1 0.70543 3.39621   6
   4   7   1 0.16039 3.27555   6
  -4   7  -1 -1.3526  2.5040   9
   7   4  -1 0.44506 3.21937   2
  -4   7  -1 4.52958 3.37946   2
  -4   7  -1 -1.2640  3.0679   1
   7  -4   1 0.90605 3.14760   2
   4   7   1 1.82154 2.71682   9
  -7  -4  -1 7.22881 3.53286   1
   4   7   1 1.08067 3.21240   2
   4  -7  -1 4.58327 2.99146   9
  -7   4   1 -1.5087  2.5740   9
  -4  -7   1 -5.7829  2.3832   9
   4  -7  -1 1.39099 3.26377   1
   5  -7   1 21.6050  3.8324   9
  -5  -7  -1 16.4731  4.3466   2
  -7   5  -1 22.6838  3.7812   9
  -7   5  -1 28.3461  4.6921   2
  -7  -5   1 20.1272  4.3408   2
   5   7  -1 27.3557  4.5854   1
   5   7  -1 21.3741  4.4230   6
   7  -5  -1 25.4137  4.4888   1
   5   7  -1 24.7395  4.6936   2
   7  -5  -1 30.3679  4.8038   2
   5  -7   1 27.7563  4.4081   2
  -7   5  -1 15.8488  3.9377   1
  -7  -5   1 27.5908  3.9339   9
   7   5   1 26.2832  4.8735   6
  -5   7   1 16.1164  3.4042   9
   7  -5  -1 27.1435  4.1396   9
  -5   7   1 31.5774  4.6343   2
  -5  -7  -1 20.4495  3.7606   9
   7   5   1 24.8945  3.8219   9
  -5   7   1 28.0791  3.9690   9
   7   5   1 17.9067  4.1808   2
  -5  -7  -1 23.0404  4.6260   1
   5   7  -1 25.8037  4.0954   9
   7   5  -1 21.7212  3.9269   9
   7   5  -1 25.0161  4.3389   2
   7   5  -1 22.7096  4.4263   1
   7   5  -1 22.9103  4.3932   1
   5  -7  -1 13.9212  4.1422   1
  -5   7  -1 17.8547  4.2320   2
   5   7   1 22.9488  4.3582   2
   5   7   1 20.5342  4.6106   6
   7  -5   1 26.7276  3.9957   9
  -7   5   1 20.8433  4.3793   2
  -5  -7   1 19.8414  4.3513   2
   7  -5   1 30.1334  4.8070   2
  -5   7  -1 24.7101  3.8851   9
  -5  -7   1 21.1443  3.7229   9
  -7  -5  -1 21.8996  3.9136   9
  -7  -5  -1 22.6456  4.1404   2
  -7   5   1 25.2778  3.6498   9
   5  -7  -1 19.7687  3.9899   9
   7   5  -1 21.4079  4.5100   6
   5  -7  -1 18.3533  4.3607   2
  -5   7  -1 26.6864  4.7005   1
   5   7   1 22.9470  3.7515   9
  -7  -5  -1 21.4918  4.3637   1
   7  -6  -1 20.6052  4.1403   9
   6   7  -1 30.3262  5.1482   6
   7   6   1 18.5699  4.6604   6
   6   7  -1 27.1525  4.3902   9
   7  -6  -1 23.5447  4.8151   1
  -7  -6   1 18.4771  4.4034   2
   7   6   1 35.3375  4.5960   9
   6   7  -1 29.3271  4.8798   1
  -6   7   1 18.8747  4.5620   2
   7   6   1 24.5017  4.7327   2
  -7  -6   1 29.3468  4.1251   9
  -6  -7  -1 21.4061  4.7921   1
   7  -6  -1 21.2669  4.3950   2
  -6  -7  -1 27.9788  4.3178   9
   6  -7   1 21.3916  4.1305   9
  -7   6  -1 33.6693  4.5359   9
  -7   6  -1 28.0265  5.0408   1
   6   7  -1 26.2613  4.7338   2
   6  -7   1 27.5585  4.5578   2
  -6   7   1 24.2267  4.0198   9
  -6  -7  -1 31.2651  5.0406   2
  -7   6  -1 26.1875  4.8620   2
  -6   7  -1 31.7831  5.1200   1
  -7  -6  -1 21.2350  4.8261   1
   6  -7  -1 34.1727  5.2737   1
  -6  -7   1 25.0665  4.6901   2
   6   7   1 26.3176  5.0777   6
   6  -7  -1 27.4720  4.5870   2
  -7   6   1 35.3207  5.0174   2
   7  -6   1 28.9952  5.0554   2
  -6  -7   1 24.7336  4.0848   9
   7   6  -1 22.6228  4.7991   2
   7   6  -1 22.5129  4.8381   6
   7   6  -1 30.8729  4.5820   9
  -6   7  -1 27.0418  4.2224   9
  -7  -6  -1 27.8844  4.9810   2
  -6   7  -1 24.2515  4.8796   2
   6   7   1 22.5853  4.6264   2
  -7   6   1 27.2995  4.0656   9
   7   6  -1 33.1344  5.0293   1
   6   7   1 20.2821  3.9881   9
  -7  -6  -1 26.3901  4.1206   9
   6  -7  -1 29.3021  4.4376   9
   7  -6   1 28.0107  4.3152   9
  -7  -7   1 -3.2776  3.0311   9
   7   7   1 1.64508 3.80134   2
   7  -7   1 2.83036 4.04332   2
  -7  -7  -1 1.31688 3.31038   9
  -7   7  -1 -0.6898  4.0483   1
   7   7  -1 -4.5569  3.7981   6
   7   7  -1 11.9528  4.3964   2
  -7  -7  -1 0.56114 3.52792   2
  -7   7   1 0.28599 3.65899   2
   7  -7  -1 -0.8970  4.0022   1
   7  -7  -1 -5.8381  3.2267   9
   7   7  -1 -2.2411  3.1943   9
   7   7   1 2.85672 4.10331   6
  -7  -7  -1 1.43002 4.05048   1
   7   7  -1 -5.3759  3.6412   1
   7  -7  -1 -1.0985  3.4604   2
  -7   7  -1 -0.8331  3.8910   2
   7  -7   1 -1.1956  3.4931   9
  -7  -7   1 -0.1491  3.7572   2
  -7   7  -1 4.06528 3.46456   9
   0   8  -1 44.5471  5.0185   1
   8   0   1 47.0891  4.3875   9
   0   8  -1 45.7307  4.4852   9
  -8   0   1 41.1007  4.0691   9
  -8   0   1 43.9288  4.8079   2
   0  -8   1 33.9661  4.0957   9
   0   8   1 43.7046  4.2883   9
   8   0  -1 38.9537  4.9050   2
   8   0  -1 40.8033  4.3401   9
  -8   0  -1 44.7020  4.2505   9
  -8   0  -1 39.5114  4.8005   2
   0  -8   1 39.3733  4.9203   2
   0  -8  -1 44.4326  5.0502   1
   8   0  -1 38.5643  4.6871   1
   0   8  -1 35.4419  4.6896   2
   0  -8  -1 41.7651  4.9990   2
   0  -8  -1 39.8519  4.3196   9
   0  -8   1 47.4059  5.0602   1
   8   0   1 33.5821  4.7619   2
  -8   0  -1 43.7333  4.7565   1
   0   8   1 44.0232  4.9696   2
   1  -8   1 152.964   7.674   1
  -8   1  -1 153.503   7.418   2
   1  -8   1 160.675   6.853   9
   1   8  -1 133.228   6.716   9
  -8  -1   1 150.404   7.421   2
   1   8  -1 159.821   7.766   2
  -8   1  -1 141.573   6.548   9
   1  -8   1 160.648   7.835   2
  -8  -1   1 143.705   6.374   9
  -1   8   1 139.040   7.373   2
   8   1   1 144.140   6.648   9
  -1  -8  -1 151.206   7.705   1
   8  -1  -1 153.183   7.453   1
  -1  -8  -1 146.000   7.624   2
  -1  -8  -1 148.653   6.638   9
  -1   8   1 156.258   6.513   9
  -8   1  -1 148.252   7.614   1
   1   8  -1 149.313   7.566   1
   8  -1  -1 139.436   6.570   9
   8  -1  -1 149.719   7.392   2
   8   1   1 172.199   7.747   2
  -8  -1  -1 144.541   7.457   1
   1  -8  -1 151.891   7.636   1
  -1   8  -1 140.231   6.664   9
  -8   1   1 149.828   7.480   2
   1   8   1 145.485   6.392   9
   8   1  -1 150.855   7.015   9
   1  -8  -1 154.840   6.728   9
  -1  -8   1 158.433   7.613   1
  -1   8  -1 149.328   7.616   2
   8  -1   1 149.115   6.618   9
   1   8   1 147.037   7.410   2
   8  -1   1 147.540   7.580   2
  -1  -8   1 145.716   6.708   9
   8   1  -1 145.894   7.679   2
   1  -8  -1 133.715   7.159   2
  -1  -8   1 158.664   7.735   2
   8   1  -1 151.228   7.521   1
  -8  -1  -1 145.250   6.689   9
  -8   1   1 143.211   6.362   9
  -1   8  -1 162.870   7.643   1
  -8  -1  -1 153.139   7.717   2
  -2  -8  -1 -2.1081  3.2562   2
  -2   8   1 3.25286 2.88720   9
   8  -2  -1 8.56670 3.25908   9
   8  -2  -1 6.35571 3.54902   1
  -8   2  -1 5.20915 3.61579   1
   2  -8   1 5.72515 3.67297   1
   8  -2  -1 6.75712 3.38726   2
   2  -8   1 9.75479 3.18881   9
   8   2   1 1.99688 3.27567   2
  -8  -2   1 7.18491 2.95001   9
   2   8  -1 3.95547 3.11128   9
  -8  -2   1 2.39414 3.36355   2
  -2   8   1 7.93707 3.48836   2
   2   8  -1 6.04679 3.46634   6
  -8   2  -1 3.19504 3.06122   2
   2  -8   1 6.35679 3.64599   2
   8   2   1 8.11115 3.17371   9
   2   8  -1 4.65974 3.42562   2
  -2  -8  -1 8.40530 3.35797   9
  -2  -8  -1 -1.8094  3.1966   1
  -8   2  -1 4.46823 2.96786   9
   2   8  -1 9.43711 3.63179   1
  -2   8  -1 4.15678 3.11205   9
  -2   8  -1 5.24815 3.51996   2
  -8   2   1 6.99432 3.42230   2
  -8  -2  -1 2.16935 3.44331   1
  -8   2   1 4.43367 2.82289   9
  -8  -2  -1 10.0130  3.7710   2
  -8  -2  -1 0.83504 2.83523   9
   2   8   1 7.10740 3.22587   2
   2   8   1 6.30264 3.02580   9
   2   8   1 3.55964 3.53919   6
  -2   8  -1 0.98333 2.99834   9
  -2   8  -1 3.35005 3.39679   1
   2  -8  -1 8.86226 3.68108   2
  -2  -8   1 3.94884 2.95893   9
   8   2  -1 12.4926  3.7767   1
   8   2  -1 3.64914 3.16544   9
  -2  -8   1 6.80704 3.51950   2
   8  -2   1 7.92762 3.05527   9
   8   2  -1 15.7429  3.9896   2
  -2  -8   1 9.18986 3.79465   1
   8  -2   1 9.25674 3.33383   2
   2  -8  -1 4.97750 3.60888   1
   2  -8  -1 9.74105 3.24661   9
  -8   3  -1 -1.1056  3.3798   2
  -3  -8  -1 5.55299 3.25465   9
   8   3   1 -0.4260  2.7368   9
  -8  -3   1 1.68313 3.03444   2
  -8   3  -1 3.43230 3.05794   9
  -3  -8  -1 2.75852 3.64652   1
   3   8  -1 1.91820 3.43435   1
   8  -3  -1 2.15061 3.47559   2
  -3  -8  -1 1.83957 3.49100   2
   3  -8   1 -0.4999  3.3754   2
   8   3   1 -5.8941  3.1321   6
   3   8  -1 6.77511 3.26022   9
   3   8  -1 2.43112 3.35884   6
   3   8  -1 4.69225 3.58049   2
   3  -8   1 0.16647 2.89088   9
   8   3   1 2.11807 3.34858   2
  -8   3  -1 -1.8154  3.3791   1
   8  -3  -1 -2.8372  3.3142   1
  -3   8   1 -3.1685  2.6366   2
  -8  -3   1 0.40551 3.07480   7
   8  -3  -1 -2.9708  2.8891   9
  -8  -3   1 1.78442 2.68286   9
  -3   8   1 3.43881 2.85323   9
  -8  -3   1 -2.8129  2.6768   3
   8   3  -1 -1.1035  3.3894   2
  -8  -3  -1 6.42886 3.67428   1
  -3  -8   1 -1.3792  3.1825   2
  -3   8  -1 0.76813 3.35889   2
   8   3  -1 -0.3181  3.0525   9
   3   8   1 3.59965 3.43435   2
  -3   8  -1 2.20479 3.06918   9
  -3   8  -1 5.17136 3.40967   1
   8   3  -1 5.50109 3.47460   1
  -8  -3  -1 2.69461 2.96473   9
   8  -3   1 -1.0631  3.3479   2
  -8  -3  -1 1.47606 3.60923   2
  -3  -8   1 3.07766 3.41681   2
   8  -3   1 -4.1974  2.6405   9
   3   8   1 0.66590 3.01751   9
  -8   3   1 5.95643 3.45968   2
   3  -8  -1 3.14553 3.21572   2
   3  -8  -1 0.20472 3.47823   1
   3   8   1 1.30598 3.56494   6
   3  -8  -1 0.66134 3.01430   9
  -8   3   1 -2.5185  2.6082   9
  -3  -8   1 5.66007 2.98953   9
   8  -4  -1 178.438   7.890   9
   8  -4  -1 177.172   8.882   2
  -4  -8  -1 187.042   8.904   1
   8   4   1 186.449   8.778   2
   4   8  -1 171.402   8.804   2
   8  -4  -1 186.783   8.753   1
   4   8  -1 173.616   8.614   1
   4   8  -1 172.065   7.737   9
   4   8  -1 170.469   8.706   6
  -4  -8  -1 178.879   8.949   2
  -8   4  -1 191.236   8.952   2
   8   4   1 179.357   7.813   9
  -8  -4   1 187.911   7.608   9
   4  -8   1 185.532   7.777   9
  -8   4  -1 188.848   8.885   1
  -8  -4   1 175.676   8.699   2
  -4   8   1 175.665   7.304   9
  -4  -8  -1 178.833   7.933   9
  -4  -8  -1 184.368   8.833   2
  -8   4  -1 164.155   7.645   9
   4  -8   1 192.971   9.054   2
  -4   8   1 165.646   8.452   2
   8   4   1 167.349   8.906   6
  -4  -8   1 175.191   7.564   9
  -8   4   1 182.387   7.561   9
   4  -8  -1 167.798   8.715   2
  -8  -4  -1 188.177   8.924   1
   8   4  -1 186.578   8.666   2
   4  -8  -1 168.774   8.681   1
   8  -4   1 171.029   7.587   9
   8   4  -1 171.255   7.748   9
   4  -8  -1 177.076   7.925   9
  -4   8  -1 195.405   9.076   2
   8   4  -1 184.254   9.128   6
  -8   4   1 190.778   8.727   2
   4   8   1 161.342   8.888   6
  -4   8  -1 189.244   7.748   9
   8  -4   1 177.728   8.839   2
  -8  -4  -1 165.780   7.403   9
   4   8   1 181.945   7.495   9
   8   4  -1 182.566   8.721   1
   4   8   1 188.877   8.840   2
  -4  -8   1 181.220   8.772   2
  -4   8  -1 187.316   8.892   1
  -8  -4  -1 180.329   8.873   2
   5   8  -1 77.2190  6.1931   9
   5   8  -1 73.0112  6.8005   6
  -8  -5   1 76.0293  5.5673   9
  -8   5  -1 78.1569  6.8426   2
  -5   8   1 74.3570  5.4146   9
   5   8  -1 76.3353  6.9375   2
   8  -5  -1 75.4526  6.0803   9
  -8   5  -1 87.8654  7.1451   1
   8   5   1 82.7843  6.8576   2
  -5   8   1 80.2397  6.8027   2
  -8   5  -1 57.8828  5.4808   9
   5  -8   1 79.3663  6.9167   2
   8   5   1 68.5862  6.6911   6
   8   5   1 83.8145  5.8550   9
  -5  -8  -1 86.4015  5.8057   9
   8  -5  -1 82.7017  7.1310   2
  -5  -8  -1 61.6718  6.3045   2
   8  -5  -1 83.6214  7.0022   1
  -5  -8  -1 79.7695  6.9261   1
   5  -8   1 76.2119  5.9720   9
  -8  -5   1 71.4000  6.5578   2
   5   8  -1 85.4224  6.8809   1
  -8  -5  -1 79.6759  6.9743   2
   5  -8  -1 75.1308  6.0084   9
   5   8   1 77.6161  7.0822   6
   8   5  -1 74.5297  6.9449   6
   8  -5   1 84.4498  6.0254   9
   8   5  -1 77.5480  6.8028   1
   5  -8  -1 76.8699  6.8626   1
   8   5  -1 69.5407  6.7208   1
   8   5  -1 73.9118  5.9512   9
   5  -8  -1 72.1234  6.8510   2
   8  -5   1 72.6596  6.6878   2
  -8   5   1 66.6311  6.4403   2
  -8   5   1 71.3785  5.3547   9
  -5   8  -1 73.7671  6.7366   2
  -5   8  -1 82.8044  7.0398   1
  -8  -5  -1 74.9651  5.8815   9
  -5   8  -1 80.4865  6.0225   9
  -5  -8   1 77.1364  5.6469   9
  -5  -8   1 81.5535  7.0187   2
   8   5  -1 71.2194  6.7876   2
   5   8   1 75.2606  6.7720   2
  -8  -5  -1 68.5160  6.7117   1
   6   8  -1 -5.2196  3.8106   6
   8   6   1 1.92729 4.05062   6
  -6  -8  -1 1.01745 3.62271   2
   8  -6  -1 -1.3893  3.3110   9
   6   8  -1 2.09740 3.65867   2
  -6  -8  -1 6.67220 3.74243   9
  -8  -6   1 2.39960 4.02003   2
   6   8  -1 -1.0848  3.4397   9
   6   8  -1 -5.5544  3.9490   1
  -6   8   1 4.63273 4.12169   2
   8  -6  -1 2.08711 4.22174   1
  -8   6  -1 0.50805 3.15934   9
  -8  -6   1 -1.5525  3.2013   9
   6  -8   1 0.79676 3.52800   9
   8   6   1 0.99127 3.93897   2
  -8   6  -1 2.58463 4.09403   2
   8  -6  -1 0.78736 4.04585   2
  -6  -8  -1 -1.7275  4.1844   1
  -8   6  -1 -0.4526  4.0911   1
   6  -8   1 1.39765 4.06398   2
   6   8   1 8.41245 4.43941   6
   8  -6   1 -1.2137  3.8870   2
  -6   8  -1 7.71669 3.73401   9
   8   6  -1 2.90697 4.04031   2
   8   6  -1 -0.2775  4.5090   1
  -6  -8   1 0.48368 3.33005   9
   6   8   1 3.86045 3.67751   2
  -8  -6  -1 0.33378 3.41432   9
  -6   8  -1 2.76213 4.26692   1
   8   6  -1 2.78776 3.69105   9
   8  -6   1 2.81288 3.47280   9
  -8   6   1 0.66157 3.87177   2
   8   6  -1 -3.5473  3.3340   6
  -8  -6  -1 8.26418 4.57833   1
   6  -8  -1 -1.6388  3.8619   1
  -6   8  -1 2.02395 4.16292   2
  -8  -6  -1 0.89951 4.00073   2
  -6  -8   1 2.01018 4.03511   2
   6  -8  -1 2.28097 4.16043   2
   6  -8  -1 1.98236 3.40602   9
  -7  -8  -1 127.284   7.652   9
  -7  -8  -1 157.383   9.307   1
   7   8  -1 160.047   9.323   2
  -8  -7   1 144.999   9.025   2
   8  -7  -1 163.711   9.428   2
  -7   8   1 136.665   8.701   2
   7   8  -1 145.972   8.177   9
  -8  -7   1 150.644   7.727   9
   7  -8   1 142.228   9.085   2
   7   8  -1 155.098   9.298   6
   8  -7  -1 130.931   8.860   1
   7  -8   1 150.003   8.098   9
   8   7   1 123.967   8.971   6
   8   7   1 134.452   8.796   2
  -8   7  -1 146.330   8.023   9
  -8   7  -1 144.535   8.586   2
  -7  -8  -1 166.777   9.383   2
   8  -7  -1 148.327   8.086   9
   8   7  -1 150.695   8.098   9
   8   7  -1 142.536   9.154   6
  -7   8  -1 146.315   9.099   2
  -8  -7  -1 142.639   7.940   9
  -7  -8   1 144.145   7.725   9
   8  -7   1 147.732   9.034   2
   7   8   1 151.727   9.077   6
  -8  -7  -1 136.845   9.096   1
  -7  -8   1 136.459   8.781   2
  -8  -7  -1 153.516   9.288   2
   8   7  -1 152.430   9.204   2
   7   8   1 148.401   8.843   2
  -7   8  -1 144.144   7.941   9
   8  -7   1 157.184   8.083   9
  -8   7   1 160.286   9.026   2
   7  -8  -1 133.594   9.121   2
   7  -8  -1 141.199   8.126   9
   7  -8  -1 160.503   9.314   1
   8  -8   1 -0.9532  4.3086   2
   8   8   1 6.42614 4.64848   2
  -8  -8  -1 -5.3400  3.8043   2
  -8   8  -1 3.31403 4.70472   2
  -8  -8  -1 2.82938 3.97183   9
   8   8  -1 2.64871 3.98627   9
   8   8   1 2.29683 4.29804   6
   8   8  -1 0.15592 4.55336   2
   8  -8  -1 7.06832 4.92329   2
  -8  -8   1 1.83047 4.58776   2
  -8  -8  -1 -2.3272  4.7072   1
   8  -8  -1 3.11627 4.18126   9
   8   8  -1 3.88802 4.67486   6
  -8   8   1 1.91500 4.32791   2
   8  -8  -1 -6.6267  4.5326   1
  -8   8  -1 2.68097 3.97737   9
   0   9   1 -3.4605  3.2195   2
   0  -9  -1 -3.3109  3.5291   2
   9   0  -1 -0.3812  3.1669   9
   0  -9  -1 -3.0252  2.9791   9
  -9   0   1 1.60343 3.33802   2
   9   0   1 -1.6614  3.3307   2
   0   9  -1 4.27638 3.25253   9
  -9   0  -1 3.72304 3.71715   2
   0  -9   1 1.44010 3.12132   9
   9   0   1 3.61627 3.40491   9
  -9   0   1 -0.9402  2.8866   9
   0   9   1 0.58794 3.02362   9
   0   9  -1 3.31877 3.64254   1
  -9   0  -1 3.07772 3.07206   9
   9   0  -1 7.28867 3.77578   1
   9   0  -1 2.48120 3.56884   2
   0  -9   1 -1.0846  3.1177   2
   0  -9  -1 5.56260 3.82189   1
   0   9  -1 -1.9235  3.6300   2
  -9   0  -1 4.21667 3.59812   1
   1   9  -1 3.21666 3.79361   1
   9   1   1 4.21680 3.37036   9
  -1   9   1 4.00409 3.69582   2
   9  -1  -1 7.70981 3.95855   2
  -9   1  -1 9.85975 3.90703   2
  -9   1  -1 13.1485  4.1592   1
   1  -9   1 9.90231 4.07447   2
  -1   9   1 6.32227 3.39829   9
  -1  -9  -1 1.10234 3.70607   1
   1  -9   1 -0.1860  3.0402   9
  -9  -1   1 6.08624 3.28965   9
   9  -1  -1 10.1120  4.0462   1
   9  -1  -1 6.47795 3.44067   9
   1   9  -1 1.23262 3.37438   9
  -9   1  -1 5.88281 3.27761   9
  -9  -1   1 5.10841 3.75065   2
  -1  -9  -1 4.43857 3.32479   9
  -1  -9  -1 4.66752 3.76381   2
   9   1   1 12.3344  4.0796   2
   1   9  -1 0.87768 3.28466   2
  -1   9  -1 0.73424 3.63326   1
   1  -9  -1 6.49710 3.93427   2
   1   9   1 5.22374 3.78472   2
  -9  -1  -1 2.87343 3.80994   1
   9  -1   1 4.32520 3.75261   2
   9   1  -1 6.13461 3.93317   1
  -1   9  -1 2.52082 3.38627   2
  -9  -1  -1 7.77352 3.55101   2
   1  -9  -1 5.93545 3.80372   1
   9  -1   1 7.40584 3.40221   9
  -1   9  -1 9.81110 3.53727   9
   1   9   1 6.34609 3.39793   9
  -9  -1  -1 2.60346 3.08381   9
  -9   1   1 3.82823 3.26420   2
  -1  -9   1 2.25665 3.17850   9
   9   1  -1 6.10788 3.49908   9
  -9   1   1 1.73520 2.92117   9
   9   1  -1 4.57008 3.88421   2
   1  -9  -1 9.60380 3.37419   9
  -1  -9   1 4.18387 3.85468   2
  -9  -2   1 39.8539  4.6167   9
  -2   9   1 40.7843  4.5843   9
  -2  -9  -1 46.3215  5.7498   2
   9   2   1 47.6379  5.5354   2
   9  -2  -1 47.5516  5.0915   9
  -9   2  -1 42.7154  5.5134   1
   2   9  -1 39.5363  5.4519   1
   9  -2  -1 40.5002  5.4552   1
  -9  -2   1 45.3939  5.4580   2
  -9   2  -1 39.0386  4.6676   9
   2  -9   1 39.2375  5.4148   2
  -9   2  -1 42.0882  5.4372   2
   2   9  -1 35.2684  4.7593   9
   9  -2  -1 38.3860  5.5049   2
  -2  -9  -1 37.6724  5.4373   1
  -2   9   1 38.8167  5.2280   2
   2   9  -1 43.6087  5.6245   2
  -2  -9  -1 36.6361  4.7319   9
   2  -9   1 42.7654  4.7450   9
   9   2   1 49.0006  5.0560   9
  -9  -2  -1 43.7333  5.5460   2
  -9   2   1 41.7906  5.3468   2
  -2   9  -1 47.0506  4.9723   9
   2  -9  -1 44.3660  5.5680   1
  -2   9  -1 42.5967  5.4912   1
   9   2  -1 39.8382  5.2839   1
  -9  -2  -1 42.1461  5.5103   1
  -9   2   1 49.5039  4.8291   9
   2  -9  -1 41.5051  5.6130   2
   2   9   1 43.6279  5.5205   2
  -2   9  -1 43.0779  5.5937   2
   9   2  -1 44.9402  5.6800   2
   9   2  -1 38.4124  4.8884   9
   2  -9  -1 42.6607  4.9278   9
   9  -2   1 32.6988  4.3400   9
   9  -2   1 49.6885  5.7152   2
  -2  -9   1 46.9253  5.6134   2
   2   9   1 39.1399  4.5161   9
  -2  -9   1 41.9391  4.7047   9
  -9  -2  -1 39.8380  4.6316   9
  -9  -3   1 39.9793  5.2844   2
   9   3   1 31.2015  5.0905   6
   3   9  -1 44.3078  5.7335   2
   9  -3  -1 35.9478  4.8865   9
  -3  -9  -1 34.5920  5.4858   2
   3   9  -1 45.5330  5.1170   9
   9  -3  -1 38.4319  5.4979   2
   9   3   1 38.9425  4.9422   9
   9   3   1 31.0724  5.1187   2
  -3  -9  -1 29.6887  5.3263   1
   3  -9   1 32.7415  4.9908   2
   9  -3  -1 44.9277  5.6797   1
  -9   3  -1 45.9174  5.6957   1
  -3   9   1 39.7419  5.3814   2
  -3  -9  -1 35.7108  4.6597   9
   3   9  -1 49.3665  5.8916   1
  -9   3  -1 34.5662  5.2411   2
  -9  -3   1 39.1921  5.0329   7
  -9  -3   1 37.4080  4.6102   9
   3   9  -1 26.7667  4.9513   6
  -9   3  -1 39.0199  4.7864   9
   3  -9   1 36.3420  4.6549   9
  -3   9  -1 44.8398  5.4909   2
   9  -3   1 36.0056  4.5454   9
  -3   9  -1 41.4618  5.4993   1
  -3  -9   1 40.2814  5.6125   2
  -3   9  -1 34.7661  4.7345   9
  -9   3   1 43.8467  5.3728   2
   9   3  -1 37.5956  4.9143   9
   3  -9  -1 37.3912  5.6359   1
  -9  -3  -1 44.6632  4.7668   9
   9  -3   1 37.8125  5.5268   2
  -3  -9   1 36.8804  4.5916   9
   9   3  -1 40.9723  5.5448   2
  -9  -3  -1 42.5652  5.5752   2
  -3   9  -1 36.6927  4.6696   9
   9   3  -1 42.3235  5.5283   1
  -3  -9   1 38.3437  5.4895   2
   3   9   1 39.3219  5.4203   2
   3   9   1 40.4154  5.8894   6
  -9   3   1 39.4505  4.7017   9
  -9  -3  -1 45.5169  5.8228   1
   3  -9  -1 41.2455  4.8115   9
   3  -9  -1 34.7288  5.3939   2
  -4  -9  -1 3.15424 3.21957   9
   9   4   1 4.01410 4.16788   6
  -9  -4   1 5.97082 3.49314   9
  -9   4  -1 8.97301 3.56145   9
   9   4   1 8.34480 4.19493   2
  -4  -9  -1 -7.0225  3.6459   2
  -9   4  -1 6.49432 4.22920   2
  -9  -4   1 3.06978 3.88984   2
   4  -9   1 6.29644 3.84959   2
  -4  -9  -1 3.40026 4.17280   2
  -4  -9  -1 -2.2317  3.8577   1
   9  -4  -1 5.37487 4.21771   1
  -9   4  -1 4.70737 4.25101   1
   4   9  -1 4.22929 3.56894   9
   4  -9   1 11.4649  3.8012   9
   9  -4  -1 5.26110 3.75544   9
   4   9  -1 -1.9561  3.9155   2
   4   9  -1 6.55814 3.99889   6
   9  -4  -1 3.07656 4.09994   2
  -4   9   1 6.80298 4.02942   2
   4   9  -1 2.56698 4.05660   1
   9   4  -1 0.43651 3.96871   2
  -9  -4  -1 0.43281 3.28023   9
  -4   9  -1 7.16984 4.32170   2
  -4   9  -1 3.22173 3.53346   9
  -4  -9   1 5.19298 3.47549   9
   9   4  -1 10.5123  3.9217   9
  -9  -4  -1 0.64058 4.03005   1
   4  -9  -1 12.0142  4.4720   1
  -9  -4  -1 3.93802 4.04866   2
  -4  -9   1 4.23922 3.64689   2
  -4   9  -1 -4.9845  3.8286   1
   9  -4   1 8.07496 3.59866   9
   4   9   1 -0.9933  3.7689   2
   9   4  -1 -4.1997  3.7179   1
  -4  -9   1 3.08673 4.00811   2
   4  -9  -1 7.57635 3.70795   9
   9   4  -1 6.37363 3.85750   6
  -9   4   1 8.37292 4.12974   2
   9  -4   1 2.94643 3.96510   2
   4  -9  -1 1.67839 4.08152   2
   4   9   1 4.73510 3.82335   6
  -9  -5   1 4.87853 4.23452   2
  -5  -9  -1 4.70616 4.48988   2
  -9   5  -1 9.17068 4.60642   2
   9  -5  -1 17.9793  4.9390   2
   9   5   1 11.5482  4.7555   6
  -5   9   1 8.38862 4.44049   2
   5   9  -1 13.2871  4.7153   6
   5  -9   1 7.95265 4.51848   2
  -9  -5   1 7.53657 3.65873   9
  -5  -9  -1 6.98656 3.67841   9
   9  -5  -1 10.3095  4.6327   1
   9   5   1 7.40713 4.33506   2
   9  -5  -1 4.70787 3.98593   9
   5   9  -1 15.1046  4.3062   9
  -9   5  -1 12.3998  4.0733   9
   5   9  -1 19.0252  5.1113   2
   5  -9   1 11.9106  3.9874   9
  -9   5  -1 12.3087  4.7622   1
  -5  -9  -1 12.6596  4.8214   1
  -5  -9  -1 11.8917  4.7037   2
  -5   9  -1 11.8870  3.9262   9
   5  -9  -1 8.57698 4.56078   2
  -9   5   1 6.33522 4.33509   2
   9   5  -1 6.16042 4.31608   2
   9   5  -1 11.1319  4.1149   9
   9   5  -1 10.8605  4.5695   1
   9  -5   1 10.6470  3.9554   9
   5   9   1 9.05388 4.61380   6
   9   5  -1 10.9857  4.6047   1
  -9  -5  -1 10.3027  4.6453   2
   5   9   1 14.2659  4.5953   2
   9   5  -1 19.2210  5.2135   6
  -9  -5  -1 11.7204  4.1060   9
   9  -5   1 5.85217 4.35612   2
  -5   9  -1 14.6599  4.4278   2
  -9  -5  -1 10.7757  4.8978   1
  -5  -9   1 12.6964  3.8536   9
   5  -9  -1 11.6738  4.0536   9
  -5  -9   1 6.85468 4.36177   2
   5  -9  -1 5.23192 4.82950   1
   6  -9   1 220.344  11.028   2
  -6  -9  -1 211.471  10.907   2
   6   9  -1 229.439   9.917   9
  -9   6  -1 245.605  11.403   2
   6   9  -1 264.425  11.593   2
  -6   9   1 250.096  11.074   2
   9   6   1 215.642  11.372   6
  -6  -9  -1 218.549   9.513   9
   9  -6  -1 210.387   9.759   9
   9  -6  -1 226.182  11.175   2
  -6  -9  -1 223.286  10.994   1
  -9  -6   1 233.899  10.932   2
   9   6   1 224.826  10.755   2
   6   9  -1 211.376  10.855   6
  -9   6  -1 228.354   9.622   9
   9  -6  -1 232.163  11.369   1
  -6   9  -1 244.320   9.922   9
   9   6  -1 233.373   9.971   9
   6   9   1 239.516  11.587   6
   6   9   1 224.701  10.702   2
  -6   9  -1 230.420  11.023   2
  -9  -6  -1 231.260  10.951   1
   9   6  -1 220.936  11.242   6
   6  -9  -1 228.275  11.041   1
   9  -6   1 231.892  10.955   2
  -9  -6  -1 226.197   9.462   9
  -6  -9   1 229.497  10.960   2
   6  -9  -1 232.262  11.257   2
  -9   6   1 228.399  10.760   2
   9   6  -1 205.116  10.336   2
   6  -9  -1 235.997   9.713   9
  -9  -6  -1 221.337  10.964   2
  -6  -9   1 226.498   9.371   9
   9  -7  -1 79.3811  7.1397   9
  -9   7  -1 75.4278  6.7887   9
   7   9  -1 96.9830  8.6917   2
  -7   9   1 85.7722  7.7910   2
  -9   7  -1 87.8936  8.1357   2
   9   7   1 97.6627  8.2841   2
   7   9  -1 76.7252  6.9943   9
   9   7   1 83.5730  8.3996   6
   9  -7  -1 74.1250  7.9201   2
  -7  -9  -1 86.9624  8.4907   1
  -7  -9  -1 84.5562  7.0987   9
   7  -9   1 82.4914  8.1517   2
  -9  -7   1 83.4926  7.8877   2
   7   9  -1 82.7988  8.2584   6
   7   9   1 89.2708  8.1546   2
   7  -9  -1 84.4719  8.3044   1
   9   7  -1 74.3265  7.8586   2
  -9  -7  -1 80.6302  7.8902   2
  -9   7   1 88.1065  7.8973   2
  -9  -7  -1 83.9935  7.0951   9
   7   9   1 77.7301  8.3235   6
   7  -9  -1 103.804   8.871   2
   9   7  -1 75.9633  8.1329   6
  -7   9  -1 82.6583  7.8488   2
   7  -9  -1 81.9979  7.1082   9
  -7  -9   1 80.1049  8.0196   2
   9  -7   1 84.3627  7.8579   2
  -7   9  -1 76.5138  6.9525   9
   9   7  -1 79.2645  7.0094   9
  -9   8  -1 9.91715 5.21384   2
   8  -9   1 0.85771 4.96602   2
   9  -8  -1 6.07674 4.52568   9
   8   9  -1 -2.2162  4.6804   6
  -8  -9  -1 -2.1859  4.1105   9
   8   9  -1 2.35577 4.81109   2
   8   9  -1 2.04935 4.33554   9
  -8   9   1 12.6823  5.1946   2
  -9   8  -1 1.54861 4.11977   9
   9   8   1 0.79770 5.00096   6
   9   8   1 -0.6713  4.7524   2
  -9  -8   1 6.60309 5.05418   2
   9   8  -1 7.71473 4.63741   9
  -9  -8  -1 11.7820  4.5157   9
   9   8  -1 9.51810 5.22022   2
  -8   9  -1 13.6479  5.5862   2
   8  -9  -1 6.18433 4.61186   9
   9  -8   1 11.6718  5.4253   2
   8   9   1 20.4723  6.0260   6
  -8   9  -1 -3.8043  3.9018   9
  -8  -9   1 9.18087 5.19916   2
   8   9   1 4.53485 5.20694   2
  -9   8   1 1.96940 4.64500   2
   9   8  -1 7.15511 5.19078   6
   9  -9  -1 0.96602 4.47309   9
  -9  -9  -1 4.10242 4.76733   9
   9  -9   1 3.12966 5.59932   2
  -9   9  -1 1.14370 5.08459   2
   9   9  -1 8.87308 5.49195   2
  -9  -9   1 -6.8002  4.8718   2
   9   9  -1 6.62638 5.44230   6
  -9   9   1 0.19563 4.81434   2
   9   9   1 0.72019 4.87743   2
   9   9   1 -9.3226  4.8290   6
  10   0  -1 94.6692  7.7977   1
   0  10  -1 103.411   7.761   2
 -10   0   1 91.6823  7.4568   2
   0 -10   1 108.640   6.739   9
  10   0   1 94.0872  7.6676   2
   0  10   1 116.778   7.749   2
   0 -10  -1 105.729   7.918   2
   0 -10   1 101.629   7.244   2
 -10   0  -1 100.755   7.559   2
   0 -10  -1 109.956   6.926   9
 -10   0  -1 103.915   6.684   9
  10   0   1 99.1873  6.4293   9
  10   0  -1 113.883   7.804   2
 -10   0  -1 101.405   7.992   1
  10   0  -1 107.374   6.717   9
 -10   0   1 109.987   6.709   9
   0  10  -1 113.115   7.912   1
   0 -10  -1 113.211   7.986   1
   0  10  -1 100.958   6.835   9
 -10   1  -1 40.6518  5.0481   9
  10   1   1 41.7194  4.9806   9
 -10  -1   1 46.8558  5.7023   2
  10   1   1 40.7288  5.7850   2
   1  10  -1 51.0190  6.2817   1
   1 -10   1 37.2146  5.6708   2
   1  10  -1 38.7912  5.6081   2
   1  10  -1 45.6163  5.3194   9
  10  -1  -1 44.5928  5.2814   9
  10  -1  -1 32.5115  5.5530   1
 -10   1  -1 36.9948  5.3978   2
   1 -10   1 48.5491  5.1654   9
 -10  -1   1 44.4843  5.0864   9
 -10   1  -1 43.9110  5.9563   1
  10  -1  -1 42.1157  5.8944   2
  -1 -10  -1 37.9346  5.7695   2
  -1 -10  -1 45.4821  6.0985   1
  -1 -10  -1 37.1566  5.0001   9
  -1  10   1 40.7901  5.7366   2
  10  -1   1 46.7648  5.1403   9
  10   1  -1 40.8034  5.7134   1
  -1 -10   1 37.5995  4.8327   9
 -10  -1  -1 41.1466  5.0046   9
   1 -10  -1 38.2622  5.9670   1
  10  -1   1 50.7732  6.2377   2
  10   1  -1 35.1235  5.1098   9
   1 -10  -1 47.0425  5.2212   9
 -10  -1  -1 32.7311  5.2682   2
  -1  10  -1 41.4676  5.8623   1
  -1 -10   1 32.3882  5.3886   2
   1  10   1 40.3281  5.6114   2
 -10  -1  -1 47.4832  6.0631   1
  10   1  -1 51.1580  6.1765   2
   1 -10  -1 29.3246  5.4717   2
 -10   1   1 34.2702  5.1514   2
  -1  10  -1 38.6412  5.2111   9
 -10   1   1 41.9030  4.8239   9
  -1  10  -1 35.7349  5.3961   2
   2  10  -1 66.0284  6.9103   2
   2 -10   1 77.8542  6.2214   9
  10  -2  -1 79.2439  6.5174   9
  -2 -10  -1 62.4572  6.7382   2
 -10   2  -1 61.6530  5.8114   9
  -2 -10  -1 81.9577  7.4685   1
 -10  -2   1 82.6691  6.0665   9
  10   2   1 70.0528  6.7407   2
   2 -10   1 72.5171  6.9990   2
 -10   2  -1 62.4831  6.8033   2
  10  -2  -1 66.1274  7.0090   2
 -10   2  -1 74.5140  7.2016   1
  10  -2  -1 75.8148  7.1490   1
  -2  10   1 74.3391  7.0552   2
  -2 -10  -1 80.6027  6.3794   9
   2  10  -1 64.3321  6.0793   9
 -10  -2   1 68.7377  6.7594   2
 -10  -2  -1 64.6180  6.7928   2
   2 -10  -1 62.2300  5.8443   9
  10   2  -1 80.6426  6.4634   9
   2  10   1 57.3562  6.5916   2
   2 -10  -1 52.7654  6.6325   2
  -2 -10   1 57.3658  5.5722   9
  10   2  -1 74.3346  7.1564   2
 -10   2   1 57.8330  6.3614   2
  10   2  -1 91.1902  7.5500   1
   2 -10  -1 73.6690  7.1945   1
  -2  10  -1 66.1218  6.0350   9
  -2 -10   1 69.4136  6.8877   2
  10  -2   1 68.0910  6.1300   9
 -10  -2  -1 65.4155  5.8749   9
 -10  -2  -1 67.5731  6.9369   1
  10  -2   1 81.9690  7.4523   2
  -2  10  -1 80.3452  7.3414   2
   3  10  -1 50.2100  6.2867   6
  10  -3  -1 46.0964  5.6405   9
  10   3   1 47.0497  6.2763   2
 -10  -3   1 45.8490  5.3293   9
  -3 -10  -1 36.2290  5.2038   9
 -10   3  -1 38.5814  6.1984   1
  -3 -10  -1 50.1400  6.6889   1
  -3  10   1 42.3479  5.9635   2
   3  10  -1 48.2132  6.3982   2
 -10  -3   1 44.6227  6.0368   2
  10  -3  -1 40.2663  6.0694   1
   3 -10   1 44.9730  5.2834   9
  10  -3  -1 47.1380  6.3056   2
   3  10  -1 48.3102  5.6914   9
 -10   3  -1 43.7787  6.1728   2
  -3 -10  -1 48.1257  6.4896   2
 -10   3  -1 49.1054  5.5192   9
   3 -10   1 47.9937  6.3921   2
  10   3   1 34.1684  5.7666   6
 -10   3   1 41.6533  5.8896   2
  10   3  -1 36.9961  5.2531   9
   3  10   1 39.7203  5.7961   2
   3 -10  -1 49.1859  6.4327   1
  10   3  -1 46.3718  6.2329   1
  -3  10  -1 54.6332  6.7288   2
 -10  -3  -1 50.2690  6.4379   2
  -3 -10   1 56.8383  6.5766   2
   3  10   1 39.7069  6.1815   6
  -3 -10   1 39.0523  5.9283   2
   3 -10  -1 40.5526  6.2239   2
  10  -3   1 47.3050  6.3659   2
  -3 -10   1 41.7232  5.1221   9
  10   3  -1 40.6544  6.0728   6
   3 -10  -1 49.0842  5.4660   9
 -10  -3  -1 36.1471  5.0046   9
 -10  -3  -1 50.3703  6.6302   1
  -3  10  -1 62.9864  5.9226   9
  10   3  -1 44.2477  6.1176   2
  10  -3   1 50.3694  5.4174   9
   4  10  -1 81.6647  7.7305   2
  10   4   1 82.4161  7.5752   2
  -4 -10  -1 84.2968  7.9677   1
  -4  10   1 87.4229  7.6908   2
  10  -4  -1 102.618   8.243   1
  10  -4  -1 80.3955  6.8795   9
   4 -10   1 76.6072  6.5324   9
  -4 -10  -1 66.7768  7.0151   2
   4 -10   1 80.2914  7.6694   2
  10  -4  -1 91.1738  7.9228   2
  -4 -10  -1 77.6366  6.7393   9
  -4 -10  -1 75.9412  7.4605   2
 -10   4  -1 80.8133  6.5516   9
 -10   4  -1 92.1413  8.0413   2
 -10  -4   1 86.4248  7.6264   2
   4  10  -1 86.0977  6.9602   9
  10   4   1 74.0043  7.8003   6
   4  10  -1 78.9111  7.6958   6
  -4 -10   1 74.2035  6.3399   9
  10   4  -1 79.2325  7.9456   6
   4  10   1 89.7497  7.9877   6
  10  -4   1 84.5393  7.7292   2
   4  10   1 87.7132  7.7581   2
 -10  -4  -1 95.5906  8.1431   2
  -4 -10   1 91.1769  7.9161   2
 -10  -4  -1 85.6046  7.8042   1
  -4  10  -1 87.4982  7.8176   2
 -10   4   1 79.3634  7.3560   2
  -4 -10   1 82.5861  7.6732   2
   4 -10  -1 75.6358  7.5860   2
   4 -10  -1 84.4936  7.0418   9
  10   4  -1 86.3104  6.8452   9
  -4  10  -1 86.2851  6.8330   9
  -4  10  -1 76.6043  6.5346   9
  10   4  -1 85.7488  7.8828   2
 -10  -4  -1 83.1646  6.7797   9
   4 -10  -1 86.2527  7.9119   1
   5  10  -1 192.220  10.502   6
  -5 -10  -1 196.446   9.459   9
  10  -5  -1 207.546  10.872   2
 -10   5  -1 203.738  10.621   2
  10  -5  -1 195.215   9.521   9
  -5 -10  -1 205.785  10.746   2
 -10  -5   1 189.556   9.851   2
   5 -10   1 203.382  10.757   2
   5  10  -1 193.007   9.506   9
   5  10  -1 194.773  10.690   2
 -10   5  -1 212.788   9.451   9
  -5 -10  -1 201.764  10.729   2
  10   5   1 201.147  10.506   2
  -5  10   1 220.861  10.690   2
  -5 -10  -1 218.430  11.072   1
  10   5   1 192.018  10.929   6
   5 -10  -1 204.153  10.850   2
  10   5  -1 228.243   9.869   9
  -5  10  -1 195.950   9.300   9
 -10   5   1 208.420  10.462   2
   5 -10  -1 212.218   9.732   9
 -10  -5  -1 191.300   9.203   9
  -5 -10   1 188.342  10.469   2
 -10  -5  -1 194.575  10.623   2
  -5  10  -1 181.130  10.417   2
  -5  10  -1 214.636   9.527   9
   5  10   1 181.986  10.043   2
  10  -5   1 194.463  10.510   2
  10   5  -1 184.034  10.285   6
   5 -10  -1 205.831  10.835   1
   5  10   1 199.217  10.915   6
  10   5  -1 193.153  10.657   2
  -6 -10  -1 17.5036  4.8660   9
  10   6   1 14.5632  5.6968   6
  10  -6  -1 11.3203  5.1505   2
   6 -10   1 8.61127 5.18264   2
   6  10  -1 12.2550  5.2439   6
 -10  -6   1 13.4236  5.1414   2
 -10   6  -1 23.3210  5.9216   2
   6  10  -1 12.3252  5.4456   2
  10   6   1 17.6139  5.3516   2
  10  -6  -1 22.5984  4.8980   9
  -6  10   1 21.8324  5.6087   2
   6  10  -1 4.24409 4.39082   9
 -10   6  -1 17.2185  4.6761   9
   6 -10  -1 15.8105  4.8706   9
  -6  10  -1 25.4338  5.8802   2
  10   6  -1 8.88656 4.56847   9
   6  10   1 22.0258  5.7211   6
  10  -6   1 17.4217  5.4768   2
  -6  10  -1 12.1249  4.5775   9
 -10  -6  -1 18.6147  4.8684   9
  10   6  -1 13.5650  5.5670   6
 -10   6   1 18.4731  5.4224   2
  -6 -10   1 24.5066  5.6909   2
 -10  -6  -1 15.9732  5.6202   2
   6  10   1 7.19040 4.92936   2
  10   6  -1 15.5834  5.7006   2
   7 -10   1 39.2622  6.8515   2
  10   7   1 55.8563  7.8004   6
   7  10  -1 51.5834  7.1834   2
 -10   7  -1 42.9388  6.0006   9
  10  -7  -1 36.1583  5.9037   9
   7  10  -1 57.5975  6.6649   9
  -7 -10  -1 45.6937  6.1999   9
 -10  -7   1 50.5641  6.9457   2
   7  10  -1 54.2431  7.3548   6
  -7  10   1 42.8423  6.8351   2
  10   7   1 48.0141  7.0187   2
 -10   7  -1 52.6063  7.4213   2
  10   7  -1 54.8627  6.5280   9
   7  10   1 52.7107  7.6347   6
 -10   7   1 46.5885  6.6299   2
  -7  10  -1 53.3190  6.2774   9
  10  -7   1 48.6924  7.0534   2
  10   7  -1 51.4326  7.4942   6
  -7 -10   1 40.7442  6.8154   2
  10   7  -1 49.3925  6.9351   2
   7  10   1 48.5371  6.9030   2
   7 -10  -1 50.2776  6.3817   9
 -10  -7  -1 56.4737  6.4524   9
  -7  10  -1 40.7527  6.8825   2
  -8 -10  -1 126.811   8.671   9
  10   8   1 144.356  10.032   6
  10   8   1 119.194   9.906   2
 -10   8  -1 110.102   9.660   2
   8  10  -1 129.091  10.018   6
   8 -10   1 108.508   9.893   2
   8  10  -1 124.205  10.175   2
 -10  -8   1 108.728   9.547   2
  10  -8  -1 135.602   8.858   9
  -8  10   1 132.868   9.698   2
  10   8  -1 123.601  10.552   6
  10  -8   1 118.338  10.047   2
 -10  -8  -1 120.694   8.221   9
  10   8  -1 125.509  10.335   2
   8  10   1 101.257   9.561   6
   8 -10  -1 125.603   8.627   9
  -8  10  -1 143.401  10.207   2
   8  10   1 119.490   9.884   2
  -8 -10   1 102.431   9.474   2
 -10   8   1 119.097   9.770   2
   9  10  -1 0.06206 5.42843   2
  10  -9  -1 6.62809 5.10241   9
  -9  10   1 -3.7054  4.8912   2
 -10   9  -1 -2.0982  5.2856   2
   9  10  -1 -3.0924  5.4507   6
  10   9   1 -4.8362  5.3203   6
  10   9   1 3.22513 5.31258   2
   9 -10   1 8.98628 5.69905   2
  -9 -10  -1 -5.0959  4.5431   9
 -10  -9   1 6.55282 5.45916   2
  -9 -10   1 2.36717 5.40039   2
  -9  10  -1 -0.4519  5.4450   2
   9 -10  -1 10.3860  5.0902   9
  10   9  -1 -0.7840  5.5786   6
   9  10   1 8.12151 5.87171   2
  10   9  -1 -0.6865  5.4781   2
 -10  -9  -1 -0.2023  4.6497   9
 -10   9   1 2.74744 5.19516   2
  10  -9   1 1.34477 5.43833   2
   9  10   1 4.58881 5.88366   6
  10  10   1 -5.4176  5.5771   6
  10  10  -1 5.18113 5.90885   2
 -10  10   1 -13.982   4.792   2
  10 -10   1 -1.5862  5.9609   2
  10  10   1 8.53254 6.17875   2
  10  10  -1 -9.2135  5.4117   6
 -10  10  -1 7.38027 5.95475   2
 -10 -10   1 5.88002 5.80750   2
  11   0  -1 -2.7841  3.6521   9
  11   0  -1 1.08338 4.31825   2
   0  11   1 -10.007   3.615   2
  11   0   1 5.24707 4.28082   2
 -11   0  -1 1.95741 3.81134   9
 -11   0  -1 -5.5353  3.4845   2
   0  11  -1 -3.8656  3.7696   9
   0 -11   1 4.16167 4.46825   2
   0  11  -1 -5.2526  3.9756   2
 -11   0   1 -0.0812  4.0718   2
   0 -11  -1 0.59706 4.52708   2
   0 -11  -1 -1.5909  3.7934   9
   0 -11   1 3.44764 4.09176   9
   0 -11  -1 13.0206  5.1927   1
 -11  -1   1 12.3054  4.7972   2
  -1  11   1 14.4229  4.9754   2
 -11   1  -1 13.8251  4.6507   2
   1  11  -1 13.6420  4.9977   2
  -1 -11  -1 12.8815  5.2302   1
   1  11  -1 14.9154  4.6832   9
   1 -11   1 16.4493  5.2171   2
  11   1   1 24.9322  5.6358   2
 -11   1  -1 16.3335  4.4597   9
  -1 -11  -1 3.37980 4.11682   9
   1 -11   1 9.36650 4.22342   9
  11  -1  -1 11.5210  5.0815   2
  11  -1  -1 3.45690 4.06666   9
  -1 -11   1 15.2026  4.4072   9
 -11  -1  -1 12.5276  4.3332   9
  -1 -11   1 24.5168  5.4393   2
 -11   1   1 7.38405 4.60573   2
   1 -11  -1 25.6852  5.7335   1
   1 -11  -1 11.0888  4.4918   9
  -1  11  -1 12.6605  5.1269   2
 -11  -1  -1 10.7794  5.0306   2
  11   1  -1 17.6595  4.6363   9
  11   1  -1 13.2302  5.1481   2
  11  -1   1 14.6457  4.9982   2
   1  11   1 9.24723 4.79141   2
  -1  11  -1 17.5462  4.6144   9
  -2  11   1 19.9530  5.1593   2
  11  -2  -1 18.6274  5.4449   2
 -11  -2   1 21.0097  5.2461   2
   2  11  -1 10.9975  4.8789   2
 -11   2  -1 10.4227  4.9841   2
  11  -2  -1 15.0070  4.6573   9
  -2 -11  -1 12.8539  4.4355   9
  11   2   1 8.12720 5.02574   6
 -11   2  -1 11.3785  4.3670   9
  -2 -11  -1 9.72298 5.32781   1
   2  11  -1 13.3491  4.5467   9
 -11  -2   1 11.8855  5.6624   7
   2 -11   1 20.1641  5.4269   2
  11   2   1 10.4623  4.8083   2
 -11  -2  -1 13.0861  5.0248   2
  11  -2   1 12.7329  5.1014   2
  11   2  -1 8.81765 4.40160   9
  -2 -11   1 11.7737  5.0513   2
 -11   2   1 7.82004 4.75786   2
  11   2  -1 9.26730 4.88397   2
   2  11   1 17.5915  5.1326   2
 -11  -2  -1 11.3648  4.3794   9
  -2  11  -1 13.8065  5.2151   2
   2 -11  -1 12.5837  5.3610   1
   2 -11  -1 7.43483 4.31832   9
  -2  11  -1 13.7571  4.5285   9
 -11  -3   1 8.23421 4.72832   2
  -3 -11  -1 9.78397 4.41892   9
   3  11  -1 7.85912 5.09323   2
 -11   3  -1 6.21067 4.39748   2
   3  11  -1 7.42342 4.33576   9
  11  -3  -1 14.3473  4.6104   9
 -11   3  -1 6.54130 4.12730   9
  11   3   1 9.47259 5.36493   6
  11   3   1 10.7978  5.1298   2
  -3 -11  -1 10.0747  5.3813   1
  11  -3  -1 1.17347 5.01148   2
  -3  11   1 15.3610  5.0997   2
   3 -11   1 13.1254  5.2187   2
 -11  -3  -1 18.0904  4.5939   9
  11   3  -1 12.4692  5.3944   6
  -3 -11   1 7.10211 4.82669   2
  -3  11  -1 11.8165  4.6816   2
   3 -11  -1 5.01210 5.05921   1
  11   3  -1 8.50384 4.46329   9
  -3 -11   1 -3.2336  4.5085   2
   3 -11  -1 7.71624 4.37046   9
   3  11   1 13.1849  5.1327   2
  -3  11  -1 14.3727  4.5282   9
  11  -3   1 13.8259  5.1253   2
  11   3  -1 -3.8438  4.4001   2
 -11   3   1 10.4763  4.9242   2
 -11  -3  -1 11.5214  5.3333   2
  -4  11   1 13.1912  5.1228   2
   4 -11   1 6.49662 5.13690   2
  11  -4  -1 8.17608 5.39082   2
   4  11  -1 8.73967 5.25376   2
   4  11  -1 12.8849  5.4102   6
 -11   4  -1 5.93681 5.12034   2
  11   4   1 4.16576 4.93090   6
  11  -4  -1 8.17985 4.54945   9
 -11   4  -1 3.39611 4.19689   9
  11   4   1 2.54892 4.62229   2
  -4 -11  -1 11.3553  4.6865   9
 -11  -4   1 10.4473  4.9123   2
   4  11  -1 18.6482  4.9069   9
 -11   4   1 18.7188  5.1823   2
  11   4  -1 19.4446  4.9263   9
   4 -11  -1 6.89333 4.44605   9
  -4  11  -1 19.7384  5.9037   2
   4  11   1 1.97092 4.70563   2
   4  11   1 2.44361 5.20907   6
  11   4  -1 14.9589  5.4453   2
 -11  -4  -1 7.53051 4.28731   9
  -4 -11   1 17.8298  5.5109   2
  11  -4   1 8.48726 5.00720   2
 -11  -4  -1 11.2853  5.3653   2
  -4 -11   1 5.17757 5.10584   2
  11   4  -1 5.06996 5.28342   6
  -4  11  -1 10.2517  4.5790   9
  11  -5  -1 -8.2142  4.7243   2
 -11   5  -1 -5.8734  3.9706   9
   5  11  -1 -2.5480  4.1553   9
 -11  -5   1 -3.8012  4.5362   2
   5  11  -1 2.01677 4.99359   6
  11   5   1 -0.3192  4.7409   2
  11   5   1 4.23647 5.27940   6
   5 -11   1 2.14251 4.93474   2
   5  11  -1 2.70745 4.96228   2
  11  -5  -1 4.06278 4.36118   9
  -5  11   1 6.06852 4.93841   2
  -5 -11  -1 -2.2088  4.1178   9
 -11   5  -1 0.26784 4.91467   2
 -11  -5  -1 2.82062 5.05163   2
  11   5  -1 -7.5637  4.5803   2
  -5 -11   1 -1.7829  4.4421   2
 -11  -5  -1 -2.1438  3.9232   9
  11   5  -1 -0.6812  4.8001   6
  -5  11  -1 -1.5104  4.1769   9
  11   5  -1 0.57632 4.34586   9
 -11   5   1 0.19816 4.60211   2
  -5  11  -1 1.92723 4.75793   2
   5  11   1 -2.2003  5.0435   6
  11  -5   1 7.12753 5.03003   2
   5 -11  -1 5.45235 4.63416   9
  -5  11  -1 1.83479 4.29246   9
   5  11   1 5.67830 4.91596   2
   6  11  -1 -3.3977  4.2895   9
  11   6   1 1.70866 5.34958   6
  -6  11   1 1.14020 4.89787   2
  11  -6  -1 0.77711 4.50630   9
  -6 -11  -1 -0.5467  4.1665   9
   6  11  -1 -0.5096  5.0672   6
 -11   6  -1 11.4239  5.6415   2
  11   6   1 -1.8247  4.7546   2
   6 -11   1 -0.0709  5.1554   2
   6  11  -1 3.48920 5.25627   2
 -11  -6   1 0.69720 4.90675   2
 -11   6  -1 4.42145 4.38550   9
  -6  11  -1 7.56594 4.54077   9
  -6 -11   1 2.21966 5.09964   2
  11   6  -1 -5.2375  4.7006   2
  11  -6   1 0.49976 5.12537   2
   6  11   1 4.00993 5.53284   6
 -11  -6  -1 0.93504 4.28212   9
 -11   6   1 2.24584 4.97423   2
  -6  11  -1 3.20887 5.33271   2
  11   6  -1 5.24574 4.49490   9
   6  11   1 4.87987 5.09372   2
  11   6  -1 -0.1376  5.2801   6
   6 -11  -1 -1.6884  4.4079   9
  -6  11  -1 2.17412 4.49044   9
  11  -7  -1 2.47131 4.64836   9
   7  11  -1 8.41190 5.64378   2
   7 -11   1 2.34485 5.10938   2
  11   7   1 0.94607 5.03660   6
   7  11  -1 -3.8343  5.3125   6
  -7 -11  -1 2.86148 4.75073   9
  -7  11   1 0.81486 5.17497   2
  11   7   1 3.48007 5.22108   2
 -11  -7   1 -7.3210  4.8404   2
 -11   7  -1 -0.7312  5.1133   2
   7  11   1 4.54514 5.19748   2
  -7 -11   1 -7.8526  4.7116   2
 -11  -7  -1 4.59231 4.74178   9
  -7  11  -1 -5.3739  4.9978   2
   7 -11  -1 -5.4312  4.2747   9
   7  11   1 0.69900 5.59877   6
  11   7  -1 -1.8666  5.6118   6
  11  -7   1 9.68211 5.59544   2
  11   7  -1 0.25852 5.21468   2
 -11   7   1 3.66368 5.14873   2
   8  11  -1 40.4316  7.6072   2
   8 -11   1 35.0890  7.4054   2
 -11  -8   1 43.4666  7.5822   2
  11   8   1 49.4479  7.5833   2
   8  11  -1 33.3029  7.2626   6
  11   8   1 42.6618  7.9088   6
 -11   8  -1 43.2139  7.6114   2
  -8 -11  -1 41.5269  6.7396   9
  -8  11   1 41.1233  7.1862   2
  11  -8  -1 41.7010  6.8490   9
  11  -8   1 50.0082  7.8298   2
   8  11   1 38.9433  7.1184   2
 -11   8   1 48.6872  7.4385   2
   8  11   1 41.1618  7.5081   6
 -11  -8  -1 32.8110  6.0708   9
   8 -11  -1 43.2365  6.7015   9
  -8  11  -1 62.0505  8.2971   2
  11   8  -1 45.2038  7.8010   2
  -8 -11   1 21.1594  6.7478   2
  11   8  -1 48.2423  8.1229   6
   9  11  -1 -8.2164  5.5046   6
  11   9   1 -1.8856  5.8825   2
   9  11  -1 -8.9821  5.0853   2
  11   9   1 2.18347 5.88062   6
 -11   9  -1 5.55952 5.92763   2
 -11  -9   1 -7.7367  4.9347   2
   9 -11   1 2.07942 6.15559   2
  -9  11   1 -2.6594  5.2816   2
   9  11   1 -3.1652  5.3369   2
  11   9  -1 6.14968 6.15093   2
  11  -9   1 0.32232 5.34223   2
  -9  11  -1 -1.0063  5.6738   2
  11   9  -1 4.37544 5.96421   6
  -9 -11   1 1.33373 5.74562   2
 -11   9   1 -0.9106  5.5296   2
   9  11   1 4.98141 6.60651   6
 -11  10  -1 7.06739 6.42261   2
  10  11  -1 -2.3574  5.9873   2
 -10  11   1 -0.4047  5.9049   2
  10 -11   1 -1.1258  5.9965   2
 -11 -10   1 3.68711 5.95069   2
  11  10   1 2.70192 5.73162   2
  10  11  -1 -0.0922  6.0619   6
  11  10   1 -1.8278  6.0130   6
  11 -10   1 -3.6474  6.0039   2
  11  10  -1 -4.1964  6.0968   6
 -10  11  -1 4.21687 6.29506   2
  11  10  -1 4.74466 6.89705   2
 -10 -11   1 -2.2015  6.1263   2
  10  11   1 -1.7652  6.1872   6
 -11  10   1 4.31282 5.78457   2
  10  11   1 -5.5947  5.3089   2
   0  12   1 249.885  11.812   2
  12   0   1 226.341  11.657   2
   0  12  -1 232.249  12.036   2
 -12   0  -1 244.874  11.992   2
   0 -12  -1 243.870  10.810   9
   0  12  -1 231.177  10.625   9
 -12   0   1 221.562  11.436   2
 -12   0  -1 235.788  10.416   9
   0 -12   1 240.355  11.898   2
  12   0  -1 225.976  11.783   2
  12   0  -1 241.644  10.848   9
  12   1   1 1.05088 4.74374   2
   1  12  -1 5.17664 4.84962   2
  -1  12   1 -5.0732  4.2341   2
   1 -12   1 1.82837 5.01919   2
  -1 -12  -1 2.61262 4.38659   9
 -12   1  -1 8.11895 5.18696   2
 -12  -1   1 2.16082 4.50173   2
 -12   1  -1 9.28399 4.41323   9
  12  -1  -1 6.57399 4.49149   9
  12  -1  -1 7.51011 5.49862   2
   1  12  -1 -0.6670  4.5057   9
   1  12   1 11.3494  5.0693   2
   1 -12  -1 -0.8667  4.1747   9
 -12  -1  -1 -1.8449  4.7662   2
  12   1  -1 -2.7585  4.6008   2
  12  -1   1 0.29124 4.80442   2
  12   1  -1 4.34528 4.39383   9
  -1  12  -1 -7.5340  4.5268   2
  -1  12  -1 5.85000 4.50012   9
 -12   1   1 6.14480 4.73611   2
 -12  -1  -1 1.91877 4.00388   9
  -1 -12   1 -0.9271  4.6001   2
 -12  -2   1 33.3794  6.1179   2
  12  -2  -1 27.5502  5.7207   2
 -12   2  -1 22.0483  5.9968   2
  -2  12   1 23.7433  5.7308   2
 -12   2  -1 24.5694  5.2550   9
  12  -2  -1 12.6225  5.0309   9
   2  12  -1 24.9226  6.1884   2
  12   2   1 27.8943  6.5660   6
  -2 -12  -1 16.8166  5.1208   9
  12   2   1 18.6212  5.7207   2
   2 -12   1 28.0196  6.2606   2
   2  12  -1 29.5991  5.7768   9
   2 -12  -1 32.8758  5.6374   9
 -12   2   1 27.1397  5.8371   2
   2  12   1 30.5887  6.1927   2
  12   2  -1 20.2328  5.7898   2
 -12  -2  -1 22.6382  6.0926   2
  12  -2   1 23.2733  5.8641   2
  -2 -12   1 27.7814  6.3525   2
  12   2  -1 29.7518  5.5279   9
  -2  12  -1 23.9633  5.2863   9
 -12  -2  -1 25.0081  5.2744   9
  -2  12  -1 38.6668  6.7363   2
 -12  -3   1 126.392   9.425   2
 -12   3  -1 136.890   8.323   9
   3  12  -1 148.272  10.165   2
  12  -3  -1 121.839  10.161   2
 -12   3  -1 124.960   9.497   2
  12  -3  -1 122.462   8.403   9
   3 -12   1 123.264   9.973   2
   3  12  -1 132.437   8.490   9
  -3 -12  -1 120.976   8.494   9
  -3  12   1 133.051   9.517   2
  12   3   1 135.734   9.527   2
  12   3   1 122.233  10.515   6
   3  12   1 127.050   9.447   2
  -3 -12   1 137.116   9.698   2
  12  -3   1 126.119  10.168   2
 -12   3   1 144.786   9.655   2
  -3  12  -1 134.041   9.703   2
  12   3  -1 130.485   9.967   2
  12   3  -1 143.974  10.450   6
  -3  12  -1 130.687   8.432   9
  12   3  -1 148.668   8.937   9
   3 -12  -1 129.930   8.683   9
  -3 -12   1 132.664   9.879   2
 -12  -3  -1 117.691   9.920   2
 -12  -3  -1 126.345   8.286   9
  12   4   1 6.05075 5.52403   6
 -12  -4   1 11.9735  5.4555   2
  -4 -12  -1 12.3697  5.0464   9
  12   4   1 7.04427 5.36333   2
 -12   4  -1 32.7773  6.6022   2
  -4  12   1 17.9123  5.7125   2
  12  -4  -1 27.5278  5.7141   9
 -12   4  -1 10.3660  5.0737   9
   4  12  -1 18.3872  6.0063   2
   4 -12   1 12.0962  5.7457   2
  -4  12  -1 21.2806  6.0476   2
 -12  -4  -1 23.4449  5.1529   9
  12   4  -1 16.5162  5.3498   9
  -4 -12   1 22.0499  6.0321   2
  12   4  -1 22.5535  6.4098   2
   4  12   1 10.6107  5.3258   2
  12   4  -1 9.79982 6.00217   6
 -12   4   1 21.7819  5.8964   2
   4 -12  -1 13.2965  5.1353   9
  -4 -12   1 9.39182 5.46188   2
  12  -4   1 15.4157  5.8546   2
  -5  12   1 74.1488  8.2825   2
  12   5   1 53.1132  7.4957   2
   5  12  -1 50.6710  7.9130   2
  12  -5  -1 66.8263  7.2986   9
   5 -12   1 51.6720  7.7003   2
 -12  -5   1 56.5674  7.5566   2
  -5 -12  -1 58.0985  6.8511   9
 -12   5  -1 52.7947  7.7197   2
  12   5   1 55.2347  8.1523   6
   5  12  -1 64.2346  8.3808   6
 -12   5   1 69.9642  8.2667   2
  12   5  -1 57.0456  6.9759   9
   5  12   1 67.2204  8.5880   6
 -12  -5  -1 68.1887  6.9744   9
  12  -5   1 54.8392  7.7088   2
  -5  12  -1 63.9102  8.3240   2
  12   5  -1 51.9202  7.8386   2
  -5 -12   1 56.8596  7.9446   2
   5 -12  -1 62.0698  7.0350   9
  12   5  -1 50.9191  7.9212   6
   5  12   1 52.2390  7.6495   2
   6  12  -1 39.6531  7.2899   2
 -12  -6   1 32.3043  6.8383   2
   6  12  -1 24.7929  6.6707   6
  -6 -12  -1 30.3290  5.8137   9
 -12   6  -1 29.2645  7.1326   2
  12  -6  -1 23.2705  6.0741   9
  12   6   1 29.7114  6.7852   2
   6 -12   1 27.7197  6.6242   2
  -6  12   1 32.9695  6.6967   2
  12   6   1 23.6418  6.3620   6
  12   6  -1 32.3031  7.0433   2
   6  12   1 33.9386  7.4256   6
  12  -6   1 32.8674  7.2838   2
 -12   6   1 33.2717  6.8719   2
  -6  12  -1 35.2411  7.3712   2
  12   6  -1 31.0226  7.1421   6
   6 -12  -1 29.3672  5.9932   9
   6  12   1 25.0404  6.3978   2
 -12  -6  -1 28.7333  5.8106   9
  -6 -12   1 19.0678  6.5158   2
 -12   7  -1 -6.4892  5.2983   2
  -7  12   1 8.72304 5.84678   2
 -12  -7   1 4.93987 5.69521   2
   7 -12   1 11.6468  6.3420   2
   7  12  -1 4.62796 5.79381   6
  -7 -12  -1 2.55433 5.29374   9
  12   7   1 -3.9080  5.8252   6
  12   7   1 0.48852 5.76012   2
   7  12  -1 0.05664 5.50612   2
  -7  12  -1 1.81745 5.53154   2
  12   7  -1 -3.2841  5.8969   6
  12  -7   1 -14.514   4.974   2
   7 -12  -1 4.47721 5.06566   9
  -7 -12   1 -3.8455  5.3556   2
  12   7  -1 -2.8662  5.5495   2
   7  12   1 2.39289 6.18789   6
   7  12   1 2.58954 5.52191   2
 -12   7   1 8.98418 5.67320   2
  12   8   1 -5.9826  5.3712   2
   8  12  -1 -9.9676  5.6672   2
 -12   8  -1 0.78152 5.97567   2
 -12  -8   1 17.1719  6.7150   2
  12   8   1 -1.6326  6.1307   6
  -8  12   1 5.67834 6.28012   2
   8  12  -1 3.95553 6.13547   6
   8 -12   1 7.96399 6.33298   2
  -8  12  -1 -6.7247  5.6798   2
  12   8  -1 -1.1854  5.9515   6
 -12   8   1 8.64365 5.93585   2
   8  12   1 -7.6075  5.4152   2
  12  -8   1 6.41230 6.22988   2
  -8 -12   1 6.98968 6.21309   2
  12   8  -1 2.72581 6.18180   2
   8  12   1 3.46687 6.44104   6
  12   9   1 9.45951 6.66694   6
 -12  -9   1 4.32324 5.64655   2
 -12   9  -1 4.73201 6.36501   2
   9 -12   1 6.44934 6.19201   2
   9  12  -1 -7.5304  6.4125   6
   9  12  -1 5.88251 6.28394   2
  -9  12   1 9.27791 5.84663   2
  12   9   1 15.0845  6.5745   2
  12   9  -1 8.37461 6.82682   6
  -9 -12   1 1.73837 5.91048   2
   9  12   1 -5.4879  6.0676   6
  12  -9   1 1.90289 6.09495   2
 -12   9   1 5.57460 6.01724   2
   9  12   1 0.33973 5.50967   2
  -9  12  -1 4.29836 6.44766   2
  12   9  -1 10.5516  6.8470   2
   0  13  -1 0.07102 5.20433   2
  13   0  -1 -3.2790  4.5528   9
 -13   0   1 -0.7992  5.0316   2
 -13   0  -1 -6.0584  5.0213   2
   0 -13  -1 5.28753 4.87563   9
   0 -13   1 -1.7418  4.8871   2
 -13   0  -1 -2.0574  4.3573   9
  13   0  -1 8.64727 5.65506   2
   0  13   1 -3.7442  4.8226   2
  13   0   1 5.01969 5.41674   2
   1  13  -1 100.238   9.698   2
  -1 -13  -1 107.450   8.565   9
  13  -1  -1 125.775   8.968   9
 -13  -1   1 119.342   9.814   2
 -13   1  -1 117.008   8.717   9
  13   1   1 100.465   9.351   2
 -13   1  -1 109.024   9.965   2
  -1  13   1 102.065   9.251   2
   1 -13   1 119.135  10.164   2
  13  -1  -1 120.234  10.436   2
  13   1  -1 120.329   9.917   2
   1  13   1 95.2030  9.1632   2
  13   1  -1 118.155   8.739   9
   1 -13  -1 117.380   8.485   9
  13  -1   1 103.307   9.471   2
 -13  -1  -1 114.027   8.270   9
 -13   1   1 107.893   9.517   2
  -1  13  -1 119.084  10.162   2
  -1 -13   1 111.467   9.912   2
 -13  -2   1 24.5188  6.3621   2
   2  13  -1 13.3371  5.5246   2
  -2 -13  -1 6.96570 5.13348   9
 -13   2  -1 21.4204  5.3705   9
 -13   2  -1 6.09106 5.84329   2
  13   2   1 23.9767  6.8062   6
  -2  13   1 19.3223  6.0337   2
   2 -13   1 30.9065  6.6443   2
  13   2   1 16.7668  6.0229   2
  13  -2  -1 25.3900  5.8156   9
  -2 -13   1 21.0097  6.1764   2
  13   2  -1 32.8551  6.7237   2
 -13  -2  -1 15.2386  5.1943   9
 -13   2   1 22.1603  6.0467   2
  13   2  -1 27.7470  5.9907   9
  13  -2   1 23.6123  6.4089   2
   2  13   1 22.9435  6.5608   2
   2 -13  -1 15.4244  5.3669   9
  -2  13  -1 27.4121  6.7133   2
 -13  -3   1 8.70237 5.75819   2
  -3  13   1 17.2059  6.0195   2
   3 -13   1 10.5229  5.9717   2
 -13   3  -1 12.7870  6.2449   2
  -3 -13  -1 10.1069  5.0522   9
   3  13  -1 10.1534  5.9999   2
  13   3   1 10.9498  5.6993   2
  13   3   1 12.4242  6.4330   6
  13  -3  -1 12.0802  5.2912   9
  -3 -13   1 9.97700 5.79203   2
  13  -3   1 22.6828  6.2293   2
  13   3  -1 12.8304  6.4310   2
 -13   3   1 12.2741  5.7840   2
   3  13   1 8.15059 5.74685   2
 -13  -3  -1 2.43628 4.68761   9
  -3 -13   1 12.5325  6.0642   2
   3 -13  -1 8.67679 5.12709   9
  -3  13  -1 10.3071  5.7776   2
  13   3  -1 9.82277 6.34019   6
  -4 -13  -1 7.42962 5.05763   9
 -13  -4   1 3.29455 5.91883   2
  13   4   1 7.78335 6.03966   6
  13  -4  -1 8.17585 5.20492   9
 -13   4  -1 5.97096 5.97183   2
  -4  13   1 8.64891 5.75222   2
   4 -13   1 6.91665 5.86469   2
   4  13  -1 20.5248  6.6839   2
  13   4   1 8.09151 5.68004   2
   4  13   1 8.15176 5.64138   2
  -4 -13   1 7.75905 5.66177   2
  -4  13  -1 1.02685 5.57362   2
  -4 -13   1 11.1069  6.0561   2
  13  -4   1 4.25488 5.61964   2
  13   4  -1 16.6504  6.5798   2
  13   4  -1 9.99389 6.29151   6
 -13  -4  -1 9.83207 5.13364   9
   4 -13  -1 3.02146 5.19539   9
 -13   4   1 6.69123 5.55999   2
  -5  13   1 11.8326  6.0644   2
  13   5   1 21.3813  7.0479   6
 -13  -5   1 23.5361  6.5714   2
 -13   5  -1 21.4734  6.8051   2
   5 -13   1 33.1739  7.1779   2
   5  13  -1 7.22023 6.20538   2
  13   5   1 19.2839  6.4294   2
  -5 -13  -1 17.9686  5.5203   9
   5 -13  -1 14.5165  5.8129   9
 -13   5   1 21.0696  6.3250   2
  -5 -13   1 18.6451  6.7971   2
  13   5  -1 20.7938  6.7197   2
  13  -5   1 13.5357  6.2245   2
  13   5  -1 9.98197 6.42228   6
   5  13   1 18.4407  6.2406   2
  -5  13  -1 8.88809 6.15196   2
  13   6   1 12.4200  6.7794   6
 -13  -6   1 19.1154  6.8952   2
  -6  13   1 17.8212  6.3869   2
  13   6   1 12.4118  6.6647   2
   6 -13   1 18.7635  6.9627   2
 -13   6  -1 3.73602 6.20896   2
   6  13  -1 17.6791  6.7484   6
   6  13  -1 8.42312 6.45182   2
 -13   6   1 11.2415  6.5726   2
   6  13   1 9.36891 6.55932   6
  -6  13  -1 8.59843 6.34746   2
   6  13   1 9.08492 5.80784   2
  13  -6   1 -0.1891  5.8065   2
  -6 -13   1 27.9981  7.0758   2
  13   6  -1 2.17801 5.93152   2
  13   6  -1 21.6191  7.3340   6
   7  13  -1 13.1236  6.7376   2
   7  13  -1 21.8530  7.4359   6
   7 -13   1 12.3645  6.9525   2
 -13   7  -1 12.0474  6.8643   2
  13   7   1 12.4341  6.1134   2
  13   7   1 5.95853 6.52931   6
  -7  13   1 16.6183  6.9604   2
 -13  -7   1 18.0994  6.6696   2
 -13   7   1 4.55982 5.97396   2
   7  13   1 6.76273 6.44587   2
   7  13   1 22.7417  7.5945   6
  13   7  -1 22.3514  7.2475   2
  -7  13  -1 13.8756  6.8619   2
  -7 -13   1 15.5584  7.0347   2
  13   7  -1 22.2135  7.3396   6
  13  -7   1 16.0498  6.8100   2
  13   8   1 16.4829  7.1949   2
  -8  13   1 26.5615  7.2034   2
 -13  -8   1 13.2606  6.3919   2
   8  13  -1 17.5601  7.6196   6
   8  13  -1 18.4966  7.1653   2
   8 -13   1 16.5486  7.2175   2
  13   8   1 16.8192  7.3767   6
 -13   8  -1 14.6567  7.0761   2
  13   8  -1 20.8505  7.6704   2
   8  13   1 15.9116  6.5974   2
  13  -8   1 8.97943 6.54059   2
 -13   8   1 12.2482  6.2097   2
   8  13   1 8.02549 7.04184   6
  -8 -13   1 19.3866  7.0314   2
  -8  13  -1 19.3484  7.4221   2
  13   8  -1 20.1932  7.5195   6
 -14   0   1 118.188  10.284   2
   0  14   1 122.070  10.620   2
   0 -14   1 110.859  10.366   2
   0  14  -1 142.388  11.436   2
   0 -14  -1 150.936   9.861   9
  14   0   1 155.613  10.732   2
 -14   0   1 125.513  11.871   7
 -14  -1   1 17.3389  6.2046   2
   1  14  -1 -4.0143  5.4355   2
   1 -14   1 -2.4453  5.4310   2
  14   1   1 -4.2555  5.3675   2
  -1  14   1 3.60214 5.52452   2
  -1 -14  -1 -8.3106  4.6939   9
  14  -1   1 -1.9961  5.6159   2
  -1 -14   1 4.91408 5.74161   2
  -1  14  -1 3.22907 5.87857   2
   1  14   1 2.33766 5.75181   2
   1 -14  -1 -2.6926  5.2556   9
 -14   1   1 -7.5181  5.0135   2
   2 -14   1 43.2889  7.6848   2
   2  14  -1 24.2001  6.8529   2
  14   2   1 36.4092  7.8175   6
  -2 -14  -1 34.5336  6.7271   9
  14   2   1 35.3620  7.2862   2
  -2  14   1 25.2070  6.5505   2
 -14  -2   1 21.5672  6.4394   2
  -2 -14   1 38.8513  7.5972   2
   2  14   1 28.6081  6.8163   2
  -2  14  -1 28.3967  7.0111   2
 -14   2   1 22.6278  6.5263   2
  14  -2   1 16.6670  6.3923   2
  -2 -14   1 24.0894  7.0176   2
  14   2  -1 28.0067  7.3472   6
   2 -14  -1 36.8171  6.6477   9
  14   3   1 10.6388  6.3785   2
  14   3   1 19.4910  7.2003   6
   3 -14   1 13.0874  6.5952   2
   3  14  -1 18.5380  6.8560   2
  -3  14   1 15.2987  6.2095   2
 -14  -3   1 20.2874  6.4966   2
  14   3  -1 13.0143  6.8033   6
  -3 -14   1 19.3641  6.9027   2
  14  -3   1 6.97187 6.00837   2
   3  14   1 18.9649  6.3864   2
 -14   3   1 24.3957  6.7634   2
  -3 -14   1 5.13185 6.01665   2
  -3  14  -1 7.37711 6.22330   2
 -14  -4   1 15.6271  6.7308   2
  14   4   1 21.6312  6.8654   2
   4  14  -1 16.7461  7.1288   2
  14   4   1 33.7105  7.6490   6
  -4  14   1 24.7199  6.7594   2
   4 -14   1 24.0810  7.1063   2
  -4  14  -1 26.8726  7.1616   2
  14   4  -1 14.2514  6.8538   6
  14  -4   1 22.4476  7.1550   2
   4  14   1 16.7657  6.7620   2
 -14   4   1 21.5923  6.5857   2
  -4 -14   1 27.6479  7.2787   2
  -5  14   1 14.6630  6.4315   2
   5  14  -1 11.2046  6.6433   2
  14   5   1 15.4331  7.0044   6
 -14  -5   1 12.8126  6.7848   2
  14   5   1 32.4870  7.3317   2
   5 -14   1 22.9469  7.2508   2
  -5 -14   1 12.3709  6.6395   2
 -14   5   1 17.6901  6.6653   2
  -5  14  -1 8.99325 6.36946   2
  14  -5   1 12.2000  6.5277   2
   5  14   1 13.6823  6.4575   2
  14   5  -1 18.9466  7.4740   6
  -6  14   1 6.09375 6.36751   2
   6  14  -1 16.8166  6.9906   2
 -14  -6   1 7.49764 6.46558   2
  14   6   1 7.87270 7.00871   6
   6 -14   1 3.93033 6.42864   2
  14   6   1 8.46163 6.95084   2
 -14   6   1 -0.7615  5.9197   2
  -6  14  -1 9.46906 6.73649   2
   6  14   1 16.3104  6.6509   2
  -6 -14   1 12.3671  6.7653   2
  14   6  -1 8.78713 6.91918   6
  14  -6   1 7.76174 6.53115   2
 -15   0   1 10.1380  6.5556   2
   0  15   1 -3.5554  5.5331   2
   0  15  -1 10.5386  6.4291   2
  15   0   1 0.25079 6.33365   2
   0 -15   1 5.92330 6.53341   2
 -15  -1   1 13.6945  6.6295   2
   1 -15   1 14.8476  6.5918   2
  15   1   1 23.7683  7.8113   6
  -1  15   1 22.2667  7.2358   2
   1  15  -1 18.7833  6.8553   2
  15   1   1 27.4606  7.5540   2
  -1  15  -1 22.0313  6.9303   2
  15  -1   1 19.5498  6.7345   2
 -15   1   1 8.05733 7.55088   7
   1  15   1 14.9860  6.5087   2
 -15   1   1 25.7221  7.0005   2
  -1 -15   1 13.3834  7.0171   2
   2 -15   1 1.68822 6.31136   2
  15   2   1 5.45636 6.10905   2
  -2  15   1 7.81346 6.43359   2
 -15  -2   1 -8.5343  6.0336   2
  15   2   1 -1.1062  6.5140   6
   2  15  -1 3.71608 6.37851   2
 -15   2   1 -3.1507  5.5312   2
  15   2  -1 -1.4139  6.4599   6
   2  15   1 -1.9003  6.0792   2
  -2 -15   1 2.76499 6.25878   2
  -2  15  -1 -11.824   5.834   2
  -2 -15   1 -8.4094  5.6230   2
  15  -2   1 -10.005   5.565   2
   3 -15   1 26.8865  7.5804   2
   3  15  -1 35.6448  8.2645   2
  -3  15   1 37.4797  7.6682   2
 -15  -3   1 18.2408  6.9016   2
  15   3   1 24.6737  7.9163   6
  15   3   1 26.0834  7.3786   2
  -3 -15   1 49.4881  8.7248   2
 -15   3   1 42.3213  7.7428   2
   3  15   1 39.1014  7.8310   2
  15  -3   1 36.7577  8.0755   2
  15   3  -1 40.9868  8.6737   6
  -3  15  -1 44.1272  8.2748   2
  -3 -15   1 31.2559  8.1238   2
   0   0   2 1907.73   36.32   8
   0   0   2 1932.46   35.78   7
   1   0   2 -5.6578  1.8363   8
  -1   0   2 -7.9653  1.6973   8
  -1   0  -2 -6.5003  1.0113   4
   1   0  -2 -3.7940  1.0856   4
   0  -1   2 -5.8851  1.7013   7
   1   0   2 -5.0908  1.7582   7
   0   1   2 -6.7245  1.6052   7
  -1   0   2 -6.3887  1.6278   7
   0   1   2 -7.9708  1.6114   8
   0  -1   2 -4.0901  1.6249   8
   1  -1  -2 1050.76   20.23   4
  -1   1   2 1023.63   21.02   8
   1  -1   2 1023.20   20.97   8
   1   1   2 1036.06   20.14   7
   1   1   2 1055.81   20.75   8
  -1  -1   2 1039.59   20.37   7
   1   1  -2 1043.28   20.41   4
  -1   1  -2 1058.31   20.40   4
  -1  -1  -2 1069.16   20.27   4
  -1   1   2 1032.82   20.59   7
  -1  -1   2 1051.30   20.46   8
   0   2   2 5021.59   95.01   8
  -2   0   2 5281.64   93.37   2
  -2   0   2 5089.90   94.93   8
   2   0  -2 5278.93   96.39   4
   2   0   2 5156.65   93.38   2
   0  -2   2 5114.13   93.49   7
   0  -2   2 5221.90   94.86   8
   0   2   2 5375.99   93.24   2
  -2   0  -2 5147.78   96.35   4
   0  -2   2 5362.46   93.54   2
   0   2   2 5280.42   93.34   7
  -2   0   2 5118.96   93.95   7
   2   0   2 5152.66   95.06   8
  -2  -1   2 552.349  11.332   2
  -2   1  -2 544.079  12.053   4
  -1   2   2 551.584  12.276   7
   2  -1  -2 526.614  11.894   4
   2   1   2 568.394  11.256   2
  -1  -2  -2 541.867  11.925   4
  -2  -1   2 539.324  11.738   8
  -1   2   2 547.351  11.143   2
   2   1   2 551.268  12.095   8
   1  -2   2 551.120  11.407   2
  -2  -1   2 536.880  11.983   7
   1   2  -2 548.666  12.083   4
   1   2  -2 552.882  10.691   9
   1   2   2 544.085  12.047   8
  -2   1   2 557.470  12.620   7
  -2  -1  -2 536.103  11.933   4
  -1  -2   2 563.580  11.825   7
   2   1  -2 549.934  12.040   4
   1   2   2 570.570  11.189   2
  -2   1   2 542.720  11.206   2
   2  -1   2 566.794  11.380   2
  -1  -2   2 563.987  11.410   2
   2   2  -2 6492.46  114.28   9
   2   2   2 6581.75  115.20   7
  -2  -2   2 6443.80  115.53   7
   2   2  -2 6404.15  119.92   4
   2   2   2 6511.49  116.18   2
  -2   2  -2 6453.29  114.16   9
   2   2   2 6565.19  117.09   8
   2  -2   2 6351.77  116.32   2
  -2  -2  -2 6391.37  113.93   9
   2  -2  -2 6476.60  114.00   9
  -2   2   2 6468.76  116.15   2
  -2  -2   2 6359.41  116.29   2
  -2   2   2 6468.89  116.83   7
  -2  -2   2 6340.73  116.48   8
  -2  -2  -2 6468.41  119.79   4
   2  -2  -2 6314.62  119.72   4
  -3   0   2 -2.5353  1.7903   2
   3   0  -2 -2.9015  1.8493   4
   3   0  -2 -3.1327  1.5914   9
  -3   0   2 -2.9410  2.4641   7
   0   3   2 -2.5764  1.8180   7
   3   0   2 -3.7070  1.7948   2
   0  -3   2 -0.4439  1.9349   2
  -3   0  -2 -3.6260  1.4591   9
   0  -3  -2 -1.5257  1.4817   9
  -3   0  -2 0.43516 1.93753   4
   3   0   2 0.62761 2.33660   8
   0   3  -2 -3.8609  1.5437   9
   0   3   2 -4.1372  1.7761   2
  -3  -1   2 758.687  15.708   2
  -1   3   2 770.176  16.296   7
  -3   1  -2 771.795  15.059   9
   3   1   2 743.239  16.051   8
   3  -1  -2 760.433  16.583   4
  -1  -3  -2 753.458  16.520   4
   3   1   2 776.243  15.724   2
  -1   3   2 757.464  15.687   2
   1  -3   2 759.832  15.896   2
  -3  -1   2 776.231  16.377   7
  -3   1  -2 768.944  16.604   4
   3  -1  -2 770.291  15.043   9
   1   3  -2 771.003  15.270   9
  -3  -1  -2 773.936  15.029   9
  -1  -3   2 782.346  15.950   2
  -1  -3   2 753.577  15.673   8
   3   1  -2 771.827  15.201   9
  -3  -1  -2 723.003  16.364   4
  -3   1   2 761.616  15.727   2
  -1  -3   2 778.079  15.608   7
  -1  -3   2 767.487  15.921   2
   3   1  -2 756.004  16.562   4
  -3   1   2 771.441  17.248   7
   3  -1   2 768.633  15.898   2
   1   3   2 747.303  16.181   8
  -1   3  -2 773.130  15.206   9
   1  -3  -2 772.780  14.951   9
   1   3   2 740.426  15.674   2
  -2   3   2 16.2418  2.5300   2
  -2  -3  -2 9.36531 2.02517   9
  -2  -3  -2 13.4536  2.6375   4
   2  -3   2 17.2091  2.5622   2
  -2   3   2 15.1039  3.3661   7
  -3  -2   2 16.6239  2.5055   7
  -3  -2   2 11.1845  2.7699   3
   3   2   2 10.9667  2.2868   8
   2   3  -2 13.4132  2.3548   9
  -3   2  -2 12.3626  2.7124   4
   3   2   2 12.7808  2.3367   2
  -3  -2   2 9.12071 2.01826   8
   2   3  -2 12.5731  2.7299   4
  -3  -2   2 9.76079 2.31553   2
   3  -2  -2 12.2870  2.5862   4
  -3   2  -2 12.5488  2.0791   9
   3  -2  -2 13.6969  2.1957   9
  -3   2   2 6.71853 2.30625   2
  -2   3  -2 12.8098  2.1610   9
  -3   2   2 13.3942  3.7051   7
  -2  -3   2 14.7647  1.9735   8
  -2  -3   2 11.8777  2.4401   2
   3  -2   2 13.0438  2.5923   2
   3   2  -2 17.2073  2.3514   9
   2  -3  -2 10.3752  2.1138   9
   2   3   2 12.0821  2.4125   2
  -3  -2  -2 12.0431  2.5548   4
  -3  -2  -2 13.5027  2.0395   9
   3   2  -2 11.0203  2.6327   4
  -2  -3   2 14.4564  2.2590   7
   2   3   2 10.1023  2.3262   8
   2  -3  -2 10.7444  2.5379   4
  -3   3  -2 1297.10   26.08   9
   3   3   2 1401.95   27.02   2
  -3  -3   2 1341.95   25.54   8
  -3  -3   2 1345.85   27.59   3
  -3  -3   2 1365.02   26.16   7
  -3  -3  -2 1335.55   28.08   4
  -3   3   2 1388.55   26.95   2
   3   3   2 1388.65   26.40   8
  -3  -3  -2 1305.75   25.93   9
   3  -3  -2 1352.67   26.12   9
   3   3  -2 1329.05   26.28   9
   3  -3   2 1353.71   27.13   2
  -3  -3   2 1356.32   27.04   2
   3   3  -2 1362.97   28.21   4
   3  -3  -2 1358.90   28.09   4
  -4   0  -2 8220.66  161.53   4
   4   0   2 8919.58  157.19   2
  -4   0   2 8486.22  157.08   7
   4   0  -2 9057.81  161.80   4
   0  -4   2 8809.65  157.19   2
   4   0  -2 8545.96  154.46   9
   0   4   2 8983.78  155.31   7
   0   4  -2 8638.33  154.56   9
   0   4   2 8777.08  156.91   2
  -4   0   2 8728.54  157.02   2
   0  -4  -2 8586.86  154.23   9
  -4   0  -2 8617.74  154.30   9
  -1  -4  -2 123.922   5.350   4
  -1   4   2 126.903   4.957   2
   1   4  -2 120.494   4.690   9
   4   1   2 123.622   5.048   8
   4  -1  -2 121.241   5.294   4
  -4   1  -2 117.424   4.470   9
   4  -1  -2 123.609   4.525   9
   1  -4   2 112.541   4.912   2
  -1  -4  -2 120.671   4.350   9
  -4  -1   2 120.367   5.396   7
  -1   4   2 115.295   5.275   7
  -4  -1   2 109.494   4.754   2
  -4   1  -2 113.024   5.223   4
   4   1   2 124.036   4.948   2
   4   1  -2 116.129   5.075   4
   4   1  -2 125.033   4.650   9
  -1  -4   2 121.108   4.564   8
  -4   1   2 118.263   4.750   2
   1   4   2 115.471   3.889   7
   1   4   2 114.100   4.772   2
   4  -1   2 122.399   5.013   2
   1  -4  -2 119.843   4.485   9
  -4  -1  -2 114.070   5.170   4
  -4  -1  -2 128.362   4.515   9
  -4   1   2 105.726   6.332   7
  -1  -4   2 122.318   5.123   2
  -1   4  -2 112.332   4.553   9
   2  -4   2 6185.13  112.16   2
  -4  -2   2 6157.87  110.98   7
  -2  -4  -2 6019.14  115.25   4
   4  -2  -2 6161.98  109.85   9
  -2  -4  -2 6046.02  111.74   1
   4  -2  -2 6084.02  115.35   4
  -2   4   2 6254.87  112.36   7
  -2   4   2 6120.59  111.82   2
   4  -2  -2 5976.66  111.68   1
   2  -4   2 6114.40  109.25   9
  -4   2  -2 5926.64  115.35   4
   2   4  -2 6162.73  110.10   9
   4   2   2 6198.50  111.81   8
  -4   2  -2 6175.60  109.85   9
  -4   2  -2 6110.36  111.82   1
  -2  -4  -2 6049.84  109.70   9
  -4  -2   2 6232.45  111.91   2
  -4  -2   2 6029.91  110.41   3
  -4  -2   2 6200.54  109.08   9
   4   2   2 6188.71  111.90   2
   2  -4  -2 6087.73  109.84   9
   2   4   2 6168.20  115.25   6
   4   2  -2 6248.07  110.07   9
  -4  -2  -2 6085.93  115.33   4
  -4  -2  -2 6145.71  109.71   9
  -4   2   2 6204.22  111.93   2
  -4  -2  -2 6047.15  111.70   1
  -2  -4   2 6191.18  112.08   2
   2   4   2 6262.48  112.00   8
  -2  -4   2 6242.72  111.10   8
   4  -2   2 6214.66  112.09   2
  -2  -4   2 6285.74  109.97   7
   2  -4  -2 5998.75  111.67   1
  -2  -4   2 6223.84  109.25   9
  -2   4  -2 6020.02  109.91   9
   2   4   2 6034.29  111.76   2
   4   2  -2 6160.39  115.47   4
   4   2  -2 5965.74  111.70   1
  -3  -4  -2 236.593   7.677   1
   4   3   2 244.082   7.546   2
   3   4  -2 225.816   7.143   9
   4  -3  -2 231.177   7.521   1
  -4  -3   2 248.387   6.890   7
   3   4  -2 232.863   7.624   1
   3  -4   2 234.787   7.683   2
   3   4  -2 232.901   8.106   4
  -3  -4  -2 228.874   6.847   9
  -4   3  -2 232.361   7.724   1
  -4   3  -2 226.306   7.867   4
  -3   4   2 226.869   7.395   2
  -4   3  -2 230.021   6.886   9
   3   4  -2 237.294   7.775   2
  -4  -3   2 243.849   8.016   3
   4   3   2 247.180   8.397   6
  -4   3  -2 245.048   7.807   2
   4  -3  -2 228.930   7.975   4
  -3  -4  -2 248.671   8.154   4
  -4  -3   2 241.200   7.580   2
   4  -3  -2 235.154   6.989   9
  -4  -3  -2 226.672   7.652   1
  -3  -4   2 231.135   7.502   2
  -3  -4   2 239.713   5.678   8
  -4  -3  -2 235.855   6.970   9
   4  -3   2 236.202   7.633   2
   3   4   2 239.731   8.335   6
   3  -4  -2 228.642   6.960   9
  -3   4  -2 232.364   7.069   9
   3  -4  -2 242.347   7.596   1
   4   3  -2 239.005   7.778   2
  -3   4  -2 247.870   7.868   2
  -4  -3  -2 227.434   7.905   4
   4   3  -2 247.997   8.124   4
   4   3  -2 233.307   7.176   9
   3  -4  -2 235.758   7.969   4
  -4   3   2 225.027   7.425   2
  -3  -4   2 244.509   6.417   7
   4   3  -2 224.670   7.626   1
  -3   4  -2 220.856   7.541   1
   3   4   2 241.576   7.634   2
  -4  -4   2 1264.23   26.23   2
   4   4  -2 1217.99   26.16   1
   4   4  -2 1233.46   26.61   6
  -4   4  -2 1184.44   26.06   1
   4   4   2 1236.40   26.08   2
  -4  -4  -2 1241.47   27.24   4
  -4  -4   2 1257.60   24.55   9
  -4   4  -2 1240.20   26.29   2
   4   4  -2 1262.39   26.29   1
  -4   4   2 1223.25   25.96   2
   4  -4  -2 1268.98   26.43   2
   4   4  -2 1256.18   26.57   2
   4  -4   2 1270.34   26.36   2
   4  -4  -2 1196.44   26.03   1
  -4  -4   2 1259.88   24.38   7
   4   4   2 1246.60   24.46   8
   4   4   2 1191.28   27.24   6
   4   4  -2 1207.82   25.35   9
   4  -4  -2 1237.96   27.09   4
  -4   4  -2 1228.10   25.11   9
  -4  -4  -2 1240.43   25.08   9
   4  -4  -2 1271.19   25.32   9
   4   4   2 1281.84   24.24   9
   4   4  -2 1266.49   27.37   4
  -4   4   2 1243.29   24.17   9
  -4  -4  -2 1243.42   26.14   1
  -5   0   2 2.96447 3.20708   7
   0   5  -2 -2.9423  2.3250   1
   0   5   2 -0.3090  1.9680   7
   0   5  -2 -2.3167  2.3357   2
   5   0  -2 -1.0160  2.1158   9
   5   0   2 -4.8091  2.0313   2
   5   0  -2 -2.0372  2.3537   4
   0  -5   2 -0.5463  1.8764   9
   0   5   2 -0.5629  2.1374   2
  -5   0  -2 -1.6899  2.2979   1
   0   5  -2 -3.3377  2.0471   9
  -5   0  -2 -2.2838  1.9960   4
   0  -5  -2 -1.5279  1.9429   9
   5   0  -2 -0.0984  2.1114   2
   0  -5   2 -2.7176  2.1823   2
   5   0   2 0.30722 1.92800   9
  -5   0   2 -1.6062  1.7493   9
  -5   0  -2 -1.0662  1.9342   9
  -5   0   2 -3.7104  2.0416   2
   0  -5  -2 -0.0285  2.3191   1
   5   0  -2 0.51710 2.35188   1
  -5   0  -2 -7.3523  1.9766   2
  -5   1  -2 831.097  19.328   4
  -1  -5  -2 858.472  17.651   9
  -5  -1   2 855.573  18.452   2
   1  -5   2 846.394  18.624   2
   5  -1  -2 811.618  18.434   1
  -5   1  -2 856.415  18.612   1
   1   5  -2 808.237  17.835   9
   5  -1  -2 845.914  19.351   4
   5   1   2 850.221  16.982   9
   1   5  -2 838.342  18.811   2
   5   1   2 831.940  18.447   2
  -5   1  -2 845.049  17.636   9
   1   5  -2 803.895  18.505   1
  -1  -5  -2 836.345  18.596   1
  -1   5   2 849.634  18.491   2
  -5   1  -2 868.028  18.744   2
  -1   5   2 850.250  18.330   7
   1   5  -2 829.690  17.915   9
   5  -1  -2 866.622  18.773   2
  -5  -1   2 853.699  19.159   7
   5  -1  -2 837.895  17.804   9
   5   1  -2 827.168  18.503   1
   1   5   2 844.966  19.651   6
  -5  -1  -2 828.514  18.521   1
  -1   5  -2 817.487  18.780   2
  -1   5  -2 849.398  17.890   9
   1   5   2 843.220  16.587   7
  -5   1   2 855.982  18.463   2
  -5   1   2 866.388  16.983   9
  -5  -1  -2 849.287  18.702   2
  -1  -5   2 835.792  18.682   2
  -5  -1  -2 828.414  17.652   9
   5  -1   2 821.832  18.556   2
  -5  -1  -2 809.100  19.234   4
   5   1  -2 809.684  18.612   2
   5   1  -2 831.438  19.417   4
   5   1  -2 817.633  17.859   9
  -1  -5   2 851.164  17.293   9
  -1   5  -2 815.958  18.506   1
   1   5   2 859.152  18.448   2
   1  -5  -2 816.958  18.440   1
   5  -1   2 836.911  17.109   9
   1  -5  -2 844.944  17.703   9
  -2  -5  -2 56.9963  4.4534   4
   5   2   2 46.6272  4.0342   2
   2  -5   2 55.3467  3.5716   9
  -5   2  -2 56.2007  4.5418   4
   2   5  -2 48.8063  3.9215   9
   2   5  -2 53.4213  4.3378   1
  -2  -5  -2 55.6357  3.9100   9
  -5   2  -2 54.0268  4.2653   1
  -2  -5  -2 55.3859  4.2975   2
  -5   2  -2 53.2670  4.2772   2
  -5  -2   2 56.5752  4.1867   2
  -5  -2   2 61.9269  3.3607   9
   5  -2  -2 51.8819  3.8522   9
   2  -5   2 52.5107  4.3662   2
   5   2   2 59.9062  3.4581   9
  -2   5   2 55.3079  5.1568   7
  -5  -2   2 53.2036  4.0098   7
  -2   5   2 62.8907  4.1964   2
  -5  -2   2 55.1366  4.1097   3
  -5   2  -2 52.3664  3.7311   9
   5  -2  -2 56.7611  4.4821   4
   5   2   2 59.5176  4.8681   6
   5   2   2 57.6059  3.7257   8
  -2  -5  -2 60.0471  4.3680   1
   2   5  -2 52.5006  4.3242   2
   5  -2  -2 59.3416  4.3475   2
   5  -2  -2 47.7455  4.1172   1
  -5  -2  -2 52.0745  3.6428   9
   5   2  -2 59.5481  4.4152   4
  -2   5  -2 59.8044  4.5494   2
  -2  -5   2 59.7355  4.3224   2
  -5  -2  -2 53.5032  4.2026   1
   2  -5  -2 55.8526  4.2440   1
   5   2  -2 54.4423  4.3840   2
  -5   2   2 53.0398  4.2251   2
  -2  -5   2 49.9981  3.4037   9
   5   2  -2 60.8387  4.0362   9
   5  -2   2 56.4962  3.5196   9
  -5  -2  -2 57.4756  4.3182   2
   5  -2   2 51.0505  4.2057   2
  -2  -5   2 58.0015  4.3031   2
  -2   5  -2 57.6288  3.9446   9
  -5  -2  -2 54.1236  4.0563   4
   2   5   2 52.3093  4.0900   2
   2   5   2 51.6784  4.6818   6
   5   2  -2 59.6555  4.2650   1
   2  -5  -2 47.7613  3.7411   9
  -2  -5   2 57.8722  3.2516   8
  -2   5  -2 49.1949  4.1570   1
   2  -5  -2 64.8941  4.4934   2
   5  -3  -2 911.253  19.698   9
   3   5  -2 887.896  20.570   2
   5   3   2 938.538  21.596   6
   5   3   2 946.015  18.843   9
   5   3   2 938.455  19.031   8
  -3  -5  -2 925.456  20.719   2
  -5  -3   2 932.535  19.622   7
   5   3   2 903.810  20.377   2
  -5  -3   2 937.019  18.905   9
  -5  -3   2 921.003  20.466   3
   3  -5   2 923.419  20.688   2
  -3  -5  -2 929.214  19.562   9
  -5   3  -2 904.984  20.590   1
   3   5  -2 898.934  19.843   9
   5  -3  -2 923.419  20.597   1
   5  -3  -2 931.259  21.435   4
  -5   3  -2 918.987  21.632   4
   5  -3  -2 925.375  20.756   2
   3   5  -2 921.882  20.755   6
  -3  -5  -2 924.078  21.569   4
   3   5  -2 904.091  20.553   1
  -3   5   2 886.151  20.359   2
  -5   3  -2 919.509  19.660   9
  -5  -3   2 881.658  20.344   2
  -3  -5  -2 928.592  20.551   1
  -5  -3  -2 920.506  19.559   9
   5   3  -2 912.183  19.815   9
   3   5   2 896.708  20.404   2
  -3  -5   2 918.050  18.629   5
  -5  -3  -2 888.097  20.467   1
  -3   5  -2 932.700  20.739   1
   5   3  -2 936.440  20.905   2
   3  -5  -2 936.998  20.775   2
  -3   5  -2 914.482  19.716   9
   5   3  -2 940.100  21.661   4
  -3  -5   2 953.022  18.427   7
  -5   3   2 913.657  20.423   2
  -3  -5   2 946.238  19.123   9
  -5   3   2 918.300  18.658   9
  -3  -5   2 912.756  20.542   2
  -5  -3  -2 936.428  21.442   4
   5   3  -2 914.644  20.513   1
   3  -5  -2 909.298  20.500   1
   5   3  -2 904.832  20.962   6
   5  -3   2 919.041  19.078   9
  -3  -5   2 926.834  17.928   8
   3  -5  -2 899.013  21.395   4
  -5  -3  -2 940.672  20.834   2
   3   5   2 886.253  18.677   9
   3   5   2 912.413  21.608   6
  -3   5  -2 916.961  20.709   2
   3  -5  -2 914.163  19.688   9
   5  -3   2 919.447  20.669   2
  -5  -4   2 298.209   7.965   7
   5   4   2 284.509   9.965   6
   5   4   2 301.784   9.522   2
  -4  -5  -2 292.421   9.368   1
   4   5  -2 312.560   9.631   1
   4  -5   2 273.154   8.114   9
   5   4   2 285.740   7.914   9
   4   5  -2 290.933   9.684   2
  -4   5   2 276.845   9.075   2
   4   5  -2 290.408   8.876   9
  -5   4  -2 279.011   9.427   1
   4   5  -2 288.051   9.339   6
  -5  -4   2 292.823   9.412   2
  -4  -5  -2 269.329   8.493   9
   5  -4  -2 295.813   8.811   9
  -4   5   2 289.149   7.794   9
  -5  -4   2 298.881   8.114   9
  -5   4  -2 294.523   8.661   9
   5  -4  -2 277.851   9.290   1
   5  -4  -2 269.484   9.406   2
  -5   4  -2 285.140   9.486   2
  -4  -5  -2 282.724   9.930   4
   5  -4  -2 284.236   9.702   4
   4  -5   2 290.449   9.513   2
   4   5   2 286.029   9.216   2
  -4  -5   2 287.957   7.341   7
   4  -5  -2 301.025   9.614   2
  -4  -5   2 279.975   9.302   2
  -5  -4  -2 263.235   9.686   4
   4  -5  -2 283.413   9.371   1
   4  -5  -2 292.979   8.774   9
   5   4  -2 305.079   9.517   1
  -5   4   2 289.748   9.231   2
  -4   5  -2 285.081   8.724   9
   5   4  -2 278.956   9.512   2
   5  -4   2 278.799   9.345   2
  -4   5  -2 281.620   9.475   1
   4   5   2 292.506   9.953   6
  -5  -4  -2 296.373   9.540   2
  -5  -4  -2 287.943   8.551   9
   5   4  -2 281.657   9.496   6
   5   4  -2 297.945   9.007   9
   4   5   2 282.687   7.905   9
  -5  -4  -2 268.283   9.338   1
  -4   5  -2 286.940   9.376   2
  -5   4   2 288.241   7.905   9
   4  -5  -2 294.610   9.772   4
  -5  -5   2 427.324  12.410   2
  -5  -5  -2 446.561  13.179   4
  -5   5  -2 434.764  12.660   1
  -5   5  -2 423.198  12.697   2
   5  -5   2 431.307  11.129   9
   5  -5  -2 405.810  12.353   1
   5  -5   2 418.542  12.526   2
   5   5  -2 419.601  11.716   9
  -5  -5   2 431.190  10.146   7
  -5  -5   2 443.443  11.118   9
   5   5   2 455.578  11.027   9
   5   5   2 428.318  12.392   2
  -5   5   2 428.673  10.719   9
   5  -5  -2 420.811  11.725   9
   5  -5  -2 429.677  12.680   2
  -5  -5  -2 448.408  12.773   2
   5   5  -2 448.098  12.868   2
  -5  -5  -2 429.310  11.586   9
   5   5  -2 438.319  12.490   1
  -5   5  -2 437.090  11.824   9
   5   5  -2 427.372  12.744   6
  -5  -5  -2 392.225  12.214   1
  -5   5   2 427.049  12.223   2
   5   5   2 416.325  13.149   6
  -5   5   2 416.762  10.637   9
   0  -6  -2 3670.38   69.18   2
  -6   0  -2 3520.65   71.26   4
   0   6  -2 3647.56   67.61   9
   0   6   2 3621.64   66.85   7
   0   6  -2 3687.28   69.44   2
   0   6   2 3738.63   66.33   9
  -6   0   2 3615.11   70.30   7
   0  -6  -2 3515.95   68.87   1
  -6   0   2 3682.32   66.49   9
  -6   0  -2 3564.21   67.17   9
   6   0   2 3710.80   69.08   2
   6   0  -2 3642.80   69.30   2
   6   0   2 3697.46   66.66   9
   0   6  -2 3556.21   68.93   1
   6   0  -2 3644.60   71.29   4
  -6   0  -2 3748.39   69.30   2
   0   6   2 3633.62   68.80   2
   6   0  -2 3626.28   67.47   9
   0  -6  -2 3567.09   67.28   9
   0  -6   2 3686.37   69.20   2
  -6   0  -2 3559.26   68.95   1
   6   0  -2 3608.46   68.88   1
  -6   0   2 3778.62   69.01   2
   1  -6   2 10.4229  2.6375   9
   6  -1  -2 10.6337  3.0918   1
  -6  -1   2 10.9751  2.4907   3
  -1   6   2 16.8122  3.1858   7
   6  -1  -2 8.37013 3.17096   2
  -6   1  -2 13.7219  2.6939   9
  -1  -6  -2 16.5155  3.3532   2
   6   1   2 10.8214  3.0122   2
   6  -1  -2 10.8137  2.8099   9
  -6  -1   2 8.57309 3.33929   7
   1   6  -2 14.9105  3.1020   6
  -1  -6  -2 13.9317  3.2823   1
  -6   1  -2 10.2394  3.1046   1
  -6  -1   2 11.8732  2.4566   9
   1  -6   2 15.3201  3.3465   2
  -1   6   2 7.78158 2.28386   9
  -6  -1   2 14.8105  3.1018   2
   1   6  -2 7.78228 2.93239   2
  -6   1  -2 13.6518  3.3672   4
  -1   6   2 19.3824  3.3120   2
   1   6  -2 15.6593  3.0134   9
   6  -1  -2 13.9252  3.0949   4
  -6   1  -2 9.24251 3.11450   2
   1   6  -2 9.27489 3.13819   1
  -1  -6  -2 13.7608  2.8898   9
   6   1   2 13.6854  2.6207   9
  -6  -1  -2 17.1219  3.5012   4
   6   1  -2 11.9267  3.1398   1
  -6  -1  -2 8.53811 2.62928   9
   1  -6  -2 17.5158  3.2966   1
  -6  -1  -2 17.0241  3.3459   1
   1  -6  -2 6.93713 2.76289   2
  -1  -6   2 12.9556  2.6322   9
   1   6   2 12.3568  2.0512   7
  -6  -1  -2 14.4834  3.2347   2
  -1   6  -2 10.3346  3.2155   2
   6   1  -2 9.88706 2.97468   4
  -1   6  -2 10.9061  3.1453   1
  -6   1   2 16.8905  3.2063   2
   1   6   2 14.7622  2.5475   9
   1  -6  -2 9.33948 2.74830   9
   6  -1   2 11.4085  3.0538   2
   6   1  -2 9.45774 2.86006   9
  -6   1   2 10.9823  2.3833   9
   6   1  -2 12.1471  3.0465   2
  -1  -6   2 13.7350  3.1581   2
   1   6   2 12.2544  2.9606   2
   1   6   2 15.9947  3.2640   6
   6  -1   2 10.7501  2.6221   9
  -1   6  -2 11.1029  2.8139   9
  -2  -6  -2 4612.71   85.98   9
   6   2   2 4828.46   87.19   8
  -2  -6  -2 4643.33   87.86   1
  -2   6   2 4649.08   88.02   7
   6  -2  -2 4556.39   87.75   1
  -2  -6  -2 4905.92   88.32   2
   6  -2  -2 4654.19   86.13   9
  -6   2  -2 4696.74   88.15   2
  -6   2  -2 4726.85   86.04   9
   6   2   2 4605.51   87.82   2
   2   6  -2 4712.92   87.94   1
  -6  -2   2 4748.04   85.89   3
   6   2   2 4648.90   90.56   6
  -6  -2   2 4667.58   87.26   7
  -6  -2   2 4690.29   85.18   9
  -2   6   2 4734.81   87.90   2
   2   6  -2 4786.50   88.57   2
   2   6  -2 4711.07   89.48   6
  -2  -6  -2 4697.78   90.95   4
  -6   2  -2 4821.86   91.08   4
   6  -2  -2 4733.90   88.24   2
   6  -2  -2 4723.98   90.97   4
  -2   6   2 4646.63   84.90   9
   2  -6   2 4675.83   85.43   9
   2   6  -2 4660.24   86.37   9
   6   2   2 4674.98   85.19   9
  -6   2  -2 4735.05   87.99   1
   2  -6   2 4797.04   88.29   2
  -6  -2   2 4553.86   87.73   2
  -6  -2  -2 4768.54   87.93   1
  -2  -6   2 4750.14   86.35   8
  -6  -2  -2 4746.61   88.21   2
   2  -6  -2 4664.77   86.04   9
   2   6   2 4663.97   84.95   9
   2   6   2 4614.91   90.67   6
   6   2  -2 4763.51   88.38   2
  -2   6  -2 4723.61   87.95   1
   6   2  -2 4681.66   90.90   4
   6   2  -2 4704.78   87.78   1
  -2   6  -2 4697.26   88.44   2
  -6   2   2 4568.18   87.77   2
   2  -6  -2 4628.49   87.76   1
  -2   6  -2 4641.20   86.23   9
  -6   2   2 4774.31   85.11   9
  -2  -6   2 4697.28   88.03   2
   2   6   2 4626.40   87.96   2
   2  -6  -2 4657.12   88.17   2
  -6  -2  -2 4562.09   90.74   4
  -2  -6   2 4687.36   88.10   2
   6   2  -2 4748.34   86.32   9
   6  -2   2 4727.22   88.13   2
  -6  -2  -2 4799.12   86.09   9
   3  -6   2 776.111  17.079   9
   6  -3  -2 806.509  19.591   4
   3  -6   2 780.764  18.726   2
   6  -3  -2 761.659  18.507   1
  -6  -3   2 796.886  18.604   2
  -6   3  -2 787.172  19.533   4
   6  -3  -2 786.103  18.785   2
   3   6  -2 776.059  18.912   2
   3   6  -2 783.605  17.878   9
   6   3   2 777.181  16.884   9
  -3  -6  -2 745.744  18.521   1
   6  -3  -2 796.904  17.832   9
   6   3   2 766.342  18.516   2
  -3   6   2 763.593  16.537   9
  -6  -3   2 769.514  17.630   7
   6   3   2 773.042  19.456   6
   3   6  -2 757.643  18.603   1
   3   6  -2 765.538  18.520   6
  -6  -3   2 769.433  18.068   3
   6   3   2 806.959  16.837   8
  -6  -3   2 780.384  16.894   9
  -6   3  -2 766.440  17.632   9
  -3  -6  -2 758.569  17.473   9
  -3  -6  -2 800.452  18.880   2
  -3  -6  -2 742.665  19.354   4
  -3   6   2 803.768  18.504   2
  -6   3  -2 786.084  18.746   1
   6   3  -2 744.716  18.437   1
   3  -6  -2 759.971  18.548   1
   3  -6  -2 751.342  19.366   4
   3  -6  -2 785.312  17.721   9
  -3  -6   2 765.968  18.626   2
  -3  -6   2 789.886  17.187   9
   6  -3   2 757.103  18.635   2
   3  -6  -2 797.692  18.884   2
   6   3  -2 769.671  17.856   9
  -3   6  -2 782.332  18.692   1
  -6   3   2 758.599  18.399   2
  -6   3   2 798.031  16.798   9
  -6  -3  -2 796.489  18.800   2
  -3   6  -2 766.965  17.718   9
  -6  -3  -2 768.997  17.520   9
   6   3  -2 790.194  18.940   2
  -3   6  -2 781.222  18.957   2
  -6  -3  -2 758.575  19.285   4
   3   6   2 787.195  18.494   2
   3   6   2 722.925  19.351   6
   3   6   2 772.760  16.734   9
  -6  -3  -2 763.101  18.537   1
  -4  -6  -2 2581.82   51.62   2
   6   4   2 2485.85   52.99   6
  -6   4  -2 2633.28   49.93   9
  -4  -6  -2 2641.00   51.58   2
  -6  -4   2 2600.76   49.17   7
   4   6  -2 2630.31   50.23   9
   4   6  -2 2599.01   51.48   1
  -6  -4   2 2535.45   50.78   3
   6   4   2 2634.52   51.34   2
  -4  -6  -2 2512.74   53.29   4
  -6   4  -2 2591.45   51.66   2
   4  -6   2 2673.67   51.74   2
  -6  -4   2 2579.62   51.31   2
  -4  -6  -2 2624.86   49.89   9
   6   4   2 2543.71   48.87   9
   4  -6   2 2569.38   49.20   9
  -6   4  -2 2561.33   51.37   1
  -4  -6  -2 2520.32   51.23   1
   4   6  -2 2562.01   51.86   2
   6  -4  -2 2639.70   51.76   2
   4   6  -2 2616.91   52.30   6
   6  -4  -2 2626.99   50.04   9
   6  -4  -2 2628.74   51.35   1
  -4   6   2 2606.92   51.29   2
  -6   4   2 2642.84   51.33   2
   6   4  -2 2565.00   51.64   2
  -4   6  -2 2588.21   51.49   1
   4   6   2 2570.96   53.20   6
   6  -4   2 2595.09   51.60   2
   6   4  -2 2602.82   52.75   6
  -4   6  -2 2647.40   50.11   9
   4  -6  -2 2561.61   49.96   9
   4  -6  -2 2508.08   51.25   1
   6  -4   2 2582.34   49.18   9
  -6  -4  -2 2617.78   51.62   2
  -4  -6   2 2590.32   51.41   2
  -6   4   2 2567.98   48.76   9
  -6  -4  -2 2550.43   49.81   9
  -4  -6   2 2584.12   49.12   9
   6   4  -2 2635.12   50.20   9
   4   6   2 2626.52   51.37   2
  -4   6  -2 2567.73   51.74   2
   6   4  -2 2596.64   51.38   1
   4  -6  -2 2631.18   51.68   2
  -6  -4  -2 2576.15   53.25   4
  -6  -4  -2 2599.04   51.33   1
  -6   5  -2 49.2331  5.1314   1
   6  -5  -2 52.9237  5.3438   2
  -5  -6  -2 40.4008  4.2854   9
   5   6  -2 49.3551  5.2195   1
   5  -6   2 52.3265  5.1598   2
   5   6  -2 49.9780  4.6664   9
   6   5   2 48.5514  5.4492   6
  -6   5  -2 47.4225  4.5387   9
   6   5   2 49.9359  5.0706   2
   5   6  -2 59.7733  5.6127   2
   5   6  -2 50.6216  5.1797   6
   5  -6   2 53.6595  4.4058   9
  -6  -5   2 50.8517  5.1681   2
  -6   5  -2 38.0555  4.8765   2
  -5  -6  -2 46.7218  5.1304   1
   6  -5  -2 47.7771  5.1203   1
  -6  -5   2 44.5018  4.1263   9
   6  -5  -2 55.1008  4.6940   9
  -5  -6  -2 38.5266  4.9481   2
  -5   6   2 51.5808  5.0663   2
   5   6   2 52.8599  5.0378   2
  -5  -6   2 51.3279  4.1851   9
   6   5  -2 52.8116  5.1683   2
   6   5  -2 50.9074  5.1084   1
  -5   6  -2 49.7964  4.5703   9
   5  -6  -2 56.7385  4.6752   9
  -6   5   2 44.6496  4.8417   2
   5  -6  -2 50.7210  5.1317   2
   5  -6  -2 58.3382  5.3994   1
  -5   6  -2 57.4439  5.5446   2
   6   5  -2 53.9223  5.3972   6
   6  -5   2 46.8224  4.3194   9
   5   6   2 55.7949  5.6429   6
  -5   6  -2 46.3931  5.0707   1
  -5  -6   2 51.1041  5.1453   2
   6   5  -2 47.8490  4.6224   9
   6   5  -2 51.6078  5.1398   1
  -6  -5  -2 47.6734  5.0660   1
  -6  -5  -2 50.7276  4.3978   9
   6  -5   2 47.8961  5.0478   2
  -6  -5  -2 48.5038  5.1364   2
  -6  -6   2 5271.46  101.11   2
  -6   6  -2 5457.24  101.71   2
   6   6   2 5202.83  104.12   6
   6   6   2 5403.30  101.17   2
  -6   6  -2 5374.86   98.82   9
   6  -6  -2 5365.15   98.98   9
  -6   6  -2 5343.19  101.23   1
   6  -6   2 5516.37  101.47   2
   6   6  -2 5296.38  100.88   1
  -6  -6  -2 5226.02  100.90   1
   6   6  -2 5485.28  101.82   2
   6  -6   2 5319.69   97.95   9
   6   6  -2 5280.26   99.08   9
   6  -6  -2 5219.32  100.96   1
   6   6  -2 5267.41  103.35   6
  -6  -6  -2 5199.66   98.54   9
  -6   6   2 5319.95  101.05   2
  -6  -6   2 5459.87   97.85   9
  -7   0   2 -3.5930  2.1613   9
  -7   0  -2 -3.3693  2.6602   2
   0   7   2 -0.4664  2.5757   2
   7   0   2 1.72564 2.78882   2
   7   0  -2 3.27367 2.99613   2
   0   7  -2 1.17784 2.60833   9
   0   7  -2 -5.2386  2.3836   9
   0   7  -2 -0.9301  2.9147   2
   7   0  -2 -5.0162  2.7382   1
   0   7   2 1.74696 2.16894   7
   0   7  -2 2.31716 2.89757   1
  -7   0  -2 1.29763 2.43590   9
   7   0   2 -2.1113  2.1957   9
   0  -7  -2 -6.8088  2.2530   9
   0  -7  -2 -3.8610  2.6950   1
  -7   0   2 -0.8923  2.6085   2
  -7   0  -2 -6.4442  2.5700   4
   0  -7   2 -2.2061  2.4007   9
  -7   0   2 0.93203 1.92018   3
   0  -7  -2 -1.9841  2.5430   2
   0  -7   2 -2.3253  2.6818   2
  -7   0  -2 -5.4422  2.6282   1
   7   0  -2 -2.8060  2.3282   9
  -7  -1   2 756.824  16.357   9
   7   1   2 736.194  18.043   2
   1   7  -2 727.369  17.346   9
   1   7  -2 745.375  18.175   1
   1  -7   2 753.964  16.661   9
  -7   1  -2 730.089  18.065   1
  -1  -7  -2 713.753  17.946   1
   7  -1  -2 726.579  17.979   1
   7   1   2 747.097  16.468   9
  -7   1  -2 735.628  18.907   4
  -1   7   2 757.696  17.234   7
  -1  -7  -2 720.935  18.187   2
   1  -7   2 750.886  18.318   2
  -7   1  -2 752.399  17.111   9
  -7  -1   2 734.635  17.932   2
   7  -1  -2 725.058  18.077   2
   7  -1  -2 716.485  17.135   9
  -1  -7  -2 739.613  17.087   9
  -1   7   2 712.199  17.953   2
  -7  -1   2 710.792  18.590   7
   1   7  -2 736.878  18.384   2
  -1  -7  -2 716.657  18.870   4
   7   1  -2 722.939  17.921   1
  -7  -1  -2 682.221  18.653   4
  -7  -1  -2 702.166  17.992   1
  -1  -7   2 733.101  16.440   9
   7   1  -2 733.826  17.338   9
  -1   7  -2 746.506  18.501   2
   1  -7  -2 735.096  18.179   2
  -7   1   2 723.801  17.748   2
   7   1  -2 754.915  18.357   2
   7  -1   2 723.505  18.098   2
   7  -1   2 771.602  16.587   9
  -7  -1  -2 776.218  18.521   2
   1   7   2 737.904  17.853   2
  -1   7  -2 725.333  18.123   1
  -7  -1  -2 738.020  17.056   9
  -1   7  -2 742.740  17.248   9
   1  -7  -2 713.308  17.029   9
  -1  -7   2 746.175  18.234   2
   1  -7  -2 705.904  17.907   1
  -7   1   2 749.842  16.209   9
  -2  -7  -2 265.431   8.782   9
  -7  -2   2 262.903   9.408   7
   7   2   2 264.042  10.046   6
   7  -2  -2 285.059   9.098   9
   7   2   2 274.678   8.327   9
  -2  -7  -2 266.333  10.002   4
  -7   2  -2 266.307   8.733   9
  -2  -7  -2 273.637   9.518   2
   2   7  -2 265.631   9.229   6
   7  -2  -2 273.284   9.559   1
   2   7  -2 270.480   8.911   9
  -2   7   2 264.447   9.360   2
  -7   2  -2 281.552   9.772   2
  -7  -2   2 287.669   8.193   9
   7   2   2 280.682   9.551   2
  -7  -2   2 276.866   8.486   3
  -7  -2   2 264.605   9.306   2
  -2   7   2 283.372   9.996   7
  -2  -7  -2 264.279   9.668   1
   7   2   2 267.690   8.479   8
   2  -7   2 265.971   9.599   2
   2   7  -2 258.425   9.716   2
   2  -7   2 262.845   8.329   9
   7  -2  -2 284.575   9.831   2
  -7   2  -2 281.812   9.721   1
   2   7  -2 262.962   9.493   1
  -7  -2  -2 261.531   9.503   1
  -7   2   2 262.077   9.263   2
  -7  -2  -2 277.056   9.593   2
  -2   7  -2 283.812   9.752   1
  -2  -7   2 287.108   9.752   2
   2  -7  -2 262.963   9.729   2
   2  -7  -2 261.931   8.807   9
   7   2  -2 270.620   9.089   9
   2  -7  -2 261.937   9.487   1
   7   2  -2 276.297   9.582   1
  -2   7  -2 264.479   8.892   9
  -2   7  -2 269.416   9.856   2
   7   2  -2 262.501   9.498   2
  -7  -2  -2 267.863   8.774   9
   7  -2   2 267.814   9.586   2
   7  -2   2 279.828   8.480   9
  -2  -7   2 263.059   9.478   2
  -7  -2  -2 272.939   9.867   4
  -2  -7   2 268.815   8.309   9
   2   7   2 257.876  10.176   6
  -7   2   2 286.291   8.169   9
   2   7   2 266.108   9.545   2
   3  -7   2 402.502  12.406   2
  -7  -3   2 387.818  12.081   2
   3   7  -2 373.568  12.096   1
  -7  -3   2 416.781  11.620   7
   7  -3  -2 411.935  12.431   2
  -3  -7  -2 395.332  12.219   2
  -7  -3   2 404.722  10.802   9
  -3   7   2 402.545  12.248   2
  -7   3  -2 395.313  12.320   1
   7  -3  -2 388.376  12.177   1
   3   7  -2 393.357  11.461   9
   7  -3  -2 405.874  11.601   9
   7   3   2 391.527  10.260   8
  -7  -3   2 414.870  11.484   3
  -7   3  -2 403.251  12.290   2
   7   3   2 404.100  13.018   6
   3   7  -2 420.583  12.312   6
   3  -7   2 413.664  10.946   9
  -3  -7  -2 391.160  11.375   9
   7   3   2 396.441  12.245   2
  -7   3  -2 402.480  11.288   9
  -3  -7  -2 391.559  12.363   1
   3   7  -2 407.429  12.641   2
  -3  -7   2 395.873  12.195   2
  -3   7  -2 423.404  12.564   1
   7   3  -2 409.612  12.297   1
  -7   3   2 390.681  12.005   2
   3  -7  -2 398.432  12.330   1
  -7  -3  -2 399.623  12.300   1
  -7  -3  -2 412.149  12.507   2
   7  -3   2 390.165  10.884   9
   3  -7  -2 410.242  11.613   9
   7  -3   2 401.268  12.338   2
  -3   7  -2 411.162  12.485   2
  -3   7  -2 401.982  11.542   9
  -7  -3  -2 399.243  11.381   9
  -3  -7   2 433.477  11.010   9
   3  -7  -2 413.960  12.625   2
   7   3  -2 422.708  11.776   9
   3   7   2 403.152  12.209   2
   3   7   2 376.465  12.619   6
   7   3  -2 394.367  12.338   2
  -3  -7   2 406.236  12.259   2
  -4  -7  -2 19.8367  4.2493   2
   4   7  -2 17.7665  3.8479   6
  -4   7   2 22.9667  4.1172   2
   7  -4  -2 10.1232  3.7100   1
  -7   4  -2 19.7814  4.1252   1
  -7  -4   2 25.6758  3.4911   7
   4  -7   2 22.2826  3.4666   9
   4  -7   2 17.7998  3.9873   2
  -4  -7  -2 20.6610  3.6540   9
  -7   4  -2 24.5032  3.7967   9
   4   7  -2 16.4859  3.8779   2
  -7  -4   2 21.3994  3.3764   9
   7   4   2 24.8524  4.5641   6
  -4  -7  -2 25.1002  4.3093   2
  -7  -4   2 26.1502  4.3654   2
  -7  -4   2 26.3080  4.1904   3
   7  -4  -2 12.9107  3.5133   9
  -7   4  -2 25.1964  4.3413   2
   4   7  -2 19.8137  4.1620   1
   7  -4  -2 20.6346  4.2338   2
   7   4   2 21.8978  4.0377   2
  -4  -7  -2 25.6246  4.4767   1
   4   7  -2 17.8332  3.5439   9
  -4   7  -2 14.0670  3.5422   9
   4  -7  -2 19.8479  3.6620   9
   4  -7  -2 24.8251  4.3865   1
  -7  -4  -2 18.5484  3.6464   9
   4   7   2 15.6374  3.7838   2
  -4   7  -2 21.1336  4.3816   2
   4  -7  -2 22.5814  4.1170   2
  -4   7  -2 23.6292  4.2908   1
   7   4  -2 16.5334  4.0479   1
   7   4  -2 26.0153  3.9166   9
  -4  -7   2 21.4980  3.5254   9
   7  -4   2 20.1156  3.4940   9
   4   7   2 18.4287  4.3129   6
  -7  -4  -2 19.9226  4.1779   1
   7   4  -2 27.5536  4.5129   6
  -7   4   2 9.63300 3.51771   2
  -4  -7   2 28.3466  4.4165   2
  -7  -4  -2 18.4962  3.9386   2
   7   4  -2 21.1191  3.9642   2
   7  -4   2 23.9485  4.1678   2
   5  -7   2 459.732  12.470   9
   5   7  -2 440.551  13.214   9
  -7  -5   2 454.155  13.953   2
   7  -5  -2 452.009  13.099   9
   7   5   2 472.386  14.051   2
  -5  -7  -2 462.815  13.121   9
  -7   5  -2 468.107  13.214   9
  -5  -7  -2 473.242  14.260   1
   7   5   2 438.126  14.686   6
  -7   5  -2 463.980  14.326   2
   5   7  -2 465.896  14.253   1
   5   7  -2 472.643  14.201   6
  -7   5  -2 475.602  14.360   1
   5   7  -2 444.951  14.167   2
  -5   7   2 445.056  13.791   2
  -7  -5   2 443.815  13.972   3
   5  -7   2 456.572  14.154   2
   7  -5  -2 492.762  14.432   1
  -7  -5  -2 460.250  12.902   9
   5  -7  -2 441.882  13.125   9
   7   5  -2 457.760  13.336   9
  -7  -5  -2 469.223  14.162   1
  -5   7  -2 469.038  13.195   9
   7   5  -2 461.268  14.141   1
  -5   7  -2 468.463  14.244   2
   5   7   2 462.143  14.928   6
  -7   5   2 462.818  13.892   2
  -5  -7   2 456.629  13.981   2
   7   5  -2 457.020  14.421   2
   7  -5   2 491.199  14.478   2
  -5   7  -2 460.459  14.184   1
   7   5  -2 462.132  14.201   1
  -5  -7   2 468.637  12.511   9
   5   7   2 454.335  13.942   2
   7   5  -2 433.229  14.239   6
   5  -7  -2 463.125  14.107   1
   7   6   2 2.08240 3.96743   6
   6   7  -2 4.70528 3.59510   2
  -7   6  -2 -0.2827  3.0550   9
   7  -6  -2 0.37076 3.28554   9
   7   6   2 -0.7098  3.4239   2
  -6  -7  -2 6.04507 4.01029   1
  -6  -7  -2 -1.2681  3.1852   9
  -7   6  -2 0.67390 3.68172   2
   6  -7   2 -1.2965  3.6257   2
   7  -6  -2 -2.2766  3.4940   1
   6   7  -2 -1.2454  3.4909   6
   6   7  -2 -0.0444  3.5857   1
  -6   7   2 1.68405 3.35428   2
  -7   6  -2 2.48909 3.80045   1
  -7  -6   2 2.11846 3.52770   2
   6   7  -2 -2.6415  2.9731   9
  -7   6   2 2.12688 3.52281   2
   6   7   2 0.52564 3.41324   2
   7   6  -2 3.94603 3.38380   9
   6   7   2 -0.9201  3.6881   6
   7   6  -2 3.87496 3.93525   1
  -6  -7   2 3.60647 3.69977   2
  -6   7  -2 -1.2568  3.5391   1
  -6   7  -2 -3.4869  3.5914   2
   7   6  -2 4.91360 4.04400   2
   7   6  -2 9.23898 4.00324   6
  -7  -6  -2 -1.0198  2.9394   9
  -7  -6  -2 -6.0220  3.2912   1
   7  -6   2 1.15484 3.70676   2
   6  -7  -2 0.06456 3.08907   9
  -6   7  -2 1.35366 3.43844   9
   6  -7  -2 1.50799 3.63195   1
  -7   7  -2 1489.73   33.35   1
  -7  -7   2 1446.45   32.94   2
   7   7  -2 1430.19   33.44   2
  -7   7   2 1476.52   32.96   2
   7   7   2 1420.75   32.95   2
   7   7  -2 1423.38   33.00   1
  -7  -7  -2 1406.64   31.33   9
   7  -7  -2 1387.44   31.39   9
   7  -7  -2 1427.32   33.01   1
   7  -7   2 1463.33   33.27   2
  -7   7  -2 1486.28   33.61   2
  -7   7  -2 1428.19   31.48   9
   7   7   2 1421.09   34.38   6
  -7  -7  -2 1479.36   33.44   1
   7   7  -2 1395.76   31.59   9
   7   7  -2 1418.85   33.67   6
   0  -8   2 1621.71   34.73   2
   0  -8   2 1621.02   32.68   9
   0   8  -2 1630.61   33.54   9
  -8   0  -2 1623.24   34.61   1
  -8   0   2 1620.19   34.46   2
  -8   0  -2 1593.90   33.14   9
   0  -8  -2 1605.25   34.60   1
   0  -8  -2 1629.77   33.22   9
   8   0   2 1642.18   34.66   2
   0   8  -2 1596.79   34.93   2
   8   0  -2 1574.92   34.80   2
   8   0  -2 1621.03   33.47   9
   0   8  -2 1602.59   34.64   1
   0  -8  -2 1618.40   34.85   2
  -8   0  -2 1632.65   34.76   2
   0   8   2 1621.89   34.43   2
   8   0  -2 1593.22   34.48   1
  -8  -1   2 91.8570  6.7829   7
  -8   1  -2 90.3708  6.2872   2
   1   8  -2 85.2028  6.2983   1
  -1  -8  -2 83.3909  5.6069   9
  -1  -8  -2 83.2532  6.2399   1
   1  -8   2 90.2957  6.3289   2
   8   1   2 77.7325  5.9059   2
  -1   8   2 102.250   6.286   2
   1  -8   2 80.8079  5.2533   9
   8  -1  -2 95.7798  6.3065   1
  -8  -1   2 84.5528  5.9270   2
  -8   1  -2 91.8754  5.5862   9
   1   8  -2 86.7925  6.4048   2
  -8   1  -2 100.023   6.492   1
   8  -1  -2 95.9221  6.4187   2
   1   8  -2 83.4106  5.4849   9
   8  -1  -2 96.6576  5.8239   9
   8   1  -2 88.4832  5.7600   9
   1   8   2 82.2460  5.7997   2
   8   1  -2 90.6199  6.2410   1
  -8  -1  -2 97.8003  6.3473   1
  -1  -8   2 97.7915  5.2080   9
   1  -8  -2 77.0190  5.2108   9
  -8   1   2 94.2791  6.0413   2
  -8  -1  -2 88.8509  5.4862   9
  -1   8  -2 83.9225  6.1715   1
   1  -8  -2 83.4781  6.4217   1
   8   1  -2 84.0381  6.3434   2
  -1   8  -2 82.6286  5.3623   9
   8  -1   2 93.3481  6.2636   2
  -1   8  -2 78.5464  5.5540   9
  -1  -8   2 83.1191  6.1710   2
  -1   8  -2 93.1661  6.6053   2
  -8  -1  -2 94.4412  6.4330   2
  -8   2  -2 3066.84   59.64   2
  -2  -8  -2 2951.32   59.09   1
   2   8  -2 3020.97   60.11   6
  -8  -2   2 2996.39   59.07   2
  -2  -8  -2 3022.12   57.50   9
   8  -2  -2 2987.83   59.12   1
   8  -2  -2 2963.91   57.64   9
  -2   8   2 2935.99   59.02   2
   2  -8   2 3013.45   56.75   9
   2  -8   2 2987.40   59.40   2
   2   8  -2 3066.82   59.41   1
   8   2   2 2989.78   59.19   2
   2   8  -2 3051.04   59.71   2
   8   2   2 3031.70   57.77   8
  -2   8   2 2980.62   58.47   7
  -8   2  -2 2907.40   59.21   1
   8  -2  -2 2968.27   59.62   2
  -8  -2   2 3014.05   58.91   7
  -8   2  -2 2995.09   57.41   9
   8   2   2 2932.56   61.18   6
   2   8  -2 2988.69   57.78   9
  -2  -8   2 3078.66   56.86   9
  -2   8  -2 2974.77   57.59   9
  -2   8  -2 2988.29   59.62   2
  -8   2   2 3008.93   59.23   2
  -2  -8   2 3028.86   59.35   2
  -8  -2  -2 2955.27   59.20   1
   8   2  -2 2957.60   57.68   9
  -2   8  -2 2953.25   59.29   1
   2   8   2 2957.96   59.18   2
   8   2  -2 2900.75   59.00   1
   2   8   2 2864.75   61.07   6
   8   2  -2 3011.85   59.60   2
  -8  -2  -2 2999.80   57.50   9
  -8  -2  -2 3028.75   59.57   2
   2  -8  -2 2943.17   59.19   1
   2  -8  -2 2931.15   57.52   9
   8  -2   2 2977.48   59.32   2
   3  -8   2 77.5094  5.3831   9
  -8   3  -2 78.8428  6.5862   1
   3   8  -2 80.5771  6.5125   1
  -3  -8  -2 63.5469  5.3609   9
   8  -3  -2 91.2972  6.6078   2
   8  -3  -2 81.6673  5.7312   9
   8  -3  -2 72.6031  6.1394   1
  -8   3  -2 87.6961  6.7683   2
   3   8  -2 79.6878  6.6050   2
   3  -8   2 74.0403  6.3016   2
  -8  -3   2 81.5190  5.4700   3
  -8  -3   2 75.4931  5.6923   7
   8   3   2 68.6381  6.0149   2
   3   8  -2 84.7492  5.6972   9
   8   3   2 71.7515  6.4346   6
  -3   8   2 72.8782  6.0451   2
  -8  -3   2 82.8839  6.0643   2
  -8   3  -2 73.8097  5.4716   9
  -3  -8  -2 74.2461  6.4616   1
   3   8  -2 75.7960  5.8456   6
  -3   8  -2 72.2439  6.4643   2
   8   3  -2 70.1921  6.3600   2
  -3   8  -2 67.5111  6.2003   1
  -3  -8   2 78.1834  5.7857   2
   3  -8  -2 71.2655  6.2511   1
  -8   3   2 76.7757  6.1417   2
  -8  -3  -2 79.8878  6.6032   1
  -3  -8   2 78.2814  5.8304   2
  -3  -8   2 84.3384  5.3828   9
   3  -8  -2 75.1927  5.5805   9
   8   3  -2 75.1166  6.2139   1
   3   8   2 71.4758  6.4048   6
  -3   8  -2 75.3640  5.8250   9
   8   3  -2 70.3325  5.6666   9
   8  -3   2 91.9496  6.5187   2
   3   8   2 78.8956  6.3099   2
  -8  -3  -2 75.5497  5.2086   9
  -8  -3  -2 80.4828  6.6764   2
   8   4   2 2521.89   55.00   6
   4   8  -2 2580.32   53.16   1
   4   8  -2 2625.75   53.75   2
  -4   8   2 2629.97   53.09   2
  -4  -8  -2 2565.98   51.40   9
   8   4   2 2644.99   53.20   2
  -8  -4   2 2646.02   53.09   2
   8  -4  -2 2597.47   53.17   1
   4  -8   2 2667.02   53.53   2
  -8  -4   2 2640.73   51.65   3
  -8   4  -2 2619.81   53.33   1
  -8   4  -2 2693.57   53.62   2
   8  -4  -2 2541.12   51.58   9
   4   8  -2 2596.45   51.72   9
  -4  -8  -2 2548.56   53.13   1
  -8   4  -2 2645.87   51.48   9
   4   8  -2 2633.31   54.15   6
   4  -8  -2 2543.69   53.13   1
  -8  -4  -2 2529.98   51.28   9
   8   4  -2 2635.53   51.74   9
   4   8   2 2576.75   55.06   6
   4  -8  -2 2588.63   51.62   9
  -4   8  -2 2656.79   53.44   1
  -4   8  -2 2633.75   53.71   2
   4   8   2 2625.71   53.02   2
   8  -4   2 2703.04   53.48   2
  -8  -4  -2 2571.54   53.20   1
  -8   4   2 2623.86   53.03   2
   8   4  -2 2576.45   54.60   6
  -4  -8   2 2566.77   53.21   2
   8   4  -2 2632.88   53.72   2
  -4   8  -2 2666.82   51.68   9
   8   4  -2 2637.51   53.13   1
  -5  -8  -2 58.8715  5.5319   9
  -8   5  -2 70.8472  6.6666   1
   5   8  -2 64.6071  5.8334   9
   5   8  -2 61.7090  6.2101   6
   5  -8   2 61.2876  6.3139   2
   8  -5  -2 65.0591  6.4238   1
   8   5   2 62.5318  6.2054   2
  -5   8   2 56.6345  5.9612   2
  -8   5  -2 49.2514  6.0069   2
  -5  -8  -2 69.1265  6.8029   1
   5   8  -2 55.5951  6.1167   2
  -8   5  -2 58.7505  5.5334   9
  -8  -5   2 63.0766  6.2505   3
   8   5   2 64.1505  6.7887   6
   8  -5  -2 52.1401  5.2696   9
   5   8  -2 71.0938  6.6767   1
  -8  -5   2 64.8858  6.2132   2
  -8   5   2 54.1213  5.9531   2
   8  -5   2 63.7655  6.2464   2
   8   5  -2 46.5675  5.9699   2
  -5   8  -2 52.2013  6.1989   1
   8   5  -2 62.2272  6.4754   1
  -5   8  -2 59.2597  6.2162   2
   5   8   2 64.5853  6.2366   2
  -8  -5  -2 65.6936  5.6746   9
   8   5  -2 56.0977  6.4271   6
   5  -8  -2 57.3467  5.5271   9
   5  -8  -2 72.6358  6.7175   1
   8   5  -2 48.3536  5.3316   9
  -5   8  -2 59.1639  5.6341   9
   8   5  -2 67.6982  6.5589   1
   5   8   2 62.8771  6.8675   6
  -8  -5  -2 65.2129  6.5002   1
  -5  -8   2 60.4798  6.1476   2
   6  -8   2 2768.38   58.16   2
  -6   8   2 2827.28   57.83   2
   8   6   2 2729.81   59.91   6
   6   8  -2 2874.87   56.46   9
  -8   6  -2 2943.41   58.61   1
  -8  -6   2 2862.92   58.04   2
  -8   6  -2 2856.99   58.59   2
   8  -6  -2 2813.90   56.30   9
  -8  -6   2 2894.89   57.73   3
  -8   6  -2 2812.47   55.98   9
   6   8  -2 2788.18   59.15   6
   6   8  -2 2924.23   58.33   1
  -6  -8  -2 2788.41   56.02   9
   8   6   2 2839.26   57.93   2
  -6  -8  -2 2867.16   58.21   1
   6   8  -2 2892.37   58.75   2
  -8   6   2 2830.42   57.84   2
   8   6  -2 2780.43   57.84   1
   8  -6   2 2813.79   58.16   2
  -6  -8   2 2688.52   57.88   2
   6  -8  -2 2806.78   56.13   9
   8   6  -2 2862.15   56.45   9
   8   6  -2 2796.45   58.55   2
   6  -8  -2 2899.88   58.25   1
   6   8   2 2767.08   60.05   6
   6   8   2 2816.40   57.95   2
  -6   8  -2 2873.88   58.63   2
  -8  -6  -2 2892.32   56.21   9
  -6   8  -2 2856.25   56.16   9
  -8  -6  -2 2852.08   58.22   1
   8   6  -2 2814.65   57.98   1
  -6   8  -2 2827.88   58.42   1
   8   6  -2 2770.74   59.43   6
   8   7   2 20.9652  5.0543   2
   7   8  -2 23.3661  4.8668   9
  -8   7  -2 14.3335  4.3799   9
  -8  -7   2 22.6140  5.1575   2
  -7  -8  -2 27.6809  5.7589   1
   8  -7  -2 14.2945  5.0481   1
   7  -8   2 18.3108  5.1335   2
   8   7   2 17.8819  5.4333   6
   7   8  -2 34.1722  6.0663   2
  -7   8   2 15.2973  4.8760   2
   7   8  -2 21.2064  5.1383   6
   7   8  -2 31.5655  5.8982   1
   8  -7  -2 15.3369  4.2932   9
  -8   7  -2 28.4204  5.7538   1
  -7  -8  -2 17.3353  4.4653   9
  -8  -7  -2 22.3630  5.7822   1
  -8   7   2 22.7986  5.1007   2
   8   7  -2 21.7007  4.8464   9
   7   8   2 12.9201  4.8516   6
  -8  -7  -2 24.0195  4.5822   9
  -7   8  -2 22.0297  5.4148   1
   8   7  -2 23.9242  5.4345   1
   8   7  -2 13.4596  5.0425   6
   7  -8  -2 25.8197  4.8560   9
   7  -8  -2 35.4654  5.8157   1
  -7  -8   2 17.9602  5.0701   2
   7   8   2 25.8021  5.2645   2
   8  -7   2 30.0857  5.7764   2
  -7   8  -2 23.4792  4.7690   9
  -8  -8   2 1399.96   34.05   2
   8   8  -2 1385.39   32.43   9
   8  -8   2 1462.50   34.57   2
   8   8  -2 1431.13   34.22   1
  -8  -8  -2 1438.73   32.14   9
  -8   8  -2 1472.34   32.47   9
   8   8   2 1401.34   33.79   2
   8   8  -2 1409.30   34.75   6
   8  -8  -2 1454.12   34.33   1
   8  -8  -2 1424.77   32.40   9
  -8   8   2 1438.25   33.83   2
   8   8   2 1410.94   35.56   6
  -8   8  -2 1427.63   34.43   1
  -8  -8  -2 1451.60   34.45   1
   9   0  -2 7.19329 3.50003   9
   0  -9  -2 4.45524 3.33628   9
  -9   0  -2 2.87245 3.75596   1
  -9   0  -2 -3.2091  3.4354   2
   0  -9  -2 -0.3163  3.7046   1
   0  -9   2 2.54750 3.63792   2
   0   9  -2 5.50870 3.86102   2
   9   0  -2 -3.9932  3.5534   2
  -9   0   2 -3.0182  3.2063   2
   0   9   2 -4.6348  3.1085   2
   9   0   2 0.74269 3.48004   2
   0   9  -2 5.04482 3.86013   1
  -9   0  -2 -1.6087  2.7638   9
   0   9  -2 -1.6931  3.1332   9
   9   0  -2 0.14335 3.80679   1
  -9   1  -2 750.810  20.137   2
  -1  -9  -2 767.023  18.835   9
  -9  -1   2 750.125  19.627   2
  -1   9   2 771.061  19.905   2
   9  -1  -2 756.420  19.847   1
   9   1   2 784.977  20.027   2
   1   9  -2 736.967  20.136   2
   1   9  -2 731.476  19.870   1
   9  -1  -2 726.981  18.744   9
   9  -1  -2 717.652  20.019   2
  -1  -9  -2 761.851  20.112   1
  -9   1  -2 763.439  18.709   9
  -9  -1   2 737.453  20.465   7
   1  -9   2 759.711  20.088   2
   1   9  -2 793.474  19.153   9
  -9   1  -2 746.627  19.970   1
  -1  -9   2 759.552  19.999   2
  -1   9  -2 752.225  18.930   9
   9   1  -2 753.152  20.008   1
  -1   9  -2 773.738  20.310   2
  -9  -1  -2 740.661  18.505   9
   1  -9  -2 751.476  19.981   1
   1   9   2 740.942  19.514   2
   9  -1   2 740.063  19.840   2
  -9  -1  -2 795.947  20.325   2
  -1   9  -2 741.886  18.841   9
  -9   1   2 760.577  19.643   2
   9   1  -2 747.178  20.156   2
  -9  -1  -2 766.359  19.931   1
  -1   9  -2 729.576  19.919   1
   1  -9  -2 745.491  18.774   9
   9   1  -2 744.478  18.970   9
   9  -2  -2 3.70296 3.78029   1
   2   9  -2 -0.0070  3.7035   2
  -9   2  -2 1.73834 3.40143   2
   9   2   2 -1.2329  3.3459   2
   2   9  -2 0.35458 3.33487   9
   9  -2  -2 -4.6086  3.0835   9
  -9   2  -2 4.74694 3.76988   1
   9   2   2 1.08644 3.87261   6
  -2  -9  -2 -0.2662  3.0067   9
  -9   2  -2 -2.3223  3.1018   9
  -2   9   2 -1.7461  3.3554   2
  -9  -2   2 3.25356 3.94265   7
   2  -9   2 6.42314 3.87026   2
   2   9  -2 5.78753 3.96308   1
  -2  -9  -2 -1.2585  3.6981   1
  -9  -2   2 -1.9686  3.2990   2
  -2   9  -2 -3.4206  3.0595   9
   9   2  -2 1.80555 3.40275   9
   9   2  -2 -2.1151  3.6801   2
  -2   9  -2 0.00946 3.58552   1
  -2   9  -2 3.65234 3.88630   2
   2   9   2 1.77720 3.58756   2
  -2  -9   2 -3.7828  3.3963   2
   2  -9  -2 2.04269 3.31463   9
  -9  -2  -2 -2.8360  2.9265   9
  -2   9  -2 -3.7789  3.2115   9
   9  -2   2 -3.9352  3.2928   2
  -9  -2  -2 0.89808 3.78346   1
   2  -9  -2 -3.6565  3.4690   1
  -9   2   2 3.65841 3.53210   2
   9   2  -2 -3.6349  3.5286   1
  -9   3  -2 287.870  10.332   9
   3  -9   2 292.032  11.499   2
   9   3   2 294.801  11.301   2
   9  -3  -2 270.287  11.192   1
   3   9  -2 302.480  11.248   6
  -9  -3   2 294.932  10.786   7
   3   9  -2 318.416  11.685   1
   3   9  -2 290.304  10.765   9
   9   3   2 286.795  12.168   6
  -3   9   2 298.848  11.278   2
   3   9  -2 308.085  11.905   2
  -9  -3   2 306.915  11.315   2
  -9   3  -2 302.854  11.713   2
  -3  -9  -2 302.795  10.531   9
  -3  -9  -2 299.839  11.510   1
  -9   3  -2 303.480  11.653   1
   9  -3  -2 295.103  10.586   9
  -3   9  -2 296.917  10.696   9
  -9   3   2 282.742  11.132   2
   9   3  -2 303.890  11.492   1
   3   9   2 296.307  11.354   2
  -9  -3  -2 290.842  11.529   1
  -3  -9   2 287.333  11.353   2
   3  -9  -2 268.006  11.289   1
   9   3  -2 296.534  11.701   2
  -3   9  -2 301.391  11.636   1
  -3   9  -2 276.222  11.604   2
  -9  -3  -2 301.591  10.434   9
   3  -9  -2 302.680  10.624   9
   3   9   2 294.695  12.216   6
   9  -3   2 285.146  11.416   2
   9   3  -2 305.684  10.860   9
  -3  -9   2 284.474  11.384   2
   9   4   2 31.8882  5.7997   6
   4   9  -2 32.5808  5.3375   6
   9  -4  -2 37.0709  5.6268   1
  -4   9   2 35.7502  5.3441   2
  -4  -9  -2 25.5364  5.2968   1
   9   4   2 37.3795  5.5022   2
   4   9  -2 34.7625  5.0803   9
   4   9  -2 39.2624  5.8562   2
  -9   4  -2 37.7386  5.8354   1
   4  -9   2 29.4910  5.4542   2
  -9   4  -2 33.4644  4.7397   9
  -4  -9  -2 30.8664  4.5945   9
  -9  -4   2 43.0402  5.5804   2
  -9   4  -2 30.6033  5.3863   2
   4   9  -2 43.9167  5.8165   1
   9  -4  -2 36.4657  5.0409   9
   4  -9  -2 35.0629  4.7963   9
   4   9   2 36.9566  5.7289   6
  -4  -9   2 32.7783  5.4671   2
   4  -9  -2 31.1282  5.5034   1
  -4   9  -2 43.3016  5.1523   9
   9   4  -2 36.0824  4.9156   9
   4   9   2 26.2934  4.9606   2
  -9  -4  -2 40.6157  4.9503   9
  -4   9  -2 46.1255  6.0250   1
  -9   4   2 43.3437  5.5914   2
  -9  -4  -2 35.8645  5.7364   1
   9   4  -2 38.6255  5.7855   6
  -4   9  -2 37.6838  5.7478   2
   9  -4   2 32.7311  5.4649   2
   9   4  -2 36.8133  5.7393   2
   9   4  -2 40.4419  5.7142   1
  -9   5  -2 219.106  10.622   1
  -5  -9  -2 196.816   9.265   9
  -5  -9  -2 238.361  10.750   1
   5   9  -2 217.502  10.492   1
   9   5   2 228.341  10.386   2
  -9  -5   2 217.085  10.241   2
  -9  -5   2 224.389   9.980   3
   9   5   2 216.963  10.649   6
   5   9  -2 197.583  10.110   2
  -9   5  -2 212.294   9.369   9
   5   9  -2 219.804   9.615   9
   5  -9   2 231.774  10.672   2
   9  -5  -2 205.185   9.514   9
  -5   9   2 207.509   9.962   2
   5   9  -2 212.927  10.350   6
   9  -5  -2 222.749  10.553   1
  -5   9  -2 230.606  10.795   1
   5   9   2 223.417  11.270   6
   9   5  -2 239.921   9.872   9
   5  -9  -2 226.301  10.873   1
  -5   9  -2 210.242   9.431   9
   5   9   2 208.368   9.969   2
  -9  -5  -2 225.915  10.637   1
  -5  -9   2 226.483  10.492   2
  -9   5   2 231.329  10.397   2
  -9  -5  -2 229.343   9.535   9
   5  -9  -2 218.770   9.629   9
   9  -5   2 215.002  10.461   2
   9   5  -2 215.678  10.679   6
  -5   9  -2 223.584  10.832   2
   9   5  -2 210.115  10.369   1
   9   5  -2 224.107  10.581   1
   9   6   2 61.5807  6.9986   2
  -6  -9  -2 69.8101  7.3551   1
  -9   6  -2 47.7085  5.6424   9
   9  -6  -2 71.0049  7.4027   1
   6   9  -2 58.2058  6.2732   9
  -6   9   2 56.8142  6.6282   2
   9   6   2 59.5727  7.3804   6
   9  -6  -2 59.2684  6.2263   9
   6   9  -2 40.1466  6.5043   2
  -9   6  -2 46.6450  6.6938   1
  -9  -6   2 53.5940  6.5892   3
  -9  -6   2 66.2691  7.0082   2
   6   9  -2 64.7566  7.0817   6
   6   9  -2 58.5068  6.7564   1
  -6  -9  -2 58.7009  6.1732   9
   6  -9   2 61.2720  6.9605   2
  -9   6   2 45.4866  6.0952   2
  -9  -6  -2 44.7748  6.8479   1
  -6  -9   2 58.0764  6.6913   2
   9   6  -2 57.0372  6.9523   1
   9   6  -2 44.9997  5.8198   9
   6  -9  -2 61.5567  7.1161   1
   6  -9  -2 50.0459  5.8781   9
   9  -6   2 70.1390  7.1727   2
  -6   9  -2 49.8180  5.8224   9
   6   9   2 53.1737  7.1545   6
   9   6  -2 65.6847  7.1204   1
   9   6  -2 54.0782  6.8857   6
  -9  -6  -2 45.1086  5.7328   9
   6   9   2 61.5273  6.6391   2
  -6   9  -2 66.5514  7.4809   1
   7   9  -2 504.363  17.198   6
   7  -9   2 512.723  17.306   2
  -7   9   2 506.613  16.759   2
  -9  -7   2 538.776  17.179   2
  -7  -9  -2 542.909  17.801   1
  -9  -7   2 530.560  17.352   3
  -7  -9  -2 521.509  15.849   9
   9   7   2 499.186  17.847   6
   9  -7  -2 491.444  17.048   1
   9   7   2 493.461  16.796   2
  -9   7  -2 479.692  16.981   1
  -9   7  -2 511.069  15.612   9
   9  -7  -2 507.444  15.850   9
   7   9  -2 503.906  15.834   9
  -9  -7  -2 505.039  17.175   1
  -9  -7  -2 515.378  15.655   9
   9   7  -2 499.011  15.713   9
  -7  -9   2 501.029  16.834   2
   7   9   2 498.469  16.862   2
  -7   9  -2 512.730  15.664   9
  -9   7   2 495.966  16.614   2
   9   7  -2 514.160  17.042   1
   7  -9  -2 501.118  17.164   1
   9  -7   2 514.228  17.150   2
  -7   9  -2 514.778  17.279   1
   9   7  -2 514.058  17.371   6
   7   9   2 502.745  17.945   6
   7  -9  -2 494.813  15.750   9
  -9   8  -2 -2.8647  4.2227   9
   8   9  -2 6.78256 5.03867   6
   8   9  -2 -0.4214  4.4508   9
  -8  -9  -2 -0.2827  5.3751   1
  -8   9   2 3.50104 4.66813   2
   9   8   2 -1.4622  4.9402   2
  -9  -8   2 7.26911 5.48931   3
   9  -8  -2 5.48464 5.16085   1
  -9  -8   2 -2.6931  4.6568   2
  -8  -9  -2 3.33503 3.90669   9
   9  -8  -2 2.87170 4.36633   9
   9   8   2 -2.1039  5.0246   6
   8  -9   2 5.45776 5.35100   2
   9  -8   2 -1.1009  4.6023   2
  -8  -9   2 -0.1503  5.0635   2
   9   8  -2 -6.4018  4.9676   6
  -9   8   2 -1.7978  4.7593   2
   8   9   2 -2.2927  4.9710   6
   9   8  -2 -0.0326  4.0222   9
  -8   9  -2 -4.0067  4.0757   9
  -9  -8  -2 0.84467 5.13963   1
  -9  -8  -2 0.32000 4.17310   9
   8   9   2 6.61648 5.11645   2
   8  -9  -2 7.65280 5.35588   1
   8  -9  -2 -1.5020  4.1679   9
  -9   9   2 308.949  13.755   2
  -9  -9  -2 294.145  12.277   9
   9   9  -2 281.125  13.516   6
   9   9  -2 303.850  12.444   9
   9   9   2 292.778  13.138   2
   9  -9   2 286.365  13.454   2
  -9   9  -2 291.404  12.229   9
  -9  -9   2 270.804  12.895   2
   9   9   2 287.033  14.295   6
   9  -9  -2 280.592  12.261   9
 -10   0   2 2543.76   54.72   7
 -10   0  -2 2500.12   52.70   1
 -10   0   2 2521.38   52.63   2
   0 -10  -2 2407.90   52.52   1
   0  10  -2 2497.50   52.87   1
   0  10  -2 2626.81   53.65   2
  10   0  -2 2543.04   52.68   1
   0  10   2 2482.16   52.55   2
 -10   0  -2 2526.94   50.78   9
   0 -10  -2 2537.94   51.00   9
   0  10  -2 2614.99   51.34   9
  10   0   2 2590.71   52.99   2
  10   0  -2 2545.51   51.10   9
   0 -10   2 2561.07   52.95   2
  -1 -10  -2 35.8552  5.8439   1
  -1  10   2 32.7998  5.3268   2
 -10   1  -2 35.6828  5.7290   1
  10  -1  -2 32.0273  4.9373   9
 -10   1  -2 32.3748  4.8761   9
 -10  -1   2 31.2849  5.1198   2
  10  -1  -2 37.2583  5.7588   1
 -10  -1   2 39.7723  6.4254   7
  -1 -10  -2 34.6179  4.9222   9
   1  10  -2 32.3394  5.0070   9
   1 -10   2 42.6643  5.8523   2
   1  10  -2 44.9381  6.1715   1
   1  10  -2 32.9914  5.5007   2
  10   1   2 33.8758  5.5039   2
 -10   1   2 29.9780  5.2815   2
  10   1  -2 27.7903  4.7682   9
   1  10   2 38.1074  5.5184   2
  -1 -10   2 32.9943  5.3866   2
 -10  -1  -2 41.7626  5.9885   1
   1 -10  -2 32.4846  5.6491   1
 -10  -1  -2 37.4824  4.9405   9
  -1  10  -2 33.0817  5.6699   2
  -1  10  -2 43.6549  5.9206   1
  -1  10  -2 31.1974  5.0595   9
  10   1  -2 27.8623  5.3638   1
  10  -1   2 32.3234  5.3086   2
   1 -10  -2 36.3869  5.0308   9
  10  -2  -2 2577.74   52.09   9
   2  10  -2 2561.45   54.13   2
   2 -10   2 2555.58   54.10   2
   2  10  -2 2623.36   52.24   9
  -2 -10  -2 2620.78   51.96   9
   2  10  -2 2687.77   54.17   1
 -10   2  -2 2495.50   51.67   9
 -10  -2   2 2576.48   53.68   2
 -10   2  -2 2648.21   53.99   1
 -10  -2   2 2620.42   53.66   7
  10  -2  -2 2504.51   53.65   1
  10   2   2 2505.52   53.68   2
  -2 -10  -2 2699.03   54.27   1
  -2  10   2 2652.36   53.99   2
  10   2   2 2540.18   55.80   6
  10   2  -2 2577.89   52.29   9
   2 -10  -2 2557.52   53.93   1
  -2  10  -2 2587.01   54.50   2
  -2 -10   2 2624.58   54.01   2
  10   2  -2 2618.41   53.83   1
  -2  10  -2 2597.97   52.15   9
 -10  -2  -2 2582.05   53.96   1
  -2  10  -2 2624.46   54.26   1
  10  -2   2 2543.45   53.84   2
 -10   2   2 2553.42   53.68   2
   2  10   2 2594.08   53.83   2
  -2  10  -2 2564.98   52.08   9
 -10  -2  -2 2584.43   51.80   9
   2 -10  -2 2503.36   51.91   9
 -10   3  -2 50.7281  6.5803   1
  -3 -10  -2 41.1441  6.0899   1
   3  10  -2 36.8083  6.0191   2
   3 -10   2 44.1624  6.1607   2
   3  10  -2 44.2021  5.8744   6
   3  10  -2 36.0411  6.2229   1
 -10  -3   2 43.6948  5.9392   2
   3  10  -2 43.1750  5.4651   9
  -3 -10  -2 48.4749  5.5014   9
  -3  10   2 40.5045  5.8515   2
  10  -3  -2 31.1625  5.1802   9
  10   3   2 35.2118  5.9410   6
  10  -3  -2 50.9435  6.5582   1
  10   3   2 29.0831  5.6113   2
 -10   3  -2 37.8040  5.2391   9
   3 -10  -2 43.7984  6.3577   1
  10  -3   2 46.8075  6.3677   2
  -3  10  -2 48.8787  6.6091   2
  -3  10  -2 39.8227  5.3403   9
  -3 -10   2 27.8503  5.4963   2
 -10  -3  -2 36.7587  5.1894   9
 -10   3   2 39.3101  5.7387   2
   3 -10  -2 45.7676  5.4642   9
  10   3  -2 42.4866  5.4252   9
  -3  10  -2 39.7324  5.3193   9
  10   3  -2 48.9509  6.3444   1
   3  10   2 35.2670  5.6219   2
  -3 -10   2 53.0244  6.4081   2
   3  10   2 51.5651  6.3586   6
  -3  10  -2 36.4884  6.1446   1
 -10  -3  -2 39.0942  6.3248   1
  -4  10   2 2603.59   55.93   2
  -4 -10  -2 2646.28   54.15   9
  10  -4  -2 2703.35   56.40   1
   4  10  -2 2742.67   56.35   1
 -10   4  -2 2667.33   56.41   1
  10   4   2 2664.54   58.42   6
   4  10  -2 2748.22   57.06   2
  10  -4  -2 2714.49   54.52   9
   4  10  -2 2715.99   57.20   6
 -10  -4   2 2593.89   55.97   2
  10   4   2 2642.34   56.15   2
 -10   4  -2 2650.56   53.92   9
   4 -10   2 2678.38   56.55   2
   4  10  -2 2709.32   54.58   9
  -4 -10  -2 2764.59   56.49   1
 -10  -4  -2 2702.06   56.49   1
 -10  -4  -2 2609.74   53.94   9
  -4  10  -2 2684.61   56.45   1
   4 -10  -2 2694.78   54.29   9
  10  -4   2 2734.26   56.60   2
  -4  10  -2 2691.63   56.98   2
  10   4  -2 2772.58   54.60   9
   4  10   2 2699.62   56.00   2
  10   4  -2 2663.67   56.03   1
  -4 -10   2 2683.94   56.35   2
   4  10   2 2724.15   58.67   6
   4 -10  -2 2689.00   56.50   1
 -10   4   2 2635.02   55.98   2
  -4  10  -2 2753.03   54.47   9
  10   4  -2 2679.36   57.94   6
  10  -5  -2 126.309   8.799   1
 -10  -5   2 144.434   9.214   2
 -10   5  -2 135.273   8.098   9
 -10   5  -2 131.756   9.251   1
   5  10  -2 146.614   9.460   6
  -5 -10  -2 145.168   9.398   1
   5  10  -2 124.331   8.044   9
  10  -5  -2 121.054   7.994   9
  10   5   2 120.367   8.887   6
  -5 -10  -2 128.473   8.098   9
  10   5   2 135.347   9.273   2
   5 -10   2 133.025   9.635   2
  -5  10   2 108.478   8.626   2
   5  10  -2 122.591   9.331   1
  10  -5   2 128.502   8.841   2
  10   5  -2 137.994   9.197   1
 -10   5   2 122.355   8.561   2
   5  10   2 132.270   8.640   2
   5 -10  -2 127.444   9.095   1
   5  10   2 111.874   9.586   6
 -10  -5  -2 147.561   9.565   1
   5 -10  -2 120.788   8.124   9
  10   5  -2 135.327   9.634   1
  10   5  -2 145.781   8.038   9
  -5 -10   2 128.919   9.059   2
  -5  10  -2 137.145   9.402   1
  10   5  -2 119.061   9.105   6
 -10  -5  -2 123.610   7.906   9
  -5  10  -2 125.089   8.046   9
   6  10  -2 1490.88   35.93   6
  10  -6  -2 1447.94   33.41   9
   6  10  -2 1466.34   33.56   9
  10  -6  -2 1460.18   35.14   1
  10   6   2 1488.51   36.80   6
 -10  -6   2 1501.41   34.94   2
  -6 -10  -2 1431.65   35.14   1
  -6 -10  -2 1481.81   33.21   9
 -10   6  -2 1459.48   33.08   9
  -6  10   2 1445.73   34.63   2
  10   6   2 1480.10   34.95   2
   6 -10   2 1484.60   35.32   2
   6  10   2 1455.69   34.78   2
   6 -10  -2 1448.80   33.14   9
  10   6  -2 1476.98   36.18   6
 -10  -6  -2 1513.61   35.53   1
 -10   6   2 1457.64   34.66   2
  10   6  -2 1446.05   33.29   9
   6  10   2 1438.94   36.35   6
  -6  10  -2 1450.17   32.97   9
 -10  -6  -2 1436.00   33.05   9
  -6 -10   2 1440.09   34.79   2
  10  -6   2 1467.82   35.18   2
   6 -10  -2 1483.50   35.36   1
  10  -7  -2 78.1972  8.5164   1
 -10  -7   2 68.7918  7.8240   2
  -7 -10  -2 72.7948  8.4642   1
 -10   7  -2 78.0456  7.2778   9
  -7  10   2 62.5385  7.2093   2
   7 -10   2 55.9124  7.5162   2
  10   7   2 57.4106  7.3058   2
  10  -7  -2 70.4033  7.1535   9
  -7 -10  -2 62.2670  6.8051   9
  10   7   2 60.9669  8.0903   6
   7  10  -2 71.0947  7.9683   6
   7  10  -2 61.0983  6.8281   9
  10  -7   2 75.6255  8.1455   2
 -10  -7  -2 65.0114  6.7849   9
   7 -10  -2 72.1318  8.3568   1
  10   7  -2 56.1324  6.6954   9
   7 -10  -2 63.5504  6.8982   9
   7  10   2 64.1945  7.4529   2
  -7  10  -2 62.9863  6.8902   9
   7  10   2 66.1491  8.4374   6
 -10  -7  -2 61.0796  7.8994   1
 -10   7   2 65.1263  7.4057   2
  -7 -10   2 73.7991  7.9661   2
  10   7  -2 65.5877  8.2273   6
  10   8   2 1464.72   37.97   6
  -8  10   2 1451.47   35.94   2
   8  10  -2 1559.72   35.03   9
 -10   8  -2 1540.12   34.74   9
   8 -10   2 1459.06   36.51   2
  10  -8  -2 1497.11   34.66   9
   8  10  -2 1527.69   37.38   6
  -8 -10  -2 1485.87   34.36   9
  10   8   2 1551.85   36.57   2
 -10  -8   2 1451.76   36.15   2
   8  10   2 1463.21   38.16   6
  10   8  -2 1508.32   34.78   9
   8 -10  -2 1528.43   34.80   9
  10  -8   2 1460.98   36.35   2
  -8 -10   2 1423.40   36.05   2
  10   8  -2 1490.21   37.56   6
   8  10   2 1428.09   35.99   2
  -8  10  -2 1584.51   34.83   9
 -10  -8  -2 1496.73   34.33   9
 -10   8   2 1430.93   35.96   2
  10   9   2 10.2358  6.1129   6
  -9  10   2 3.05708 5.14317   2
  10  -9  -2 4.01074 5.01944   9
 -10   9  -2 14.5336  5.2957   9
   9  10  -2 4.42153 4.99038   9
 -10  -9   2 1.02295 5.14478   2
   9 -10   2 15.3131  6.3087   2
  -9 -10  -2 11.7494  5.3300   9
  10   9   2 10.6148  5.7204   2
   9  10  -2 5.63823 5.76358   6
 -10  -9   2 -3.5213  5.9993   3
 -10   9   2 6.53697 5.48050   2
  10  -9   2 -0.2754  5.4316   2
   9 -10  -2 11.0732  5.4601   9
   9  10   2 3.41916 5.59944   2
  10   9  -2 12.5037  6.1669   6
 -10  -9  -2 10.4355  5.1724   9
  -9  10  -2 5.99311 5.18659   9
   9  10   2 -2.7616  5.7616   6
  10   9  -2 2.40625 5.03384   9
  -9 -10   2 19.2476  6.1233   2
 -10  10   2 1572.36   38.94   2
  10  10  -2 1579.14   40.43   6
  10  10   2 1516.40   40.86   6
  10 -10   2 1610.96   39.70   2
 -10 -10   2 1625.76   39.80   3
  10  10   2 1520.29   38.56   2
  10 -10  -2 1630.00   37.56   9
 -10 -10   2 1585.26   39.30   2
 -10 -10  -2 1605.76   37.18   9
 -11   0   2 3.82784 4.51674   2
   0  11  -2 -2.7721  3.7999   9
  11   0  -2 -7.3204  4.2029   1
   0  11  -2 -5.2248  4.4652   1
  11   0   2 -4.6875  4.1239   2
  11   0  -2 2.15651 3.95969   9
   0  11  -2 -4.5699  4.3484   2
 -11   0  -2 2.09322 3.70479   9
 -11   0  -2 9.10678 4.91945   1
   0 -11  -2 4.47157 4.93848   1
   0 -11  -2 -2.5718  3.7807   9
 -11   0   2 3.27734 5.43051   7
   0 -11   2 5.46585 4.92434   2
   0  11   2 -2.6418  3.8025   2
   1 -11   2 315.764  13.108   2
 -11   1  -2 307.844  11.735   9
  -1 -11  -2 360.538  13.759   1
  11   1   2 363.754  13.533   2
   1  11  -2 320.518  13.416   1
 -11  -1   2 322.663  12.908   2
   1  11  -2 346.140  13.830   2
  -1 -11  -2 354.858  12.376   9
  11  -1  -2 331.161  13.227   1
   1  11  -2 331.393  12.154   9
 -11   1  -2 349.668  13.592   1
  11  -1  -2 333.926  12.324   9
  -1  11   2 330.653  13.110   2
 -11  -1   2 342.249  14.019   7
   1  11   2 339.866  13.055   2
  -1 -11   2 325.502  13.359   2
 -11   1   2 315.046  12.761   2
  11   1  -2 378.774  13.652   1
   1 -11  -2 346.449  13.571   1
 -11  -1  -2 318.075  11.911   9
   1 -11  -2 327.872  12.272   9
  -1  11  -2 353.875  13.928   2
  -1  11  -2 334.276  12.215   9
 -11  -1  -2 352.557  13.667   1
  11  -1   2 344.998  13.380   2
  -1  11  -2 350.399  13.638   1
  11   1  -2 321.737  12.038   9
  -2 -11  -2 4.65310 4.92350   1
 -11   2  -2 0.69862 4.00508   9
   2  11  -2 -0.2468  3.9325   9
  -2  11   2 3.30450 4.34871   2
  11  -2  -2 2.38630 4.77603   1
  11   2   2 0.22286 4.90866   6
 -11   2  -2 11.3313  5.2519   1
  11  -2  -2 15.4443  4.5976   9
  11   2   2 5.65473 4.65192   2
   2  11  -2 -0.6973  4.5019   1
 -11  -2   2 4.74189 5.25111   7
   2  11  -2 1.55487 4.58087   2
   2 -11   2 8.26776 4.65780   2
  -2 -11  -2 0.67727 3.99501   9
 -11  -2   2 -1.2925  4.1328   2
  11   2  -2 -1.2370  4.5242   1
  -2  11  -2 4.67457 4.57513   2
  11  -2   2 0.39132 4.41723   2
  11   2  -2 5.46434 4.15453   9
 -11   2   2 1.12011 4.29683   2
  -2  11  -2 1.06197 4.83301   1
 -11  -2  -2 3.22968 3.66109   9
   2 -11  -2 4.87651 4.05493   9
  -2 -11   2 2.46436 4.46637   2
   2 -11  -2 -0.9734  4.7612   1
  -2  11  -2 3.75689 4.06407   9
 -11  -2  -2 11.7774  5.2123   1
   2  11   2 6.52666 4.94054   2
  11  -3  -2 620.608  18.864   1
 -11  -3   2 576.766  18.187   2
  11   3   2 570.225  18.245   2
  -3 -11  -2 577.099  17.172   9
  11  -3  -2 582.064  17.393   9
  -3  11   2 596.411  18.400   2
   3 -11   2 599.089  18.800   2
  11   3   2 556.002  19.514   6
  -3 -11  -2 597.866  19.021   1
 -11   3  -2 601.207  18.717   1
   3  11  -2 628.685  17.681   9
 -11   3  -2 597.105  17.211   9
  11   3  -2 573.776  18.542   1
   3 -11  -2 611.794  19.104   1
  -3 -11   2 599.709  18.706   2
  -3  11  -2 588.473  17.178   9
   3  11   2 588.436  18.552   2
  11   3  -2 590.734  17.375   9
 -11  -3  -2 606.090  17.144   9
  11  -3   2 544.397  18.270   2
   3 -11  -2 586.609  17.301   9
 -11   3   2 580.474  18.478   2
  -3 -11   2 576.593  18.597   2
 -11  -3  -2 613.297  18.846   1
  -4  11   2 65.0372  7.2354   2
   4  11  -2 43.9825  5.8766   9
  11   4   2 51.6985  6.8409   2
 -11   4  -2 52.6277  6.0746   9
 -11   4  -2 62.2530  7.8692   1
  11   4   2 77.9930  8.1968   6
   4 -11   2 45.0937  6.9362   2
  -4 -11  -2 54.9132  7.3056   1
   4  11  -2 45.1913  6.7524   6
 -11  -4   2 55.8448  7.0669   2
  -4 -11  -2 45.0719  6.0481   9
  11  -4  -2 60.4868  7.7395   1
  11  -4  -2 43.6068  6.1518   9
   4  11   2 62.6311  7.1440   2
  11   4  -2 53.6521  7.2534   1
  -4  11  -2 51.6602  6.2712   9
  -4  11  -2 65.5983  6.5632   9
 -11  -4  -2 51.2542  6.1539   9
  11   4  -2 60.6685  6.4520   9
   4 -11  -2 51.7217  6.3822   9
   4 -11  -2 58.1249  7.5455   1
  11  -4   2 61.2007  7.4159   2
  11   4  -2 51.7324  7.0460   6
 -11   4   2 49.9791  6.7150   2
   4  11   2 49.0582  7.3592   6
 -11  -4  -2 52.7469  7.2847   1
  -4 -11   2 44.6136  6.8160   2
 -11   5  -2 598.003  18.232   9
  -5 -11  -2 617.575  18.472   9
  11  -5  -2 651.459  18.861   9
  11   5   2 660.143  21.504   6
   5  11  -2 637.085  18.805   9
  -5 -11  -2 666.704  20.458   1
  11  -5  -2 693.485  20.842   1
   5  11  -2 692.956  20.885   6
  -5  11   2 630.783  19.683   2
 -11  -5   2 604.296  19.672   2
  11   5   2 600.663  19.754   2
   5 -11   2 637.971  20.249   2
  11  -5   2 621.564  19.926   2
   5  11   2 614.094  19.637   2
   5 -11  -2 644.366  18.623   9
 -11  -5  -2 619.466  18.382   9
  11   5  -2 651.277  21.039   6
 -11   5   2 616.150  19.538   2
  11   5  -2 641.866  18.658   9
  -5  11  -2 699.726  19.096   9
   5  11   2 613.358  21.140   6
  -5  11  -2 653.556  18.706   9
 -11  -5  -2 643.507  20.444   1
  -5 -11   2 651.766  20.289   2
   5 -11  -2 660.846  20.559   1
  -6 -11  -2 21.6169  5.2258   9
 -11  -6   2 18.2125  5.6388   2
  -6 -11  -2 9.83128 6.04452   1
  11   6   2 13.5321  5.8421   6
   6 -11   2 14.3573  5.7373   2
  11   6   2 28.7249  6.0950   2
  11  -6  -2 13.8760  5.1676   9
   6  11  -2 23.5399  5.6030   9
 -11   6  -2 28.3381  5.6052   9
  -6  11   2 21.8894  5.9330   2
   6  11  -2 26.3361  6.2230   6
  -6 -11   2 16.8924  5.7102   2
  11   6  -2 23.0920  6.4848   6
 -11  -6  -2 18.5682  5.1944   9
  11  -6   2 28.7918  6.3307   2
   6 -11  -2 8.86037 6.11684   1
 -11   6   2 26.3583  5.8284   2
   6 -11  -2 21.4265  5.3448   9
  -6  11  -2 23.3085  5.4948   9
   6  11   2 22.2962  6.7300   6
   6  11   2 30.5219  6.2757   2
  11   6  -2 20.7193  5.5145   9
   7  11  -2 219.994  10.804   9
  -7 -11  -2 193.572  10.440   9
  11  -7  -2 212.181  10.784   9
  11   7   2 219.306  11.994   2
 -11   7  -2 205.043  10.490   9
  -7  11   2 202.768  11.336   2
   7  11  -2 194.504  11.795   6
   7 -11   2 193.135  11.688   2
 -11  -7   2 200.052  11.474   2
  11   7   2 208.839  12.436   6
   7  11   2 216.456  11.402   2
 -11  -7  -2 205.808  10.550   9
  -7 -11   2 199.563  11.661   2
   7 -11  -2 205.680  10.586   9
 -11   7   2 205.251  11.429   2
  -7  11  -2 209.037  10.572   9
  11  -7   2 187.073  11.282   2
  11   7  -2 210.244  12.402   6
   7  11   2 205.355  12.551   6
  11   7  -2 212.562  10.842   9
  -8  11   2 5.43107 5.27203   2
 -11   8  -2 -8.4282  4.8417   9
  11  -8  -2 1.35614 5.03287   9
   8 -11   2 2.44492 5.67766   2
   8  11  -2 7.83096 5.29775   9
   8  11  -2 13.7367  6.4839   6
  -8 -11  -2 12.0023  5.3046   9
 -11  -8   2 12.1169  5.8415   2
  11   8   2 10.8571  6.0951   2
  11   8   2 4.42052 5.92147   6
  -8  11  -2 7.98856 5.12682   9
  11  -8   2 4.32521 5.58183   2
 -11  -8  -2 7.25908 5.14513   9
   8  11   2 -5.5347  4.8283   2
   8 -11  -2 -2.0416  5.0178   9
  11   8  -2 13.8515  5.4960   9
  -8 -11   2 7.24089 5.88371   2
  11   8  -2 6.24590 6.01489   6
 -11   8   2 4.87741 5.57848   2
   8  11   2 7.85610 6.37198   6
   9 -11   2 250.090  13.564   2
  -9 -11  -2 265.810  12.820   9
 -11  -9   2 245.617  13.668   2
   9  11  -2 258.055  13.875   6
  11   9   2 275.875  14.829   6
  11   9   2 252.876  13.065   2
  -9  11   2 262.987  13.576   2
  11  -9   2 253.107  13.512   2
  -9 -11   2 261.670  13.742   2
  11   9  -2 254.649  14.048   6
 -11   9   2 247.088  12.918   2
   9  11   2 261.887  13.205   2
   9 -11  -2 243.504  12.165   9
   9  11   2 267.210  14.786   6
 -11  -9  -2 260.123  12.353   9
  10  11  -2 -0.3920  6.2301   6
 -11 -10   2 4.76574 5.97643   2
  11 -10  -2 -2.2671  5.7506   9
  11  10   2 -5.9277  5.8857   6
  11  10   2 11.9343  5.8846   2
 -10  11   2 12.5906  6.0065   2
 -10 -11  -2 13.6208  6.0262   9
  10 -11   2 -1.0923  6.3707   2
 -11  10   2 0.48492 5.40355   2
  10  11   2 -6.9815  6.2313   6
  11  10  -2 2.72267 6.45358   6
 -11 -10  -2 14.6272  5.9735   9
  10  11   2 11.3983  6.3783   2
  10 -11  -2 10.9829  5.6892   9
 -10 -11   2 4.11861 6.19922   2
  11 -10   2 -5.5144  5.5705   2
 -10 -11   2 17.5686  7.1141   3
   0 -12   2 2448.18   54.07   2
  12   0  -2 2682.38   54.64   1
   0  12  -2 2559.83   52.05   9
 -12   0   2 2580.32   56.02   7
  12   0   2 2405.49   53.58   2
 -12   0   2 2313.16   53.20   2
 -12   0  -2 2536.01   51.72   9
   0  12   2 2411.24   53.50   2
   0 -12  -2 2441.29   51.84   9
   0 -12  -2 2620.49   54.81   1
  12   0  -2 2524.02   52.21   9
 -12   0  -2 2511.31   54.25   1
  -1 -12  -2 -4.7832  5.0452   1
  -1 -12  -2 1.63893 4.05146   9
  12  -1  -2 0.02097 5.02326   1
 -12  -1   2 3.80273 5.51977   7
  12   1   2 -1.7472  4.4118   2
   1  12  -2 -2.9193  4.2524   9
   1 -12   2 0.65474 4.83547   2
  -1  12   2 -0.3151  4.4123   2
 -12  -1   2 -4.4619  4.1909   2
  12  -1  -2 2.97670 4.36050   9
 -12   1  -2 -2.7139  4.1343   9
 -12  -1  -2 -4.5899  4.0049   9
  -1 -12   2 -2.3100  4.5769   2
   1 -12  -2 2.28234 4.39485   9
   1  12   2 -2.2443  4.4924   2
  12   1  -2 7.41031 4.61461   9
 -12   1   2 -1.4462  4.3829   2
  12  -1   2 10.8413  5.1393   2
 -12  -1  -2 -4.0593  4.9727   1
  -1  12  -2 -1.2478  4.1651   9
   1 -12  -2 4.13713 5.43512   1
 -12   1   2 1.43610 6.15601   7
  -2 -12  -2 1312.70   30.59   9
 -12   2  -2 1266.14   30.20   9
   2  12  -2 1337.89   30.78   9
  12  -2  -2 1328.47   32.46   1
  12   2   2 1323.49   33.99   6
  12  -2  -2 1308.55   30.81   9
   2 -12   2 1267.53   32.23   2
 -12  -2   2 1271.61   32.04   2
  -2 -12  -2 1294.38   32.66   1
  -2  12   2 1256.97   31.93   2
  12   2   2 1237.84   31.80   2
 -12   2   2 1284.42   31.75   2
   2  12   2 1342.17   32.47   2
 -12  -2  -2 1311.04   32.64   1
 -12  -2  -2 1313.49   30.50   9
  12   2  -2 1289.14   30.64   9
   2 -12  -2 1296.40   32.74   1
   2 -12  -2 1258.76   30.53   9
  -2 -12   2 1264.53   32.48   2
  12  -2   2 1295.68   32.46   2
  -2  12  -2 1279.67   30.41   9
  -2 -12   2 1257.35   32.24   2
  12   3   2 4.20359 5.00297   2
  -3 -12  -2 5.83556 4.73666   9
  -3  12   2 15.4550  5.5719   2
  -3 -12  -2 10.2983  5.8512   1
   3 -12   2 11.9049  5.6304   2
  12   3   2 17.9817  6.1352   6
 -12  -3   2 15.1169  5.7429   2
   3  12  -2 15.8010  5.2268   9
 -12   3  -2 9.27609 4.47659   9
  12  -3  -2 7.82710 4.84392   9
  -3 -12   2 13.4217  5.6452   2
  -3  12  -2 20.3819  5.3290   9
 -12  -3  -2 11.6950  4.7814   9
  -3 -12   2 3.14347 5.22927   2
   3 -12  -2 23.3725  6.6008   1
   3  12   2 13.6337  5.4371   2
 -12   3   2 13.3268  5.2507   2
   3 -12  -2 5.29496 4.32459   9
  12   3  -2 8.04473 4.93167   9
  12   3  -2 10.9508  5.3176   6
  12  -3   2 12.0011  5.4613   2
  -4 -12  -2 1716.02   41.54   1
  12   4   2 1682.97   40.83   2
  -4 -12  -2 1727.01   39.23   9
   4  12  -2 1845.05   39.64   9
   4 -12   2 1690.12   41.10   2
  -4  12   2 1739.14   41.02   2
  12  -4  -2 1814.11   39.49   9
 -12  -4   2 1781.78   41.08   2
 -12   4  -2 1798.52   39.12   9
  12   4   2 1802.28   43.54   6
   4  12   2 1713.16   40.67   2
  12  -4   2 1715.32   41.21   2
 -12   4   2 1732.03   40.94   2
   4 -12  -2 1776.20   41.76   1
   4 -12  -2 1715.93   38.92   9
 -12  -4  -2 1764.72   38.92   9
  -4  12  -2 1757.18   39.16   9
  12   4  -2 1802.73   43.14   6
  12   4  -2 1788.04   39.44   9
  -4 -12   2 1811.75   41.66   2
 -12  -5   2 6.78487 5.20422   2
  12  -5  -2 -6.5625  4.4284   9
  -5 -12  -2 9.97786 4.66513   9
 -12   5  -2 4.02799 4.72450   9
  12   5   2 -2.5304  5.0133   2
  -5  12   2 1.10703 4.86161   2
   5  12  -2 -5.1646  4.7473   6
   5  12  -2 -3.3544  4.6700   9
   5 -12   2 -1.9810  5.0797   2
  12   5   2 -1.0344  4.9625   6
  12   5  -2 -1.0326  4.6250   9
   5  12   2 0.92473 4.82801   2
  12  -5   2 1.35318 5.02791   2
  -5  12  -2 2.61648 4.70480   9
  -5  12  -2 -4.0253  4.4193   9
 -12   5   2 -7.1396  4.4452   2
   5 -12  -2 0.05294 4.80322   9
  -5 -12   2 -3.7916  5.2623   2
  12   5  -2 -0.1549  5.3958   6
   5  12   2 8.51548 6.17567   6
 -12  -5  -2 1.80813 4.60637   9
 -12  -6   2 603.412  20.678   2
  -6 -12  -2 636.605  19.208   9
  12  -6  -2 636.993  19.415   9
   6  12  -2 622.367  20.949   6
  -6  12   2 644.314  20.885   2
 -12   6  -2 648.780  19.118   9
  12   6   2 596.055  20.309   2
   6 -12   2 606.432  20.827   2
  12   6   2 601.909  21.884   6
   6  12  -2 637.653  19.455   9
   6  12   2 629.307  20.748   2
   6 -12  -2 593.729  19.079   9
  12  -6   2 575.272  20.392   2
  12   6  -2 656.183  19.334   9
  -6  12  -2 655.464  19.356   9
   6  12   2 623.478  22.191   6
 -12  -6  -2 635.424  19.099   9
 -12   6   2 631.218  20.578   2
  -6  12  -2 662.140  19.430   9
  -6 -12   2 633.531  20.896   2
  12   6  -2 643.081  21.961   6
  -7 -12  -2 39.3823  6.6440   9
  12  -7  -2 56.9031  7.3435   9
   7  12  -2 37.4774  7.4828   6
 -12   7  -2 29.5746  6.0683   9
   7 -12   2 46.5574  7.8090   2
  12   7   2 35.5959  7.7744   6
  12   7   2 39.7637  7.0694   2
 -12  -7   2 36.6175  7.1095   2
  -7  12   2 53.9994  7.5474   2
 -12   7   2 42.7982  7.6346   2
  12   7  -2 31.4742  7.5543   6
   7  12   2 43.9288  8.1278   6
  12  -7   2 41.2061  7.2936   2
   7 -12  -2 34.8842  6.6932   9
  12   7  -2 41.9548  6.8063   9
   7  12   2 38.3187  7.0109   2
 -12  -7  -2 50.8201  7.0178   9
  -7 -12   2 34.8184  7.2382   2
  12   8   2 1290.15   36.07   6
  12  -8  -2 1295.96   32.29   9
  12   8   2 1306.30   34.24   2
  -8  12   2 1240.39   33.55   2
   8  12  -2 1387.97   35.56   6
 -12  -8   2 1287.27   34.15   2
  -8 -12  -2 1324.92   32.05   9
   8 -12   2 1312.18   34.80   2
  -8 -12   2 1265.87   34.08   2
   8  12   2 1290.00   33.86   2
   8 -12  -2 1334.44   32.45   9
 -12   8   2 1234.98   33.30   2
 -12  -8  -2 1310.40   31.86   9
   8  12   2 1293.70   35.93   6
  12  -8   2 1297.82   34.47   2
  12   8  -2 1265.46   35.39   6
   9 -12   2 23.8330  7.3032   2
  12   9   2 17.1909  7.2882   6
  12  -9  -2 24.5215  6.6532   9
  -9  12   2 22.0591  6.8830   2
  12   9   2 17.8014  6.8957   2
 -12  -9   2 18.9840  6.5772   2
  -9 -12  -2 29.4475  6.5942   9
   9  12  -2 24.0673  7.5908   6
 -12  -9  -2 17.1023  6.2025   9
  -9 -12   2 24.9816  7.4868   2
  12  -9   2 22.7980  7.3689   2
   9 -12  -2 25.1099  6.4840   9
  12   9  -2 20.4833  7.6814   6
 -12   9   2 16.4737  6.7320   2
   9  12   2 10.7136  7.0153   6
   9  12   2 22.0242  6.9362   2
  13   0   2 -8.3398  4.6737   2
   0  13  -2 3.87353 4.76783   9
   0 -13   2 -0.6809  5.0253   2
 -13   0   2 5.92970 5.08398   2
 -13   0   2 -2.4912  5.6313   7
  13   0  -2 -6.1902  4.3731   9
   0 -13  -2 -2.3097  4.7251   9
 -13   0  -2 -4.7213  4.3015   9
   0  13   2 -11.012   4.080   2
   1 -13   2 227.983  12.288   2
  13   1   2 221.260  11.999   2
  13   1   2 238.381  13.205   6
 -13  -1   2 230.050  11.966   2
  -1 -13  -2 252.865  11.541   9
   1  13  -2 252.851  11.546   9
 -13   1  -2 243.034  11.227   9
  -1  13   2 228.382  12.109   2
  13  -1  -2 246.971  11.537   9
 -13  -1  -2 245.349  11.303   9
 -13   1   2 205.504  11.425   2
  -1 -13   2 219.889  12.081   2
  13   1  -2 233.358  11.381   9
   1  13   2 234.896  11.930   2
  13  -1   2 217.019  11.861   2
   1 -13  -2 215.935  10.983   9
 -13   1   2 261.213  14.263   7
  -1  13  -2 230.811  11.103   9
   2 -13   2 51.4185  7.7532   2
  13   2   2 51.1814  8.1635   6
  -2 -13  -2 47.5847  6.6503   9
   2  13  -2 34.2922  6.2622   9
 -13  -2   2 45.7854  7.1199   2
  13  -2  -2 44.9618  6.8652   9
  13   2   2 43.0157  6.9367   2
  -2  13   2 49.3473  7.1869   2
 -13   2  -2 37.3417  6.3638   9
  13   2  -2 41.6996  6.4914   9
 -13   2   2 26.2887  7.9696   7
  13  -2   2 40.7677  7.1374   2
  -2 -13   2 49.6262  7.5600   2
   2 -13  -2 38.5334  6.2086   9
   2  13   2 42.2557  7.2316   2
  -2  13  -2 27.5581  6.0041   9
  -2 -13   2 30.5992  6.8912   2
 -13  -2  -2 29.9946  5.9440   9
 -13   2   2 46.2784  7.1614   2
 -13  -3   2 438.171  16.569   2
  13   3   2 409.547  16.094   2
  13   3   2 408.495  17.462   6
   3 -13   2 392.207  16.190   2
  -3  13   2 426.402  16.267   2
 -13   3  -2 455.203  15.153   9
  -3 -13  -2 421.621  15.162   9
   3  13  -2 409.372  15.229   9
  13  -3  -2 405.428  15.115   9
  13   3  -2 404.674  14.946   9
   3 -13  -2 411.323  15.115   9
  13   3  -2 403.999  17.309   6
  -3 -13   2 403.489  16.410   2
 -13   3   2 429.101  16.103   2
  -3 -13   2 420.136  16.565   2
 -13  -3  -2 418.115  14.914   9
  13  -3   2 392.537  16.008   2
  -3  13  -2 416.024  15.061   9
   3  13   2 394.945  15.899   2
   4 -13   2 7.85780 6.08734   2
  -4  13   2 21.4404  6.2149   2
  13   4   2 10.4969  6.6039   6
 -13  -4   2 6.70280 5.58145   2
 -13   4  -2 16.7275  5.4899   9
  13  -4  -2 11.8429  5.2841   9
  13   4   2 24.5136  6.4718   2
   4  13  -2 15.8162  5.7013   9
  -4 -13  -2 30.7143  6.2800   9
 -13  -4  -2 22.2910  5.5297   9
   4 -13  -2 28.1081  6.1076   9
  -4  13  -2 28.3147  6.1009   9
  13   4  -2 24.7322  5.8010   9
  13  -4   2 19.4265  6.6852   2
   4  13   2 23.4983  6.4798   2
 -13   4   2 19.2381  6.2997   2
  -4 -13   2 14.2694  6.3084   2
  13   4  -2 18.8054  6.7903   6
  13   5   2 370.029  16.807   6
 -13   5  -2 361.575  14.051   9
  13   5   2 342.349  15.033   2
  13  -5  -2 352.823  14.288   9
  -5  13   2 317.905  14.672   2
   5 -13   2 357.223  15.635   2
  -5 -13  -2 368.685  14.176   9
 -13  -5   2 368.149  15.419   2
  13   5  -2 343.029  16.164   6
   5  13   2 331.766  14.873   2
  13   5  -2 336.828  13.996   9
  -5 -13   2 339.943  15.406   2
 -13   5   2 357.920  15.203   2
  13  -5   2 318.839  14.872   2
  13  -6  -2 11.5080  5.8309   9
   6 -13   2 18.3972  6.8114   2
  -6 -13  -2 17.2578  5.7401   9
  -6  13   2 11.8156  5.9493   2
 -13  -6   2 17.6162  6.3413   2
   6  13  -2 15.8288  6.6643   6
  13   6   2 9.69553 5.93558   2
  13   6   2 13.1713  6.9810   6
   6  13   2 10.3813  6.6325   6
 -13   6   2 10.5263  6.2508   2
   6 -13  -2 9.65398 5.51134   9
 -13  -6  -2 15.7100  5.5816   9
  13  -6   2 13.7324  6.3620   2
  -6 -13   2 10.0634  6.5195   2
  13   6  -2 16.9530  7.1436   6
   6  13   2 17.0725  6.3026   2
  13   7   2 27.1755  7.3967   2
   7 -13   2 26.0530  7.4977   2
  -7 -13  -2 27.7527  6.3171   9
   7  13  -2 27.1833  7.5682   6
 -13  -7   2 27.6678  6.9585   2
  13   7   2 33.4718  8.2656   6
  -7  13   2 25.6033  6.7238   2
  13  -7  -2 23.6318  6.3602   9
   7 -13  -2 32.1742  6.5587   9
 -13  -7  -2 22.4178  6.1323   9
  13  -7   2 31.5396  7.2956   2
   7  13   2 36.8965  8.2743   6
  -7 -13   2 11.1068  6.7260   2
 -13   7   2 18.9208  6.3445   2
   7  13   2 20.9190  6.5410   2
  13   7  -2 22.1647  7.4786   6
   8 -13   2 7.26439 6.47169   2
  -8  13   2 11.4199  6.4942   2
  13   8   2 7.18378 6.47723   2
  13   8   2 2.10092 6.57595   6
   8  13  -2 -0.4004  6.9322   6
 -13  -8   2 -0.6952  5.7266   2
  -8 -13  -2 5.16530 5.71812   9
   8  13   2 -2.6764  6.4122   6
  -8 -13   2 -6.6513  5.7207   2
  13  -8   2 10.2629  6.8600   2
 -13   8   2 2.42719 5.68408   2
  13   8  -2 9.11716 6.99497   6
   8  13   2 6.89229 6.38622   2
 -14   0   2 1630.26   41.00   7
   0 -14   2 1532.56   39.53   2
 -14   0  -2 1623.17   37.35   9
  14   0   2 1581.57   39.61   2
 -14   0   2 1588.69   39.17   2
   0 -14  -2 1601.51   37.25   9
   0  14   2 1562.35   38.93   2
  14   0  -2 1694.53   37.86   9
  -1 -14  -2 44.1347  7.1005   9
  14  -1  -2 44.3925  7.3843   9
   1 -14   2 57.5088  8.1940   2
  14   1   2 62.7294  8.5465   2
  14   1   2 39.2721  8.0566   6
  -1  14   2 61.9529  8.1160   2
 -14  -1   2 54.8244  7.9216   2
 -14   1  -2 58.8212  7.4256   9
   1  14   2 45.1185  7.6153   2
 -14  -1  -2 44.1256  6.9053   9
  14   1  -2 60.5570  7.6059   9
   1 -14  -2 57.1649  7.3200   9
 -14   1   2 50.1939  7.7021   2
 -14   1   2 55.0862  9.5490   7
  -1 -14   2 40.2473  7.4264   2
  14  -1   2 47.2334  7.7379   2
  14   2   2 747.416  23.655   2
  14   2   2 752.819  25.322   6
  14  -2  -2 773.952  22.595   9
  -2 -14  -2 809.319  22.496   9
   2 -14   2 771.863  24.042   2
 -14   2  -2 736.785  21.835   9
  -2  14   2 758.397  23.538   2
 -14  -2   2 738.403  23.617   2
   2 -14  -2 779.451  22.554   9
   2  14   2 764.091  23.713   2
  14   2  -2 794.043  22.558   9
  -2 -14   2 747.332  23.838   2
  -2 -14   2 697.667  23.593   2
 -14  -2  -2 779.945  22.065   9
 -14   2   2 712.632  25.490   7
 -14   2   2 768.728  23.558   2
  14  -2   2 749.859  23.927   2
 -14  -3   2 114.264  10.083   2
  -3  14   2 116.425  10.012   2
  14   3   2 127.700  11.675   6
  14  -3  -2 129.177  10.098   9
   3 -14   2 112.977  10.363   2
  14   3   2 118.282  10.452   2
  -3 -14  -2 124.797   9.935   9
 -14  -3  -2 102.498   9.147   9
  -3 -14   2 122.916  10.752   2
 -14   3   2 96.6718 11.7246   7
  -3 -14   2 122.646  10.726   2
   3 -14  -2 120.948   9.826   9
  14   3  -2 129.111  11.684   6
  14  -3   2 107.880  10.204   2
 -14   3   2 98.5729  9.7747   2
   3  14   2 104.662   9.868   2
  -4 -14  -2 2060.60   46.00   9
  14  -4  -2 2215.21   46.85   9
  -4  14   2 2040.49   47.78   2
  14   4   2 1986.61   50.46   6
  14   4   2 1948.68   47.86   2
 -14  -4   2 2106.51   48.54   2
   4 -14   2 2011.68   48.43   2
   4 -14  -2 2098.53   46.33   9
 -14   4   2 2085.41   48.25   2
  -4 -14   2 2114.38   48.90   2
 -14   4   2 2105.71   52.27   7
   4  14   2 2026.60   47.95   2
 -14  -4  -2 2067.74   45.91   9
  14  -4   2 2070.18   48.59   2
  14   4  -2 2072.02   50.78   6
  14   5   2 10.2062  6.9523   6
  14   5   2 12.8749  6.4812   2
   5 -14   2 -1.8615  5.9557   2
 -14  -5   2 10.9695  6.3358   2
  -5  14   2 6.05435 6.10882   2
  -5 -14  -2 -0.7805  5.2721   9
  14   5  -2 -3.9332  6.1778   6
  -5 -14   2 -5.5385  5.7358   2
   5 -14  -2 8.83033 6.14614   9
  14  -5   2 -3.9874  5.5224   2
 -14   5   2 16.1882  6.4233   2
 -14   5   2 12.3447  8.0220   7
   5  14   2 5.82804 5.79919   2
 -14  -6   2 1152.89   31.72   2
  -6 -14  -2 1154.61   29.92   9
  -6  14   2 1080.99   30.86   2
  14   6   2 1138.89   31.61   2
   6 -14   2 1142.28   31.92   2
  14   6   2 1100.17   33.17   6
   6  14   2 1097.26   31.32   2
   6 -14  -2 1159.80   29.85   9
  -6 -14   2 1116.09   31.59   2
  14   6  -2 1064.47   32.50   6
 -14   6   2 1077.52   30.89   2
 -14   6   2 1121.27   35.32   7
  14  -6   2 1125.92   31.79   2
   0 -15  -2 -1.0755  5.8077   9
   0 -15   2 5.12885 5.92492   2
  15   0   2 4.42947 6.49183   6
  15   0   2 -1.8700  5.5100   2
   0  15   2 -6.1931  5.0742   2
 -15   0   2 12.1487  6.1099   2
  -1  15   2 187.524  12.067   2
 -15  -1   2 162.019  11.542   2
   1 -15   2 187.339  12.649   2
  15   1   2 170.747  11.758   2
  -1 -15  -2 188.796  11.292   9
  15   1   2 171.209  12.887   6
  -1 -15   2 194.974  13.079   2
  -1 -15   2 176.750  12.670   2
   1 -15  -2 187.195  11.216   9
  15  -1   2 132.518  11.613   2
 -15   1   2 170.059  11.355   2
   1  15   2 175.561  11.502   2
 -15   1   2 178.191  13.394   7
  15   2   2 -5.5930  5.4558   2
  -2 -15  -2 11.5884  5.9149   9
  15   2   2 3.07325 6.63652   6
 -15  -2   2 -4.8664  5.8909   2
  -2  15   2 3.04125 6.01391   2
   2 -15   2 -7.7532  5.9516   2
 -15   2   2 3.77990 7.52135   7
 -15   2   2 5.92340 5.96722   2
  -2 -15   2 -3.0371  6.0383   2
  15   2  -2 -0.2272  6.2855   6
  15  -2   2 -0.7721  6.3804   2
   2  15   2 -7.1442  5.3416   2
   2 -15  -2 8.36906 5.88643   9
  -2 -15   2 6.79180 6.40115   2
  15   3   2 241.137  14.778   6
  15   3   2 236.693  13.576   2
 -15  -3   2 242.106  13.494   2
  -3 -15  -2 250.675  13.240   9
   3 -15   2 261.691  14.636   2
  -3  15   2 254.327  13.374   2
  15   3  -2 249.771  14.968   6
 -15   3   2 267.947  16.233   7
   3  15   2 248.613  13.913   2
 -15   3   2 261.978  13.677   2
  15  -3   2 226.791  13.955   2
  -3 -15   2 276.926  14.997   2
   3 -15  -2 281.591  13.605   9
   0   0   3 -2.8320  1.9932   7
   0   0   3 0.94197 2.17392   8
   0   0   3 1.68587 2.15747   5
   1   0   3 -6.7179  2.1542   8
  -1   0   3 -3.1917  2.3140   5
   1   0   3 -2.8330  1.9476   7
  -1   0  -3 -4.7120  1.0909   4
  -1   0   3 -3.0576  2.0106   8
   0  -1   3 -3.5834  2.2118   7
   0  -1   3 -4.2991  1.9682   8
  -1   0   3 -4.9418  1.9259   7
   0  -1   3 -2.7618  2.0566   5
   0   1   3 -8.9422  1.8391   8
   0   1   3 -6.5217  2.0077   7
   0   1   3 -7.1081  1.8340   5
   1   0  -3 -3.7884  1.0874   4
   1   0   3 -7.8481  2.1141   5
   1  -1   3 -11.064   2.100   8
   1  -1  -3 -8.2903  1.2388   4
   1   1   3 -9.0053  2.1448   5
  -1   1   3 -6.5928  2.3078   7
   1   1  -3 -7.9786  1.4282   4
   1   1   3 -7.6290  2.1143   8
   1  -1   3 -4.9211  2.2124   5
   1  -1   3 -9.7287  2.0060   7
  -1   1   3 -5.9861  2.4710   8
   1   1   3 -8.1176  2.0832   7
  -1  -1  -3 -8.8963  1.2539   4
  -1  -1   3 -10.659   2.099   7
  -1  -1   3 -4.6723  2.3109   5
  -1  -1   3 -8.0661  2.1973   8
  -2   0   3 462.257  11.368   8
   0  -2   3 475.512  11.285   7
   0   2   3 475.461  11.073   7
   2   0   3 475.955  11.396   5
   0   2   3 477.796  11.010   5
   0   2   3 468.006  11.343   3
   0  -2   3 485.517   9.243   2
  -2   0  -3 478.634  10.432   4
   0  -2   3 477.398  11.331   3
   2   0   3 460.141  11.605   8
   0  -2   3 474.301  11.451   8
   0  -2   3 471.196  11.229   5
   2   0  -3 476.151  10.405   4
   0   2   3 461.963  11.538   8
  -2   0   3 469.307  11.599   7
  -1   2   3 773.526  17.559   8
  -1   2   3 762.793  16.740   3
   2   1   3 771.572  16.643   7
   1  -2   3 789.652  16.939   5
  -1  -2  -3 788.473  16.154   4
  -2  -1   3 774.838  16.907   7
   1  -2   3 813.137  15.123   2
  -2   1  -3 775.589  16.332   4
   2  -1  -3 796.084  16.198   4
  -2  -1   3 758.909  16.759   3
  -2  -1   3 799.218  16.828   8
   1  -2   3 783.737  17.461   8
  -1   2   3 768.272  16.940   7
   2   1   3 792.769  17.086   8
   2   1   3 815.707  16.955   5
  -2  -1   3 811.310  14.911   2
   1   2   3 785.399  16.886   3
  -1  -2   3 784.234  16.748   7
  -2  -1  -3 788.924  16.187   4
  -1  -2   3 818.694  15.085   2
  -2   1   3 770.015  16.576   3
   1   2   3 790.806  16.431   5
   2  -1   3 789.458  14.906   2
  -2   1   3 780.714  17.531   8
   2  -1   3 777.335  17.492   8
   2   1  -3 779.172  16.364   4
  -2   1   3 792.572  17.253   7
  -1  -2   3 797.066  17.041   3
  -1  -2   3 784.148  16.742   5
  -1  -2   3 780.689  16.690   8
   1   2   3 790.526  17.098   8
  -2  -2   3 -0.5793  2.0110   8
   2  -2   3 0.60512 2.67393   8
   2   2   3 -3.0014  1.9788   5
  -2  -2   3 -0.9953  2.0184   7
  -2  -2   3 -1.5126  2.1152   3
   2  -2  -3 -0.4056  1.7377   4
  -2   2   3 3.65526 2.47386   7
   2  -2   3 -2.6622  1.5313   2
   2   2   3 0.40730 2.03272   7
  -2  -2   3 -1.1848  1.4903   2
  -2   2   3 -2.6892  1.3298   2
  -2  -2  -3 -1.8434  1.6974   4
   2   2   3 -4.4764  2.1956   3
   2   2  -3 -0.7573  1.7751   4
   2   2  -3 -0.3458  1.1490   9
  -2   2  -3 -0.0449  1.1154   9
   2   2   3 -1.4075  1.3122   2
  -2   2   3 2.79317 2.19397   3
   2   2   3 -2.5426  2.1143   8
  -2  -2   3 1.19443 2.32130   5
  -3   0   3 -3.7155  2.2705   3
   0  -3   3 -6.0465  2.3042   8
  -3   0  -3 -6.9850  1.1009   9
  -3   0   3 -7.4621  2.6337   7
  -3   0  -3 -7.3762  1.8303   4
   3   0   3 -8.1625  2.3483   8
   0  -3   3 -7.6060  1.7058   2
   3   0   3 -8.2601  1.5852   2
   0   3   3 -4.5433  2.0752   7
   0  -3   3 -7.1545  2.1098   5
   0   3   3 -10.857   2.454   8
   0  -3   3 -7.8487  2.2192   7
   3   0  -3 -7.5637  1.1367   9
   0  -3   3 -5.9044  1.7398   2
   0  -3   3 -7.2764  2.4867   3
   0   3   3 -6.9339  1.4033   2
   0   3   3 -7.4938  2.4983   3
   3   0  -3 -8.2422  1.7638   4
   0   3   3 -4.0491  2.0898   5
  -3   0   3 -6.8705  1.5645   2
   0   3  -3 -7.2736  1.2920   9
   1  -3   3 32.9510  3.3605   3
  -3   1  -3 33.7361  2.1166   9
   3  -1  -3 32.6948  2.0242   9
  -3  -1   3 34.9440  3.3621   3
  -1   3   3 38.1096  3.5590   7
   1  -3   3 29.6612  3.6080   8
   3   1   3 33.5780  3.3725   8
   3   1   3 28.9151  2.4466   2
   3  -1  -3 31.8971  2.8976   4
   1  -3   3 29.3107  2.5618   2
  -1   3   3 34.2431  3.4779   3
  -3  -1   3 28.4958  3.3732   7
  -3  -1   3 34.2770  2.6421   2
   1   3  -3 29.1891  2.2429   9
   1  -3   3 32.9165  3.4212   5
  -1  -3  -3 29.8636  2.9099   4
  -3  -1   3 32.7208  3.1908   8
  -3   1  -3 32.5741  3.0750   4
  -1   3   3 33.1609  2.3617   2
   1   3   3 29.6754  3.7275   3
   3   1  -3 32.0146  2.2423   9
   3  -1   3 30.3732  3.6043   8
  -1  -3   3 29.3715  3.0843   7
  -1  -3   3 34.1031  3.2135   5
  -3   1   3 34.6765  3.1851   3
  -1  -3   3 33.4551  3.5257   3
   1   3   3 38.7043  3.5093   8
   1   3   3 26.7081  2.7732   5
   1   3   3 36.8360  2.4663   2
   1   3   3 31.7012  2.8641   7
   3   1  -3 32.1171  3.0318   4
  -3  -1  -3 27.9820  2.7662   4
  -1  -3   3 32.1125  3.1315   8
   3  -1   3 32.6870  2.6458   2
  -1   3  -3 33.3488  2.2206   9
  -3  -1  -3 30.4857  1.9071   9
  -3   1   3 32.2249  2.5120   2
  -3   1   3 33.9905  4.0493   7
  -1  -3   3 31.5290  2.7144   2
  -3  -2   3 6.70050 1.94718   2
  -2  -3  -3 3.14038 1.53429   9
   2   3  -3 3.91677 1.84147   9
  -2   3   3 6.45140 2.00302   2
   2   3  -3 7.40146 2.28092   1
  -3   2  -3 1.36062 2.14981   4
   2  -3   3 5.59261 2.12761   2
  -3  -2   3 5.21509 2.72491   3
  -2  -3  -3 6.17487 2.20822   1
  -3  -2   3 3.65860 2.39822   7
   3   2   3 4.37055 2.40640   8
  -2   3   3 1.14894 2.80717   7
  -2   3   3 -2.0228  2.4174   3
   2   3  -3 6.48864 2.28349   1
   3  -2  -3 2.07000 2.06261   4
   3  -2  -3 5.55395 1.61981   9
  -2  -3  -3 7.43109 2.29058   4
   3  -2  -3 5.73543 2.31467   1
   3   2   3 5.74491 2.00596   2
  -3  -2   3 4.09535 2.20605   8
   2   3  -3 8.77428 2.58836   4
  -3   2  -3 2.85763 1.63278   9
  -3   2  -3 4.20094 2.28335   1
   3   2   3 2.53098 2.58181   3
  -3   2   3 4.65371 2.34440   3
  -2  -3   3 1.05195 1.93689   2
  -2  -3   3 -0.2538  2.0582   8
  -2   3  -3 5.93687 2.28150   1
   2   3   3 8.22757 3.10282   3
   2   3   3 5.50233 2.16282   7
   2   3   3 4.45657 2.46881   8
   2   3   3 3.07232 1.90029   2
  -2   3  -3 6.04817 1.73620   9
  -3   2   3 2.23157 1.93657   2
   2  -3  -3 4.44229 2.15181   4
   3   2  -3 6.75682 1.80584   9
  -3  -2  -3 3.86203 1.61852   9
   3   2  -3 8.52440 2.36727   4
   2   3   3 3.50331 2.25018   5
  -2  -3   3 6.16094 2.47477   5
  -3   2   3 -0.2073  2.9970   7
  -2  -3   3 6.63330 2.88643   3
  -2  -3   3 4.64143 2.33635   7
  -3  -2  -3 2.71121 2.25722   4
   2  -3  -3 4.90718 1.60977   9
   3  -2   3 6.86493 2.11412   2
  -3  -2  -3 2.72536 2.08059   1
   3   2  -3 2.12482 2.14549   1
   2  -3  -3 0.95887 2.04193   1
  -3   3  -3 -2.1044  2.0414   1
  -3  -3   3 -3.4033  1.9347   7
  -3   3   3 -1.8357  1.8117   2
   3  -3  -3 -2.7652  1.6524   9
   3  -3   3 -2.1259  2.0151   2
   3  -3  -3 -3.6339  2.0774   1
  -3  -3   3 2.50232 2.02963   2
   3   3   3 2.37222 2.57173   6
  -3   3   3 -0.0499  3.0559   7
  -3  -3  -3 -2.1293  1.6774   9
   3   3  -3 1.99427 2.22392   4
   3   3  -3 0.93639 2.20281   1
  -3  -3  -3 -0.7673  2.0663   1
   3  -3  -3 -4.1914  2.0161   4
  -3   3  -3 1.85597 1.84188   9
  -3  -3   3 -3.6224  1.7950   8
  -3   3   3 -1.6702  2.1578   3
  -3  -3   3 -0.7867  2.5407   3
   3   3   3 -0.1840  2.0792   8
   3   3   3 -0.7518  1.9440   2
  -3  -3  -3 -1.4804  2.0493   4
   3   3  -3 -1.4205  1.8488   9
   4   0   3 129.259   4.750   2
  -4   0   3 126.184   4.756   2
   0   4  -3 116.512   5.024   1
  -4   0   3 126.854   5.841   7
   0   4  -3 125.042   4.459   9
   4   0  -3 119.872   4.341   9
   4   0  -3 122.420   4.933   1
   0   4   3 134.259   4.640   2
   0   4   3 124.249   4.699   5
  -4   0  -3 112.666   5.035   4
   4   0   3 119.927   5.699   8
   0  -4  -3 123.894   4.057   9
   0  -4   3 127.225   5.532   8
   0  -4   3 131.308   4.952   2
   0  -4   3 122.325   5.990   3
  -4   0  -3 121.865   4.239   9
   0   4   3 118.936   4.876   7
   0  -4   3 128.911   5.166   5
   0  -4  -3 123.426   4.948   1
   4   0  -3 128.247   5.203   4
  -4   0  -3 118.479   4.915   1
  -4   0   3 129.745   4.996   3
   0   4   3 123.031   6.201   3
  -4   1  -3 318.435   8.767   1
  -4  -1   3 332.643   8.425   2
  -4  -1   3 312.931   9.539   7
  -1   4   3 307.163   9.647   3
   4  -1  -3 311.368   9.048   4
  -4   1  -3 342.739   7.895   9
  -1   4   3 331.967   8.248   2
   1  -4   3 333.457   9.583   3
   1   4  -3 319.072   8.026   9
   4  -1  -3 334.497   8.766   1
  -1  -4  -3 340.474   7.700   9
  -4   1  -3 322.554   9.172   4
   1  -4   3 329.288   8.628   2
   4   1   3 325.517   8.371   2
   1   4  -3 314.657   8.702   1
  -1   4   3 342.019   9.382   7
   4   1   3 337.423   9.416   8
  -1  -4  -3 327.175   8.651   1
   4  -1  -3 332.100   7.942   9
  -4  -1   3 323.986   8.946   3
  -1  -4  -3 317.898   9.045   4
   4   1  -3 326.436   8.694   1
  -4   1   3 334.804  10.394   7
   1   4   3 325.167   9.722   6
  -4  -1  -3 330.720   7.792   9
   1   4   3 321.845   9.451   8
   4   1  -3 342.385   8.065   9
  -4  -1  -3 315.644   9.150   4
  -4   1   3 315.722   8.491   3
  -1   4  -3 327.896   8.841   1
   4   1  -3 334.669   9.242   4
   1   4   3 331.999   8.236   2
  -1  -4   3 341.579  10.065   3
  -1  -4   3 343.057   8.896   8
  -4   1   3 337.240   8.403   2
  -1  -4   3 327.868   8.628   2
  -1   4  -3 327.203   8.067   9
   4  -1   3 329.616   8.482   2
   1   4   3 327.960   8.177   7
  -1  -4   3 323.662   8.630   5
  -1  -4   3 318.605   8.664   7
  -4  -1  -3 322.286   8.716   1
   1  -4  -3 332.869   8.705   1
   2   4  -3 131.396   5.001   9
   2  -4   3 147.310   5.917   3
  -2  -4  -3 136.512   4.584   9
   2   4  -3 136.753   5.038   9
   4   2   3 139.924   5.231   2
   4  -2  -3 130.404   4.660   9
  -2  -4  -3 135.361   5.403   1
  -4  -2   3 141.342   5.288   2
  -4  -2   3 131.844   5.676   7
   4  -2  -3 133.046   5.665   4
  -2   4   3 133.096   6.118   3
   4   2   3 135.346   5.616   8
  -2   4   3 135.082   6.248   7
   2  -4   3 142.454   5.457   2
  -4  -2   3 140.617   5.923   3
  -4   2  -3 133.133   5.728   4
   4  -2  -3 142.216   5.559   1
  -4   2  -3 136.702   4.804   9
   4   2   3 125.738   5.927   6
   2   4  -3 142.585   5.601   1
  -2  -4  -3 124.147   5.500   4
  -2   4   3 133.379   5.089   2
  -4   2  -3 132.552   5.621   1
  -2   4  -3 136.089   4.833   9
  -4   2   3 124.875   5.245   3
   2  -4  -3 137.198   4.691   9
   2   4   3 143.263   4.740   7
  -2  -4   3 139.010   5.202   5
  -2  -4   3 133.543   5.021   8
  -2  -4   3 125.155   6.568   3
   4   2  -3 134.233   5.783   4
  -4  -2  -3 121.516   5.679   4
   2   4   3 127.729   5.497   8
  -2   4  -3 136.927   5.560   1
   2   4   3 134.314   4.862   5
   4   2  -3 143.178   5.472   1
  -2  -4   3 132.173   5.241   7
  -4  -2  -3 136.698   5.352   1
   4   2  -3 136.017   4.936   9
  -4   2   3 128.793   5.030   2
  -4  -2  -3 133.016   4.740   9
   4  -2   3 129.771   5.278   2
   2   4   3 123.346   5.876   6
   2  -4  -3 127.278   5.230   1
  -4   2   3 142.869   6.953   7
   2   4   3 138.564   5.084   2
  -2  -4   3 131.040   5.281   2
  -4   3  -3 659.560  16.324   4
   3  -4   3 706.042  15.519   2
   4  -3  -3 653.762  16.004   4
   3   4  -3 677.408  14.810   9
   4  -3  -3 632.926  15.226   1
  -4   3  -3 671.622  15.599   1
   4   3   3 653.565  14.989   2
  -4  -3   3 634.876  15.037   7
  -3  -4  -3 672.360  16.205   4
  -4  -3   3 680.128  14.457   8
  -4   3  -3 634.239  14.505   9
  -3  -4  -3 651.546  15.350   1
   3  -4   3 680.973  15.008   3
   3   4  -3 657.770  15.522   1
   4   3   3 674.183  15.128   8
   4  -3  -3 673.564  14.510   9
  -4  -3   3 650.518  15.970   3
  -3   4   3 648.645  16.981   7
  -3  -4  -3 681.314  14.397   9
  -3   4   3 679.948  15.909   3
   4   3   3 662.877  16.485   6
   3   4  -3 689.067  16.488   4
  -3   4   3 681.040  15.055   2
   3   4  -3 653.315  15.532   1
  -4  -3   3 673.443  15.261   2
  -4  -3  -3 645.812  16.059   4
  -3   4  -3 670.594  15.539   1
   3   4   3 670.424  15.085   2
  -4   3   3 648.457  15.080   3
  -4  -3  -3 674.648  14.370   9
  -3  -4   3 660.854  14.198   8
  -4   3   3 691.568  17.680   7
   4   3  -3 683.216  14.787   9
   3   4   3 670.213  15.148   8
   3  -4  -3 673.288  15.379   1
  -3  -4   3 678.767  14.833   7
   3  -4  -3 681.220  14.474   9
   4   3  -3 672.324  16.412   4
   4   3  -3 668.518  15.490   1
  -4   3   3 677.753  15.080   2
  -3  -4   3 673.594  15.272   2
   3   4   3 662.692  16.584   6
   3  -4  -3 656.791  16.079   4
  -3   4  -3 665.383  14.602   9
  -3  -4   3 672.239  15.051   5
  -4  -3  -3 669.514  15.372   1
  -3  -4   3 654.523  16.670   3
   4  -3   3 670.237  15.331   2
   4   4  -3 -6.3986  2.2934   1
  -4   4   3 -2.7503  2.2720   2
  -4   4   3 -7.4053  3.3541   7
   4  -4   3 -4.1230  2.2167   2
  -4  -4   3 -1.5147  2.4453   2
   4   4  -3 -8.0403  2.3327   4
   4   4   3 2.77631 2.73506   6
   4   4  -3 -4.9502  2.3540   1
  -4   4  -3 -4.2840  2.3664   1
   4  -4  -3 -0.3046  2.5202   1
  -4  -4  -3 -6.4783  2.2146   1
   4   4   3 -1.8525  2.0406   8
  -4   4  -3 1.13332 2.53351   2
   4   4  -3 -4.0460  2.4429   2
   4   4  -3 -2.5060  2.1489   9
  -4  -4  -3 -4.4269  2.0545   9
  -4  -4   3 -4.7826  1.9505   7
  -4   4   3 -2.8376  2.6283   3
   4  -4  -3 2.36711 2.62197   4
  -4   4  -3 -6.0322  1.8982   9
  -4  -4   3 -6.8333  2.7260   3
  -4  -4   3 -3.9451  1.7193   8
  -4  -4  -3 1.41093 2.62677   4
   4  -4  -3 -1.6862  2.1644   9
   4   4   3 -2.6510  2.2780   2
   4   4  -3 -4.7258  2.3909   6
   0  -5   3 -5.2465  2.1416   5
  -5   0  -3 -3.9549  1.9665   9
   0   5   3 -1.5499  2.0977   2
   5   0  -3 -2.1169  2.3404   4
   0  -5  -3 -2.6165  2.3099   1
  -5   0   3 -3.8480  1.9884   3
   5   0  -3 -3.8186  2.2585   1
   0  -5   3 -7.1252  2.9970   3
   0   5   3 -5.1872  2.0212   7
   0  -5   3 -2.3201  2.2157   2
   0   5   3 -4.8031  1.8785   5
  -5   0  -3 0.31119 2.42606   1
  -5   0   3 -2.6651  2.8856   7
   0   5  -3 -1.3512  2.3492   1
   5   0   3 -3.3893  2.1329   2
   5   0   3 -2.8241  2.5774   8
   5   0  -3 -2.6776  1.9479   9
  -5   0   3 -1.9263  2.0926   2
  -5   0  -3 -6.4474  2.1663   4
   0   5  -3 -2.8503  1.9644   9
   0  -5  -3 -7.1271  1.7790   9
  -5   1  -3 10.8122  2.8148   1
  -1  -5  -3 13.8367  2.9408   1
  -1  -5  -3 10.5438  2.3830   9
   5  -1  -3 11.7868  2.9103   4
   5  -1  -3 14.6998  2.5380   9
   5   1   3 10.7575  2.6106   2
   1   5  -3 8.93733 2.35214   9
   1  -5   3 15.9902  3.6184   3
  -5   1  -3 10.1060  2.8037   4
  -5  -1   3 9.37308 3.20291   7
   5  -1  -3 12.5945  2.8320   1
  -1  -5  -3 12.3522  2.9011   4
  -5   1  -3 12.4662  2.4092   9
  -5  -1   3 11.1447  2.7018   3
  -1   5   3 4.92358 2.43865   2
   1   5  -3 15.6769  2.9633   1
  -1   5   3 12.9449  2.8742   7
  -5  -1   3 9.90202 2.60265   2
   1  -5   3 13.2268  2.8139   2
   5   1   3 11.0093  2.9182   8
   5   1   3 11.6081  3.0829   6
  -5   1   3 17.0379  3.7467   7
   5   1  -3 9.45695 2.78316   4
   1  -5  -3 9.10097 2.33411   9
  -5  -1  -3 12.1623  2.4150   9
   1   5   3 9.09020 3.14387   6
   5   1  -3 10.5319  2.4345   9
   1   5   3 11.9722  2.2430   7
  -5   1   3 9.41253 2.53355   2
  -1  -5   3 12.3905  2.8125   8
  -1   5  -3 11.1098  2.4569   9
  -1  -5   3 11.9229  2.7387   2
   1   5   3 8.85482 2.54230   2
   1  -5  -3 10.0481  2.7769   1
  -5   1   3 14.4345  2.6190   3
  -1  -5   3 13.4735  2.5810   5
  -1  -5   3 7.55957 3.62474   3
  -5  -1  -3 14.8572  2.9654   4
  -1  -5   3 12.4831  2.6752   2
  -1   5  -3 12.9072  2.8798   1
  -5  -1  -3 15.0333  2.8787   1
   5   1  -3 14.4837  2.9616   1
   5  -1   3 9.67834 2.62180   2
   5   2   3 289.918   9.520   6
   2  -5   3 293.127   8.727   2
   2   5  -3 288.168   8.268   9
   5  -2  -3 282.644   8.022   9
   5   2   3 309.762   8.807   8
  -2   5   3 275.031   9.427   7
  -5   2  -3 277.182   8.831   1
   2   5  -3 301.587   9.128   2
  -2  -5  -3 280.357   9.191   4
  -5  -2   3 283.799   8.529   2
   5  -2  -3 305.983   9.355   4
  -5   2  -3 305.996   9.320   4
  -2  -5  -3 286.273   7.982   9
   5   2   3 290.118   8.444   2
  -2   5   3 298.942   8.524   2
   5  -2  -3 277.455   8.725   1
   2  -5   3 288.979   9.298   3
  -5   2  -3 274.082   7.928   9
  -5  -2   3 286.915   9.036   7
  -5  -2   3 291.250   8.855   3
   2   5  -3 296.654   8.339   9
  -2  -5  -3 279.577   8.759   1
   2   5  -3 277.896   8.867   1
  -2   5  -3 304.629   9.206   2
  -2  -5   3 284.378   8.023   7
   2   5   3 296.393   8.534   2
  -5   2   3 290.188   8.135   3
   5   2  -3 290.309   8.367   9
  -2   5  -3 273.237   8.840   1
   2   5   3 301.572   9.661   6
  -5  -2  -3 294.483   7.976   9
  -5  -2  -3 276.646   8.682   1
  -2  -5   3 298.140   8.040   8
  -5  -2  -3 280.464   9.163   4
  -2  -5   3 288.404  10.378   3
   2  -5  -3 288.233   7.959   9
   5   2  -3 289.438   9.290   4
   2  -5  -3 266.504   8.646   1
   5   2  -3 282.501   8.797   1
   5  -2   3 285.476   8.744   2
  -2  -5   3 288.772   8.087   5
  -5   2   3 284.853  10.677   7
  -2   5  -3 289.234   8.173   9
  -5   2   3 283.915   8.487   2
  -2  -5   3 291.332   8.789   2
  -3  -5  -3 12.0821  2.9095   1
  -5   3  -3 18.1438  3.2857   1
   3  -5   3 13.0713  3.0620   2
   5   3   3 13.0214  2.7581   2
   3   5  -3 8.73733 2.98643   2
  -5  -3   3 12.8915  2.8377   7
  -5   3  -3 8.02457 3.00385   4
   3   5  -3 11.8209  2.7514   9
   5  -3  -3 10.2272  2.4734   9
   5   3   3 15.4218  2.7236   8
   3   5  -3 14.6480  3.1855   1
  -5   3  -3 8.30479 2.84025   2
  -5  -3   3 14.6508  2.7853   2
  -3  -5  -3 13.7645  3.0996   4
   5  -3  -3 14.2620  3.0970   4
  -3   5   3 14.5885  2.8967   2
   5  -3  -3 13.9698  3.0521   1
  -3   5   3 12.3144  3.9080   7
  -3  -5  -3 11.1279  2.5571   9
   3  -5   3 8.81884 2.99613   3
   5   3   3 15.5235  3.5066   6
  -5  -3   3 13.5782  3.2957   3
  -5   3  -3 11.3936  2.5894   9
  -3  -5   3 14.5253  2.9141   2
  -5   3   3 13.0669  2.7905   3
  -3  -5   3 13.0737  2.4997   7
   5   3  -3 11.2372  2.9499   1
  -5  -3  -3 13.8065  3.1412   4
   5   3  -3 9.78535 3.12978   4
  -3   5  -3 14.9294  3.2115   2
   3  -5  -3 11.4188  2.9649   1
  -3  -5   3 13.8189  2.6755   5
  -3   5  -3 13.2346  2.7492   9
  -3  -5   3 8.08123 2.18214   8
  -3   5  -3 15.8279  3.3521   1
  -5   3   3 10.9842  4.1532   7
  -5   3   3 10.1446  2.8202   2
   3   5   3 13.4345  2.8495   2
   3   5   3 11.3880  3.3948   6
  -5  -3  -3 7.57568 2.82945   1
   3  -5  -3 19.6114  3.3014   4
   3   5   3 12.7783  2.7219   8
  -3  -5   3 14.5472  3.9834   3
   5  -3   3 14.9227  2.9947   2
   5   3  -3 15.2740  3.1366   2
   3  -5  -3 11.8639  2.5615   9
   5   3  -3 14.6047  2.7881   9
  -5  -3  -3 17.0386  2.7119   9
  -5   4  -3 80.4631  5.1476   2
  -5  -4   3 59.2773  4.4817   2
  -5   4  -3 59.9037  5.0479   1
  -5   4  -3 49.9489  4.1001   9
   5   4   3 64.8947  3.8828   8
   4   5  -3 59.6440  4.7300   6
  -5  -4   3 56.7004  4.0647   7
   5   4   3 58.2545  5.3822   6
   5  -4  -3 61.0278  4.3061   9
   5  -4  -3 65.8131  5.0494   1
   4   5  -3 68.3143  5.1438   2
  -4  -5  -3 66.0099  5.1671   4
   4  -5   3 61.7504  4.7411   2
  -4   5   3 65.5371  4.4999   2
  -5  -4   3 55.9759  5.2371   3
  -4   5   3 57.0842  6.2999   7
   4   5  -3 62.7960  4.8509   4
   4  -5   3 65.3767  4.3884   3
   4   5  -3 59.2525  4.3395   9
   4   5  -3 66.8026  5.0084   1
  -4  -5  -3 60.1066  4.2258   9
   5   4   3 58.5904  4.5984   2
   5  -4  -3 55.6593  4.8713   4
  -4  -5  -3 61.4402  4.7603   1
  -4   5  -3 63.1883  5.1149   2
   4  -5  -3 61.5298  5.0402   1
   5   4  -3 54.6031  4.3834   9
   5   4  -3 67.8273  5.1790   4
   4   5   3 51.7757  4.4749   2
   5   4  -3 64.2801  5.0665   1
  -5   4   3 64.9947  4.6495   2
   4  -5  -3 65.7848  4.3784   9
  -5   4   3 60.2790  4.6433   3
  -4  -5   3 73.1910  6.2747   3
  -5  -4  -3 73.2006  5.2320   4
  -4   5  -3 64.4874  4.1552   9
   5   4  -3 66.6953  4.9268   6
   4   5   3 61.5691  4.0572   8
   4   5   3 63.7352  5.5271   6
  -5  -4  -3 51.9366  4.7974   1
   5  -4   3 47.5057  4.4564   2
   5   4  -3 58.3291  4.9919   2
  -4  -5   3 59.1110  4.5925   2
  -5   4   3 65.6632  7.1989   7
  -5  -4  -3 70.0613  4.3920   9
   4  -5  -3 64.9990  4.9465   4
  -4  -5   3 62.9877  3.7831   7
  -4  -5   3 62.0336  4.2871   5
  -4   5  -3 62.6137  5.0612   1
  -5  -5  -3 0.55491 3.09339   4
  -5   5   3 -2.9215  4.1016   7
  -5   5  -3 -0.4353  2.5286   9
   5   5   3 1.03746 2.75089   2
  -5   5   3 2.56103 2.66928   2
   5   5   3 -0.0852  2.1281   8
  -5  -5  -3 -0.2266  2.9084   1
   5  -5   3 3.08324 2.81544   2
   5  -5  -3 -0.0292  2.5392   9
  -5  -5   3 -2.6996  2.0956   7
   5   5  -3 3.50831 2.97990   1
   5   5  -3 1.60786 3.04151   6
  -5  -5  -3 0.96869 2.42572   9
  -5   5  -3 -1.4683  2.7971   1
  -5  -5   3 3.21362 3.18964   3
   5  -5  -3 1.32569 2.90096   1
   5   5  -3 4.20475 2.72938   9
   5   5  -3 -3.4579  2.6580   1
   5   5   3 1.33126 3.11051   6
  -5  -5   3 0.85646 2.67411   2
   0  -6   3 553.256  13.940   2
   0   6   3 557.354  13.023   7
  -6   0   3 560.497  13.000   3
   6   0  -3 537.850  13.912   1
   0  -6  -3 560.878  14.052   1
  -6   0   3 555.720  13.771   2
   6   0   3 538.526  13.700   2
   6   0  -3 561.669  13.259   9
  -6   0  -3 536.693  14.525   4
   6   0  -3 544.739  14.197   2
   0   6   3 560.751  12.215   5
  -6   0  -3 567.210  14.167   2
   0  -6  -3 550.841  12.995   9
   0   6   3 562.636  13.592   2
   0   6  -3 561.271  14.461   2
   6   0  -3 566.833  14.759   4
  -6   0   3 546.617  15.356   7
   0   6  -3 541.006  14.083   1
  -6   0  -3 517.393  13.860   1
   0   6  -3 566.536  13.406   9
   6   0   3 546.155  14.535   8
  -6   0  -3 530.733  12.982   9
  -1   6   3 148.072   6.246   2
   6   1   3 152.364   7.002   6
  -6   1  -3 154.568   6.670   1
   1   6  -3 152.675   6.099   9
   1  -6   3 150.827   6.413   2
  -6   1  -3 138.199   6.437   2
   1   6  -3 149.153   6.719   2
  -6  -1   3 161.953   6.494   2
  -1  -6  -3 159.083   7.009   4
   1   6  -3 152.934   6.776   1
  -6   1  -3 154.796   6.999   4
   6  -1  -3 153.397   6.547   1
  -1  -6  -3 150.439   5.767   9
  -6   1  -3 150.702   5.867   9
   6  -1  -3 143.707   5.844   9
  -6  -1   3 149.799   5.913   3
  -6  -1   3 148.628   7.132   7
  -1  -6  -3 139.281   6.339   1
   6   1   3 152.035   6.691   8
  -1   6   3 159.926   6.454   7
   6  -1  -3 160.253   7.004   4
   6   1   3 146.897   6.368   2
  -6  -1  -3 148.705   6.844   4
  -6   1   3 149.674   7.827   7
   1   6   3 154.902   6.323   2
  -1  -6   3 133.818   6.306   2
  -1   6  -3 153.512   6.070   9
   6   1  -3 147.339   6.391   1
   1   6   3 155.293   5.276   7
  -6  -1  -3 140.265   6.416   1
   6   1  -3 137.273   6.729   4
   6   1  -3 149.511   6.688   2
  -1   6  -3 153.919   6.803   2
  -1   6  -3 155.297   6.642   1
   6  -1   3 154.952   6.556   2
   6   1  -3 149.187   6.043   9
  -6   1   3 153.243   5.677   3
  -6   1   3 143.483   6.055   2
  -6  -1  -3 156.875   6.039   9
  -1  -6   3 159.889   6.308   8
   1  -6  -3 144.601   5.755   9
   1  -6  -3 159.933   6.540   1
   2   6  -3 199.045   7.091   9
  -6  -2   3 188.269   7.717   7
   2   6  -3 190.744   7.680   2
  -6  -2   3 199.055   7.168   2
  -6   2  -3 184.500   6.698   9
  -2  -6  -3 180.131   7.498   1
  -2  -6  -3 193.283   7.864   4
   6   2   3 184.571   7.018   2
  -6  -2   3 204.320   7.381   3
   2   6  -3 186.351   6.954   6
  -6   2  -3 189.949   7.917   4
  -2  -6  -3 185.333   6.600   9
  -6   2  -3 179.395   7.281   1
   2  -6   3 192.153   7.351   2
  -2   6   3 188.528   7.673   7
  -2   6   3 183.136   7.118   2
   6  -2  -3 182.577   6.799   9
   2   6  -3 195.522   7.529   1
   6  -2  -3 186.691   7.509   1
   6   2   3 186.740   7.955   6
   6   2   3 196.943   6.981   8
   6  -2  -3 197.201   7.930   4
  -6  -2  -3 194.557   7.423   1
   6   2  -3 179.317   7.516   4
   6  -2   3 186.783   7.461   2
  -2   6  -3 190.249   7.561   1
  -2  -6   3 192.730   6.371   8
  -6  -2  -3 177.851   6.615   9
   2  -6  -3 185.298   6.672   9
  -6  -2  -3 192.550   7.823   4
   2   6   3 191.364   7.135   2
  -6   2   3 172.562   9.437   7
  -2  -6   3 188.340   6.276   5
  -2  -6   3 190.180   7.278   2
  -6   2   3 193.649   7.100   2
   6   2  -3 191.168   7.479   1
   6   2  -3 192.547   6.986   9
  -2   6  -3 197.667   7.773   2
   2  -6  -3 189.545   7.571   1
  -2   6  -3 184.676   6.737   9
   2   6   3 201.204   8.389   6
  -6   2   3 184.003   6.356   3
   6  -3  -3 138.488   5.920   9
  -3  -6  -3 133.933   5.835   9
   3   6  -3 127.485   6.521   1
   6  -3  -3 126.444   6.757   4
  -3   6   3 133.429   6.272   2
  -6  -3   3 138.568   6.175   7
  -6   3  -3 134.168   5.897   9
   3   6  -3 142.835   6.343   6
   6  -3  -3 124.666   6.447   1
  -3  -6  -3 131.140   6.438   1
   6   3   3 123.974   6.970   6
  -3  -6  -3 130.993   6.783   4
   6   3   3 133.311   5.724   8
   3   6  -3 146.263   6.077   9
  -6  -3   3 129.202   6.268   2
  -6   3  -3 130.120   6.603   1
   3   6  -3 148.328   6.980   2
  -3   6   3 121.023   7.255   7
  -6   3  -3 139.143   7.088   4
   3  -6   3 134.932   6.477   2
   3  -6   3 136.183   6.617   3
   6   3   3 126.083   6.190   2
  -6  -3   3 134.741   6.656   3
   6   3  -3 129.473   6.497   1
   6   3  -3 131.168   6.070   9
  -3  -6   3 134.831   5.316   5
  -3  -6   3 135.951   5.257   7
  -6  -3  -3 125.113   6.732   4
  -6   3   3 125.083   6.087   2
  -3   6  -3 133.124   6.774   2
  -3  -6   3 125.009   6.511   2
  -6   3   3 124.077   9.080   7
  -6  -3  -3 126.820   5.804   9
   3  -6  -3 137.322   6.697   1
   3  -6  -3 137.705   6.909   4
  -6   3   3 145.929   5.694   3
   3   6   3 127.633   6.169   2
  -3   6  -3 135.524   6.689   1
   6  -3   3 113.148   6.088   2
   3   6   3 122.385   7.045   6
  -3   6  -3 132.764   5.980   9
   3  -6  -3 144.216   6.088   9
  -6  -3  -3 125.243   6.576   1
  -4   6   3 16.7667  4.8709   7
  -6   4  -3 20.3578  4.0525   4
   6  -4  -3 29.2603  3.7019   9
  -4  -6  -3 20.8050  3.3861   9
  -4  -6  -3 12.0523  3.4930   1
   6   4   3 21.3138  3.0771   8
   4   6  -3 21.1746  3.5032   9
   6  -4  -3 12.4895  3.5449   1
  -6   4  -3 28.6133  3.6543   9
  -6  -4   3 15.6049  3.8028   3
   4  -6   3 19.0298  3.4775   3
  -6  -4   3 23.7528  3.6291   2
  -4   6   3 20.6764  3.5547   2
   6   4   3 18.3980  3.8126   6
  -4  -6  -3 26.0179  4.1591   4
   4  -6   3 18.7820  3.7073   2
   4   6  -3 23.9680  3.9065   6
  -6  -4   3 15.3369  3.1413   7
  -6   4  -3 17.8925  3.7349   1
   4   6  -3 21.4670  3.8417   1
   6   4   3 21.5047  3.6430   2
  -4  -6   3 20.9761  3.0188   5
   4  -6  -3 20.0550  3.4034   9
  -6  -4  -3 22.2143  3.3148   9
   6   4  -3 18.3344  3.4624   9
  -4   6  -3 15.9964  3.6860   1
  -6   4   3 16.6648  6.0026   7
  -6   4   3 23.7720  3.3752   3
  -6  -4  -3 24.5742  4.3143   4
   4   6   3 26.7299  3.7306   2
  -4  -6   3 21.3603  3.7074   2
  -4   6  -3 21.5731  3.4732   9
  -6   4   3 25.8264  3.6961   2
   6   4  -3 21.2872  3.8602   1
   6  -4   3 25.5485  3.8382   2
   4  -6  -3 17.7996  3.7020   1
   6   4  -3 16.7453  3.7072   6
   4   6   3 21.2423  4.3179   6
  -6  -4  -3 23.2476  3.9860   1
  -6  -5   3 106.889   7.073   3
   6  -5  -3 84.5952  6.0950   1
   5   6  -3 101.824   6.581   1
   5  -6   3 98.2974  6.5287   2
   5   6  -3 97.0292  5.7056   9
  -6   5  -3 97.7396  6.4464   1
  -6  -5   3 105.802   6.202   2
  -5   6   3 101.813   9.030   7
  -5  -6  -3 111.706   5.844   9
  -5  -6  -3 109.822   6.490   1
  -6   5  -3 101.285   5.698   9
   6   5   3 101.471   6.112   2
   6   5   3 105.232   6.986   6
  -5   6   3 92.8389  5.8139   2
   6  -5  -3 87.5634  5.6973   9
   5   6  -3 108.596   6.282   6
  -5   6  -3 101.929   6.511   1
  -5   6  -3 103.547   5.845   9
  -6   5   3 89.0258  9.8435   7
   6   5  -3 98.3762  6.4114   1
   6   5  -3 92.0796  6.1766   6
   5   6   3 96.1494  5.9651   2
   5  -6  -3 103.749   6.384   1
   6   5  -3 100.975   6.004   9
  -5  -6   3 85.1904  7.4817   3
   5  -6  -3 92.9681  5.7064   9
  -5  -6   3 106.241   6.302   2
   6   5  -3 88.1903  6.2584   1
  -6  -5  -3 95.8217  5.5435   9
  -6  -5  -3 103.230   6.396   1
   5   6   3 82.7338  6.9277   6
   6  -5   3 94.4113  6.3460   2
  -6   5   3 92.0673  6.0553   2
   6   6  -3 -0.5251  3.0923   9
   6  -6  -3 3.14148 3.52298   1
  -6   6   3 2.52197 6.20243   7
   6  -6   3 -0.4242  3.2918   2
  -6  -6   3 0.92063 4.04703   3
   6  -6  -3 1.61208 2.95897   9
  -6  -6  -3 -4.6499  3.1592   1
   6   6   3 3.21489 3.28593   2
   6   6  -3 -0.3685  3.4492   6
   6   6  -3 -3.6845  3.3354   1
  -6   6   3 -5.2708  2.7709   2
  -6  -6   3 -1.9460  3.1004   2
  -6   6  -3 1.16941 3.06431   9
  -6  -6  -3 -1.7958  2.8685   9
  -6   6  -3 1.54085 3.51995   1
   6   6   3 2.68696 3.75650   6
  -7   0   3 -0.5425  3.4673   7
   0   7   3 -1.5382  2.5722   2
   0   7   3 -0.2579  2.2921   7
  -7   0   3 -1.6558  2.2432   3
   0   7  -3 -1.6441  2.5085   9
  -7   0  -3 1.77656 2.92486   4
   0  -7  -3 1.72800 2.55662   9
   7   0  -3 -0.0799  2.3664   9
   7   0  -3 1.88615 2.77444   1
   0  -7   3 -0.3731  2.6161   2
   0   7  -3 -3.2188  2.7494   1
  -7   0  -3 4.38998 3.21102   1
   7   0   3 -3.6583  2.6029   2
  -7   0   3 -1.7234  2.5233   2
  -7   0  -3 2.77428 2.50724   9
   0  -7  -3 2.24539 2.81113   1
   7   1   3 1.24015 3.05387   6
   7  -1  -3 6.10386 2.71853   9
  -7  -1   3 5.44691 2.59394   3
   7   1   3 -0.3501  2.6058   2
  -1   7   3 6.60966 2.91732   7
  -1  -7  -3 3.41267 3.04757   4
  -7  -1   3 3.24963 3.42469   7
  -7   1  -3 6.24051 2.68481   9
  -7   1  -3 2.97132 3.04517   4
  -1  -7  -3 0.82892 2.82658   1
  -1   7   3 0.96327 2.69957   2
   1   7  -3 4.25603 2.56248   9
  -1  -7  -3 5.77568 2.83732   9
  -7   1  -3 6.77376 3.20378   1
   1   7  -3 4.59709 3.01816   1
   1   7  -3 2.77440 2.71208   9
   1  -7   3 4.79588 2.99753   2
  -7  -1   3 1.71888 2.58131   2
   7  -1  -3 6.48129 3.05750   1
   7   1   3 -2.8819  2.5994   8
  -1   7  -3 6.26916 2.64667   9
  -1   7  -3 5.40082 3.36399   1
  -7  -1  -3 2.06001 2.39518   9
   1   7   3 -0.7977  2.7082   2
   1  -7  -3 -1.5371  2.3990   9
   7   1  -3 2.78326 2.72682   9
  -1  -7   3 5.33868 2.89724   2
  -7   1   3 4.99097 4.29008   7
  -7  -1  -3 3.62635 2.95741   1
  -7   1   3 1.41182 2.57527   2
  -7   1   3 -2.4836  2.0198   3
   7   1  -3 6.19756 3.25258   1
   1  -7  -3 -0.1654  2.9111   1
   7  -1   3 0.81663 2.93125   2
  -1  -7   3 0.63808 2.62096   8
  -7  -1  -3 2.56826 2.97393   4
  -2  -7  -3 326.075  11.189   4
  -7  -2   3 318.662  10.135   2
   7   2   3 330.853   9.904   8
   2  -7   3 327.684  10.579   2
  -7   2  -3 310.677  10.474   1
  -7   2  -3 308.161  11.089   4
  -2  -7  -3 302.055  10.397   1
  -2   7   3 319.042  10.560   7
   2   7  -3 327.216  10.699   1
  -7  -2   3 333.292   9.859   3
   7   2   3 328.501  11.365   6
  -2   7   3 320.237  10.283   2
   7  -2  -3 322.150   9.719   9
  -2  -7  -3 311.356   9.532   9
  -7   2  -3 305.073   9.565   9
   2   7  -3 326.595   9.999   9
   7  -2  -3 321.925  10.515   1
   7   2   3 298.629  10.099   2
  -7  -2   3 316.094  10.578   7
   2   7  -3 316.910  10.068   6
   7   2  -3 327.159   9.948   9
   2   7   3 321.310  11.467   6
  -7  -2  -3 325.000  10.560   1
   2   7   3 332.514  10.319   2
  -7  -2  -3 322.218   9.724   9
   2  -7  -3 321.866   9.661   9
  -7  -2  -3 305.427  10.953   4
  -2   7  -3 290.492  10.305   1
  -2   7  -3 313.414   9.872   9
  -7   2   3 322.880  10.234   2
  -2  -7   3 300.138  10.173   2
  -7   2   3 339.665  13.193   7
   2  -7  -3 305.259  10.422   1
   7   2  -3 307.209  10.378   1
   7  -2   3 327.600  10.435   2
  -2  -7   3 312.622  10.282   2
   3   7  -3 22.8772  3.7091   6
  -3   7   3 22.6782  3.7587   2
  -7   3  -3 16.7639  3.3444   9
  -3  -7  -3 21.7933  3.5466   9
  -3  -7  -3 20.2773  4.1078   4
   3  -7   3 32.0385  4.4977   2
  -7  -3   3 21.2285  3.8155   3
  -3  -7  -3 15.7368  3.9939   1
  -7  -3   3 30.1528  4.2116   7
   7  -3  -3 25.3284  4.1388   1
  -3   7   3 26.3262  4.9654   7
   7   3   3 17.1577  3.5752   2
   7  -3  -3 21.6783  3.5979   9
  -7   3  -3 22.7833  4.0929   1
   3   7  -3 21.8327  3.7712   9
   3   7  -3 19.7619  4.0201   1
   7   3   3 18.3735  4.2048   6
   7   3   3 29.2252  3.5445   8
  -7  -3   3 27.3479  3.9450   2
  -3   7  -3 25.4327  4.2184   1
   7   3  -3 33.5856  4.0770   9
  -7  -3  -3 28.8792  4.4362   1
   3   7   3 16.9202  4.2373   6
   3   7   3 20.8243  3.7386   2
   7   3  -3 30.4205  4.3105   1
   3  -7  -3 18.7962  4.0050   1
   7  -3   3 22.6305  4.0001   2
  -3   7  -3 27.3467  3.8113   9
  -7   3   3 17.6737  3.6219   2
   3  -7  -3 24.9296  3.6862   9
  -7  -3  -3 27.5106  3.6936   9
  -3  -7   3 26.8027  4.2336   2
  -7   3   3 22.0640  6.0881   7
   4   7  -3 158.467   7.318   9
   7  -4  -3 160.599   7.764   1
   4  -7   3 152.986   7.761   2
  -7   4  -3 158.198   7.048   9
   4   7  -3 148.573   7.727   1
   7   4   3 142.115   8.240   6
   4   7  -3 149.949   7.274   6
  -7  -4   3 151.358   6.766   7
  -4  -7  -3 169.258   7.122   9
   4  -7   3 143.768   7.395   3
  -4   7   3 159.272   7.584   2
  -7  -4   3 159.101   7.469   2
   7  -4  -3 158.804   7.046   9
  -4  -7  -3 156.261   7.722   1
  -7  -4   3 154.339   7.467   3
  -4   7   3 160.243   9.621   7
   7   4   3 158.853   7.480   2
  -7   4  -3 146.855   7.801   1
  -7  -4  -3 153.666   7.741   1
   7   4  -3 158.176   7.709   1
   4  -7  -3 155.033   7.039   9
   7   4  -3 141.171   7.054   9
   7   4  -3 147.244   7.777   6
  -7   4   3 152.914  12.326   7
   4   7   3 150.487   7.259   2
  -4  -7   3 147.278   7.378   2
  -4   7  -3 157.537   7.917   1
   7  -4   3 152.079   7.580   2
  -7   4   3 166.619   7.624   2
   4  -7  -3 163.290   7.859   1
  -7  -4  -3 148.449   6.620   9
  -4   7  -3 146.254   7.044   9
   4   7   3 156.405   8.517   6
   5   7  -3 63.1923  5.7522   6
  -5   7   3 74.3312  8.2631   7
   5   7  -3 59.9068  5.4895   9
  -7   5  -3 65.2532  5.3660   9
  -7  -5   3 74.3654  6.6382   3
  -7   5  -3 70.0821  6.2777   1
   7   5   3 65.4182  5.6850   2
   7  -5  -3 68.0179  5.6212   9
   7  -5  -3 63.3841  6.0089   1
  -7  -5   3 55.5410  5.5995   2
  -5  -7  -3 55.8141  4.9658   9
  -5   7   3 64.4975  5.7916   2
   5  -7   3 61.6147  5.8783   2
   5   7  -3 49.8125  5.7186   1
  -5  -7  -3 63.1112  5.9845   1
   7   5   3 61.4868  6.4010   6
  -5   7  -3 53.7284  5.2033   9
   5   7   3 72.1783  5.9647   2
  -7  -5  -3 63.2395  5.3526   9
   7   5  -3 53.3212  5.7226   1
   7  -5   3 61.9011  5.9306   2
   5  -7  -3 57.5398  5.7584   1
   7   5  -3 69.1592  6.3107   6
   7   5  -3 63.9068  5.6171   9
  -7  -5  -3 67.7148  6.2460   1
  -7   5   3 66.0456  5.7275   2
   5  -7  -3 57.1174  5.3043   9
   5   7   3 66.4602  6.5562   6
   7   5  -3 73.1273  6.3717   1
  -7   5   3 58.7387 10.0158   7
  -5  -7   3 67.4780  5.8805   2
  -5   7  -3 85.4736  6.7014   1
   7   6   3 2.25099 3.73655   6
  -6  -7  -3 2.39892 3.16819   9
  -7   6  -3 5.05738 4.01293   1
   6   7  -3 -0.4796  3.9148   1
  -7  -6   3 4.51185 3.46593   2
  -6   7   3 2.95770 6.21019   7
  -7   6  -3 -0.7367  3.0531   9
   7  -6  -3 0.35194 3.39068   9
   7  -6  -3 -1.6219  3.7378   1
  -6   7   3 0.52642 3.29552   2
  -7  -6   3 0.31704 4.18725   3
   6  -7   3 1.38495 3.84918   2
  -6  -7  -3 1.91558 3.82713   1
   7   6   3 3.30944 3.79039   2
   6   7  -3 5.31146 3.68916   6
   6   7  -3 2.00103 3.22371   9
  -7   6   3 6.29439 7.55965   7
   6  -7  -3 4.24778 3.90271   1
  -7  -6  -3 2.06390 3.05309   9
   7  -6   3 0.80780 3.42953   2
   7   6  -3 0.46373 3.66153   1
   7   6  -3 -3.7041  3.7018   6
  -6   7  -3 0.54935 3.79633   1
  -6   7  -3 2.49303 3.10111   9
   6  -7  -3 -0.7054  3.2542   9
   7   6  -3 -1.1058  3.2416   9
  -6  -7   3 5.56571 4.93859   3
  -6  -7   3 3.02733 3.58730   2
   6   7   3 4.27996 3.80023   2
   7   6  -3 -3.7279  3.5828   1
  -7   6   3 3.96346 3.70294   2
  -7  -6  -3 -5.2823  3.5368   1
   6   7   3 2.09700 4.18548   6
  -7  -7  -3 4.80023 3.33928   9
   7  -7  -3 -4.8167  3.3544   9
   7   7   3 3.25344 4.41496   6
   7  -7   3 -1.2844  4.0290   2
  -7  -7  -3 -1.7717  3.9718   1
   7  -7  -3 5.30249 4.51938   1
   7   7  -3 6.07142 3.88652   9
  -7   7  -3 -2.8715  3.2841   9
  -7   7   3 -5.1677  7.0709   7
  -7   7  -3 1.43702 4.13626   1
  -7  -7   3 -4.7747  4.3732   3
   7   7   3 -1.4980  3.5496   2
   7   7  -3 1.41322 3.94323   1
   7   7  -3 4.10097 4.23633   6
  -7  -7   3 6.05174 4.11019   2
  -7   7   3 -0.9957  3.5195   2
   0  -8   3 450.373  13.417   2
  -8   0  -3 428.533  12.399   9
   8   0  -3 449.997  12.754   9
  -8   0   3 453.875  15.093   7
  -8   0  -3 449.471  13.645   1
   0   8  -3 460.759  12.835   9
   8   0  -3 467.451  13.780   1
  -8   0   3 441.678  13.051   2
   0   8   3 442.169  13.085   2
   0  -8  -3 449.478  12.521   9
   0  -8  -3 458.590  13.557   1
   8   0   3 447.386  13.238   2
   0   8  -3 464.157  12.811   9
   0   8  -3 429.913  13.483   1
  -1   8   3 -3.1049  2.7418   2
  -8  -1   3 2.85969 3.09671   2
   8   1   3 0.49870 3.53935   6
  -8   1  -3 0.97363 2.78990   9
   8  -1  -3 -1.8090  3.0788   1
  -8  -1   3 6.05675 3.82208   7
   1  -8   3 -1.7660  2.9782   2
   1   8  -3 5.80422 3.14720   9
  -1  -8  -3 -0.4325  2.7927   9
  -8   1  -3 -2.5747  3.1935   1
   1   8  -3 3.03622 3.35580   1
   8  -1  -3 3.89156 3.01549   9
   8   1   3 -1.1870  2.9127   8
   8   1   3 5.66715 3.40295   2
  -1  -8  -3 1.97132 3.26564   1
  -1   8  -3 2.26060 2.81247   9
   1  -8  -3 0.25848 2.89869   9
  -8  -1  -3 2.94887 3.31356   1
  -8  -1  -3 -3.0512  2.7516   9
   8   1  -3 3.26892 3.31643   1
  -8   1   3 2.15557 3.18283   2
   8   1  -3 11.8670  3.4514   9
  -1   8  -3 -1.7113  3.2702   1
   1  -8  -3 0.67392 3.15650   1
   8  -1   3 6.05708 3.37647   2
   1   8   3 -0.9555  2.8872   2
  -8   1   3 2.10100 4.46381   7
  -1  -8   3 1.71327 3.08420   2
  -2   8   3 20.7023  4.0876   2
  -2   8   3 19.4610  4.2039   7
  -8  -2   3 16.5857  4.1565   7
  -8   2  -3 17.5797  3.4329   9
   2   8  -3 23.0803  4.4087   1
  -8  -2   3 18.9761  3.8995   2
   2  -8   3 15.9432  3.9973   2
  -8  -2   3 14.6755  3.4616   3
   8   2   3 12.7240  4.2343   6
   2   8  -3 19.1448  3.6017   9
   8  -2  -3 21.7465  4.2928   1
  -8   2  -3 22.0718  4.4433   1
   8   2   3 15.9754  3.5854   8
   2   8  -3 12.1228  3.6405   6
   8   2   3 20.4414  4.1269   2
  -2  -8  -3 11.3835  4.0344   1
  -2  -8  -3 18.0185  3.6770   9
   8  -2  -3 20.6230  3.7743   9
  -2   8  -3 12.2556  3.5177   9
   2   8   3 19.6870  4.0591   2
   8  -2   3 15.8081  3.9426   2
   8   2  -3 13.3804  4.0417   1
  -8   2   3 30.6055  6.4167   7
   8   2  -3 19.4221  3.6569   9
   2  -8  -3 21.4246  3.7959   9
  -2   8  -3 20.2297  4.2406   1
  -2  -8   3 13.1335  3.7407   2
  -8   2   3 18.6850  3.8689   2
  -8  -2  -3 21.1784  3.5365   9
  -8  -2  -3 18.0296  4.2096   1
   2  -8  -3 12.9718  4.0256   1
  -2  -8   3 18.5650  4.1158   2
  -3   8   3 13.4543  4.3220   7
   8   3   3 15.1536  3.7798   2
   3   8  -3 11.2775  3.5639   6
  -3  -8  -3 8.56121 4.02249   1
  -8  -3   3 16.2412  3.9235   3
  -8  -3   3 19.4660  4.0818   2
  -8   3  -3 14.8625  3.5762   9
   3  -8   3 21.0270  4.3449   2
   3   8  -3 17.4442  4.3402   1
  -3  -8  -3 17.9925  3.7399   9
  -8   3  -3 14.1257  4.3069   1
  -3   8   3 13.3727  3.8957   2
   8   3   3 14.0539  4.5035   6
  -8  -3   3 23.1894  4.3509   7
   8  -3  -3 16.9834  3.7537   9
   3   8  -3 18.8170  3.8028   9
   8  -3  -3 17.3790  4.2676   1
  -8   3   3 11.2676  3.8342   2
   8   3  -3 12.7343  3.5435   9
   8   3  -3 18.0050  4.4295   1
  -3  -8   3 18.8070  4.1411   2
  -8  -3  -3 16.3072  4.2425   1
  -8   3   3 16.8591  6.8570   7
   3  -8  -3 15.4076  3.7183   9
   3  -8  -3 14.5499  4.4121   1
  -3   8  -3 17.8811  3.7304   9
   3   8   3 16.9294  4.4428   6
  -8  -3  -3 15.2583  3.4696   9
   3   8   3 15.5981  3.7832   2
   8  -3   3 16.0666  4.1167   2
  -3   8  -3 13.9041  4.2237   1
  -4   8   3 10.2230  3.8164   2
  -4  -8  -3 6.50422 3.98611   1
   8  -4  -3 7.82255 3.48597   9
   4   8  -3 6.43170 3.27468   9
  -4   8   3 6.37947 4.73614   7
   8   4   3 3.16635 3.63851   2
  -8   4  -3 3.47448 3.20003   9
   4  -8   3 6.78853 3.73552   2
   4   8  -3 5.77510 3.79186   1
   8  -4  -3 7.07648 4.02585   1
   4   8  -3 14.4024  4.1256   6
  -8   4  -3 7.33884 3.92361   1
   8   4   3 3.40839 4.09668   6
  -8  -4   3 6.26279 3.79424   3
   4  -8   3 6.73313 4.35308   3
  -8  -4   3 10.6761  3.6826   2
  -4  -8  -3 5.39711 3.44812   9
  -8  -4  -3 9.36830 3.55151   9
  -8  -4  -3 11.4927  4.2682   1
  -8   4   3 13.9598  7.3288   7
   4  -8  -3 6.97728 3.44366   9
   4   8   3 0.66977 3.54602   2
   4  -8  -3 0.12986 3.64870   1
   4   8   3 6.57825 4.33742   6
   8   4  -3 14.9565  4.3851   1
   8   4  -3 6.00588 3.94105   6
   8   4  -3 4.77181 3.23996   9
  -4  -8   3 5.77953 3.64396   2
  -4   8  -3 9.25311 4.07914   1
  -4   8  -3 7.22503 3.51092   9
  -8   4   3 2.97534 3.63476   2
   8  -4   3 4.10670 3.62373   2
   8  -5  -3 30.2519  4.6178   9
   5   8  -3 24.6559  5.1250   1
   5  -8   3 27.3545  5.1992   2
  -5  -8  -3 19.6935  5.1786   1
   8   5   3 21.9609  5.2239   6
  -5  -8  -3 27.1025  4.4323   9
  -8  -5   3 38.3694  5.2144   3
  -5   8   3 24.3512  4.5395   2
  -8  -5   3 21.8084  4.5734   2
  -8   5  -3 24.7538  4.3435   9
  -8   5  -3 18.2589  5.1326   1
  -5   8   3 23.4220  6.1600   7
   8   5   3 30.1864  4.7718   2
   5   8  -3 28.8739  4.9010   6
   5   8  -3 22.5384  4.5314   9
   8  -5  -3 31.3710  5.1769   1
   8   5  -3 20.9448  4.1031   9
  -8   5   3 32.3298  4.7838   2
   5  -8  -3 23.6335  4.3496   9
  -5   8  -3 29.1100  5.1886   1
  -5   8  -3 24.9792  4.4350   9
  -8   5   3 30.4581  8.8426   7
  -8  -5  -3 31.9964  4.4656   9
   5   8   3 28.8039  4.7921   2
   5  -8  -3 27.1631  5.3249   1
   8   5  -3 26.0870  5.1660   6
  -8  -5  -3 24.6603  5.0739   1
   8  -5   3 35.9700  5.4176   2
   8   5  -3 31.4327  5.1251   1
  -5  -8   3 23.4147  4.7509   2
   5   8   3 28.5367  5.6235   6
  -6   8   3 453.153  14.646   2
   8  -6  -3 477.387  15.370   1
  -6  -8  -3 461.238  13.917   9
   8  -6  -3 471.628  14.442   9
   6   8  -3 506.721  15.498   6
   6   8  -3 481.516  14.545   9
   6   8  -3 463.999  15.420   1
  -8  -6   3 454.052  15.343   3
  -6   8   3 450.022  18.331   7
  -6  -8  -3 439.681  15.097   1
   6  -8   3 483.764  15.344   2
   8   6   3 457.823  14.712   2
  -8   6  -3 462.515  14.081   9
  -8  -6   3 436.138  14.695   2
   8   6   3 493.618  16.305   6
  -8   6  -3 465.482  15.411   1
  -8  -6  -3 455.688  13.965   9
  -8  -6  -3 487.720  15.508   1
   6  -8  -3 459.265  14.181   9
   6  -8  -3 475.671  15.562   1
   8   6  -3 463.322  15.446   6
   6   8   3 453.210  14.689   2
   6   8   3 466.847  16.045   6
  -8   6   3 461.414  14.651   2
   8  -6   3 457.188  15.105   2
  -6  -8   3 468.907  15.168   2
  -6   8  -3 450.559  15.414   1
  -6   8  -3 470.364  14.251   9
   8   6  -3 469.151  15.320   1
   8   6  -3 448.981  14.237   9
   8   6  -3 463.376  15.255   1
   8   7   3 40.5323  5.8908   2
   7  -8   3 41.1393  6.0725   2
   8   7   3 40.9629  6.5874   6
   8  -7  -3 40.4025  6.1531   1
   7   8  -3 47.6340  6.3538   6
  -7   8   3 46.4017  9.7061   7
   7   8  -3 45.4466  5.8239   9
  -8  -7   3 46.2931  7.1542   3
  -7   8   3 46.7986  6.0605   2
  -7  -8  -3 42.7603  5.3839   9
  -7  -8  -3 50.0263  6.5793   1
   8  -7  -3 47.3344  5.7079   9
  -8  -7   3 38.6144  5.6558   2
  -8   7  -3 44.3409  5.3686   9
  -8   7  -3 41.5864  6.4527   1
   7   8  -3 36.5288  6.3787   1
   7   8   3 47.4680  6.9004   6
   7   8   3 38.4319  5.5886   2
   8   7  -3 37.8960  6.1541   1
  -8  -7  -3 41.7117  5.4114   9
  -7   8  -3 47.3520  6.5536   1
   7  -8  -3 40.6401  5.4172   9
   8  -7   3 40.6180  5.9651   2
  -7  -8   3 40.9617  6.1229   2
  -8   7   3 43.0967  5.9124   2
   8   7  -3 43.7707  6.2944   6
   8   7  -3 41.5114  5.5939   9
  -7   8  -3 47.0550  5.7654   9
  -7  -8   3 46.1859  7.4304   3
  -8   7   3 46.4951 10.4056   7
   7  -8  -3 46.0181  6.5730   1
  -8  -7  -3 55.2229  6.7086   1
   8   8   3 -1.0066  4.4026   2
   8   8  -3 8.10377 4.90818   1
   8   8  -3 5.25405 4.59305   6
  -8  -8   3 0.81178 5.35349   3
  -8   8  -3 0.64603 4.02022   9
   8   8  -3 6.47710 4.27080   9
   8  -8   3 -0.0366  4.4356   2
  -8  -8  -3 2.08636 4.90774   1
   8  -8  -3 3.25636 4.83520   1
  -8   8   3 -5.7536  7.3969   7
   8  -8  -3 4.37453 4.17267   9
  -8   8  -3 0.23430 5.08331   1
  -8  -8  -3 2.03463 3.99571   9
   8   8   3 -1.4738  4.7288   6
  -8   8   3 3.24126 4.46515   2
  -8  -8   3 4.54093 4.72409   2
   0   9  -3 -1.6572  3.1867   9
   0   9  -3 -2.5876  2.9534   9
   9   0  -3 -0.1359  3.0262   9
  -9   0  -3 -3.3725  3.4449   1
   0  -9  -3 1.23278 3.18008   9
   9   0   3 3.38444 3.57673   2
   9   0  -3 1.78070 3.74859   1
   0   9  -3 1.73374 3.65965   1
  -9   0   3 0.74844 4.26944   7
   0   9   3 0.45386 3.13120   2
  -9   0   3 -1.0758  3.2134   2
  -9   0  -3 -0.9481  2.7944   9
   0  -9   3 -3.5923  3.3721   2
   0  -9  -3 -2.6586  3.8786   1
   1   9  -3 72.4743  6.0084   9
   1   9  -3 73.0626  6.6303   1
  -9  -1   3 83.8147  7.4085   7
   9   1   3 80.3227  6.3335   8
   9   1   3 73.0902  6.3602   2
   9  -1  -3 69.6872  5.8911   9
  -9   1  -3 66.7645  5.6412   9
   1  -9   3 75.9295  6.6628   2
  -1  -9  -3 75.8808  5.8745   9
   9  -1  -3 66.0277  6.3994   1
   9   1   3 65.6610  6.6562   6
  -1  -9  -3 80.2032  6.9059   1
  -9   1  -3 74.4042  6.5435   1
  -9  -1   3 77.9662  6.4160   2
  -1   9   3 76.6777  6.1920   2
   1   9   3 84.8318  6.2221   2
  -1   9  -3 74.2146  6.0177   9
  -9   1   3 80.9655  8.4351   7
   9  -1   3 81.6598  6.6615   2
  -1   9  -3 70.7497  6.5656   1
   9   1  -3 77.0932  5.6684   9
   1  -9  -3 64.5603  5.6260   9
  -9  -1  -3 71.3084  6.4512   1
  -1   9  -3 76.7467  6.0774   9
  -9  -1  -3 73.0228  5.7505   9
  -9   1   3 76.5013  6.3100   2
   1  -9  -3 66.8492  6.4700   1
   9   1  -3 72.3957  6.5450   1
  -1  -9   3 79.4727  6.6155   2
   9   2   3 5.42746 3.64438   2
  -9  -2   3 8.28482 4.25037   7
   2  -9   3 0.26092 3.51357   2
  -9   2  -3 1.90541 3.72501   1
  -9   2  -3 -1.6076  3.1140   9
   2   9  -3 3.15013 3.46571   9
  -2  -9  -3 1.85056 3.27515   9
   2   9  -3 -4.3089  3.6109   1
   9  -2  -3 4.58862 3.26812   9
   9  -2  -3 -1.4215  3.9053   1
   9   2   3 4.94545 4.03934   6
  -2   9   3 7.69685 3.83825   2
  -2  -9  -3 -1.1899  3.6703   1
  -9  -2   3 -2.0730  3.2765   2
   2   9   3 -0.4448  3.2021   2
   9   2  -3 -4.7894  3.3862   1
  -2   9  -3 1.45331 3.30519   9
   9   2  -3 -3.7903  3.1363   9
  -9  -2  -3 1.02318 3.70680   1
  -9   2   3 -1.3758  3.5721   2
   2  -9  -3 -3.2225  3.2102   9
  -2   9  -3 0.32279 3.73687   1
   9  -2   3 1.55767 3.52890   2
  -9   2   3 7.15338 5.71384   7
  -2  -9   3 1.91537 3.51479   2
  -9  -2  -3 1.69017 3.28555   9
   2  -9  -3 2.39907 3.68817   1
  -2  -9   3 5.35272 3.69863   2
  -9  -3   3 25.4080  4.6808   2
  -3   9   3 35.8475  5.1731   2
   3   9  -3 24.0275  4.6551   9
  -9   3  -3 39.4714  5.7361   1
   3   9  -3 29.0098  4.9932   6
   9   3   3 37.2481  5.5468   6
   9  -3  -3 30.2973  4.5159   9
   3   9  -3 35.1963  5.3900   1
  -3  -9  -3 24.7324  4.4100   9
  -9   3  -3 33.6167  4.6983   9
   9  -3  -3 40.5070  5.5015   1
  -3  -9  -3 26.0227  4.9900   1
   9   3   3 25.8882  4.6708   2
  -9  -3   3 36.3090  5.2741   7
   3  -9   3 47.7173  5.9400   2
  -3   9  -3 33.6595  5.6340   1
   9   3  -3 32.3604  5.2775   1
   9   3  -3 27.3458  4.6538   9
   3   9   3 28.4980  4.7889   2
   3   9   3 38.3058  6.0049   6
   3  -9  -3 35.5758  4.7968   9
  -3   9  -3 35.6729  4.7966   9
  -3  -9   3 20.3526  4.7489   2
  -9  -3  -3 32.0961  4.5973   9
  -9  -3  -3 36.9566  5.5233   1
  -9   3   3 40.2516  5.2739   2
   9  -3   3 36.4390  5.3737   2
   3  -9  -3 36.0883  5.6105   1
  -9   3   3 27.5847  7.3904   7
   9  -4  -3 234.805   9.801   9
   4   9  -3 224.929   9.601   9
  -4   9   3 258.278  11.559   7
  -4   9   3 239.254  10.150   2
  -9  -4   3 234.687  10.304   2
   4   9  -3 244.514  10.474   6
  -4  -9  -3 247.534   9.818   9
   9  -4  -3 256.077  10.899   1
   9   4   3 252.141  10.413   2
   4   9  -3 242.518  10.874   1
  -9   4  -3 261.052  11.041   1
   9   4   3 245.940  11.206   6
   4  -9   3 247.883  10.776   2
  -9   4  -3 254.080   9.749   9
  -4  -9  -3 253.130  11.022   1
  -4   9  -3 237.185   9.775   9
   4   9   3 267.702  10.763   2
   4  -9  -3 268.830  11.126   1
  -4   9  -3 259.036  11.143   1
  -9  -4  -3 240.023   9.650   9
   4  -9  -3 244.210   9.869   9
   9  -4   3 251.562  10.715   2
  -9   4   3 242.643  14.861   7
   9   4  -3 265.635  11.459   6
  -9  -4  -3 249.119  10.865   1
   9   4  -3 269.141  11.068   1
  -4  -9   3 253.867  10.776   2
   4   9   3 248.481  11.678   6
  -9   4   3 229.107  10.394   2
   9   4  -3 237.675   9.914   9
   5   9  -3 40.3249  5.9401   6
  -9   5  -3 34.0912  4.9407   9
  -5   9   3 29.9629  5.3047   2
  -5   9   3 40.6964  7.3441   7
  -5  -9  -3 30.0973  4.6530   9
  -9  -5   3 31.2517  5.3076   3
   5   9  -3 41.2664  6.1156   1
   9   5   3 26.5414  5.3271   2
   5  -9   3 41.3782  5.8663   2
  -9  -5   3 31.8330  5.2233   2
   5   9  -3 42.1645  5.4583   9
  -9   5  -3 31.7267  5.9548   1
   9  -5  -3 28.6820  5.0660   9
   9  -5  -3 34.3612  5.8505   1
  -5  -9  -3 34.2092  5.7657   1
   9   5   3 33.6783  6.2451   6
  -5   9  -3 40.3714  6.1651   1
   9   5  -3 38.9139  5.4526   9
  -9  -5  -3 40.9286  6.0089   1
   5   9   3 39.1001  5.4946   2
   9   5  -3 42.0481  6.1551   6
  -9   5   3 13.2586  8.3998   7
   5  -9  -3 37.4172  5.2319   9
   5   9   3 30.7630  5.6722   6
   9   5  -3 33.2915  5.6919   1
   9  -5   3 37.0675  5.7231   2
  -5   9  -3 32.5499  5.0774   9
   5  -9  -3 33.0197  5.9262   1
  -5  -9   3 29.8331  5.4600   2
  -9  -5  -3 31.5064  4.7608   9
  -9   5   3 38.1770  5.3785   2
   6   9  -3 176.677   9.231   9
  -6  -9  -3 179.045  10.157   1
   9  -6  -3 179.081  10.275   1
  -9   6  -3 199.696  10.742   1
   9  -6  -3 181.012   8.944   9
   6   9  -3 182.821   9.759   6
  -6   9   3 181.160   9.538   2
  -9   6  -3 167.918   8.893   9
  -6   9   3 175.231  12.067   7
   6   9  -3 186.903  10.304   1
   9   6   3 182.543  10.256   6
  -9  -6   3 198.524   9.783   3
  -9  -6   3 178.183   9.802   2
  -6  -9  -3 172.548   8.851   9
   6  -9   3 163.087   9.566   2
   9   6   3 196.323  10.012   2
  -6   9  -3 183.265  10.299   1
   9   6  -3 157.399   9.759   6
   9   6  -3 185.254   9.046   9
   6  -9  -3 188.277   9.131   9
   9  -6   3 188.459   9.897   2
  -9   6   3 172.947   9.526   2
  -6   9  -3 173.934   9.033   9
   6   9   3 190.442  11.010   6
  -9   6   3 175.761  16.012   7
  -9  -6  -3 176.296   8.937   9
  -9  -6  -3 173.944  10.029   1
  -6  -9   3 171.539   9.489   2
   6   9   3 182.370   9.758   2
   9   6  -3 192.731  10.511   1
   9   6  -3 171.095   9.864   1
   6  -9  -3 189.421  10.204   1
  -9  -7   3 19.8914  5.3760   2
  -7  -9  -3 19.7290  4.8712   9
  -9  -7   3 29.1744  6.4156   3
   7   9  -3 32.9878  6.3060   6
   9  -7  -3 21.2720  5.7817   1
   7   9  -3 24.1804  5.2508   9
  -7   9   3 27.3845  8.1473   7
  -7   9   3 15.0443  5.1953   2
  -9   7  -3 23.2818  6.0609   1
   7   9  -3 19.6051  5.8329   1
   7  -9   3 21.8909  5.5141   2
   9   7   3 29.8276  6.3498   6
  -9   7  -3 32.2899  5.4735   9
   9  -7  -3 29.4880  5.4815   9
   9   7   3 26.6966  5.5783   2
  -7  -9  -3 30.7768  6.3506   1
  -7  -9   3 28.0313  7.1146   3
  -9  -7  -3 15.3496  4.6990   9
  -9   7   3 23.4645  5.3029   2
   9   7  -3 35.5104  6.2258   1
   7   9   3 23.6041  5.5451   2
   7  -9  -3 30.5997  5.2735   9
  -7   9  -3 46.5631  6.8712   1
  -7  -9   3 16.3530  5.2021   2
  -9   7   3 28.3669  9.6550   7
   7  -9  -3 26.9793  6.2400   1
   7   9   3 36.3518  6.8476   6
   9   7  -3 19.0200  5.7621   6
   9   7  -3 35.6744  5.7033   9
   9  -7   3 19.5754  5.6290   2
  -7   9  -3 28.2150  5.2567   9
  -9  -7  -3 28.7986  6.0816   1
  -9   8  -3 0.46775 5.36325   1
  -8  -9  -3 -4.8052  4.9439   1
   9  -8  -3 0.14220 3.99941   9
   9   8   3 7.84212 5.14163   6
   8   9  -3 0.53401 4.28810   9
  -8  -9  -3 -4.8415  4.0646   9
   9   8   3 -4.6063  4.2325   2
  -9  -8   3 -9.6631  5.2973   3
   8  -9   3 4.25197 4.80720   2
  -8   9   3 2.33063 4.49033   2
  -9  -8   3 -1.3353  4.3100   2
  -8   9   3 2.93304 6.98897   7
  -9   8  -3 -3.5282  4.1109   9
   8   9  -3 -0.3847  5.1159   6
   9  -8  -3 -5.8262  4.8703   1
   8   9  -3 -11.246   5.004   1
   8  -9  -3 -0.2824  5.0901   1
  -9   8   3 3.78324 7.96241   7
   8   9   3 2.64690 4.51101   2
   8  -9  -3 -0.5310  4.3242   9
  -8  -9   3 -2.1199  5.5440   3
   9   8  -3 8.05528 4.79012   9
  -8   9  -3 -1.0495  4.3135   9
  -8   9  -3 -0.1730  5.1603   1
   9  -8   3 3.03926 4.76672   2
   8   9   3 -1.7782  5.1378   6
  -9  -8  -3 0.79989 5.60215   1
  -9  -8  -3 2.32420 4.45022   9
   9   8  -3 5.42228 5.35952   1
  -9   8   3 -3.9850  4.4140   2
  -8  -9   3 1.13589 4.51151   2
   9   8  -3 -1.8149  4.8995   6
  -9  -9   3 5.44622 4.90985   2
   9   9  -3 4.68582 4.81092   9
  -9   9   3 6.36824 4.86270   2
  -9   9   3 12.8723  8.0721   7
  -9  -9  -3 3.84076 5.62710   1
   9  -9   3 -3.7074  4.7510   2
   9   9   3 -2.4947  4.9706   2
   9   9  -3 -1.2914  4.9707   6
   9  -9  -3 8.00407 5.88825   1
  -9   9  -3 -2.2868  4.3597   9
  -9  -9  -3 1.60235 4.54237   9
   9  -9  -3 -1.2452  4.4542   9
  -9  -9   3 4.09258 6.37278   3
   9   9   3 -1.4593  5.2367   6
 -10   0   3 264.782  10.620   2
 -10   0  -3 253.872   9.981   9
  10   0  -3 246.438   9.860   9
  10   0  -3 263.110  11.008   1
   0  10  -3 247.299  10.288   9
   0  10   3 247.323  10.280   2
 -10   0   3 258.286  12.451   7
   0 -10   3 260.443  10.988   2
   0 -10  -3 254.411  10.975   1
   0  10  -3 251.569  11.261   1
  10   0   3 258.173  10.966   2
 -10   0  -3 262.472  11.174   1
   0 -10  -3 254.008   9.912   9
  10   1   3 6.02846 4.25204   2
 -10   1  -3 8.79498 3.89545   9
 -10  -1   3 6.11493 4.68204   7
   1  10  -3 10.3276  4.6268   1
   1 -10   3 11.2723  4.2651   2
  -1 -10  -3 7.88001 4.43665   1
   1  10  -3 11.5482  4.0040   9
  10  -1  -3 5.41836 3.88741   9
  -1  10   3 2.72763 3.70435   2
  10  -1  -3 2.77078 4.27446   1
 -10  -1   3 1.89067 3.72727   2
  10   1   3 3.65013 4.45004   6
  -1 -10  -3 7.21996 3.85298   9
 -10   1  -3 8.48544 4.60679   1
 -10  -1  -3 2.87320 3.38140   9
   1 -10  -3 3.63293 3.77463   9
 -10   1   3 1.99347 5.31095   7
 -10  -1  -3 8.84766 4.45099   1
  -1  10  -3 8.07674 4.11376   9
  10   1  -3 4.12877 4.39920   1
  10   1  -3 11.6595  3.9292   9
  10  -1   3 7.18445 4.22872   2
   1 -10  -3 0.67165 4.18737   1
   1  10   3 12.6112  4.4459   2
  -1  10  -3 4.45511 4.58975   1
 -10   1   3 0.88987 3.72656   2
  -1 -10   3 6.15927 4.23808   2
  -1  10  -3 3.26501 3.63244   9
  -2 -10  -3 -5.4011  3.4570   9
 -10  -2   3 -2.8818  3.8388   2
   2 -10   3 -0.0153  4.0080   2
   2  10  -3 3.80303 3.95363   9
 -10   2  -3 -3.0512  4.2880   1
  -2  10   3 -2.9345  3.6115   2
 -10  -2   3 3.84026 4.37581   7
  10  -2  -3 8.20185 3.97991   9
  10  -2  -3 3.69286 4.50430   1
  -2 -10  -3 4.24244 4.40453   1
 -10   2  -3 3.30114 3.49433   9
  10   2   3 4.83281 4.57469   6
  10   2   3 0.68936 3.79598   2
   2  10  -3 -1.6085  4.1390   1
 -10  -2  -3 -0.8930  3.5977   9
  10  -2   3 -0.5438  3.6797   2
  -2 -10   3 2.74990 4.04575   2
  10   2  -3 -1.7790  4.3705   1
 -10  -2  -3 0.51657 4.12349   1
  -2  10  -3 -1.9033  3.6577   9
   2 -10  -3 2.70557 3.81140   9
  -2 -10   3 -4.7634  3.7173   2
  -2  10  -3 -1.5464  4.2353   1
  10   2  -3 4.78085 3.96958   9
  -2  10  -3 3.91636 3.90822   9
   2  10   3 -6.8336  3.4273   2
   2 -10  -3 0.42091 4.19325   1
 -10   2   3 2.95864 3.88452   2
 -10   2   3 -5.4150  4.8442   7
  10  -3  -3 293.926  12.081   1
  10  -3  -3 282.046  10.944   9
  -3 -10  -3 293.008  11.085   9
  10   3   3 285.315  12.766   6
  -3  10   3 299.273  11.971   2
  -3 -10  -3 282.867  12.044   1
 -10   3  -3 304.833  11.077   9
 -10   3  -3 296.933  12.199   1
   3  10  -3 286.796  11.312   9
   3  10  -3 304.755  12.533   1
 -10  -3   3 276.348  11.438   2
  10   3   3 304.319  12.124   2
   3 -10   3 298.452  12.355   2
  10  -3   3 301.750  12.022   2
  10   3  -3 313.085  12.344   1
  -3 -10   3 259.441  11.584   2
 -10   3   3 316.862  11.759   2
  -3  10  -3 282.108  11.197   9
 -10   3   3 309.360  16.097   7
   3  10   3 285.385  11.638   2
   3 -10  -3 276.420  10.885   9
   3 -10  -3 291.618  12.170   1
 -10  -3  -3 310.484  12.655   1
  -3  10  -3 310.369  12.825   1
  10   3  -3 271.631  11.047   9
 -10  -3  -3 262.556  10.733   9
   4  10  -3 163.939   9.045   9
  10  -4  -3 192.285  10.085   1
  -4 -10  -3 180.328  10.082   1
 -10  -4   3 161.373   9.120   2
   4  10  -3 169.097   9.229   6
   4  10  -3 160.515   9.827   1
 -10   4  -3 186.493   9.060   9
 -10   4  -3 178.060  10.502   1
   4 -10   3 184.262   9.843   2
  -4  10   3 186.087   9.553   2
  10   4   3 180.873  10.602   6
  10   4   3 185.673   9.616   2
  -4 -10  -3 175.525   8.940   9
  10  -4  -3 160.146   8.763   9
 -10   4   3 161.968  13.593   7
   4  10   3 162.205  10.449   6
  10   4  -3 175.672  10.213   6
 -10  -4  -3 180.712   8.859   9
   4 -10  -3 167.674   9.869   1
  -4 -10   3 179.392   9.660   2
 -10  -4  -3 186.723  10.074   1
  10  -4   3 185.080   9.728   2
  -4  10  -3 167.182   9.949   1
  10   4  -3 188.761  10.068   1
  10   4  -3 183.112   9.190   9
   4 -10  -3 181.515   8.937   9
 -10   4   3 178.640   9.308   2
   4  10   3 180.980   9.624   2
  -4  10  -3 178.922   8.785   9
  -5 -10  -3 108.667   9.137   1
  -5  10   3 110.033   7.920   2
   5  10  -3 100.436   8.711   1
   5  10  -3 107.536   8.135   6
  10  -5  -3 104.869   8.789   1
  10  -5  -3 114.360   7.790   9
   5 -10   3 101.021   8.564   2
   5  10  -3 105.858   7.411   9
 -10   5  -3 102.283   8.918   1
  10   5   3 97.9864  8.2149   2
  -5 -10  -3 115.700   7.671   9
 -10  -5   3 114.817   8.230   2
  10   5   3 112.675   9.695   6
  -5  10   3 108.505   9.788   7
 -10   5  -3 88.6541  7.3780   9
 -10  -5  -3 121.191   7.678   9
  -5 -10   3 115.802   8.295   2
  -5  10  -3 107.455   7.750   9
   5 -10  -3 113.216   7.810   9
  10   5  -3 95.4911  7.7131   9
  10  -5   3 106.933   8.639   2
   5  10   3 124.409   8.616   2
  -5  10  -3 97.2124  8.9988   1
 -10   5   3 107.297  12.523   7
   5 -10  -3 102.298   8.916   1
  10   5  -3 100.525   8.584   1
   5  10   3 113.933   9.590   6
  10   5  -3 115.429   8.903   6
 -10   5   3 96.9408  8.1210   2
 -10  -5  -3 108.549   9.129   1
  10  -6  -3 81.2312  7.3180   9
  -6  10   3 74.2207  9.7360   7
  10   6   3 81.8932  8.7966   6
 -10  -6   3 76.1091  7.5770   2
  10   6   3 77.4731  7.6090   2
   6  10  -3 78.2936  8.2470   1
  -6  10   3 69.5276  7.2604   2
   6  10  -3 73.8929  7.0810   9
  10  -6  -3 80.9985  8.2173   1
 -10   6  -3 70.0007  6.9956   9
 -10   6  -3 80.6940  8.3986   1
  -6 -10  -3 71.1753  8.0106   1
  -6 -10  -3 65.9624  6.7002   9
   6 -10   3 81.9081  8.0175   2
   6  10  -3 73.5576  7.9617   6
  -6  10  -3 62.0192  6.7808   9
 -10   6   3 71.5344  7.4253   2
  10   6  -3 72.9838  8.0928   6
   6 -10  -3 90.2316  8.5484   1
 -10   6   3 81.0551 11.3430   7
  10  -6   3 56.5832  7.1126   2
  10   6  -3 72.1473  7.1344   9
   6 -10  -3 76.6833  7.2557   9
  -6 -10   3 70.9563  7.5256   2
  -6  10  -3 87.0785  8.6726   1
   6  10   3 53.4681  6.6558   2
  10   6  -3 63.5034  7.6808   1
  10   6  -3 86.0922  8.5381   1
 -10  -6  -3 74.9855  6.9780   9
 -10  -6  -3 75.2028  8.2570   1
   6  10   3 76.3595  8.3507   6
   7  10  -3 9.40397 5.21727   6
  -7 -10  -3 14.6588  4.8116   9
   7 -10   3 2.26039 5.25821   2
  10  -7  -3 11.9983  5.6043   1
 -10   7  -3 10.3049  4.8056   9
  10  -7  -3 9.11225 4.54487   9
  10   7   3 8.41115 5.25157   2
  -7  10   3 18.7539  7.4399   7
  10   7   3 4.95783 5.44207   6
   7  10  -3 15.5029  5.9426   1
 -10  -7   3 7.98233 4.96022   2
 -10   7  -3 11.6713  5.9265   1
  -7  10   3 7.94296 4.79509   2
   7  10  -3 6.00777 4.91656   9
  -7 -10  -3 24.8533  6.6102   1
   7 -10  -3 9.36836 4.78818   9
 -10   7   3 14.9240  4.9341   2
  -7 -10   3 4.80733 5.29755   2
  -7  10  -3 8.17008 5.81865   1
  10   7  -3 13.9158  5.0752   9
  10  -7   3 4.77147 4.76547   2
   7 -10  -3 5.66819 5.45973   1
   7  10   3 9.36403 6.05639   6
  10   7  -3 2.16195 5.37638   1
 -10  -7  -3 -1.0522  4.4518   9
   7  10   3 5.18143 4.70883   2
  10   7  -3 5.47486 5.31208   6
 -10   7   3 22.2579  8.6329   7
  -7  10  -3 4.27427 4.46385   9
 -10  -7  -3 11.2651  5.7362   1
   8  10  -3 4.51242 4.74306   9
  10   8   3 4.67794 5.14966   2
  10   8   3 0.12669 4.99064   6
   8 -10   3 -1.8811  5.0112   2
  -8 -10  -3 1.47833 4.46326   9
 -10  -8   3 3.47234 5.67929   3
  -8 -10  -3 2.09512 5.66273   1
  -8  10   3 8.29270 5.28456   2
  10  -8  -3 6.17458 5.56393   1
  10  -8  -3 5.56968 4.78911   9
 -10  -8   3 -2.3290  4.6533   2
   8  10  -3 9.07934 5.61842   6
 -10   8  -3 6.96567 4.72048   9
  -8  10   3 -0.6903  6.5336   7
   8  10   3 5.76313 6.16129   6
   8  10   3 -2.1695  5.0253   2
  10   8  -3 7.16732 4.84588   9
  10   8  -3 4.83595 5.90931   6
 -10  -8  -3 8.70289 5.89466   1
  -8  10  -3 1.40238 4.49570   9
  -8 -10   3 10.8504  6.4234   3
   8 -10  -3 10.2908  5.2527   9
 -10  -8  -3 3.40019 4.67834   9
 -10   8   3 2.38218 5.11084   2
  10  -8   3 -1.5895  4.7465   2
 -10   8   3 -15.621   7.320   7
  -8 -10   3 4.20157 5.32784   2
   8 -10  -3 0.08416 5.63465   1
 -10  -9   3 173.867  12.337   3
   9  10  -3 216.737  12.347   6
  10   9   3 195.284  11.432   2
   9 -10   3 195.890  11.613   2
  10  -9  -3 205.162  12.329   1
  -9 -10  -3 205.226  12.906   1
  -9  10   3 188.701  10.987   2
   9  10  -3 223.591  11.381   9
 -10   9  -3 200.605  10.761   9
  -9 -10  -3 203.682  10.749   9
  -9  10   3 200.291  14.663   7
 -10  -9   3 207.378  11.971   2
  10   9   3 189.644  12.529   6
  10  -9  -3 212.408  11.001   9
  10  -9   3 179.329  11.674   2
   9 -10  -3 226.700  13.116   1
   9  10   3 194.353  10.986   2
  -9 -10   3 209.712  13.158   3
  10   9  -3 192.904  10.679   9
   9  10   3 189.325  12.529   6
 -10  -9  -3 187.679  10.611   9
 -10   9   3 201.756  11.237   2
  -9  10  -3 206.896  10.885   9
 -10  -9  -3 191.951  12.713   1
 -10   9   3 186.028  15.877   7
  10   9  -3 202.576  12.167   6
   9 -10  -3 187.275  10.717   9
  -9 -10   3 207.330  11.475   2
 -10  10   3 -0.8876  7.4995   7
  10  10   3 11.2461  6.5396   6
 -10  10  -3 3.64853 5.25894   9
  10  10  -3 -4.0080  5.5519   6
  10  10   3 1.10374 5.04091   2
 -10 -10   3 2.92527 5.64368   2
  10 -10   3 -11.006   5.008   2
  10  10  -3 -2.8280  4.8996   9
 -10 -10  -3 1.95560 5.28969   9
 -10  10   3 2.48348 5.43243   2
  10 -10  -3 0.53126 5.02552   9
 -10 -10   3 5.73586 6.84480   3
   0 -11  -3 2.55355 4.01294   9
   0  11  -3 -8.6297  4.2381   1
   0  11   3 3.20302 4.06124   2
   0 -11   3 -1.2975  4.1082   2
 -11   0   3 4.44880 5.42447   7
 -11   0  -3 4.12676 4.54513   1
  11   0  -3 -5.6471  3.3754   9
  11   0  -3 -3.2527  4.2582   1
   0  11  -3 0.88291 4.00303   9
   0 -11  -3 0.79047 4.48933   1
  11   0   3 3.09341 4.25072   2
 -11   0  -3 0.16903 3.81596   9
 -11   0   3 -0.4651  3.9137   2
  -1 -11  -3 46.9554  6.7515   1
 -11   1  -3 38.8248  5.4674   9
 -11  -1   3 46.1742  6.3024   2
  11   1   3 50.4775  7.1406   6
   1  11  -3 51.1991  7.2186   1
  11  -1  -3 47.3994  6.4668   1
  11  -1  -3 51.7292  5.9384   9
 -11  -1   3 49.8349  7.0845   7
   1  11  -3 58.8749  6.2410   9
   1 -11   3 48.5727  6.5853   2
  -1 -11  -3 40.0114  5.5602   9
  -1  11   3 54.5117  6.3743   2
  11   1   3 44.9696  6.1936   2
 -11   1  -3 46.0231  6.6826   1
   1  11   3 41.5348  6.0205   2
  11   1  -3 60.7671  7.0515   1
   1 -11  -3 49.8253  6.7641   1
  -1  11  -3 44.5034  5.6954   9
   1 -11  -3 39.7943  5.5536   9
  11   1  -3 44.9106  5.7604   9
  -1 -11   3 49.8167  6.5499   2
 -11   1   3 49.0413  8.0773   7
 -11   1   3 49.0495  6.2273   2
 -11  -1  -3 43.4417  5.4907   9
  11  -1   3 39.2890  6.0043   2
 -11  -1  -3 55.3082  6.9295   1
  -1  11  -3 59.8526  7.4497   1
  11   2   3 25.1994  6.0465   6
   2 -11   3 26.2874  5.8829   2
 -11   2  -3 25.9854  4.9889   9
  -2  11   3 22.2210  5.0810   2
  11  -2  -3 20.4281  4.7421   9
 -11  -2   3 20.6578  5.6274   7
  -2 -11  -3 19.8582  4.6356   9
  11   2   3 22.5967  5.2249   2
 -11  -2   3 14.0671  5.0113   2
  -2 -11  -3 23.5447  5.8739   1
   2  11  -3 18.0536  5.6733   1
 -11   2  -3 17.9310  5.5352   1
  11  -2  -3 17.7428  5.4729   1
   2  11  -3 15.5720  4.9248   9
  -2 -11   3 6.09967 4.72475   2
 -11   2   3 17.2401  4.9644   2
   2 -11  -3 22.5338  5.7628   1
  11   2  -3 15.2391  4.9109   9
 -11  -2  -3 11.9204  4.4707   9
  -2  11  -3 15.9644  4.7473   9
 -11   2   3 26.6803  7.6127   7
  -2  11  -3 21.8566  6.0981   1
  -2  11  -3 19.4848  4.6499   9
  11   2  -3 20.2696  5.5329   1
   2 -11  -3 25.6286  4.9166   9
 -11  -2  -3 17.2992  5.4581   1
   2  11   3 19.1514  5.0282   2
  -2 -11   3 23.0789  5.4719   2
  11  -2   3 22.7921  5.3193   2
   3  11  -3 1.05889 5.12311   1
  -3 -11  -3 0.91282 5.23792   1
  -3 -11  -3 -2.0771  4.0952   9
 -11   3  -3 10.3537  5.3504   1
   3 -11   3 -0.1796  4.3881   2
 -11  -3   3 -4.9205  4.2011   2
 -11   3  -3 7.29339 4.34413   9
  11   3   3 2.61426 4.54571   6
   3  11  -3 -0.1737  4.2294   9
  11  -3  -3 1.75404 4.16247   9
  11   3   3 4.94653 4.57551   2
  11  -3  -3 -2.9390  4.5816   1
  -3  11   3 3.43099 4.28857   2
   3  11   3 3.39808 4.61444   2
 -11   3   3 8.53255 4.53540   2
  11  -3   3 1.47369 4.79809   2
  -3  11  -3 3.42295 4.83103   1
 -11  -3  -3 1.13958 4.94622   1
 -11  -3  -3 -2.5263  3.7830   9
  -3  11  -3 4.64125 4.25559   9
  -3 -11   3 2.45059 4.91916   2
 -11   3   3 10.3721  6.9020   7
   3 -11  -3 3.86665 5.15578   1
   3 -11  -3 -0.8510  3.9316   9
  11   3  -3 0.68192 5.00283   1
  11   3  -3 1.24204 4.19184   9
  -3  11  -3 -1.7089  4.0592   9
  -4  11   3 44.1871  6.1513   2
   4  11  -3 30.7155  5.6377   9
   4  11  -3 32.7667  6.5196   1
  11  -4  -3 40.9960  6.0042   9
 -11   4  -3 40.8897  6.8290   1
  -4 -11  -3 29.7939  6.3931   1
  11   4   3 27.3210  5.8697   2
   4 -11   3 35.9520  6.5351   2
  11  -4  -3 39.2911  6.6568   1
 -11  -4   3 37.4905  6.1678   2
 -11   4  -3 34.3726  5.5561   9
  11   4   3 33.9951  6.5649   6
  -4 -11  -3 31.7463  5.6306   9
 -11   4   3 28.5145  8.4914   7
  11  -4   3 41.4860  6.3592   2
  -4 -11   3 37.3295  6.5067   2
  11   4  -3 40.2643  6.8699   6
  11   4  -3 30.1828  5.5013   9
  11   4  -3 43.7827  6.7547   1
  -4  11  -3 26.2655  6.3171   1
   4 -11  -3 47.7988  6.9967   1
   4 -11  -3 46.8702  6.0085   9
 -11  -4  -3 30.6082  5.4754   9
 -11  -4  -3 52.8744  7.2578   1
  -4  11  -3 43.3759  6.1186   9
 -11   4   3 44.4762  6.3208   2
   4  11   3 41.7432  6.2107   2
  -5  11   3 20.1095  5.5936   2
   5 -11   3 19.8038  5.7219   2
  -5 -11  -3 21.3807  5.4501   9
  11   5   3 17.5025  5.3098   2
 -11   5  -3 21.5267  5.1942   9
 -11  -5   3 7.81374 5.30139   2
  11  -5  -3 13.3596  5.8903   1
  -5 -11  -3 21.0591  6.2141   1
  11   5   3 15.6920  6.1747   6
 -11   5  -3 27.1831  6.5814   1
  11  -5  -3 25.4100  5.6129   9
   5  11  -3 11.4149  5.7809   1
   5  11  -3 13.1351  5.1028   9
  11  -5   3 22.2736  5.8623   2
 -11   5   3 21.8158  5.5063   2
   5 -11  -3 19.9810  6.4268   1
 -11  -5  -3 16.6248  5.0678   9
  11   5  -3 16.9432  6.1170   1
  11   5  -3 18.3495  6.0551   6
  11   5  -3 16.1978  4.9789   9
   5 -11  -3 15.1727  5.2037   9
  -5 -11   3 13.9728  5.7093   2
  -5  11  -3 27.9624  6.6113   1
 -11   5   3 14.6903  7.4368   7
  -5  11  -3 12.6142  4.8848   9
   5  11   3 17.4355  5.5949   2
   5  11   3 18.4766  6.3106   6
 -11  -5  -3 31.5333  6.5745   1
  -6 -11  -3 108.534   7.976   9
 -11   6  -3 82.0009  8.9982   1
  11  -6  -3 103.028   8.315   9
 -11  -6   3 77.3571  8.2633   2
  11   6   3 97.1303  8.7197   2
  -6  11   3 104.321   8.918   2
  -6 -11  -3 102.279   9.455   1
   6 -11   3 80.4673  8.5328   2
  11  -6  -3 105.696   9.371   1
   6  11  -3 83.0726  7.9168   9
  11   6   3 104.884   9.987   6
 -11   6  -3 89.2838  7.9195   9
 -11  -6  -3 95.4907  9.4130   1
   6 -11  -3 97.9075  8.0206   9
   6  11   3 87.3944  8.1106   2
 -11   6   3 85.6698 12.1815   7
  -6 -11   3 97.6412  8.8523   2
  11  -6   3 91.3538  8.7262   2
  11   6  -3 90.4584  9.3129   1
 -11   6   3 90.3245  8.2463   2
   6  11   3 97.7815  9.8006   6
 -11  -6  -3 84.2477  7.7209   9
   6 -11  -3 107.964   9.710   1
  11   6  -3 97.6727  8.2315   9
  11   6  -3 83.3248  8.9784   6
  11   6  -3 87.8826  9.3587   1
  -6  11  -3 82.7775  7.8034   9
   7  11  -3 105.320   9.913   6
  11   7   3 105.844   8.942   2
 -11  -7   3 90.0122  8.7895   2
  11  -7  -3 108.946   8.872   9
   7 -11   3 111.539   9.634   2
  -7 -11  -3 101.601  10.085   1
  11   7   3 117.431  10.678   6
   7  11  -3 98.8339  8.6709   9
  -7  11   3 109.774  11.349   7
  -7 -11  -3 107.907   8.645   9
  11  -7  -3 135.480  10.797   1
  -7  11   3 92.0502  8.7397   2
 -11   7  -3 103.470   8.479   9
   7 -11  -3 111.488  10.126   1
   7  11   3 107.960   9.200   2
 -11  -7  -3 100.990   9.822   1
  11   7  -3 114.614   8.600   9
   7  11   3 106.784  10.151   6
  11   7  -3 109.074  10.199   6
   7 -11  -3 103.431   8.655   9
  -7  11  -3 108.553   8.791   9
 -11   7   3 93.4601 12.4713   7
  -7 -11   3 106.600   9.606   2
  11  -7   3 101.831   9.489   2
 -11  -7  -3 123.641   8.709   9
 -11   7   3 103.503   9.017   2
   8  11  -3 8.27627 5.10743   9
   8  11  -3 5.96680 6.42301   6
  -8  11   3 10.9416  5.8558   2
  -8 -11  -3 12.2011  6.6657   1
  -8  11   3 18.1290  8.1540   7
  11   8   3 5.87132 5.40904   2
 -11  -8   3 2.22476 5.17114   2
  11   8   3 18.6438  6.8279   6
  -8 -11  -3 5.84585 5.18762   9
  11  -8  -3 8.53476 6.24101   1
  11  -8  -3 19.0536  5.6376   9
   8 -11   3 13.8334  6.0441   2
 -11   8  -3 18.0875  5.6674   9
   8  11   3 10.1611  6.4109   6
  -8 -11   3 8.12254 5.54056   2
   8 -11  -3 9.53730 5.30269   9
   8  11   3 7.28799 5.65855   2
  11   8  -3 7.03912 5.35111   9
  11  -8   3 14.9415  5.9835   2
 -11  -8  -3 12.6848  5.4889   9
   8 -11  -3 7.09946 6.41252   1
  -8  11  -3 5.66189 5.14713   9
 -11   8   3 13.2141  5.5966   2
  -8 -11   3 5.94241 6.90786   3
  11   8  -3 16.8508  6.6371   6
 -11   8   3 21.9821  8.4630   7
 -11  -8  -3 11.0817  6.6422   1
  11   9   3 12.2778  5.7672   2
  11   9   3 7.59771 6.61457   6
 -11   9  -3 11.3064  5.6958   9
  11  -9  -3 4.72520 5.41567   9
 -11  -9   3 7.80266 5.90805   2
  -9 -11  -3 6.33662 5.33999   9
   9  11  -3 6.62398 5.50906   9
   9  11  -3 18.5660  6.9151   6
   9 -11   3 8.59812 6.22201   2
  -9  11   3 9.11974 5.47964   2
  -9  11   3 27.1620  8.7559   7
  11  -9   3 8.30544 5.94988   2
  -9 -11   3 16.9236  7.4450   3
  11   9  -3 15.7518  6.0879   9
  -9  11  -3 13.1556  5.5358   9
   9  11   3 14.0116  7.0428   6
   9 -11  -3 17.3291  5.9887   9
  -9 -11   3 12.9352  6.2730   2
   9  11   3 14.8203  5.8707   2
 -11   9   3 7.15123 5.79632   2
 -11   9   3 1.45125 8.21059   7
 -11  -9  -3 6.67645 5.33049   9
  11   9  -3 11.6754  6.3499   6
  11 -10  -3 9.32063 5.78707   9
  11  10   3 -3.1821  5.4753   2
  10 -11   3 -6.0328  5.8603   2
 -10  11   3 1.99370 7.51669   7
  10  11  -3 -0.4102  6.2111   6
 -11  10  -3 4.56842 5.57031   9
 -10  11   3 1.62433 5.77402   2
 -11 -10   3 0.69769 5.93567   2
  11  10   3 2.17161 6.51047   6
 -10 -11  -3 3.54536 5.87492   9
 -11  10   3 -6.3859  7.5934   7
  11 -10   3 6.98628 5.75691   2
  10  11   3 7.89893 5.53494   2
 -10 -11   3 -1.6022  5.3724   2
  11  10  -3 8.77403 6.65399   6
 -10 -11   3 -4.1951  6.3890   3
 -11  10   3 0.94487 5.56572   2
  10  11   3 6.15869 6.77727   6
  11  10  -3 2.41934 5.55160   9
 -11 -10  -3 5.81866 5.51560   9
  10 -11  -3 8.06100 5.77445   9
  12   0  -3 240.954  12.387   1
   0  12  -3 263.638  11.361   9
   0  12  -3 269.142  13.027   1
   0 -12   3 246.409  12.124   2
  12   0   3 253.225  11.978   2
 -12   0   3 264.270  13.650   7
 -12   0  -3 263.434  11.390   9
   0 -12  -3 276.366  12.933   1
 -12   0  -3 265.435  12.614   1
   0 -12  -3 273.376  11.402   9
   0  12   3 271.053  11.833   2
  12   0  -3 239.088  11.146   9
 -12   0   3 256.141  11.959   2
 -12   1  -3 220.631  10.439   9
 -12  -1   3 224.566  12.174   7
  -1  12   3 212.150  10.839   2
  12  -1  -3 241.204  11.938   1
 -12   1  -3 239.905  12.579   1
  12   1   3 229.390  11.226   2
  12   1   3 227.986  12.529   6
  12  -1  -3 249.030  11.154   9
   1  12  -3 243.302  12.281   1
 -12  -1   3 217.039  11.029   2
  -1 -12  -3 254.221  12.247   1
   1 -12   3 208.136  11.260   2
  -1 -12  -3 234.494  10.555   9
   1  12  -3 224.898  10.739   9
  -1 -12   3 240.662  11.730   2
  12   1  -3 238.686  12.314   1
  -1  12  -3 244.141  10.995   9
 -12   1   3 215.291  10.879   2
 -12  -1  -3 235.211  12.447   1
   1 -12  -3 220.033  10.689   9
   1  12   3 218.693  11.271   2
 -12   1   3 231.659  13.629   7
   1 -12  -3 240.976  12.112   1
  12  -1   3 214.357  11.145   2
  12   1  -3 219.613  10.457   9
 -12  -1  -3 228.544  10.630   9
  -1  12  -3 230.175  12.143   1
  12   2   3 37.7494  7.2315   6
  -2 -12  -3 49.6880  6.5335   9
 -12   2  -3 39.6412  6.0063   9
   2  12  -3 35.8684  6.0866   9
  12   2   3 46.0818  6.8353   2
   2  12  -3 49.9998  7.8770   1
   2 -12   3 44.9043  6.9474   2
 -12  -2   3 42.7318  6.5261   2
  12  -2  -3 49.8462  6.3628   9
  -2 -12  -3 36.7327  6.9745   1
  12  -2  -3 41.1904  7.2013   1
 -12   2  -3 54.2804  7.4098   1
  -2  12   3 47.3050  6.7066   2
  -2  12  -3 34.4776  5.9510   9
  -2  12  -3 37.8986  7.0397   1
 -12  -2  -3 28.1715  6.5971   1
  -2 -12   3 42.4312  7.0083   2
  12   2  -3 48.9757  6.1234   9
   2  12   3 38.8035  6.3516   2
 -12   2   3 45.0410  6.4185   2
  12  -2   3 42.0268  6.6073   2
   2 -12  -3 54.2708  7.6427   1
  -2 -12   3 62.1106  7.3778   2
  12   2  -3 53.8799  7.7996   1
 -12  -2  -3 54.9067  6.4547   9
   2 -12  -3 41.3122  6.0263   9
 -12   2   3 34.9624  8.3483   7
   3 -12   3 159.279  10.123   2
  12  -3  -3 144.337   9.219   9
  -3  12   3 152.162   9.545   2
   3  12  -3 182.476   9.910   9
 -12   3  -3 163.896   9.338   9
  12   3   3 157.491  10.870   6
  12   3   3 166.641   9.953   2
  -3 -12  -3 159.630   9.369   9
  12  -3  -3 180.722  10.704   1
  -3 -12  -3 168.735  10.959   1
 -12   3  -3 156.542  11.114   1
 -12  -3   3 150.632   9.686   2
 -12   3   3 149.022  13.411   7
  12   3  -3 144.238   9.186   9
   3 -12  -3 159.665  11.133   1
  12   3  -3 157.905  10.491   1
 -12   3   3 164.722   9.666   2
  -3 -12   3 145.220  10.032   2
  12  -3   3 154.001   9.891   2
 -12  -3  -3 177.043   9.393   9
   3  12   3 157.386  10.011   2
 -12  -3  -3 156.805  10.517   1
   3 -12  -3 167.211   9.431   9
  -3  12  -3 165.212   9.367   9
  12  -4  -3 18.9005  6.1836   1
  -4 -12  -3 22.8589  5.5705   9
   4 -12   3 22.1982  6.1207   2
 -12   4  -3 10.1411  5.0272   9
  -4 -12  -3 8.11999 6.00305   1
   4  12  -3 21.6798  5.7299   9
  12  -4  -3 8.98967 5.14370   9
 -12   4  -3 19.8742  6.5108   1
  -4  12   3 17.9137  5.6809   2
  12   4   3 7.82654 5.90016   6
  12   4   3 14.9736  5.3370   2
 -12  -4   3 16.0378  5.5120   2
   4 -12  -3 31.4285  7.0679   1
 -12   4   3 2.07853 7.07486   7
  12   4  -3 14.9890  5.2060   9
  12   4  -3 21.1998  6.3783   6
  12  -4   3 16.4181  5.4674   2
 -12  -4  -3 24.3640  5.4988   9
 -12   4   3 12.4898  5.3801   2
 -12  -4  -3 27.7322  6.6942   1
  12   4  -3 23.5696  6.3524   1
  -4 -12   3 17.3186  6.0300   2
   4  12   3 19.2001  5.9403   2
  -4  12  -3 21.9806  5.5128   9
  -4  12  -3 12.5095  5.1802   9
   4 -12  -3 17.0735  5.3119   9
  12   5   3 63.4541  7.8360   2
   5  12  -3 68.9393  7.6331   9
  -5 -12  -3 71.4979  7.6210   9
   5 -12   3 68.0588  8.2761   2
  12   5   3 59.4592  8.6076   6
  12  -5  -3 67.3061  8.4459   1
  -5 -12  -3 75.6012  8.7441   1
  12  -5  -3 64.6555  7.4072   9
 -12  -5   3 68.4032  7.7881   2
 -12   5  -3 84.9821  7.8174   9
  -5  12   3 57.0062  7.5470   2
 -12   5   3 63.9065 10.4692   7
  12   5  -3 66.2697  7.2723   9
 -12  -5  -3 56.8583  7.0431   9
 -12   5   3 70.3862  8.0394   2
   5  12   3 59.2578  7.5949   2
  -5  12  -3 76.3133  7.6382   9
   5 -12  -3 65.2551  7.3542   9
  12  -5   3 80.0002  8.5284   2
 -12  -5  -3 81.9397  9.2786   1
   5 -12  -3 69.4162  8.7780   1
  -5 -12   3 59.5346  7.8549   2
  -5  12  -3 77.3300  7.6168   9
  12   5  -3 75.9716  8.9851   6
  -6  12   3 43.4632  6.7333   2
  12   6   3 34.7585  6.8550   2
   6 -12   3 39.2739  7.1110   2
  -6 -12  -3 39.2667  8.0052   1
  12  -6  -3 35.1516  6.4449   9
  -6 -12  -3 33.1622  6.1470   9
  12  -6  -3 44.0385  8.1560   1
  12   6   3 30.3783  7.5945   6
 -12  -6   3 31.9948  6.5608   2
 -12   6  -3 22.8705  5.8192   9
   6  12  -3 47.3550  6.8787   9
   6  12   3 36.4150  7.9768   6
 -12  -6  -3 31.6569  6.0004   9
  -6  12  -3 39.0458  6.6471   9
   6 -12  -3 58.2012  8.8097   1
  12  -6   3 33.8159  6.8243   2
 -12  -6  -3 43.7004  7.9625   1
 -12   6   3 38.1678  6.6091   2
  12   6  -3 43.9685  7.8450   6
   6  12   3 42.7103  6.8403   2
   6 -12  -3 41.2134  6.4376   9
  12   6  -3 33.2909  6.4016   9
  -6 -12   3 39.3307  7.0510   2
 -12   6   3 43.5649  9.2218   7
  -7 -12  -3 39.5592  8.2909   1
 -12  -7   3 30.5631  6.7624   2
  12   7   3 46.8389  7.4974   2
   7  12  -3 30.9474  6.4683   9
  12   7   3 33.9344  7.9085   6
  -7 -12  -3 26.9766  6.1792   9
  12  -7  -3 51.1564  7.2151   9
 -12   7  -3 39.6662  6.6921   9
   7 -12   3 32.8105  7.2255   2
  -7  12   3 33.9580  6.9414   2
  12   7  -3 39.9298  6.7868   9
 -12   7   3 34.0035  6.7392   2
   7 -12  -3 34.9029  6.5239   9
  12   7  -3 42.4276  8.0358   6
   7  12   3 42.5422  7.2368   2
   7 -12  -3 36.5471  7.8538   1
  12  -7   3 50.8637  8.0398   2
 -12  -7  -3 39.7093  6.7538   9
 -12   7   3 20.4875  8.9882   7
  -7  12  -3 41.2426  6.6960   9
  -7 -12   3 26.7302  6.6814   2
   7  12   3 28.4788  7.6175   6
 -12   8  -3 105.506   9.398   9
 -12  -8   3 104.943   9.745   2
  -8  12   3 111.599   9.698   2
   8  12  -3 121.193   9.994   9
  12   8   3 117.849  11.316   6
  12  -8  -3 114.323   9.714   9
   8 -12   3 121.558  10.673   2
  -8 -12  -3 124.974   9.252   9
  12   8   3 112.740  10.202   2
  -8 -12   3 93.1602 11.2640   3
  -8 -12   3 121.639  10.237   2
  12   8  -3 117.736   9.684   9
   8 -12  -3 113.669   9.592   9
 -12  -8  -3 92.0511  8.8068   9
  12   8  -3 127.281  11.394   6
  12  -8   3 82.1609  9.6168   2
   8  12   3 117.111  11.704   6
 -12   8   3 93.9841  9.4842   2
   8  12   3 93.9958  9.2628   2
  -8  12  -3 111.943   9.582   9
 -12   8   3 90.6141 12.0071   7
  -9 -12  -3 0.39272 5.36664   9
  12   9   3 4.49721 5.42794   2
  12   9   3 1.19973 6.17866   6
 -12  -9   3 -5.7481  5.2193   2
  -9  12   3 -2.0891  5.4122   2
   9 -12   3 1.66175 6.07760   2
  12  -9  -3 3.04976 5.82069   9
 -12   9   3 9.71647 8.77410   7
  12  -9   3 -5.5205  5.7149   2
 -12   9   3 3.40508 5.58575   2
 -12  -9  -3 2.36841 5.55980   9
  -9 -12   3 -2.9115  5.9069   2
   9  12   3 -10.205   5.781   6
  12   9  -3 -6.3229  6.0929   6
   9  12   3 1.13930 5.69221   2
   9 -12  -3 -1.4235  5.7352   9
  -9 -12   3 2.30092 7.54896   3
   0 -13  -3 -3.6736  4.5507   9
  13   0   3 9.62925 5.22015   2
 -13   0  -3 -9.6664  3.9166   9
  13   0  -3 -10.487   5.649   1
   0 -13   3 3.55840 5.49011   2
 -13   0   3 -0.6229  5.8437   7
 -13   0   3 4.39071 4.73336   2
 -13   0  -3 -2.2898  5.5329   1
  13   0   3 -2.6604  5.3932   6
   0 -13  -3 -1.1267  6.1876   1
   0  13   3 -6.0588  4.7051   2
  13   0  -3 -3.6740  4.6595   9
   0  13  -3 0.66496 4.76019   9
   1 -13   3 6.45714 5.42473   2
  -1 -13  -3 4.21913 6.09290   1
 -13  -1   3 10.2163  5.0261   2
  -1  13   3 -1.8730  4.3866   2
 -13   1  -3 2.31699 5.70516   1
 -13   1  -3 -7.3095  4.2856   9
  -1 -13  -3 -1.4500  4.6138   9
   1  13  -3 -6.9758  4.4644   9
  13   1   3 2.81789 5.48864   6
 -13  -1   3 -8.2765  5.2542   7
  13  -1  -3 8.12069 4.98640   9
  13   1   3 7.34587 5.11258   2
  13  -1  -3 3.99934 5.64032   1
   1 -13  -3 -2.6243  5.6132   1
  13  -1   3 -5.4711  4.6948   2
  -1  13  -3 -0.5573  4.7303   9
  -1 -13   3 -0.1348  5.1377   2
 -13  -1  -3 10.5788  5.0576   9
  -1 -13   3 -1.8554  4.9498   2
   1 -13  -3 7.48379 4.94132   9
   1  13   3 10.9889  5.4703   2
 -13   1   3 11.0953  7.0114   7
 -13   1   3 -1.2919  4.7896   2
  13   1  -3 5.44698 5.86781   1
 -13  -1  -3 4.64048 5.65609   1
  13   1  -3 3.13346 4.55773   9
  -2 -13  -3 49.8296  8.0483   1
  -2 -13  -3 55.3277  7.1403   9
 -13   2  -3 49.5712  6.6621   9
 -13  -2   3 50.2008  7.4040   2
   2 -13   3 39.4347  7.3503   2
  13   2   3 59.8679  7.6798   2
  13   2   3 45.0551  8.0960   6
  13  -2  -3 61.3693  8.3505   1
  13  -2  -3 60.2986  7.2073   9
  -2  13   3 54.6464  7.2986   2
   2  13  -3 58.5991  7.1793   9
 -13  -2  -3 47.5217  6.6266   9
  -2 -13   3 53.8527  7.7549   2
   2 -13  -3 42.3285  7.8829   1
   2  13   3 38.8308  6.7610   2
  -2 -13   3 54.9690  7.6570   2
 -13  -2  -3 61.4811  8.6065   1
  13   2  -3 37.9988  6.4096   9
  -2  13  -3 62.1134  7.2111   9
 -13   2   3 53.0414  7.5086   2
 -13   2   3 39.5541  8.6898   7
  13  -2   3 59.1661  7.9182   2
   2 -13  -3 61.7291  7.3211   9
  13   3   3 67.0098  9.1469   6
 -13  -3   3 50.4825  7.2489   2
   3 -13   3 56.1356  7.8378   2
  -3  13   3 47.8755  7.2219   2
 -13   3  -3 66.0136  7.5249   9
   3  13  -3 76.4011  7.9764   9
  -3 -13  -3 62.5512  7.2895   9
  13   3   3 66.1740  8.0951   2
  13  -3  -3 66.0521  7.7347   9
  13  -3  -3 60.4261  8.3949   1
  -3 -13  -3 73.3502  9.0457   1
   3 -13  -3 60.9088  8.9732   1
   3  13   3 59.3980  7.5763   2
 -13  -3  -3 69.3326  7.3048   9
  -3 -13   3 58.5513  8.0424   2
 -13  -3  -3 66.6790  8.9759   1
  13   3  -3 57.7930  8.1580   6
  13   3  -3 55.9836  7.2200   9
  13  -3   3 49.5660  7.4073   2
 -13   3   3 67.9887  7.7568   2
 -13   3   3 79.7510 10.7526   7
   3 -13  -3 55.1325  7.0888   9
  -3  13  -3 71.6440  7.6671   9
  13  -4  -3 3.72521 5.08206   9
  13   4   3 2.88985 6.12958   6
   4  13  -3 6.35269 5.37516   9
 -13   4  -3 10.3488  5.2276   9
  13   4   3 0.40427 4.76925   2
  -4 -13  -3 4.94053 5.04989   9
 -13  -4   3 10.1983  5.6229   2
   4 -13   3 -7.4180  4.9961   2
  -4  13   3 7.61945 5.56677   2
  -4 -13  -3 19.1529  6.9265   1
  13  -4   3 9.09907 5.59869   2
 -13  -4  -3 1.29029 4.76330   9
   4 -13  -3 10.6805  5.2733   9
   4 -13  -3 11.2647  6.5290   1
   4  13   3 8.58449 5.75279   2
 -13   4   3 11.7025  7.6783   7
  13   4  -3 2.23341 5.09881   9
  -4 -13   3 13.6189  6.1453   2
  -4  13  -3 0.14383 4.83996   9
 -13   4   3 11.6142  5.5515   2
  13   4  -3 11.1016  6.4875   6
  13  -5  -3 36.4456  6.6533   9
 -13  -5   3 22.6234  6.3964   2
  13   5   3 32.9819  6.8599   2
  13   5   3 48.7656  8.2623   6
  -5  13   3 35.4830  6.7506   2
 -13   5  -3 34.7593  6.5854   9
  -5 -13  -3 35.9834  6.7341   9
   5  13  -3 30.6389  6.5014   9
  -5 -13  -3 43.8646  8.5213   1
   5 -13   3 33.5914  7.2500   2
  13   5  -3 32.8744  7.5026   6
  13  -5   3 27.6451  6.8181   2
 -13   5   3 58.3869 10.2437   7
   5 -13  -3 30.9099  6.4995   9
  -5 -13   3 37.6351  7.5392   2
   5  13   3 41.3805  7.0490   2
 -13   5   3 34.5702  6.8613   2
 -13  -5  -3 35.3717  6.4458   9
   5 -13  -3 43.6835  8.3287   1
  13   5  -3 52.8678  7.2223   9
  -5  13  -3 34.2396  6.4844   9
   6  13  -3 9.49341 6.04770   9
  13   6   3 7.53639 5.80031   2
  -6 -13  -3 9.28342 5.75671   9
   6 -13   3 10.3940  6.4828   2
  -6  13   3 4.25394 5.33336   2
  13  -6  -3 15.1622  5.8319   9
  13   6   3 8.74176 6.61289   6
 -13   6  -3 11.7996  5.6137   9
 -13  -6   3 14.8055  6.2857   2
 -13   6   3 17.1861  8.1530   7
  -6  13  -3 15.3754  5.8138   9
 -13   6   3 14.7093  5.9589   2
   6 -13  -3 6.19331 5.38031   9
  13   6  -3 17.7265  7.2314   6
 -13  -6  -3 9.69704 5.44141   9
  -6 -13   3 13.9329  6.5036   2
  13  -6   3 1.78163 5.93333   2
  13   6  -3 13.1145  5.7342   9
   6  13   3 4.65920 5.68976   2
  -6  13  -3 -0.3282  5.0679   9
  13  -7  -3 51.1314  7.7211   9
  13   7   3 59.8855  9.3392   6
 -13   7  -3 62.9845  7.9452   9
 -13  -7   3 60.0702  8.4597   2
  13   7   3 58.3231  8.0312   2
  -7 -13  -3 61.0595  8.2127   9
   7 -13   3 77.8564  8.9713   2
  -7  13   3 66.0885  8.1355   2
 -13   7   3 58.4834  8.2446   2
   7  13   3 65.2460  9.6158   6
  13   7  -3 57.1443  7.9376   9
   7  13   3 62.7393  8.4749   2
  -7 -13   3 66.3341  8.6506   2
  -7 -13   3 63.6590 10.3942   3
   7 -13  -3 59.6739  8.1526   9
  13  -7   3 59.4392  8.7324   2
  13   7  -3 67.4727  9.3038   6
 -13  -7  -3 63.4628  8.1078   9
 -13   7   3 45.9203 10.4597   7
   0 -14  -3 5.47025 5.29651   9
  14   0  -3 9.61767 5.56363   9
   0  14  -3 7.07662 5.61361   9
  14   0   3 16.4812  7.0798   6
 -14   0   3 1.35733 5.01571   2
   0 -14  -3 6.93538 6.49682   1
   0 -14   3 14.3414  6.3277   2
  14   0   3 4.99169 5.93192   2
 -14   0  -3 5.48291 5.55349   9
   0  14   3 8.90766 5.75305   2
 -14   0   3 -1.0653  6.3301   7
  14   1   3 20.3880  6.5185   2
  14  -1  -3 14.5289  5.6264   9
  -1 -14  -3 30.8291  7.6412   1
  14   1   3 17.8292  7.2847   6
   1 -14   3 10.8538  5.9406   2
  -1  14   3 18.7806  5.9560   2
 -14  -1   3 15.2815  6.1269   2
   1  14  -3 17.6683  6.4088   9
 -14   1  -3 21.0291  6.1376   9
  -1 -14  -3 32.5630  6.4203   9
 -14   1   3 27.5200  6.7352   2
 -14   1   3 20.9556  7.7242   7
   1 -14  -3 18.2875  6.0136   9
 -14  -1  -3 11.0411  5.5294   9
  14   1  -3 24.0619  6.3699   9
   1  14   3 16.3669  6.5790   2
  -1  14  -3 21.9256  6.2724   9
   1 -14  -3 24.9916  7.3768   1
  14  -1   3 11.6585  5.9925   2
  -1 -14   3 10.3697  6.2683   2
  -1 -14   3 24.7472  6.5370   2
  14   2   3 142.607  12.352   6
  14  -2  -3 170.163  10.513   9
 -14  -2   3 155.973  10.647   2
  14   2   3 134.168  10.910   2
   2  14  -3 120.962   9.769   9
   2 -14   3 155.538  11.228   2
  -2  14   3 159.582  10.333   2
 -14   2  -3 150.689  10.003   9
  -2 -14  -3 154.664  10.145   9
  14   2  -3 155.742  10.210   9
  -2 -14   3 129.080  10.850   2
  14  -2   3 154.874  11.024   2
   2 -14  -3 163.457  10.156   9
 -14   2   3 126.008  10.438   2
 -14   2   3 142.565  13.145   7
   2  14   3 144.181  10.045   2
  -2 -14   3 130.227  10.931   2
 -14  -2  -3 163.776  10.192   9
  -2  14  -3 142.231   9.856   9
   3  14  -3 47.3335  7.5306   9
  14   3   3 41.2728  7.3106   2
  -3  14   3 43.3472  7.3883   2
   3 -14   3 30.4651  7.4846   2
 -14   3  -3 56.1572  7.5085   9
  14   3   3 31.3606  7.9070   6
 -14  -3   3 32.7566  7.2489   2
  -3 -14  -3 43.1468  7.0493   9
  14  -3  -3 46.7463  7.3185   9
   3 -14  -3 34.6224  6.6587   9
  -3  14  -3 41.4035  7.1064   9
 -14   3   3 47.3130  9.5815   7
 -14   3   3 41.5061  7.4315   2
   3  14   3 50.1730  7.6808   2
  14   3  -3 36.6137  8.1187   6
 -14  -3  -3 37.5432  6.8905   9
  14   3  -3 43.6722  7.0767   9
  -3 -14   3 46.8780  7.8480   2
  14  -3   3 30.4984  6.8329   2
 -14   4  -3 162.450  10.429   9
  14  -4  -3 172.818  10.922   9
  14   4   3 170.328  12.676   6
   4  14  -3 182.786  11.182   9
 -14  -4   3 145.292  10.816   2
  -4 -14  -3 183.754  10.819   9
   4 -14   3 159.230  11.689   2
  -4  14   3 157.875  10.344   2
  14   4   3 160.085  11.254   2
 -14   4   3 146.832  10.943   2
 -14   4   3 162.224  14.656   7
  14  -4   3 165.572  11.196   2
 -14  -4  -3 173.899  10.827   9
  -4  14  -3 151.859  10.544   9
   4 -14  -3 160.294  10.412   9
  14   4  -3 195.125  11.185   9
   4  14   3 157.887  10.523   2
  -4 -14   3 157.566  11.761   2
  14   4  -3 138.832  12.415   6
   5 -14   3 8.81181 6.58177   2
 -14  -5   3 15.3093  6.0821   2
  -5  14   3 5.08286 5.59427   2
  14   5   3 15.0626  6.3737   2
 -14   5  -3 12.7659  5.8867   9
  14   5   3 10.1434  6.9659   6
  -5 -14  -3 2.79849 5.47928   9
  14  -5  -3 4.22290 5.71938   9
  14  -5   3 4.02602 6.25780   2
 -14  -5  -3 15.6483  5.7217   9
 -14   5   3 12.4897  8.0611   7
  -5 -14   3 13.4508  6.4872   2
   5 -14  -3 15.2860  6.0867   9
 -14   5   3 1.13623 5.71720   2
  14   5  -3 -3.6304  5.2742   9
  14   5  -3 12.2438  6.8068   6
   5  14   3 3.54259 5.82211   2
  15   0   3 -2.9248  6.8338   6
   0 -15   3 -1.4864  5.9923   2
   0  15   3 0.98173 5.70438   2
  15   0  -3 -7.0498  5.1166   9
   0 -15  -3 1.62839 5.53068   9
  15   0   3 4.18374 5.75783   2
 -15   0  -3 -0.2999  5.4117   9
 -15   0   3 8.11123 5.78470   2
  -1 -15  -3 17.2333  6.3589   9
 -15  -1   3 36.0557  7.1709   2
   1 -15   3 35.3092  7.8643   2
  15   1   3 30.9835  8.1206   6
  -1  15   3 29.9937  7.0845   2
 -15   1  -3 23.4264  6.5495   9
  15  -1  -3 28.6863  6.9925   9
  15   1   3 11.3741  6.0788   2
  15   1  -3 44.0122  7.5883   9
   1 -15  -3 37.4744  7.1704   9
 -15   1   3 34.5859  7.3805   2
  -1 -15   3 27.9865  7.3806   2
 -15   1   3 23.8925  8.7086   7
  15  -1   3 29.3662  7.2906   2
   1  15   3 33.0623  7.3124   2
 -15  -1  -3 21.0497  6.1642   9
  -1 -15   3 31.4089  7.6919   2
  15  -1   3 27.3093  7.7806   6
  15   2   3 1.45442 5.97353   2
   2 -15   3 -8.9471  5.5480   2
 -15  -2   3 2.41541 5.83756   2
  -2  15   3 4.09319 5.81500   2
  15   2   3 0.12505 6.51002   6
 -15   2  -3 -5.0251  5.1519   9
  -2 -15  -3 -6.3145  5.3156   9
  15  -2  -3 2.36608 6.26743   9
   2  15   3 3.53359 5.50608   2
 -15   2   3 1.64932 7.71409   7
  -2 -15   3 4.80570 6.49080   2
  -2 -15   3 -1.3501  6.1308   2
  15   2  -3 1.37945 5.72902   9
  15  -2   3 -3.9313  5.4439   2
 -15  -2  -3 -2.5866  5.5829   9
 -15   2   3 -4.2266  5.6354   2
   2 -15  -3 2.33339 5.70177   9
   0   0   4 9947.21  180.48   8
   0   0   4 9802.97  177.81   7
   0   0   4 9895.89  176.54   3
   0   0   4 9999.99  178.09   5
   1   0   4 -2.9003  2.3749   7
   0   1   4 -2.8860  2.3348   5
   0   1   4 -2.3127  2.1171   3
   0  -1   4 0.80390 2.20542   3
   0   1   4 -5.8871  1.9600   7
  -1   0  -4 -2.5057  1.0419   4
   0  -1   4 -4.5484  2.4172   8
  -1   0   4 -4.0772  2.2699   3
   1   0  -4 -0.7056  1.1390   4
   0  -1   4 -3.7105  2.1823   5
   1   0   4 -5.1707  1.8941   3
   0   1   4 0.11735 2.44338   8
  -1   0   4 -4.9816  2.0718   7
   1   0   4 -5.2294  2.3359   5
   0  -1   4 -3.7083  2.1631   7
  -1   0   4 -0.2065  2.3044   5
   1   0   4 -3.0316  2.2175   8
  -1   0   4 -2.3155  2.5042   8
   1   1   4 918.646  19.709   7
   1   1  -4 942.448  18.238   4
   1  -1  -4 926.089  17.860   4
   1   1   4 902.921  19.467   3
   1   1   4 912.986  19.667   5
   1  -1   4 921.312  19.910   7
  -1  -1   4 898.101  19.769   7
   1   1   4 927.490  20.288   8
  -1  -1  -4 936.864  17.882   4
   1  -1   4 925.913  19.336   3
   1  -1   4 918.194  20.379   8
  -1   1   4 897.669  19.814   5
  -1  -1   4 910.440  19.855   5
  -1   1   4 936.771  20.000   7
  -1  -1   4 923.857  19.716   3
   1  -1   4 915.614  19.936   5
  -1  -1   4 890.424  19.893   8
  -1   1   4 921.426  20.371   8
  -1   1   4 935.786  19.635   3
   2   0   4 5423.65  101.17   5
   0   2   4 5492.44  100.67   7
  -2   0  -4 5476.18  102.24   4
   2   0   4 5508.52  101.03   7
   2   0  -4 5575.96  102.27   4
   0  -2   4 5635.03  101.08   5
   0   2   4 5583.53  100.75   5
   0   2   4 5533.89  102.54   8
   0  -2   4 5569.39  100.29   3
   0  -2   4 5526.97  100.98   7
   2   0   4 5637.58   99.74   3
  -2   0   4 5523.98  100.14   3
   0  -2   4 5501.73  102.23   8
  -2   0   4 5504.28  101.22   7
  -2   0   4 5406.94  102.23   8
   2   0   4 5557.07  102.51   8
   0   2   4 5454.41  100.27   3
  -1   2   4 262.678   8.260   3
  -2  -1   4 265.969   8.516   5
   2   1   4 272.307   8.318   5
  -1   2   4 268.945   8.770   8
   1  -2   4 282.590   8.661   8
  -2  -1   4 274.683   8.383   7
   2   1   4 273.598   7.989   3
  -2  -1   4 272.397   8.286   3
   1  -2   4 278.249   8.137   3
  -2  -1   4 268.881   8.229   8
   2  -1  -4 278.859   6.813   4
  -1   2   4 278.943   8.474   7
   2   1   4 269.371   8.022   7
   1  -2   4 257.542   8.348   5
   1  -2   4 261.705   8.274   7
  -1  -2  -4 258.874   6.729   4
  -2   1  -4 268.264   6.987   4
   2   1   4 283.695   8.651   8
  -1   2   4 255.708   8.151   5
  -2   1   4 276.927   8.556   7
  -1  -2   4 265.654   8.179   8
  -2   1   4 275.399   8.107   3
  -2  -1  -4 267.111   6.766   4
  -1  -2   4 261.865   8.248   5
  -1  -2   4 281.049   8.375   3
   1   2   4 276.534   8.174   5
   1   2   4 265.489   7.952   7
   1   2   4 275.075   8.357   3
   1   2   4 285.087   8.657   8
   1  -2  -4 269.169   6.713   4
  -1  -2   4 266.154   8.212   7
  -2   1   4 275.318   8.714   8
   2  -1   4 279.431   8.713   8
   2   1  -4 271.168   7.007   4
   2  -1   4 288.925   7.855   3
   2  -1   4 260.525   8.537   5
   2   2  -4 3752.12   69.93   4
  -2   2   4 3709.91   69.53   7
   2  -2   4 3731.58   67.95   3
  -2  -2  -4 3667.99   69.61   4
   2  -2   4 3672.72   70.51   8
   2   2   4 3691.77   68.56   3
   2   2   4 3670.80   68.70   5
   2   2   4 3706.73   69.91   8
  -2   2   4 3606.46   68.40   3
   2   2  -4 3804.49   67.53   1
   2  -2  -4 3688.21   69.57   4
  -2  -2  -4 3718.56   67.22   1
  -2   2   4 3642.12   70.58   8
  -2   2  -4 3703.06   67.57   1
  -2  -2   4 3677.51   68.89   7
   2  -2  -4 3679.90   67.17   1
   2  -2   4 3686.46   65.93   2
   2   2   4 3618.17   68.39   7
  -2  -2   4 3665.65   69.32   8
  -2  -2   4 3720.81   68.92   3
  -2  -2   4 3721.21   69.15   5
   0  -3   4 -3.5920  1.2106   2
   0   3   4 -2.8543  2.2025   7
   3   0  -4 -1.6424  1.8509   1
  -3   0   4 -7.7374  2.4493   8
   3   0  -4 -2.1909  1.8424   4
   0   3   4 -2.8415  2.3198   3
   0   3  -4 -4.6883  1.7585   1
  -3   0  -4 -6.6126  1.6330   4
   3   0   4 -2.4172  2.0639   3
  -3   0   4 -4.6654  2.3477   7
  -3   0   4 -2.8228  2.2612   3
  -3   0  -4 -5.0436  1.7355   1
   0  -3  -4 1.95532 1.79248   1
   0   3   4 0.26844 2.72685   8
   0   3   4 -1.8102  2.3246   5
   0  -3   4 -4.3468  2.4572   3
   0  -3   4 -2.5627  2.4794   8
   0  -3   4 -3.3461  2.2966   7
   0  -3   4 -1.6788  2.4199   5
   3   0   4 -0.8010  2.6128   8
   3   1   4 892.728  19.459   3
   1  -3   4 930.267  17.711   2
  -1   3   4 910.771  19.894   5
   1  -3   4 907.616  20.709   8
  -1  -3  -4 921.293  19.315   4
   1   3  -4 909.040  18.840   1
  -3   1  -4 921.386  19.518   4
  -1   3   4 933.954  20.270   7
   1  -3   4 918.118  19.963   3
  -3   1  -4 921.043  18.644   1
   1  -3   4 898.738  20.215   5
   3   1   4 939.464  20.576   8
   1   3  -4 916.077  16.831   9
  -1   3   4 913.817  20.243   3
   3  -1  -4 920.778  18.552   1
  -1   3   4 906.003  21.059   8
  -3  -1   4 921.381  20.069   3
   1  -3   4 934.753  17.720   2
  -3  -1   4 934.356  20.423   7
  -3  -1   4 919.002  20.171   8
   3  -1  -4 921.946  19.392   4
  -3  -1   4 936.727  17.334   2
  -1  -3  -4 906.115  18.388   1
   1   3   4 914.643  19.470   5
  -3  -1  -4 908.542  18.516   1
   1   3   4 913.012  20.467   8
  -1  -3   4 933.643  20.097   7
   3   1  -4 919.829  18.587   1
   3  -1   4 927.723  17.292   2
   3   1  -4 922.376  19.520   4
  -1  -3   4 909.041  20.336   3
  -1  -3   4 925.226  20.032   8
  -1   3  -4 959.429  16.846   9
   1  -3  -4 942.460  18.443   1
  -3   1   4 922.872  19.812   3
   3  -1   4 939.058  17.320   2
   1   3   4 905.990  20.314   3
  -1   3  -4 919.493  18.769   1
   3  -1   4 935.210  20.998   8
  -3   1   4 900.329  20.690   7
  -1  -3   4 929.825  17.681   2
   3  -1   4 936.948  17.316   2
   3  -1   4 914.362  19.047   3
   1   3   4 929.715  19.588   7
  -1  -3   4 924.279  19.975   5
  -3  -1  -4 909.816  19.407   4
   3   2   4 29.2920  1.9403   2
   3   2   4 27.3911  3.4466   3
   3  -2  -4 25.5601  2.7450   1
   2   3  -4 28.3379  3.1973   4
  -2   3   4 29.4887  3.9143   7
  -2   3   4 26.2587  3.6415   3
   3  -2  -4 22.8803  2.7627   4
  -3  -2   4 23.5868  3.1250   8
  -3   2  -4 23.5844  2.0207   9
   2   3  -4 25.1495  2.1343   9
   2  -3   4 29.8467  2.4224   2
  -3   2  -4 28.6879  3.0578   4
  -3   2  -4 34.6023  3.0999   1
  -3  -2   4 28.0533  3.4683   7
   3   2   4 29.5800  3.5951   8
   2  -3   4 28.5684  3.5158   3
  -2  -3  -4 27.1213  2.7602   1
   2   3  -4 26.8163  2.9859   1
   2  -3   4 31.1487  4.1814   8
  -2  -3  -4 20.9836  2.7955   4
  -2   3   4 28.3938  1.6921   2
  -3  -2   4 19.0589  3.4875   3
  -3  -2   4 25.3680  2.2400   2
   3   2   4 26.8419  1.8289   2
  -3   2   4 27.3051  4.1391   7
   2   3   4 28.4461  3.4773   6
   2   3   4 25.8377  3.4229   8
  -3  -2  -4 27.5052  2.7200   1
  -2  -3   4 21.4709  3.1291   8
   2   3   4 26.0749  1.6662   2
   3   2  -4 28.9603  2.0824   9
  -2  -3   4 27.6111  3.3955   7
  -3   2   4 24.0023  3.3386   3
  -2  -3   4 30.9302  3.6005   5
  -3   2   4 23.5438  1.8743   2
  -2   3  -4 29.9887  2.9116   1
   3   2  -4 24.7549  2.9087   4
   2  -3  -4 26.2486  2.7460   1
  -3  -2  -4 26.1150  2.9597   4
   3  -2   4 27.9471  3.0878   3
  -2   3  -4 28.3224  2.0893   9
   3  -2   4 27.8338  2.3016   2
   3  -2   4 31.2227  4.0576   8
   2   3   4 27.8406  3.2080   7
   2   3   4 25.7056  3.7703   3
   2   3   4 28.7818  3.3553   5
  -2  -3   4 26.5707  3.7516   3
  -3   2   4 27.6176  1.9517   2
   2  -3  -4 32.8855  3.1394   4
   3   2  -4 25.2901  2.8811   1
  -2  -3   4 28.5229  2.3887   2
   3   3  -4 440.860  11.406   4
  -3   3  -4 417.552  10.704   1
   3   3   4 436.017  11.985   3
   3   3  -4 432.664   9.693   9
  -3   3  -4 440.633   9.646   9
  -3  -3  -4 435.435   9.176   9
  -3  -3   4 426.661  12.073   3
  -3   3   4 434.682   9.577   2
  -3  -3   4 436.046  11.663   5
  -3   3   4 439.003  12.658   7
  -3  -3  -4 429.802  11.195   4
   3  -3   4 443.020  10.225   2
   3   3   4 433.759  11.519   8
  -3  -3   4 452.046  10.985   8
   3   3   4 433.386  11.856   6
   3   3  -4 408.849  10.697   1
   3  -3  -4 418.603  10.615   1
  -3  -3  -4 430.051  10.527   1
   3   3   4 438.146   9.528   2
   3   3   4 439.503  11.017   7
  -3   3   4 401.225  11.373   3
   3  -3  -4 438.595   9.214   9
  -3  -3   4 426.295  11.333   7
   3  -3   4 437.277  10.865   3
   3  -3  -4 432.902  11.126   4
   3  -3   4 426.927  12.843   8
   3   3  -4 438.479   9.709   9
  -3  -3   4 420.450  10.032   2
  -4   0  -4 2394.29   46.12   1
  -4   0  -4 2379.27   47.72   4
   0  -4   4 2397.48   47.42   3
   0  -4  -4 2457.60   45.96   1
   4   0   4 2441.43   45.21   2
   0   4  -4 2454.64   44.61   9
   0  -4  -4 2478.14   43.71   9
   0   4   4 2427.02   46.65   7
   0   4   4 2464.97   44.62   2
   4   0  -4 2465.39   44.31   9
   4   0   4 2434.37   48.27   8
  -4   0   4 2428.98   46.56   3
  -4   0   4 2420.89   48.02   7
   0  -4   4 2439.79   46.99   5
  -4   0   4 2388.75   45.17   2
   0  -4   4 2381.33   47.71   8
   4   0   4 2414.71   45.66   3
   0   4   4 2474.43   48.48   8
   4   0  -4 2476.43   47.88   4
  -4   0  -4 2503.00   44.27   9
   4   0  -4 2467.32   46.11   1
   0   4   4 2433.84   46.35   5
   0   4  -4 2406.77   46.32   1
   0   4   4 2443.23   47.71   3
   0  -4   4 2449.16   45.62   2
  -4  -1   4 40.1103  3.9952   3
   1  -4   4 47.3742  4.2578   5
  -4   1  -4 44.0458  3.5315   4
   1  -4   4 46.1239  4.2626   3
   4   1   4 36.6405  3.9405   8
   1   4  -4 39.0417  2.7795   9
   1   4  -4 36.8340  3.3816   1
  -4   1  -4 38.4759  2.5472   9
   4   1   4 44.9574  2.8148   2
  -4   1  -4 40.5473  3.4241   1
  -4  -1   4 42.2699  2.8572   2
   1  -4   4 39.0073  3.1312   2
   4  -1  -4 33.5495  3.3274   1
  -4  -1   4 47.1009  4.1037   8
  -1   4   4 41.4233  3.8304   5
   4   1   4 43.8239  3.7396   3
  -1  -4  -4 37.8028  3.4383   4
  -1  -4  -4 34.4175  2.1558   9
  -4  -1   4 39.0096  4.2734   7
  -1   4   4 35.1426  4.1295   3
  -1  -4  -4 37.0597  3.2723   1
  -1   4   4 38.0264  3.9815   7
   1  -4   4 37.0502  4.2702   8
   4  -1  -4 37.7781  3.4060   4
  -1   4   4 40.8243  2.4194   2
   4  -1  -4 41.3191  2.5506   9
   4  -1   4 44.3779  3.0100   2
   1  -4  -4 42.2933  2.2333   9
   4   1  -4 43.5820  3.4005   1
   1   4   4 40.8437  3.5069   5
   1   4   4 43.6036  4.5669   3
  -1  -4   4 34.4465  3.6476   8
  -1   4  -4 40.3311  2.6817   9
   1   4   4 46.1236  4.3052   8
   4   1  -4 39.7393  2.7180   9
   1   4   4 41.2311  2.5555   2
  -1  -4   4 43.7176  3.1104   2
   1  -4  -4 41.8693  3.4146   1
  -4  -1  -4 40.8604  3.4149   1
  -4   1   4 41.6613  4.7022   7
   4   1  -4 40.8801  3.6146   4
  -1  -4   4 38.4600  4.4395   3
   1   4   4 42.6316  3.5724   7
   4  -1   4 43.9043  3.4151   3
   4  -1   4 43.5255  4.5693   8
  -4  -1  -4 33.6660  2.3662   9
  -4  -1  -4 37.2759  3.4395   4
  -1  -4   4 39.0814  3.8275   5
  -1   4  -4 37.0667  3.3854   1
  -4   1   4 38.5299  2.6637   2
  -4   1   4 41.3951  3.7974   3
  -1  -4   4 34.5720  3.7104   7
  -4  -2   4 3367.40   64.28   7
  -4  -2   4 3398.03   64.27   8
  -4   2  -4 3471.64   65.82   4
  -2   4   4 3407.66   62.19   2
  -4   2  -4 3330.75   61.52   9
   4   2   4 3424.40   64.88   8
  -4  -2   4 3333.05   62.69   2
   2  -4   4 3404.47   62.92   2
  -2  -4  -4 3387.27   61.14   9
   4  -2  -4 3388.85   63.38   1
   4  -2  -4 3346.75   61.31   9
  -2  -4  -4 3382.94   63.28   1
   4   2   4 3403.39   65.89   6
   4   2   4 3410.40   62.48   2
  -4   2  -4 3374.43   63.57   1
   4  -2  -4 3431.69   65.63   4
  -4  -2   4 3440.43   64.11   3
   2  -4   4 3435.27   63.65   3
   2  -4   4 3431.40   66.23   8
   2   4  -4 3440.09   61.83   9
  -2   4   4 3342.74   64.18   3
   2   4  -4 3430.70   63.61   1
   4   2   4 3311.42   63.42   3
  -2   4   4 3479.41   64.88   7
  -2  -4  -4 3443.56   65.56   4
   2   4   4 3352.92   62.18   2
   2  -4  -4 3334.43   63.27   1
  -4  -2  -4 3436.72   63.40   1
   4   2  -4 3433.69   61.72   9
   4   2  -4 3466.43   63.52   1
   4  -2   4 3411.08   62.22   3
  -4   2   4 3390.12   65.74   7
   2   4   4 3369.49   62.90   7
  -2   4  -4 3313.50   63.52   1
   2   4   4 3364.35   64.80   3
   2  -4  -4 3381.11   65.46   4
  -2  -4   4 3358.17   63.61   7
   4  -2   4 3370.04   66.24   8
  -4   2   4 3399.17   62.43   2
   2   4   4 3447.01   63.16   5
   4   2  -4 3323.41   65.62   4
   2  -4  -4 3442.58   61.19   9
  -2  -4   4 3407.90   64.07   8
   2   4   4 3407.93   64.92   8
  -2  -4   4 3498.32   62.94   2
   4  -2   4 3477.98   62.86   2
  -2   4  -4 3364.19   61.67   9
  -2  -4   4 3395.86   63.75   5
  -4   2   4 3367.18   63.39   3
  -4  -2  -4 3326.77   65.43   4
  -2  -4   4 3255.25   64.55   3
  -4  -2  -4 3343.33   61.26   9
   2   4   4 3427.24   66.34   6
  -4  -3   4 150.370   6.208   7
   4   3   4 139.295   6.099   8
  -3   4   4 153.555   7.446   7
   4  -3  -4 141.772   5.841   1
  -3  -4  -4 144.165   6.248   4
  -4  -3   4 154.924   5.718   8
   4   3   4 154.689   5.224   2
   3  -4   4 153.167   6.141   3
  -4  -3   4 149.564   5.441   2
  -3   4   4 137.718   5.071   2
   3   4  -4 135.893   5.961   1
   3   4  -4 139.648   5.258   9
   4  -3  -4 147.950   6.174   4
   4  -3  -4 143.708   4.994   9
   3   4  -4 139.576   5.818   1
  -3   4   4 142.669   6.473   3
  -3  -4  -4 136.788   5.770   1
  -3  -4  -4 153.595   5.051   9
   4   3   4 141.840   6.621   6
  -4  -3   4 149.190   6.876   3
   3   4  -4 139.210   5.287   9
  -4   3  -4 141.697   5.973   1
   3   4  -4 145.683   6.364   4
  -4   3  -4 147.267   5.253   9
   3  -4   4 149.527   5.547   2
   3   4   4 149.257   5.546   7
  -4  -3  -4 149.650   5.009   9
   4  -3   4 148.730   5.404   3
  -3  -4   4 156.333   7.001   3
   3   4   4 140.138   5.085   2
   3   4   4 144.231   6.792   6
   3  -4  -4 141.555   5.808   1
  -4  -3  -4 137.796   6.226   4
   3  -4  -4 139.664   4.873   9
  -3  -4   4 153.245   6.172   7
   4   3  -4 144.307   6.256   4
   3   4   4 158.563   6.492   8
   4   3  -4 144.098   5.993   1
  -3   4  -4 146.800   6.067   1
  -3  -4   4 150.842   5.564   8
   4   3  -4 153.691   5.375   9
  -4  -3  -4 141.195   5.801   1
  -4   3   4 147.834   5.264   2
  -4   3   4 159.998   6.323   3
  -3   4  -4 150.326   5.165   9
  -3  -4   4 146.600   5.536   2
  -4   3   4 143.275   7.565   7
  -3  -4   4 146.785   6.071   5
   4  -3   4 135.001   5.432   2
   3  -4  -4 145.823   6.172   4
   4   4  -4 7628.80  140.88   4
   4  -4   4 7553.27  133.76   3
   4  -4  -4 7355.57  140.35   4
   4   4   4 7549.24  140.75   6
  -4   4  -4 7115.85  136.17   1
   4  -4  -4 7471.16  136.08   1
   4   4  -4 7405.02  133.77   9
   4   4  -4 7672.65  139.08   6
  -4   4   4 7517.08  135.09   3
   4   4   4 7419.68  135.37   2
  -4  -4   4 7524.33  135.91   8
  -4  -4  -4 7680.56  140.67   4
  -4  -4   4 7375.94  135.81   5
   4   4  -4 7407.91  136.23   1
  -4   4  -4 7436.80  133.58   9
   4  -4  -4 7528.82  133.33   9
   4  -4   4 7281.00  135.86   2
  -4  -4  -4 7503.41  133.28   9
  -4  -4   4 7132.68  135.93   3
  -4   4   4 7353.75  138.03   7
  -4  -4   4 7464.92  135.27   7
  -4   4   4 7506.11  135.32   2
  -4  -4  -4 7339.59  136.00   1
   4   4   4 7398.47  136.93   8
  -4  -4   4 7583.05  135.83   2
   5   0   4 -1.7445  2.1409   3
  -5   0  -4 -2.2961  1.8360   9
   5   0  -4 -1.2481  2.2707   4
   0   5   4 -1.7993  2.3401   7
   5   0  -4 -1.6585  2.2996   1
   0  -5   4 0.66351 2.26924   2
   5   0  -4 0.64226 2.02358   9
  -5   0   4 -3.5781  2.9795   7
   0  -5  -4 -1.5399  1.7294   9
   5   0   4 -1.1419  2.7043   8
   0  -5   4 -3.2270  2.2788   5
   0   5   4 0.29743 1.88448   2
  -5   0   4 -1.2810  2.4620   3
   0  -5   4 0.46280 2.74129   3
  -5   0   4 0.83046 2.04349   2
   5   0   4 -5.5002  1.8717   2
  -5   0  -4 -2.0728  2.3151   1
   0   5   4 -0.0481  2.2552   5
  -5   0  -4 -3.3487  2.2611   4
   0   5   4 0.24364 3.11241   3
   0  -5   4 -4.7781  2.4602   8
   0  -5   4 -1.8386  2.1797   2
   0   5  -4 2.07288 2.52134   1
   0   5  -4 0.03712 1.92361   9
   0  -5  -4 -1.6843  2.2492   1
   5   0   4 -0.4363  2.3640   6
   5  -1  -4 752.224  17.389   4
   1   5  -4 723.458  15.578   9
  -1   5   4 698.655  15.365   2
  -1   5   4 698.351  18.021   3
  -5   1  -4 727.001  15.307   9
  -5   1  -4 709.481  17.260   4
   1  -5   4 743.322  18.124   8
   5   1   4 714.494  16.108   3
   5   1   4 721.247  17.510   8
  -5  -1   4 735.576  15.845   2
  -5   1  -4 696.395  16.541   1
   5  -1  -4 697.067  16.377   1
  -1  -5  -4 708.784  16.344   1
  -1  -5  -4 709.996  17.080   4
   1  -5   4 695.691  17.486   3
  -5  -1   4 725.258  16.894   3
  -1   5   4 731.294  16.466   5
   1  -5   4 719.490  16.112   2
  -5  -1   4 729.261  17.742   7
  -1  -5  -4 717.098  15.016   9
   5   1   4 718.825  15.728   2
  -1   5   4 731.781  17.083   7
   5   1   4 744.877  17.509   6
   5  -1  -4 720.561  15.352   9
   1   5  -4 707.836  16.549   1
  -5  -1  -4 717.022  17.126   4
   5  -1   4 745.578  15.981   2
   5   1  -4 698.711  16.447   1
  -1  -5   4 736.772  16.909   7
   1   5   4 724.647  16.005   7
  -5   1   4 736.335  18.667   7
   1  -5  -4 709.269  16.415   1
  -1  -5   4 711.210  18.055   3
  -1  -5   4 720.365  16.539   5
  -5   1   4 711.552  15.658   2
  -1   5  -4 713.245  15.469   9
  -5  -1  -4 713.856  15.233   9
   1   5   4 716.097  15.492   2
   1   5   4 725.938  15.808   5
   5   1  -4 708.993  15.472   9
   5  -1   4 710.658  18.225   8
  -5  -1  -4 708.118  16.482   1
  -1  -5   4 725.488  16.879   8
  -1   5  -4 705.474  16.604   1
   5   1  -4 744.485  17.397   4
  -1  -5   4 715.569  15.994   2
   1  -5  -4 730.854  15.137   9
  -2  -5  -4 27.6286  3.4333   1
  -5   2  -4 31.0189  3.7157   4
  -5  -2   4 28.0312  3.8509   3
   5   2   4 23.8235  3.8160   6
   2  -5   4 33.6395  4.1281   3
   5  -2  -4 34.4421  3.8459   4
  -5  -2   4 24.8758  3.8498   7
  -2   5   4 35.2219  3.0883   2
   2  -5   4 33.1799  3.4702   2
   5  -2  -4 28.4123  3.4564   1
   5   2   4 31.7703  3.1988   2
   5   2   4 37.1458  4.0884   8
   2   5  -4 32.4256  3.2673   9
  -5   2  -4 25.1779  2.9220   9
   2   5  -4 29.1879  3.6835   1
  -2   5   4 26.8770  4.2401   3
  -2  -5  -4 34.0689  3.0370   9
  -5   2  -4 27.8893  3.6204   1
  -2   5   4 31.7442  4.1803   7
  -5  -2   4 33.3978  3.2153   2
   5  -2  -4 27.4899  2.9632   9
  -2  -5  -4 30.1301  3.6794   4
   5  -2   4 26.2809  4.2942   8
  -5   2   4 30.4251  4.6284   7
  -2  -5   4 26.5872  3.3441   7
   2   5   4 30.7091  3.1430   7
  -2  -5   4 22.1870  4.1768   3
   2   5   4 27.0337  4.0743   6
  -2  -5   4 33.5276  3.4409   2
  -5   2   4 25.5906  2.9354   2
  -2  -5   4 28.6317  3.5172   5
   2  -5  -4 35.6249  3.6910   1
  -5   2   4 31.2702  3.6366   3
   5  -2   4 37.3385  3.5108   2
  -5  -2  -4 31.6186  3.6720   1
   5   2  -4 30.1529  3.1478   9
  -5  -2  -4 29.2469  2.9410   9
   5   2  -4 31.9987  3.6501   1
  -2   5  -4 32.1079  3.6372   1
  -2   5  -4 31.3424  3.1730   9
   2   5   4 34.8383  3.2654   5
  -5  -2  -4 30.0984  3.6622   4
   2   5   4 32.7592  3.9029   8
  -2  -5   4 31.9545  3.4763   8
   2  -5  -4 32.8276  3.0011   9
   2   5   4 34.3114  3.1560   2
   5   2  -4 33.0594  3.8380   4
   5   3   4 546.704  13.280   2
  -3   5   4 590.230  13.396   2
  -5  -3   4 573.694  14.506   7
  -3  -5  -4 567.130  14.090   1
  -5  -3   4 570.610  13.667   2
   5   3   4 566.843  15.291   6
  -3  -5  -4 579.238  12.953   9
  -5   3  -4 575.175  13.225   9
   5  -3  -4 564.731  14.739   4
   5  -3  -4 586.396  13.144   9
  -5  -3   4 574.929  14.949   3
   3   5  -4 552.518  13.348   9
  -5   3  -4 546.972  14.295   1
  -5   3  -4 576.469  15.025   4
   3  -5   4 549.936  14.001   3
  -3   5   4 541.529  14.928   3
   5   3   4 559.141  14.189   8
   3  -5   4 568.639  13.818   2
  -3  -5  -4 556.783  14.723   4
   3   5  -4 548.122  14.196   1
   5  -3  -4 557.542  14.155   1
  -3   5   4 561.001  15.572   7
  -5  -3  -4 568.385  13.013   9
   5   3  -4 549.892  14.128   1
  -3  -5   4 555.805  15.647   3
   5  -3   4 566.324  13.787   2
   3   5   4 561.400  13.299   2
   3  -5  -4 568.905  14.787   4
  -3   5  -4 539.094  14.318   1
  -3  -5   4 553.677  13.749   7
  -5  -3  -4 549.715  14.030   1
  -5  -3  -4 565.646  14.900   4
  -3  -5   4 577.467  13.846   2
  -5   3   4 569.733  16.771   7
  -5   3   4 580.005  14.084   3
  -3   5  -4 566.055  13.271   9
   3   5   4 570.650  12.984   7
   5   3  -4 554.325  13.324   9
   3  -5  -4 551.138  14.073   1
   3   5   4 514.944  15.204   6
  -3  -5   4 563.480  13.229   8
   3  -5  -4 544.557  12.933   9
  -5   3   4 561.549  13.418   2
   3   5   4 544.507  14.181   8
   5   3  -4 558.719  14.877   4
  -3  -5   4 568.161  13.941   5
   4  -5   4 155.832   6.472   3
   5  -4  -4 168.721   6.364   9
  -5  -4   4 167.911   6.815   7
  -5  -4   4 160.162   7.732   3
   4   5  -4 165.775   7.632   4
  -4  -5  -4 159.864   7.259   4
  -4  -5  -4 166.327   6.879   1
  -5   4  -4 176.033   6.514   9
  -5   4  -4 162.828   7.336   1
   5  -4  -4 161.426   7.044   1
   5  -4  -4 164.678   7.214   4
   4   5  -4 161.184   7.151   1
  -4   5   4 162.901   6.414   2
  -5  -4   4 164.023   6.579   2
   4  -5   4 165.421   6.932   2
   5   4   4 172.464   6.431   2
   5   4   4 171.002   7.967   6
   5   4   4 167.890   6.689   8
   4   5  -4 181.173   6.953   6
  -4   5   4 164.714   7.571   3
  -4  -5  -4 146.365   5.950   9
  -4   5   4 177.596   8.850   7
   4   5  -4 167.576   6.623   9
   5   4  -4 162.476   6.569   9
  -5   4   4 184.557   7.184   3
  -5   4   4 160.120   9.220   7
   5   4  -4 162.979   7.423   4
   4  -5  -4 164.348   6.256   9
  -4   5  -4 169.146   6.515   9
   4  -5  -4 157.525   7.115   4
  -4  -5   4 173.280   6.647   7
   5  -4   4 173.792   6.859   2
  -4  -5   4 157.802   8.047   3
  -5  -4  -4 170.451   7.651   4
  -4  -5   4 155.894   6.592   2
   4   5   4 170.939   6.744   8
   5   4  -4 179.703   7.102   6
  -5  -4  -4 163.177   6.080   9
   5   4  -4 156.597   7.013   1
  -4  -5   4 164.455   6.873   5
  -5   4   4 167.476   6.382   2
   4  -5  -4 154.849   6.955   1
  -5  -4  -4 171.674   7.180   1
   4   5   4 158.997   7.831   6
  -4   5  -4 156.811   7.006   1
   4   5   4 152.304   6.247   2
  -5   5   4 755.186  21.474   7
  -5  -5   4 790.636  17.841   7
  -5  -5  -4 793.987  19.881   4
  -5   5   4 827.957  19.123   3
  -5   5   4 820.583  18.308   2
   5  -5  -4 787.505  18.980   1
   5   5   4 811.110  18.195   2
  -5  -5   4 787.874  18.448   2
  -5   5  -4 760.169  17.814   9
   5   5  -4 762.546  19.031   1
  -5  -5   4 738.217  19.869   3
  -5  -5  -4 761.177  18.751   1
   5   5  -4 755.031  18.024   9
   5  -5   4 800.455  18.690   2
  -5   5  -4 729.917  18.812   1
   5   5  -4 791.131  18.970   6
   5  -5  -4 725.406  17.552   9
   5   5   4 783.103  18.017   8
  -5  -5  -4 727.748  17.460   9
   5   5  -4 736.260  18.949   1
   5   5   4 777.086  20.430   6
   0  -6  -4 3364.92   62.43   9
  -6   0   4 3322.36   63.75   2
   6   0   4 3343.65   66.11   8
   0   6   4 3389.42   62.90   5
  -6   0   4 3321.64   66.17   7
   0   6   4 3403.04   63.57   7
  -6   0  -4 3334.87   66.60   4
   0   6  -4 3355.64   62.98   9
   0  -6  -4 3373.53   64.32   1
   6   0   4 3445.77   63.96   2
   6   0   4 3443.86   66.46   6
   6   0  -4 3420.72   62.85   9
   6   0  -4 3289.09   66.57   4
   0  -6   4 3354.37   66.06   3
   6   0  -4 3348.07   64.41   1
  -6   0  -4 3440.86   62.69   9
   0   6   4 3397.43   63.56   2
   0  -6   4 3427.97   65.62   8
   0   6  -4 3394.34   64.70   1
  -6   0   4 3448.19   63.58   3
   0  -6   4 3465.38   64.17   2
  -6   0  -4 3311.54   64.50   1
  -1   6   4 19.8646  3.4446   7
  -6  -1   4 24.2759  3.5075   3
   6   1   4 20.0415  3.7069   6
   6   1   4 13.0781  3.4263   8
   6  -1  -4 17.5829  3.5561   4
  -6   1  -4 15.7786  3.3847   4
  -6   1  -4 20.4082  3.0182   9
   1  -6   4 12.9503  3.0597   2
  -1  -6  -4 20.5823  2.9530   9
  -1   6   4 17.7887  3.0763   5
  -6   1  -4 15.7601  3.2968   1
   1   6  -4 17.8891  3.3888   1
   6  -1  -4 14.9733  3.3435   1
  -1  -6  -4 19.3489  3.5130   4
  -6  -1   4 22.4545  4.1944   7
   1   6  -4 19.9857  3.1533   9
   1  -6   4 21.6843  4.4369   3
  -6  -1   4 16.5674  2.9873   2
   6   1   4 14.9056  2.9431   2
  -1  -6  -4 13.4584  3.2764   1
   6  -1  -4 14.4280  2.9335   9
  -1   6   4 11.9947  2.7946   2
   1  -6   4 18.0083  4.0086   8
  -6   1   4 16.6909  3.0922   2
  -1  -6   4 15.8372  3.2099   2
   1   6   4 18.6680  2.8526   7
  -6  -1  -4 13.3289  3.5018   4
   6   1  -4 21.3495  3.7518   4
   1  -6  -4 15.4284  2.7932   9
   6  -1   4 21.5908  3.3084   2
  -1   6  -4 20.8232  3.2465   9
   6  -1   4 9.57622 3.74630   8
  -6  -1  -4 24.2632  3.6472   1
  -1  -6   4 19.3745  3.4266   8
   1   6   4 17.3195  2.9879   2
   6   1  -4 17.4864  3.3478   1
  -6   1   4 25.6482  4.9097   7
  -1  -6   4 20.4387  3.2894   5
  -6   1   4 19.0423  3.3271   3
  -6  -1  -4 18.1946  3.0420   9
  -1   6  -4 17.0263  3.4110   1
   6   1  -4 15.2690  2.9231   9
  -1  -6   4 13.1157  4.0585   3
   1  -6  -4 16.6925  3.3992   1
   2  -6   4 2865.22   54.25   2
   6  -2  -4 2891.08   52.97   9
  -2   6   4 2870.17   53.61   2
  -6  -2   4 2816.57   54.23   3
  -2  -6  -4 2880.35   56.47   4
   2   6  -4 2784.54   53.18   9
  -2  -6  -4 2783.24   54.38   1
   2   6  -4 2792.42   53.17   9
  -6   2  -4 2766.90   52.76   9
   6   2   4 2801.31   56.60   6
   6   2   4 2861.14   53.80   2
  -2  -6  -4 2770.92   52.55   9
   6   2   4 2825.11   55.01   8
  -2   6   4 2869.64   55.17   7
  -6   2  -4 2752.46   54.63   1
   2  -6   4 2737.67   54.80   3
   2   6  -4 2774.05   54.78   1
  -6  -2   4 2822.08   55.11   7
  -6   2  -4 2796.66   56.50   4
   6  -2  -4 2781.55   54.50   1
  -6  -2   4 2823.19   53.90   2
   6  -2  -4 2797.65   56.42   4
  -6   2   4 2835.36   53.79   2
  -2  -6   4 2844.69   54.02   8
   6   2  -4 2787.25   56.48   4
  -2   6  -4 2709.78   54.60   1
  -6   2   4 2843.24   53.35   3
  -2   6  -4 2736.26   53.01   9
  -2  -6   4 2783.58   56.67   3
   6  -2   4 2831.98   54.22   2
  -6   2   4 2765.29   57.32   7
   6   2  -4 2817.01   53.19   9
   2  -6  -4 2824.55   52.72   9
  -2  -6   4 2870.95   54.34   2
   2   6   4 2759.78   57.01   6
   6   2  -4 2805.66   54.56   1
  -6  -2  -4 2761.60   54.37   1
  -6  -2  -4 2758.53   56.30   4
   2   6   4 2871.14   53.68   2
  -6  -2  -4 2822.68   52.82   9
  -2  -6   4 2825.31   53.49   5
   2  -6  -4 2753.39   54.40   1
   6  -3  -4 553.558  14.481   1
  -3  -6  -4 560.815  13.360   9
   6  -3  -4 548.041  15.048   4
   6   3   4 576.824  14.294   8
  -6   3  -4 537.324  15.295   4
   6  -3  -4 564.770  13.514   9
   3   6  -4 553.753  13.760   9
  -6  -3   4 545.468  13.893   2
  -3   6   4 548.344  13.782   2
   3  -6   4 541.071  14.019   2
   3   6  -4 547.133  14.670   1
   3  -6   4 539.829  14.401   3
   6   3   4 581.149  15.806   6
  -3  -6  -4 550.901  15.158   4
  -3  -6  -4 535.346  14.411   1
  -6   3  -4 524.944  14.416   1
   3   6  -4 549.515  13.834   6
  -6  -3   4 531.907  14.662   3
  -6   3  -4 546.206  13.467   9
   6   3   4 573.217  13.853   2
  -3   6   4 540.800  15.445   7
  -6  -3   4 556.887  14.571   7
  -6  -3  -4 536.430  14.479   1
  -3   6  -4 523.296  14.570   1
  -6   3   4 537.586  17.187   7
  -3  -6   4 556.683  14.209   2
  -3   6  -4 528.411  13.500   9
  -6   3   4 535.058  13.687   3
   3  -6  -4 551.326  14.456   1
  -6   3   4 536.338  13.699   2
   3   6   4 541.927  15.577   6
   3  -6  -4 543.150  15.054   4
   6  -3   4 543.977  14.090   2
   6   3  -4 549.087  13.712   9
  -3  -6   4 549.379  16.413   3
  -6  -3  -4 522.884  14.957   4
   3  -6  -4 530.004  13.369   9
   6   3  -4 533.908  14.424   1
  -6  -3  -4 535.634  13.258   9
  -3  -6   4 560.122  13.618   7
   3   6   4 532.932  13.581   2
   6   4   4 3680.87   73.38   6
   4   6  -4 3601.65   70.73   1
   4   6  -4 3682.16   69.10   9
   6  -4  -4 3721.32   68.72   9
   4  -6   4 3644.04   70.31   2
  -4  -6  -4 3698.23   70.54   1
  -4  -6  -4 3541.82   68.41   9
  -6  -4   4 3728.94   69.70   7
   6  -4  -4 3584.55   70.44   1
  -4   6   4 3607.94   72.43   7
   6   4   4 3778.60   70.01   8
  -4  -6  -4 3681.56   73.10   4
  -6  -4   4 3709.15   70.62   3
  -6  -4   4 3751.27   70.05   2
   6   4   4 3661.31   69.84   2
   4  -6   4 3641.34   69.00   3
  -4   6   4 3745.81   69.74   2
  -6   4  -4 3502.64   70.54   1
  -6   4  -4 3716.36   73.52   4
   4   6  -4 3701.62   71.42   6
  -6   4  -4 3714.00   68.76   9
   4  -6  -4 3375.42   68.34   9
  -6  -4  -4 3562.71   70.44   1
  -4  -6   4 3725.68   69.11   5
   6   4  -4 3631.19   70.49   1
  -4   6  -4 3614.16   70.74   1
   4   6   4 3741.15   69.82   2
  -6  -4  -4 3698.99   73.04   4
  -4  -6   4 3725.20   68.76   7
  -6   4   4 3672.69   74.77   7
   6   4  -4 3681.11   69.11   9
   6  -4   4 3710.79   70.40   2
   6   4  -4 3717.21   72.19   6
   4   6   4 3717.50   70.09   8
  -6   4   4 3705.27   69.10   3
   4  -6  -4 3604.76   70.41   1
  -4  -6   4 3670.64   72.36   3
  -4  -6   4 3676.24   70.21   2
  -6   4   4 3710.05   69.84   2
   4   6   4 3630.67   73.50   6
  -4   6  -4 3665.83   68.97   9
  -6  -4  -4 3753.06   68.67   9
  -6  -5   4 45.8145  4.7157   2
   5  -6   4 31.4005  4.3920   2
  -5   6   4 40.2237  4.4439   2
   5   6  -4 34.9506  4.7609   1
  -6  -5   4 27.1938  3.8959   7
   5   6  -4 38.6603  4.4445   9
   6   5   4 43.2187  4.5566   2
  -5   6   4 55.2993  7.0578   7
  -6   5  -4 31.3577  4.6439   1
   5   6  -4 37.3860  4.5615   6
   6   5   4 42.6624  5.5242   6
  -5  -6  -4 40.9076  4.4249   9
  -5  -6  -4 38.8994  4.7482   1
  -6   5  -4 38.4183  4.2834   9
  -5  -6  -4 35.6553  5.0089   4
   6  -5  -4 46.5100  5.0273   1
   6  -5  -4 37.9393  4.2927   9
  -6  -5   4 48.2665  5.7132   3
  -5  -6   4 32.4277  4.4148   2
  -6   5   4 36.0474  4.6839   3
   6   5  -4 41.2126  4.4665   9
   5   6   4 38.8644  5.4476   6
   6   5  -4 44.0851  5.3082   1
   6   5  -4 39.7630  4.7725   6
  -6  -5  -4 44.3861  4.5462   9
   6  -5   4 36.5826  4.6284   2
   5   6   4 32.3175  4.2999   2
  -6  -5  -4 41.4821  4.9103   1
   5  -6  -4 39.1706  4.8031   1
  -5  -6   4 33.4629  4.1792   5
  -6  -5  -4 40.5448  5.1307   4
  -5  -6   4 33.0619  5.6824   3
   5  -6  -4 38.1987  4.2187   9
  -6   5   4 46.1399  7.2471   7
  -5   6  -4 39.9253  5.0913   1
  -6   5   4 34.4102  4.2217   2
   6   5  -4 41.3720  5.1934   1
  -5   6  -4 42.7982  4.4911   9
   6   6  -4 1260.07   29.00   1
  -6  -6   4 1284.02   30.22   3
  -6   6  -4 1268.00   27.74   9
   6   6  -4 1296.07   29.29   6
   6   6   4 1268.92   30.66   6
  -6   6   4 1291.94   33.32   7
  -6   6  -4 1262.45   29.25   1
  -6  -6  -4 1267.11   27.57   9
  -6   6   4 1289.45   28.22   2
   6  -6  -4 1268.67   27.69   9
  -6  -6   4 1254.61   28.31   2
   6   6   4 1258.47   28.09   2
   6   6  -4 1231.38   27.88   9
   6  -6   4 1274.02   28.66   2
   6  -6  -4 1223.28   28.70   1
  -6  -6  -4 1273.17   29.11   1
   0  -7  -4 5.12344 2.82496   9
   0   7   4 0.36280 2.60718   7
  -7   0   4 -1.0885  3.4550   7
   7   0   4 3.93701 3.33160   8
   0  -7   4 5.73432 2.82846   2
   0  -7   4 -4.4321  4.0157   3
   0   7   4 4.67677 2.82293   2
  -7   0  -4 3.21059 3.05797   4
   7   0  -4 3.23920 3.01984   1
   0  -7  -4 3.70889 2.97532   1
   7   0   4 0.54459 3.20517   6
   7   0   4 1.40107 2.89693   2
  -7   0  -4 -0.6564  2.8657   1
   7   0  -4 -0.0898  2.5620   9
  -7   0   4 -2.7142  2.5201   3
  -7   0  -4 1.27385 2.48746   9
   0  -7   4 -0.1124  3.0884   8
   0   7  -4 -1.8558  2.6947   1
   0   7  -4 1.18725 2.62289   9
  -7   0   4 -3.4413  2.4733   2
  -7   1  -4 485.118  14.145   4
  -7  -1   4 473.315  12.842   3
   7   1   4 481.569  13.673   8
   7  -1  -4 451.918  13.216   1
  -1   7   4 496.244  12.677   2
  -7   1  -4 471.123  12.402   9
  -1  -7  -4 448.716  13.166   1
   1  -7   4 467.589  13.047   2
  -1  -7  -4 482.705  12.360   9
   7   1   4 471.371  14.188   6
   7  -1  -4 486.949  12.520   9
  -1   7   4 490.628  13.082   7
   1  -7   4 483.480  15.409   3
  -7   1  -4 443.329  13.397   1
  -1  -7  -4 439.002  13.710   4
  -7  -1   4 488.689  12.850   2
   1   7  -4 473.611  12.686   9
   7   1   4 482.038  12.855   2
  -7  -1   4 498.709  14.644   7
   1   7  -4 451.324  13.348   1
  -7   1   4 470.097  12.801   2
   1  -7  -4 471.016  13.285   1
  -1   7  -4 466.019  12.609   9
  -7  -1  -4 454.466  13.229   1
  -1  -7   4 488.954  13.055   2
   1   7   4 490.543  12.706   2
  -7   1   4 458.038  12.247   3
  -7   1   4 447.390  15.019   7
   1  -7  -4 478.898  12.328   9
  -1  -7   4 496.290  13.118   2
  -1   7  -4 471.653  13.491   1
  -7  -1  -4 462.397  13.853   4
   7   1  -4 481.971  13.497   1
  -1  -7   4 482.845  13.174   8
  -7  -1  -4 492.561  12.520   9
   7   1  -4 459.793  12.453   9
   7  -1   4 483.206  12.997   2
   7  -1   4 469.345  14.383   8
  -1  -7   4 473.215  16.038   3
   2  -7   4 193.279   7.756   2
  -7  -2   4 186.903   8.624   7
   7   2   4 186.727   7.954   8
  -7   2  -4 183.513   8.068   1
   7   2   4 187.027   7.458   2
   2  -7   4 194.715   9.370   3
  -7  -2   4 195.598   7.666   2
  -2   7   4 177.652   7.944   7
  -2  -7  -4 187.611   7.251   9
  -7   2  -4 188.810   8.467   4
   7  -2  -4 193.177   7.275   9
  -7   2  -4 188.309   7.257   9
  -2  -7  -4 186.109   8.359   4
   2   7  -4 194.392   7.601   9
  -7  -2   4 203.436   8.055   3
  -2   7   4 199.478   7.413   2
   2   7  -4 184.209   7.459   9
   7   2   4 177.230   8.498   6
  -2  -7  -4 197.628   8.213   1
   2   7  -4 201.901   8.352   1
   7  -2  -4 182.901   8.116   1
  -2   7  -4 183.119   8.246   1
  -7   2   4 204.455   7.263   3
  -7  -2  -4 173.471   8.036   1
   2  -7  -4 189.858   7.981   1
  -2  -7   4 186.541   7.809   2
  -2  -7   4 209.574  10.655   3
  -7   2   4 200.446  10.449   7
  -7  -2  -4 192.387   7.339   9
   2   7   4 192.779   7.532   2
   7  -2   4 196.054   7.889   2
  -7   2   4 190.532   7.653   2
   7   2  -4 188.544   7.394   9
   2  -7  -4 188.070   7.180   9
  -7  -2  -4 183.424   8.268   4
   7   2  -4 181.580   7.982   1
  -2   7  -4 193.402   7.515   9
   3   7  -4 800.907  19.130   9
  -3  -7  -4 825.490  18.731   9
  -3   7   4 798.305  20.715   7
   7   3   4 790.091  19.153   8
   3  -7   4 838.051  19.826   2
  -3  -7  -4 847.578  21.096   4
   7   3   4 850.247  21.428   6
   3   7  -4 767.916  20.008   1
  -3  -7  -4 801.209  19.879   1
  -7  -3   4 819.141  19.418   2
  -3   7   4 808.329  19.273   2
  -7  -3   4 818.294  19.855   3
   3  -7   4 778.090  20.171   3
   7  -3  -4 817.193  18.979   9
   7   3   4 824.019  19.368   2
  -7   3  -4 838.072  18.930   9
   7  -3  -4 790.404  19.951   1
  -7  -3   4 812.701  19.917   7
  -7   3  -4 814.214  20.292   1
  -7  -3  -4 805.215  18.733   9
  -7   3   4 829.203  19.305   2
   3  -7  -4 781.728  19.844   1
  -3   7  -4 800.936  19.005   9
   3  -7  -4 825.222  18.784   9
   7  -3   4 837.986  19.765   2
  -3   7  -4 788.152  20.191   1
   7   3  -4 815.460  20.073   1
   3   7   4 816.374  19.252   2
  -3  -7   4 827.840  19.681   2
  -7   3   4 745.766  23.202   7
   3   7   4 822.348  21.608   6
  -7  -3  -4 788.670  20.008   1
  -7  -3  -4 820.985  20.863   4
  -3  -7   4 815.270  22.643   3
   7   3  -4 806.732  19.151   9
  -7   4  -4 7.39217 3.97112   1
  -4   7   4 12.3095  4.9064   7
   7   4   4 9.31683 4.15084   6
   4  -7   4 6.23083 3.60418   2
  -4  -7  -4 10.8470  3.7847   1
  -4  -7  -4 9.34491 3.20800   9
   4   7  -4 6.89018 3.71209   1
  -7  -4   4 7.36861 3.52074   7
  -7   4  -4 6.78122 3.10390   9
   4  -7   4 6.74095 3.75613   3
  -4   7   4 6.16519 3.42330   2
   7  -4  -4 7.24425 3.84166   1
   7   4   4 4.32803 3.21918   2
   4   7  -4 8.17999 3.11685   9
  -7  -4   4 5.11634 3.65029   3
  -7  -4   4 1.87260 3.22673   2
   7  -4  -4 12.4413  3.4733   9
   7   4  -4 3.74871 3.18980   9
   7   4  -4 6.15560 3.63859   1
  -4   7  -4 7.44044 3.64005   1
  -4  -7   4 6.55365 3.30422   2
  -7   4   4 10.2064  3.3930   2
   7   4  -4 12.5282  3.9874   6
  -7  -4  -4 3.44364 3.00018   9
   7  -4   4 7.58763 3.58285   2
  -4  -7   4 2.22527 4.79838   3
   4  -7  -4 5.69186 3.65022   1
   4   7   4 4.69087 3.30719   2
  -7   4   4 7.79969 5.93324   7
   4   7   4 6.10872 4.15245   6
  -7  -4  -4 5.75570 3.72191   1
   4  -7  -4 8.13962 3.23864   9
  -4   7  -4 4.20983 3.12343   9
  -7  -5   4 589.567  17.070   3
  -5  -7  -4 577.599  15.449   9
  -7   5  -4 570.986  16.876   1
   5   7  -4 588.680  16.304   6
  -7   5  -4 578.453  15.553   9
   7  -5  -4 568.420  16.463   1
   7   5   4 592.139  15.980   2
  -5  -7  -4 612.464  16.866   1
   5   7  -4 603.360  15.924   9
   5  -7   4 611.536  16.709   2
  -5   7   4 577.580  18.897   7
   5   7  -4 595.115  16.827   1
   7  -5  -4 581.681  15.467   9
  -7  -5   4 577.756  15.931   2
   7   5   4 548.825  17.370   6
  -5   7   4 584.096  15.788   2
   5  -7  -4 612.851  15.713   9
   7  -5   4 605.797  16.401   2
   5   7   4 576.016  15.803   2
   7   5  -4 597.956  15.958   9
  -5   7  -4 565.258  16.707   1
   7   5  -4 596.554  16.898   6
   7   5  -4 568.640  16.629   1
  -7   5   4 599.028  15.968   2
  -7  -5  -4 590.469  15.392   9
  -5  -7   4 578.487  15.974   2
  -5  -7   4 589.529  18.794   3
  -7   5   4 623.442  21.927   7
   5  -7  -4 562.537  16.579   1
  -7  -5  -4 578.154  16.604   1
  -5   7  -4 594.909  15.645   9
   5   7   4 587.923  18.123   6
  -7   6  -4 -3.7355  3.0929   9
  -6  -7  -4 -1.4282  3.6685   1
   7   6   4 -2.9275  3.9263   6
   7  -6  -4 1.53590 3.41708   9
   7  -6  -4 2.56196 3.88333   1
  -6   7   4 -0.0966  5.5830   7
   6   7  -4 0.56005 3.24798   9
  -7   6  -4 -4.1211  3.6938   1
  -6  -7  -4 -4.7012  3.1855   9
   6   7  -4 1.09879 4.16719   1
  -6   7   4 1.82336 3.41096   2
   6  -7   4 -0.3587  3.6642   2
  -7  -6   4 3.25634 3.81171   2
  -7  -6   4 7.59331 4.47907   3
   7   6   4 0.08134 3.43042   2
   6   7  -4 3.97090 3.72253   6
  -6  -7   4 7.13644 5.00935   3
  -6  -7   4 -3.8815  3.4801   2
  -7  -6  -4 -0.3535  3.7332   1
   7   6  -4 -2.0115  3.7189   1
   7  -6   4 7.48431 3.76596   2
   7   6  -4 -4.3384  3.1836   9
  -7  -6  -4 1.28025 3.29492   9
   6   7   4 4.06030 4.03094   6
  -6   7  -4 -5.8502  3.6472   1
  -6   7  -4 -7.0455  2.8803   9
   7   6  -4 -5.2047  3.8475   1
   7   6  -4 5.38243 4.20940   6
   6   7   4 0.31517 3.44767   2
  -7   6   4 6.47510 6.66582   7
  -7   6   4 -1.5210  3.2436   2
   6  -7  -4 6.73252 4.37993   1
   6  -7  -4 4.97370 3.44470   9
   7   7  -4 77.8548  6.6544   9
   7   7   4 63.2755  6.2250   2
  -7   7  -4 67.2508  6.0691   9
  -7   7   4 68.2415  9.4499   7
  -7  -7   4 67.9651  6.4828   2
  -7   7   4 75.3214  6.5420   2
  -7  -7  -4 75.8474  6.3202   9
   7   7  -4 67.6242  7.1606   1
  -7   7  -4 69.4650  7.1967   1
  -7  -7  -4 68.4017  7.0678   1
   7  -7   4 73.2072  6.9102   2
  -7  -7   4 56.8356  7.4347   3
   7   7   4 79.0829  7.9565   6
   7   7  -4 70.6694  6.8783   6
   7  -7  -4 74.6521  6.3968   9
   7  -7  -4 73.0733  7.0546   1
   0  -8   4 4395.92   83.04   2
  -8   0  -4 4330.81   83.22   1
   0   8   4 4341.24   82.40   2
  -8   0   4 4269.04   84.86   7
   0  -8  -4 4398.02   81.08   9
   8   0  -4 4225.46   81.23   9
  -8   0  -4 4311.42   81.09   9
   8   0   4 4405.06   84.55   8
   0  -8   4 4388.66   83.82   8
  -8   0   4 4386.22   82.57   2
   8   0  -4 4270.65   83.25   1
   8   0   4 4334.69   85.57   6
   0   8  -4 4410.81   83.62   1
   0   8  -4 4288.34   81.42   9
   0  -8   4 4437.47   86.68   3
   0  -8  -4 4257.89   83.19   1
   8   0   4 4391.52   82.73   2
   1   8  -4 79.0236  6.6022   1
  -8  -1   4 78.6295  6.9832   7
   8  -1  -4 82.8959  5.5695   9
  -8  -1   4 76.8237  5.5995   2
  -1   8   4 81.1254  5.5761   2
  -8   1  -4 82.9038  6.1717   1
   1  -8   4 71.3300  7.8886   3
   1  -8   4 92.3678  6.2893   2
   8   1   4 74.3123  5.6406   2
   8   1   4 89.3788  6.4694   8
  -1  -8  -4 72.3896  5.4524   9
  -1  -8  -4 71.0978  6.0667   1
   1   8  -4 73.2898  5.5338   9
  -8   1  -4 78.0026  5.3730   9
   8   1   4 79.4032  6.7641   6
   1   8  -4 81.7080  5.6623   9
   8  -1  -4 79.1703  6.3268   1
  -8  -1   4 78.0955  5.2960   3
  -1   8  -4 73.5203  6.5159   1
  -1   8  -4 72.9706  5.6450   9
  -8   1   4 89.1911  7.8660   7
  -8   1   4 91.9652  5.8956   2
   8   1  -4 72.9954  5.6624   9
  -1  -8   4 65.9995  5.7685   2
   8  -1   4 87.0737  5.9222   2
  -1  -8   4 84.2559  6.1098   2
   8  -1   4 76.9641  6.7538   8
  -8  -1  -4 75.5516  6.1916   1
   8   1  -4 79.3001  6.3694   1
  -1  -8   4 83.6655  9.0127   3
   1  -8  -4 73.6272  5.4945   9
   1   8   4 65.8780  5.3996   2
  -8  -1  -4 75.3109  5.5729   9
   1  -8  -4 73.6902  6.2888   1
  -2  -8  -4 2984.71   57.25   9
  -2   8   4 3028.63   58.77   7
   2  -8   4 2925.75   60.51   3
   2   8  -4 3019.72   57.98   9
  -8  -2   4 2990.50   59.64   7
  -8  -2   4 2976.03   57.61   3
  -8   2  -4 2988.39   57.37   9
  -8  -2   4 3005.44   58.60   2
   8   2   4 2963.70   58.52   2
   8  -2  -4 2925.17   57.49   9
  -2   8   4 2995.29   58.29   2
  -8   2  -4 3001.89   59.43   1
   8   2   4 3012.05   61.49   6
  -2  -8  -4 2927.30   59.13   1
   8   2   4 3046.56   59.10   8
   2   8  -4 3018.68   59.50   1
   8  -2  -4 3015.42   59.27   1
   2  -8   4 3026.70   59.07   2
  -2   8  -4 2989.66   57.68   9
   2  -8  -4 2974.69   57.40   9
   8   2  -4 2943.76   59.24   1
  -8   2   4 2979.66   58.53   2
  -8   2   4 2929.06   62.66   7
  -2   8  -4 2904.76   59.28   1
   8   2  -4 2991.20   57.79   9
   2   8   4 3023.45   58.31   2
  -2  -8   4 2979.66   58.87   2
  -8  -2  -4 2923.98   59.16   1
  -2  -8   4 2958.07   63.07   3
   2  -8  -4 2931.77   59.28   1
   8  -2   4 2932.82   58.62   2
  -8  -2  -4 2976.10   57.40   9
   3   8  -4 35.3848  5.1888   1
  -8  -3   4 51.5742  5.1738   2
   8   3   4 50.3245  6.0255   6
  -8   3  -4 46.6072  5.5683   1
  -8  -3   4 50.0136  5.4972   3
   3   8  -4 46.4030  4.9771   9
  -3   8   4 47.8611  5.9337   7
   8   3   4 34.4002  4.7048   2
   8  -3  -4 43.2586  4.7388   9
  -3  -8  -4 40.7436  5.1609   1
   3  -8   4 43.9396  5.8800   3
  -3   8   4 40.4243  4.7700   2
   3  -8   4 40.0563  5.0770   2
  -8   3  -4 41.8678  4.6910   9
  -8  -3   4 42.1798  5.1988   7
   8  -3  -4 39.1501  5.1689   1
  -3  -8  -4 43.9652  4.7339   9
   8   3  -4 41.4056  5.2965   1
   3  -8  -4 43.5274  5.3443   1
   8   3  -4 52.7037  5.1619   9
  -8  -3  -4 52.9925  5.6768   1
  -3  -8   4 48.4702  7.5831   3
   3   8   4 43.8694  4.9327   2
   3   8   4 40.7523  5.6334   6
  -8   3   4 42.0613  4.8389   2
  -3   8  -4 43.0181  4.7086   9
  -8   3   4 30.3231  7.1776   7
  -3  -8   4 37.0564  4.9660   2
   8  -3   4 49.5306  5.1165   2
   3  -8  -4 40.8465  4.6075   9
  -3   8  -4 37.6517  5.3766   1
  -8  -3  -4 31.2617  4.4173   9
   4  -8   4 2311.14   47.58   2
  -8   4  -4 2322.11   46.29   9
   8  -4  -4 2308.42   46.35   9
  -8  -4   4 2310.20   47.21   2
   4   8  -4 2282.43   46.60   9
  -4  -8  -4 2304.25   45.99   9
   4   8  -4 2282.88   48.14   1
   8   4   4 2235.60   46.85   2
  -4   8   4 2302.29   49.07   7
  -8  -4   4 2340.73   46.82   7
  -4   8   4 2327.70   46.93   2
  -8  -4   4 2381.18   47.44   3
   8  -4  -4 2315.24   48.00   1
  -4  -8  -4 2290.56   48.01   1
  -8   4  -4 2292.59   48.04   1
   8   4   4 2287.79   49.91   6
  -8   4   4 2319.25   46.97   2
   4  -8  -4 2234.62   47.86   1
  -8  -4  -4 2263.46   45.90   9
   4   8   4 2320.95   47.04   2
  -8   4   4 2160.92   53.16   7
  -4  -8   4 2372.34   47.60   2
   4  -8  -4 2328.87   46.28   9
   8   4  -4 2251.29   47.90   1
  -4   8  -4 2294.54   46.47   9
  -4   8  -4 2412.23   48.43   1
   8  -4   4 2359.47   47.59   2
   8   4  -4 2351.84   46.52   9
  -4  -8   4 2322.20   51.50   3
  -8  -4  -4 2261.51   47.70   1
   8   4  -4 2272.00   48.99   6
   4   8   4 2254.32   50.18   6
  -8   5  -4 35.8822  4.9252   9
  -5   8   4 43.0688  5.1617   2
  -8  -5   4 40.1059  5.1193   2
  -5   8   4 46.5213  7.2540   7
   8  -5  -4 39.0154  5.0521   9
  -5  -8  -4 53.1197  6.2189   1
   5   8  -4 46.3926  5.3133   9
  -8   5  -4 42.1352  6.0350   1
   5   8  -4 41.0535  5.8568   1
   8   5   4 43.7676  6.3495   6
   8   5   4 46.1639  5.5043   2
   5  -8   4 44.2175  5.5008   2
  -5  -8  -4 45.6518  5.1283   9
   8  -5  -4 33.9279  5.5936   1
  -8  -5   4 37.0308  5.5641   3
   5   8   4 35.0220  5.8489   6
  -5  -8   4 45.1460  7.2002   3
  -8  -5  -4 37.9467  5.8046   1
  -5  -8   4 38.2917  5.1853   2
   8  -5   4 53.6293  5.6221   2
  -8  -5  -4 41.4182  5.0415   9
  -8   5   4 40.7794  9.1358   7
  -5   8  -4 37.7717  5.6613   1
   5  -8  -4 31.0573  4.7272   9
   5   8   4 47.3727  5.4863   2
   5  -8  -4 41.3697  5.7749   1
   8   5  -4 37.0694  5.1253   9
   8   5  -4 43.9277  5.8929   6
   8   5  -4 45.1109  5.8872   1
  -8   5   4 44.6393  5.2693   2
  -5   8  -4 39.9257  5.0695   9
  -8  -6   4 1705.45   38.92   3
  -6   8   4 1770.72   38.01   2
  -6  -8  -4 1770.52   38.95   1
   8   6   4 1795.34   38.30   2
   8   6   4 1781.78   40.91   6
  -6   8   4 1579.74   41.46   7
   6   8  -4 1716.19   37.54   9
  -8  -6   4 1754.46   38.18   2
   8  -6  -4 1789.03   37.49   9
   6  -8   4 1740.00   38.79   2
   6   8  -4 1731.12   39.02   1
  -8   6  -4 1771.31   37.31   9
  -8   6  -4 1722.27   39.22   1
  -6  -8  -4 1682.88   37.03   9
   8  -6  -4 1751.65   38.78   1
   6  -8  -4 1748.73   38.86   1
   8   6  -4 1784.37   39.20   1
  -6   8  -4 1705.54   37.29   9
   6  -8  -4 1705.41   37.10   9
  -8   6   4 1692.20   46.19   7
   6   8   4 1801.92   38.11   2
   8  -6   4 1749.26   38.53   2
  -8  -6  -4 1733.67   37.09   9
  -8  -6  -4 1744.65   39.17   1
   6   8   4 1730.29   40.97   6
   8   6  -4 1733.57   37.48   9
  -8   6   4 1764.20   37.86   2
  -6   8  -4 1751.65   39.23   1
  -6  -8   4 1766.13   38.55   2
  -6  -8   4 1773.93   41.54   3
   8   6  -4 1771.52   39.07   1
   8   6  -4 1758.27   39.46   6
  -7   8   4 25.7219  4.9306   2
  -7  -8  -4 25.7151  4.7896   9
  -8   7  -4 26.4975  4.9901   9
   8  -7  -4 22.6350  4.7299   9
  -8  -7   4 33.7116  6.6110   3
  -8  -7   4 34.3751  5.6206   2
   7   8  -4 22.8093  5.4953   6
  -7  -8  -4 30.6634  5.8752   1
   7   8  -4 25.4296  5.6467   1
   7   8  -4 16.6923  4.8336   9
   8   7   4 25.5740  5.1669   2
   8  -7  -4 22.7372  5.4688   1
  -8   7  -4 23.6450  5.7528   1
   8   7   4 28.4954  5.8110   6
  -7   8   4 13.9217  7.6348   7
   7  -8   4 13.8171  4.7712   2
  -7  -8   4 19.2903  4.6681   2
  -8  -7  -4 18.6206  4.5891   9
  -8   7   4 23.4567  5.0606   2
   7  -8  -4 27.2530  5.8061   1
   8   7  -4 27.5702  5.9164   1
  -7  -8   4 10.9300  6.1379   3
  -8   7   4 23.8284  8.5185   7
   7  -8  -4 28.1690  5.0748   9
   7   8   4 25.3846  5.0836   2
  -7   8  -4 19.8500  4.7410   9
   8   7  -4 29.7380  5.7420   6
  -7   8  -4 22.2526  5.6229   1
  -8  -7  -4 20.0173  5.5637   1
   7   8   4 34.3974  6.5261   6
   8  -7   4 21.4279  4.9680   2
   8   7  -4 18.4497  4.9257   9
   8  -8  -4 2045.04   45.59   1
   8   8  -4 2081.24   46.14   6
   8   8  -4 2009.69   43.87   9
  -8   8  -4 2148.57   46.25   1
  -8  -8   4 2117.74   46.98   3
  -8  -8   4 2009.88   44.72   2
  -8  -8  -4 2047.56   45.80   1
   8  -8  -4 2041.28   43.74   9
  -8   8   4 2053.69   44.36   2
  -8  -8  -4 1967.08   43.40   9
  -8   8   4 2091.23   52.43   7
   8   8   4 2072.05   48.00   6
   8   8  -4 2056.30   45.81   1
  -8   8  -4 2059.72   43.72   9
   8   8   4 2031.57   44.44   2
   8  -8   4 2000.04   44.94   2
   0  -9   4 -0.1908  6.3437   3
   0  -9  -4 5.60917 4.04824   1
   0  -9   4 -7.0572  3.2774   2
   0   9  -4 2.65555 3.68688   1
   0   9  -4 -0.6316  3.2431   9
   9   0  -4 -0.9239  3.2525   9
  -9   0  -4 -5.0066  3.0310   9
   0  -9  -4 0.61633 3.12672   9
   9   0   4 0.54400 3.52832   2
   9   0  -4 1.36655 3.64557   1
  -9   0   4 -5.0732  4.1683   7
   0   9   4 3.49077 3.68461   2
  -9   0   4 -1.4395  3.2258   2
  -9   0  -4 -1.3259  3.7135   1
   9   0   4 0.41832 3.83032   8
   0   9  -4 -1.7545  3.1981   9
   9   0   4 2.35162 3.97874   6
   9   1   4 367.820  12.153   2
  -9   1  -4 344.633  12.532   1
   1   9  -4 350.654  11.698   9
  -9   1  -4 327.445  11.203   9
   9  -1  -4 344.529  12.360   1
   1  -9   4 348.036  15.187   3
   1  -9   4 359.549  12.198   2
   9   1   4 356.198  13.183   6
   1   9  -4 348.038  12.636   1
   9  -1  -4 327.632  11.406   9
  -9  -1   4 373.021  13.726   7
  -1   9   4 368.170  11.741   2
  -1  -9  -4 335.087  12.352   1
   9   1   4 366.331  12.348   8
  -9  -1   4 342.704  11.647   2
  -1  -9  -4 359.689  11.358   9
  -9  -1  -4 365.745  11.643   9
   1  -9  -4 353.551  11.417   9
  -9   1   4 358.565  11.875   2
   9  -1   4 338.799  11.891   2
   9   1  -4 365.135  11.801   9
  -9  -1  -4 350.012  12.543   1
   9   1  -4 362.950  12.511   1
  -9   1   4 349.317  14.174   7
  -1   9  -4 347.001  11.637   9
   1  -9  -4 362.092  12.682   1
   1   9   4 348.502  11.722   2
   9  -1   4 342.414  13.065   8
  -1  -9   4 335.196  11.842   2
  -1  -9   4 346.574  12.061   2
  -1  -9   4 368.505  16.523   3
  -1   9  -4 358.909  12.935   1
  -2  -9  -4 1.57065 4.19920   1
  -9  -2   4 -4.6761  3.1940   2
  -2   9   4 0.39338 3.38419   2
  -9   2  -4 1.62916 4.22719   1
  -2  -9  -4 -0.4744  3.3022   9
   2  -9   4 6.03416 5.31707   3
  -9  -2   4 4.54935 4.10906   7
   9   2   4 4.96843 3.71576   2
   2   9  -4 4.06780 4.26440   1
   9  -2  -4 7.06646 3.69800   9
   9   2   4 -3.5241  3.8423   6
   9  -2  -4 2.21766 3.92812   1
   2  -9   4 2.18421 3.59918   2
   2   9  -4 -0.0755  3.3923   9
  -9   2  -4 2.39587 3.42671   9
  -2  -9   4 3.91406 6.62640   3
  -9  -2  -4 4.96951 4.05489   1
   9   2  -4 1.12644 3.50225   9
  -2   9  -4 9.15852 4.29512   1
   9   2  -4 0.91065 3.54713   1
   2  -9  -4 0.75932 4.03055   1
   9  -2   4 1.37339 3.59275   2
  -9   2   4 -1.1550  5.5047   7
   2   9   4 -1.3828  3.3053   2
  -2   9  -4 -3.1991  3.2224   9
  -9  -2  -4 1.38682 3.34599   9
   2  -9  -4 -2.9977  3.1884   9
  -9   2   4 1.69639 3.52481   2
  -2  -9   4 3.04387 3.90872   2
   3  -9   4 717.163  21.018   3
   3   9  -4 728.850  20.068   1
  -9   3  -4 701.821  18.424   9
  -9  -3   4 740.398  19.609   7
   9  -3  -4 731.321  18.706   9
  -3   9   4 728.413  18.949   2
   3   9  -4 728.482  18.941   9
   9   3   4 722.205  19.092   2
  -3  -9  -4 709.523  19.805   1
  -9   3  -4 742.372  20.154   1
  -9  -3   4 712.852  19.108   2
  -3  -9  -4 743.307  18.646   9
   3  -9   4 726.097  19.656   2
   9   3   4 709.981  20.856   6
   9  -3  -4 724.013  19.991   1
  -3   9  -4 750.438  20.363   1
  -9  -3  -4 734.884  19.966   1
   3  -9  -4 716.641  18.660   9
  -3   9  -4 698.544  18.695   9
  -3  -9   4 727.510  24.135   3
  -3  -9   4 699.465  19.318   2
   9  -3   4 742.051  19.616   2
   3  -9  -4 714.409  20.057   1
  -9   3   4 742.940  19.242   2
  -9  -3  -4 728.436  18.542   9
  -9   3   4 707.129  24.065   7
   9   3  -4 750.791  20.125   1
   9   3  -4 745.606  19.050   9
   3   9   4 708.552  18.882   2
   9  -4  -4 20.4923  4.5050   9
   9  -4  -4 22.9762  5.1618   1
  -4  -9  -4 24.7242  5.2624   1
  -4  -9  -4 14.2038  4.1807   9
  -4   9   4 21.3904  5.7827   7
   4   9  -4 28.9474  5.6068   1
   9   4   4 33.6254  6.1406   6
  -9  -4   4 21.8735  4.7093   2
   4   9  -4 18.0241  4.5019   9
  -4   9   4 21.1385  4.5787   2
  -9  -4   4 26.8407  5.2404   3
  -9   4  -4 20.9589  4.4734   9
  -9   4  -4 18.8736  5.0644   1
   9   4   4 23.6439  4.7327   2
   4  -9   4 30.1010  5.3261   2
   9  -4   4 16.1273  4.4511   2
   4   9   4 21.2768  5.2742   6
  -9   4   4 19.4649  7.9089   7
   4   9   4 15.0219  4.3214   2
  -4  -9   4 26.2418  4.8103   2
   4  -9  -4 24.8128  4.6330   9
  -9  -4  -4 20.9248  4.4552   9
   9   4  -4 15.9700  4.4051   9
  -4   9  -4 26.6359  5.5197   1
  -9  -4  -4 17.4714  4.9013   1
  -9   4   4 19.5857  4.6035   2
  -4   9  -4 19.3621  4.4153   9
   4  -9  -4 21.0999  5.1936   1
  -4  -9   4 28.3320  7.4901   3
   9   4  -4 26.2414  5.6180   6
   9   4  -4 22.0941  5.1646   1
   9   5   4 639.311  18.237   2
   9  -5  -4 648.294  17.792   9
  -5  -9  -4 637.781  18.932   1
  -9  -5   4 668.193  18.655   3
   5  -9   4 656.724  18.630   2
  -5   9   4 628.436  17.856   2
   9   5   4 636.120  20.161   6
   5   9  -4 670.978  19.190   1
   9  -5  -4 619.209  18.738   1
  -9  -5   4 646.178  18.172   2
   5   9  -4 610.009  17.796   9
  -5  -9  -4 641.168  17.562   9
  -9   5  -4 641.271  19.205   1
  -5   9   4 638.692  20.330   7
  -9   5  -4 618.138  17.484   9
  -5  -9   4 635.635  22.257   3
   9   5  -4 623.057  17.677   9
  -9   5   4 640.452  17.995   2
   5   9   4 616.792  20.274   6
   9   5  -4 651.398  19.529   6
  -9  -5  -4 631.471  19.060   1
  -5   9  -4 614.468  17.558   9
   5  -9  -4 656.101  19.117   1
  -5  -9   4 648.135  18.291   2
   9   5  -4 674.119  19.306   1
  -5   9  -4 632.340  19.174   1
   5  -9  -4 626.703  17.546   9
  -9   5   4 634.942  25.372   7
   5   9   4 650.844  18.162   2
  -9  -5  -4 612.122  17.456   9
   9  -5   4 625.988  18.305   2
   9  -6  -4 29.5665  5.3511   9
  -9   6  -4 32.1958  5.3030   9
  -9  -6   4 28.9778  5.4837   2
  -6  -9  -4 30.9689  5.2603   9
  -6   9   4 34.9898  7.7403   7
  -9  -6   4 27.8885  5.9872   3
  -6  -9  -4 27.4971  5.8907   1
   9  -6  -4 40.8805  6.2654   1
  -9   6  -4 37.0621  6.4266   1
  -6   9   4 33.4577  5.4396   2
   6   9  -4 27.7099  5.3617   9
   9   6   4 30.7552  5.5308   2
   9   6   4 27.0844  6.3458   6
   6   9  -4 33.1746  6.2693   1
   6  -9   4 28.5664  5.7222   2
   6   9   4 41.7834  5.9571   2
  -6  -9   4 35.0331  7.7855   3
  -6   9  -4 26.0080  5.0800   9
  -9   6   4 40.4007  5.6874   2
   9   6  -4 42.7748  5.8090   9
  -9  -6  -4 32.8396  5.0239   9
   6  -9  -4 30.6374  5.1696   9
   9   6  -4 42.5660  6.6720   6
  -6   9  -4 25.6713  5.7585   1
   9  -6   4 19.5565  5.4994   2
  -6  -9   4 32.8205  5.5024   2
  -9  -6  -4 34.6400  6.2873   1
   6   9   4 41.4611  6.9094   6
   6  -9  -4 26.8962  5.7802   1
   9   6  -4 37.8994  6.2196   1
  -9   6   4 30.7872 10.2170   7
   9   6  -4 40.3191  6.4115   1
  -7   9   4 251.835  11.319   2
   9   7   4 252.850  12.986   6
  -7  -9  -4 268.207  10.942   9
   7  -9   4 248.368  11.802   2
  -9   7  -4 264.946  11.199   9
   9   7   4 249.168  11.486   2
  -7  -9  -4 270.572  12.347   1
  -7   9   4 278.850  15.294   7
  -9  -7   4 275.039  11.922   2
  -9  -7   4 264.451  12.762   3
  -9   7  -4 273.061  13.159   1
   9  -7  -4 263.005  11.274   9
   9  -7  -4 278.224  12.644   1
   7   9  -4 251.175  12.232   1
   7   9  -4 256.211  11.367   9
   9   7  -4 272.514  11.466   9
  -9   7   4 278.481  18.466   7
  -7   9  -4 289.768  13.107   1
  -9  -7  -4 264.589  12.254   1
  -9  -7  -4 263.644  10.763   9
   7  -9  -4 251.678  11.087   9
   9  -7   4 282.895  12.218   2
   9   7  -4 264.800  12.348   6
   7   9   4 280.883  13.625   6
  -7  -9   4 261.707  11.837   2
  -9   7   4 251.374  11.337   2
   7  -9  -4 269.402  12.266   1
   9   7  -4 273.123  12.975   1
  -7   9  -4 271.868  11.450   9
  -7  -9   4 275.293  14.364   3
   7   9   4 257.549  11.491   2
   9   8   4 -0.7090  5.2060   6
   8  -9   4 2.20951 5.08296   2
  -8   9   4 -5.1039  7.4250   7
   9  -8  -4 2.61630 5.23164   1
  -8   9   4 1.44544 4.53732   2
   9  -8  -4 0.76079 4.30082   9
  -8  -9  -4 -8.0312  4.8658   1
  -9  -8   4 -6.6652  5.1780   3
  -9   8  -4 -3.8012  4.1384   9
  -8  -9  -4 -0.5035  4.2520   9
   8   9  -4 1.28623 5.23536   1
  -9   8  -4 1.96590 5.52954   1
   9   8   4 1.40009 4.57843   2
   8   9  -4 11.9038  5.0335   9
  -9  -8   4 -8.4819  4.2363   2
  -8   9  -4 4.58444 4.62261   9
   9   8  -4 -9.1501  4.5189   6
  -8  -9   4 -5.5657  5.6776   3
  -8  -9   4 2.83714 4.66806   2
   8  -9  -4 3.15929 4.40748   9
   8  -9  -4 -5.0645  4.6765   1
   9  -8   4 6.32652 4.85162   2
  -9   8   4 9.88900 8.72518   7
   9   8  -4 -0.8593  5.0947   1
   9   8  -4 4.68465 4.62333   9
   8   9   4 -0.8774  4.5793   2
  -9  -8  -4 -2.0006  4.3204   9
  -9  -8  -4 2.65317 5.21907   1
  -8   9  -4 11.3703  5.7169   1
   8   9   4 -0.1118  5.3826   6
  -9   8   4 0.84583 4.33710   2
   9   9  -4 281.231  12.238   9
  -9   9  -4 290.596  14.284   1
  -9   9   4 303.945  17.423   7
   9  -9   4 310.048  13.618   2
  -9  -9  -4 262.729  11.797   9
  -9  -9   4 278.017  12.974   2
   9   9   4 282.743  12.739   2
   9   9   4 280.817  14.584   6
   9   9  -4 295.880  13.872   1
  -9  -9   4 290.158  14.319   3
   9  -9  -4 312.030  14.104   1
  -9   9   4 278.712  12.492   2
   9  -9  -4 281.844  12.454   9
  -9  -9  -4 293.320  13.965   1
  -9   9  -4 308.941  12.681   9
 -10   0   4 1748.48   37.88   2
   0  10  -4 1750.87   39.21   1
 -10   0  -4 1781.18   39.20   1
   0 -10  -4 1724.48   38.80   1
  10   0  -4 1751.01   38.81   1
  10   0   4 1754.14   38.12   2
 -10   0   4 1787.04   40.79   7
   0  10   4 1736.67   37.82   2
   0 -10  -4 1694.70   36.94   9
  10   0  -4 1732.07   37.29   9
   0  10  -4 1743.96   37.40   9
   0  10  -4 1730.20   37.45   9
   0 -10   4 1748.14   38.45   2
   0 -10   4 1710.50   44.24   3
  10   0   4 1706.49   38.90   8
 -10   0  -4 1740.57   37.02   9
  10   0   4 1760.96   40.20   6
 -10   1  -4 69.7834  6.1018   9
  10   1   4 72.2557  7.5920   6
   1 -10   4 67.8314  6.7727   2
  -1 -10  -4 70.3664  7.1476   1
  10   1   4 52.9598  5.8809   2
   1 -10   4 60.4843  9.1801   3
 -10  -1   4 77.9644  7.7920   7
  10  -1  -4 66.6913  7.1121   1
  10  -1  -4 60.2027  5.9249   9
  -1  10   4 64.4087  6.1843   2
   1  10  -4 67.1870  6.3567   9
 -10  -1   4 66.2169  6.2794   2
   1  10  -4 72.3623  7.3039   1
  -1 -10  -4 52.4033  5.7218   9
 -10   1  -4 53.5290  6.5214   1
  -1  10  -4 62.8568  6.9486   1
  -1  10  -4 59.3087  5.9588   9
  10  -1   4 67.3806  7.1957   8
  -1 -10   4 79.5180 11.5331   3
  10   1  -4 65.0209  7.0086   1
  10   1  -4 51.6814  5.8354   9
  -1 -10   4 65.0206  6.5837   2
 -10  -1  -4 59.3931  6.8964   1
  -1  10  -4 60.6193  5.9787   9
   1 -10  -4 60.6460  6.9229   1
 -10   1   4 71.5591  8.7353   7
   1 -10  -4 64.3140  6.0188   9
 -10   1   4 54.4904  5.8541   2
   1  10   4 59.3245  6.1449   2
 -10  -1  -4 62.5076  6.0373   9
  -1 -10   4 56.2492  6.3656   2
  10  -1   4 53.3465  6.0522   2
  -2  10   4 1757.00   38.69   2
  10  -2  -4 1772.88   39.88   1
 -10  -2   4 1768.46   38.83   2
 -10   2  -4 1876.72   40.33   1
   2 -10   4 1757.40   39.46   2
   2  10  -4 1787.76   38.53   9
  10  -2  -4 1802.04   38.28   9
  10   2   4 1838.28   41.77   6
   2 -10   4 1667.48   41.77   3
  -2 -10  -4 1875.78   40.25   1
  -2 -10  -4 1772.43   38.00   9
   2  10  -4 1754.84   39.87   1
 -10  -2   4 1826.81   40.31   7
  10   2   4 1815.57   39.31   2
 -10   2  -4 1766.76   38.19   9
  10   2  -4 1798.83   38.36   9
   2 -10  -4 1733.27   39.78   1
   2 -10  -4 1794.11   38.08   9
 -10  -2  -4 1813.86   39.99   1
 -10   2   4 1836.95   43.84   7
  -2  10  -4 1774.42   40.08   1
 -10  -2  -4 1788.26   38.20   9
   2  10   4 1823.23   38.86   2
  -2  10  -4 1724.97   38.27   9
  -2 -10   4 1776.36   39.33   2
 -10   2   4 1751.51   38.70   2
  10  -2   4 1832.99   39.44   2
  -2 -10   4 1842.30   47.12   3
  10   2  -4 1826.20   40.16   1
   3 -10   4 32.0501  6.8290   3
   3 -10   4 31.7697  5.3527   2
   3  10  -4 42.2111  6.3543   1
   3  10  -4 34.5770  5.3852   9
  10   3   4 34.0137  6.2623   6
  10  -3  -4 34.6451  6.0498   1
  -3 -10  -4 37.4729  5.2578   9
  -3 -10  -4 38.9398  6.4279   1
  10   3   4 34.5142  5.3754   2
 -10  -3   4 41.9339  5.4914   2
 -10  -3   4 35.3847  5.6978   7
  -3  10   4 31.1933  5.2182   2
  10  -3  -4 31.6573  5.1328   9
 -10   3  -4 30.7100  6.2209   1
 -10   3  -4 34.1923  5.1243   9
   3 -10  -4 32.7393  5.8602   1
  -3 -10   4 41.2314  8.9788   3
 -10  -3  -4 29.1483  5.8539   1
  -3  10  -4 30.3506  5.0745   9
 -10  -3  -4 23.4905  4.8316   9
  -3 -10   4 30.0913  5.4988   2
 -10   3   4 35.0151  8.6537   7
  10   3  -4 30.4480  5.7717   1
  10  -3   4 37.5531  5.7472   2
   3 -10  -4 33.6497  5.2319   9
  -3  10  -4 39.4424  6.2881   1
  10   3  -4 34.7856  5.4023   9
   3  10   4 34.8039  5.3767   2
 -10   3   4 35.0598  5.4107   2
 -10   4  -4 1378.92   33.14   1
   4 -10   4 1334.41   32.46   2
  10  -4  -4 1352.25   32.75   1
  10   4   4 1329.29   34.11   6
  -4 -10  -4 1310.10   30.82   9
 -10  -4   4 1348.73   31.93   2
  10  -4  -4 1297.39   31.06   9
 -10   4  -4 1437.61   31.35   9
   4  10  -4 1428.63   33.28   1
  -4  10   4 1396.26   31.86   2
  -4 -10  -4 1410.49   33.22   1
   4  10  -4 1382.09   31.64   9
  10   4   4 1402.25   32.09   2
  10   4  -4 1375.89   33.85   6
  10   4  -4 1361.81   32.97   1
 -10  -4  -4 1299.68   30.84   9
  10   4  -4 1373.36   31.58   9
  -4  10  -4 1409.13   33.45   1
   4  10   4 1375.45   34.85   6
 -10  -4  -4 1409.62   33.32   1
 -10   4   4 1356.37   38.75   7
 -10   4   4 1408.86   31.98   2
  10  -4   4 1373.58   32.21   2
   4 -10  -4 1315.71   31.04   9
  -4  10  -4 1348.59   31.20   9
   4  10   4 1390.20   31.76   2
  -4 -10   4 1335.57   32.13   2
   4 -10  -4 1428.34   33.43   1
  -4 -10   4 1446.31   38.55   3
  10   5   4 59.8579  6.7066   2
   5  10  -4 56.4752  6.5118   9
  -5 -10  -4 71.2559  6.7434   9
 -10  -5   4 65.2786  6.9189   2
 -10   5  -4 61.7478  7.4768   1
 -10   5  -4 62.1302  6.4532   9
   5 -10   4 84.0418  7.8081   2
   5  10  -4 71.8004  7.7362   1
  10   5   4 63.6400  7.9752   6
  10  -5  -4 64.2610  7.5040   1
  -5  10   4 70.2237  6.9646   2
  -5 -10  -4 73.1818  7.8512   1
  10  -5  -4 70.3399  6.9157   9
 -10   5   4 51.8217 10.4182   7
  -5  10  -4 66.6890  6.6713   9
   5  10   4 59.5122  6.6609   2
  10   5  -4 73.9658  7.9209   6
  -5 -10   4 62.2858  7.1226   2
   5  10   4 60.3479  7.7483   6
   5 -10  -4 70.3984  7.7440   1
  10   5  -4 78.7216  8.0599   1
   5 -10  -4 55.4098  6.3356   9
  10   5  -4 61.3293  6.5846   9
 -10  -5  -4 73.6731  7.7702   1
 -10  -5  -4 73.8612  6.7978   9
  -5  10  -4 65.5890  7.8664   1
  10  -5   4 74.0981  7.4486   2
 -10   5   4 64.1372  6.8022   2
  -5 -10   4 87.4114 10.1977   3
  -6 -10  -4 2140.28   48.18   1
  -6  10   4 2158.30   50.10   7
  10   6   4 2155.78   50.23   6
  -6  10   4 2136.22   46.54   2
  10  -6  -4 2116.15   46.13   9
 -10   6  -4 2162.25   48.40   1
  10   6   4 2151.15   47.17   2
   6  10  -4 2172.35   46.60   9
  -6 -10  -4 2157.69   46.00   9
   6 -10   4 2204.55   47.70   2
 -10  -6   4 2171.64   47.35   2
 -10   6  -4 2175.53   46.23   9
   6  10  -4 2223.97   48.50   1
  10  -6  -4 2245.82   48.60   1
  10   6  -4 2122.47   46.22   9
   6  10   4 2196.50   50.81   6
  10   6  -4 2266.60   49.48   6
  10   6  -4 2168.81   48.22   1
 -10  -6  -4 2152.96   45.84   9
 -10  -6  -4 2209.62   48.40   1
  -6 -10   4 2195.35   51.64   3
   6  10   4 2184.33   46.97   2
 -10   6   4 2184.22   46.95   2
  10   6  -4 2132.06   48.20   1
   6 -10  -4 2204.32   48.42   1
 -10   6   4 2056.70   56.13   7
  10  -6   4 2157.32   47.33   2
  -6  10  -4 2236.48   48.67   1
  -6 -10   4 2156.90   47.31   2
  -6  10  -4 2136.86   46.05   9
 -10  -7   4 84.9245  8.6472   3
   7 -10   4 63.3471  7.5395   2
  10   7   4 74.6635  7.6918   2
 -10  -7   4 58.5871  7.0217   2
   7  10  -4 90.3434  8.8760   1
   7  10  -4 73.9809  7.7341   9
 -10   7  -4 87.8282  9.1453   1
  -7 -10  -4 74.0492  8.6778   1
 -10   7  -4 65.8505  7.1857   9
  -7 -10  -4 75.0500  7.1642   9
  10  -7  -4 65.4729  7.0786   9
  -7  10   4 70.4422  7.3803   2
  10   7   4 61.4094  8.4868   6
  -7  10   4 82.7678 10.4005   7
  10  -7  -4 63.6669  8.0361   1
 -10  -7  -4 71.2035  8.2807   1
  -7 -10   4 76.4412  7.8251   2
  10   7  -4 93.1305  9.0219   6
 -10  -7  -4 73.3131  7.3765   9
  10  -7   4 72.2232  7.8008   2
  -7 -10   4 83.7984 10.5310   3
 -10   7   4 78.8607  7.5873   2
   7  10   4 96.5828  9.7407   6
  10   7  -4 74.7701  7.5123   9
  10   7  -4 78.5762  8.7318   1
  -7  10  -4 72.7601  8.4843   1
   7 -10  -4 78.4228  8.5930   1
 -10   7   4 70.1444 12.6955   7
   7 -10  -4 74.3642  7.3604   9
  -7  10  -4 81.8522  7.6893   9
   7  10   4 65.3077  7.3582   2
  -8  10   4 1502.67   35.50   2
 -10   8  -4 1559.10   37.68   1
  10   8   4 1463.87   38.76   6
 -10  -8   4 1520.16   37.04   3
   8 -10   4 1453.69   36.21   2
 -10  -8   4 1432.39   35.65   2
   8  10  -4 1479.78   35.22   9
 -10   8  -4 1525.93   34.98   9
  -8  10   4 1611.15   42.04   7
  -8 -10  -4 1471.53   36.98   1
  10   8   4 1458.28   35.65   2
  -8 -10  -4 1448.01   34.72   9
   8  10  -4 1591.60   37.52   1
  10  -8  -4 1473.63   34.96   9
  10  -8  -4 1512.91   37.25   1
   8 -10  -4 1495.32   37.08   1
  -8  10  -4 1476.62   34.90   9
   8 -10  -4 1454.46   34.75   9
 -10   8   4 1457.36   35.38   2
  10   8  -4 1583.49   38.01   6
  10   8  -4 1464.58   35.15   9
  10   8  -4 1551.25   37.27   1
 -10  -8  -4 1458.84   34.74   9
 -10  -8  -4 1529.58   37.40   1
  -8 -10   4 1441.51   35.56   2
   8  10   4 1489.43   35.57   2
   8  10   4 1510.26   39.06   6
  -8  10  -4 1534.83   37.57   1
 -10   8   4 1350.01   42.29   7
  -8 -10   4 1493.63   38.82   3
  10  -8   4 1496.43   36.28   2
 -10   9  -4 6.75239 5.19114   9
 -10  -9   4 -5.8001  5.5774   3
  -9 -10  -4 -1.9494  4.8465   9
 -10   9  -4 0.30051 6.48399   1
  -9  10   4 8.87410 5.28803   2
  10  -9  -4 6.52794 5.30646   9
  -9 -10  -4 11.5636  6.5860   1
 -10  -9   4 7.05602 5.14306   2
  10   9   4 8.00307 6.49085   6
   9  10  -4 4.09227 5.21795   9
   9  10  -4 2.58041 6.27603   1
  10  -9  -4 11.0159  6.1521   1
  -9  10   4 15.3859  8.4797   7
  10   9   4 6.06968 5.42802   2
   9 -10   4 3.35773 5.61112   2
   9  10   4 8.08257 5.28394   2
  -9 -10   4 10.4576  6.8129   3
 -10  -9  -4 15.3270  5.5530   9
  -9  10  -4 -0.3835  4.9095   9
   9 -10  -4 3.01096 5.68781   1
   9 -10  -4 8.94531 5.20987   9
 -10   9   4 21.2621  5.6922   2
  -9 -10   4 3.51758 5.44494   2
 -10  -9  -4 11.6854  6.8102   1
  10  -9   4 13.9345  5.8495   2
  10   9  -4 10.0603  5.4691   9
 -10   9   4 12.5956  8.8988   7
  -9  10  -4 12.3400  6.6716   1
   9  10   4 3.78588 5.56091   6
  10   9  -4 2.58540 6.30640   1
 -10  10   4 1051.23   33.55   7
  10  10   4 928.900  29.723   6
 -10 -10  -4 968.065  28.696   1
 -10 -10   4 1018.41   29.55   3
  10 -10  -4 965.109  26.416   9
  10 -10   4 930.989  27.431   2
 -10  10   4 939.576  26.506   2
 -10 -10  -4 927.966  26.083   9
  10  10  -4 976.240  26.792   9
 -10  10  -4 1019.54   26.64   9
  10  10   4 957.069  26.754   2
 -10 -10   4 965.634  27.216   2
   0 -11  -4 -5.9664  4.4996   1
   0 -11  -4 -1.5337  3.8691   9
 -11   0   4 -5.3457  3.5450   2
 -11   0  -4 -5.8371  3.5301   9
   0  11  -4 -3.1349  4.0771   9
   0 -11   4 -2.4537  4.2628   2
  11   0  -4 2.08558 5.08086   1
   0 -11   4 3.36843 8.06640   3
   0  11  -4 -1.1417  4.7371   1
  11   0  -4 -1.7134  3.5604   9
 -11   0  -4 3.95018 4.85608   1
  11   0   4 -8.8916  4.7053   6
 -11   0   4 0.67458 5.29850   7
  11   0   4 0.57805 3.99094   2
   0  11   4 -0.4507  4.0158   2
  -1  11   4 413.985  14.080   2
  11   1   4 382.359  14.221   2
 -11   1  -4 398.084  13.689   9
  11  -1  -4 418.504  13.827   9
   1  11  -4 421.712  15.375   1
   1 -11   4 417.898  18.944   3
 -11  -1   4 389.146  13.833   2
  -1 -11  -4 422.993  15.484   1
   1  11  -4 399.082  13.929   9
   1 -11   4 433.516  14.744   2
  11  -1  -4 397.139  14.938   1
  -1 -11  -4 394.226  13.568   9
 -11   1  -4 432.057  15.335   1
 -11  -1   4 396.339  15.459   7
  11   1   4 406.525  15.796   6
 -11   1   4 406.339  17.039   7
 -11   1   4 397.824  14.043   2
  -1 -11   4 401.339  14.552   2
  -1  11  -4 399.348  13.725   9
  11   1  -4 416.445  15.388   1
  -1  11  -4 411.178  15.176   1
  -1 -11   4 411.853  14.878   2
  11  -1   4 401.515  14.489   2
  11  -1   4 429.893  15.490   8
 -11  -1  -4 378.857  14.778   1
 -11  -1  -4 427.161  13.736   9
  -1  11  -4 427.165  14.210   9
   1  11   4 400.163  14.034   2
  11   1  -4 399.140  13.891   9
   1 -11  -4 420.123  15.205   1
   1 -11  -4 394.002  13.648   9
 -11  -2   4 -2.2744  5.0657   7
  11   2   4 0.50097 4.75074   6
 -11   2  -4 2.50413 4.13196   9
   2 -11   4 -5.9731  6.4112   3
 -11  -2   4 -3.4713  4.1126   2
   2  11  -4 1.97194 4.22580   9
  -2 -11  -4 -0.6439  5.0342   1
  11   2   4 7.47643 4.41053   2
  11  -2  -4 2.35153 4.23670   9
 -11   2  -4 7.72719 5.29034   1
   2  11  -4 10.9203  5.3851   1
  -2 -11  -4 12.9343  4.4129   9
  -2  11   4 -0.7376  4.0385   2
  11  -2  -4 -1.5372  4.4134   1
   2 -11   4 6.72693 4.79589   2
 -11   2   4 -1.1433  5.5358   7
  11   2  -4 2.70913 4.05799   9
  -2  11  -4 6.92321 4.43144   9
 -11  -2  -4 0.73535 3.97985   9
  -2  11  -4 2.70719 4.16167   9
  11   2  -4 -1.8998  4.4371   1
   2 -11  -4 1.81362 4.03310   9
  -2 -11   4 3.79695 4.46172   2
   2  11   4 1.18821 4.18194   2
  11  -2   4 3.61671 4.20026   2
 -11   2   4 1.04970 4.18065   2
   2 -11  -4 -1.9417  4.4901   1
  -2  11  -4 -6.6611  4.6181   1
 -11  -2  -4 5.02962 5.00667   1
  -2 -11   4 4.10469 7.73702   3
  -3 -11  -4 224.505  10.035   9
 -11   3  -4 217.132  11.280   1
   3  11  -4 189.732  10.928   1
  -3  11   4 190.177   9.795   2
  11   3   4 216.666  10.283   2
   3 -11   4 227.433  13.125   3
   3 -11   4 196.609  10.652   2
 -11   3  -4 199.195   9.880   9
  11   3   4 205.650  11.796   6
  -3 -11  -4 202.753  10.969   1
 -11  -3   4 208.655  10.318   2
  11  -3  -4 216.608  10.265   9
   3  11  -4 212.404  10.227   9
  11  -3  -4 202.113  11.087   1
  11   3  -4 242.925  11.570   1
   3 -11  -4 222.026  10.173   9
 -11   3   4 218.842  10.511   2
  -3 -11   4 194.898  16.015   3
  -3  11  -4 218.574  11.445   1
   3  11   4 203.051  10.237   2
 -11  -3  -4 213.295   9.674   9
  11   3  -4 202.346  10.141   9
 -11  -3  -4 194.323  10.937   1
 -11   3   4 252.033  15.436   7
   3 -11  -4 238.406  11.535   1
  -3 -11   4 238.698  10.894   2
  11  -3   4 195.649  10.447   2
  -3  11  -4 228.932  10.489   9
   4  11  -4 24.6871  5.4968   9
 -11  -4   4 29.0033  5.5728   2
 -11   4  -4 32.6619  6.6177   1
  -4  11   4 26.3731  5.3317   2
  11  -4  -4 37.0124  5.9411   9
 -11   4  -4 20.3937  5.2462   9
   4  11  -4 30.7693  6.6320   1
  11  -4  -4 33.4302  6.5386   1
  11   4   4 24.1921  5.3342   2
  11   4   4 26.5392  6.3499   6
   4 -11   4 28.9952  6.0063   2
  -4 -11  -4 34.6737  6.8723   1
  -4 -11  -4 36.5213  5.7069   9
 -11  -4  -4 28.5684  5.5487   9
 -11  -4  -4 35.4275  6.9789   1
  -4 -11   4 32.8205  6.2746   2
  11   4  -4 45.8590  7.1864   6
 -11   4   4 25.5406  9.2098   7
  11  -4   4 16.8514  5.3777   2
 -11   4   4 22.3045  5.5174   2
   4 -11  -4 38.7297  5.9079   9
  -4  11  -4 22.2426  6.4985   1
  -4 -11   4 28.3155  8.7301   3
  11   4  -4 31.2880  5.6458   9
  11   4  -4 24.0439  6.0086   1
   4  11   4 27.7014  5.7372   2
  -4  11  -4 27.4189  5.2754   9
   4 -11  -4 35.2533  6.5820   1
  -5 -11  -4 165.875   9.434   9
  -5  11   4 159.575   9.654   2
 -11  -5   4 165.311   9.833   2
   5  11  -4 173.741  10.963   1
   5  11  -4 168.914   9.752   9
 -11   5  -4 201.099  11.972   1
   5 -11   4 174.883  10.565   2
 -11   5  -4 190.665   9.816   9
  11  -5  -4 170.777  10.637   1
  11   5   4 166.613   9.994   2
  11  -5  -4 174.440   9.814   9
  -5 -11  -4 178.663  10.873   1
  11   5   4 161.284  10.570   6
 -11   5   4 160.894  15.422   7
  11  -5   4 173.520  10.195   2
 -11  -5  -4 168.853   9.388   9
  -5 -11   4 172.880  10.010   2
   5  11   4 180.189   9.851   2
 -11  -5  -4 208.511  11.490   1
  -5 -11   4 169.393  14.027   3
   5 -11  -4 181.364  11.036   1
  11   5  -4 174.253  10.878   1
   5 -11  -4 158.966   9.337   9
  11   5  -4 176.640   9.807   9
   5  11   4 171.932  11.665   6
  -5  11  -4 197.662  11.763   1
  -5  11  -4 191.403   9.889   9
 -11   5   4 178.856   9.493   2
  11   5  -4 187.506  11.312   6
  11  -6  -4 26.2789  6.4222   1
  11   6   4 16.1948  5.4447   2
   6 -11   4 17.1439  5.7519   2
  -6  11   4 15.2850  5.4713   2
 -11  -6   4 17.7323  5.3617   2
 -11   6  -4 32.0125  7.0523   1
  -6 -11  -4 26.6512  6.5888   1
  11  -6  -4 18.5824  5.4496   9
  11   6   4 23.8714  6.7503   6
   6  11  -4 27.9977  5.9258   9
 -11   6  -4 33.1551  5.9235   9
   6  11  -4 18.9015  6.3017   1
  -6 -11  -4 19.9644  5.4516   9
 -11   6   4 26.6413  5.8067   2
  -6  11  -4 21.6570  6.5347   1
   6 -11  -4 28.5569  6.8483   1
 -11  -6  -4 31.7318  6.8337   1
 -11  -6  -4 23.0009  5.2358   9
 -11   6   4 17.9756  9.2676   7
  -6 -11   4 17.1585  5.6372   2
  -6 -11   4 34.9558  8.7019   3
  11   6  -4 27.1037  6.8453   1
   6  11   4 13.9631  5.2139   2
  11   6  -4 24.8375  6.8155   1
  11  -6   4 20.6218  5.9064   2
  -6  11  -4 19.4581  5.3739   9
   6 -11  -4 22.7912  5.2547   9
   6  11   4 27.0381  7.1665   6
  11   6  -4 31.9928  6.5862   6
  11   6  -4 25.0749  5.8544   9
  11   7   4 487.961  17.301   2
  -7  11   4 528.116  17.149   2
  -7 -11  -4 499.762  18.378   1
 -11   7  -4 494.695  16.627   9
 -11   7  -4 535.128  19.159   1
   7  11  -4 526.691  19.169   1
  -7 -11  -4 467.880  16.454   9
  11   7   4 454.501  18.799   6
 -11  -7   4 464.477  17.053   2
  11  -7  -4 488.411  18.543   1
  11  -7  -4 476.990  16.636   9
   7  11  -4 484.360  16.861   9
   7 -11   4 487.015  17.484   2
  11   7  -4 496.194  16.966   9
 -11   7   4 483.569  16.891   2
 -11  -7  -4 513.193  18.550   1
  11   7  -4 505.728  18.412   1
  -7 -11   4 466.255  20.317   3
  -7  11  -4 470.261  16.607   9
  11   7  -4 515.873  18.706   6
 -11  -7  -4 509.639  16.738   9
   7  11   4 464.522  19.172   6
  -7  11  -4 506.684  18.772   1
  11  -7   4 520.022  17.874   2
  -7 -11   4 458.298  17.097   2
   7 -11  -4 522.332  18.732   1
   7  11   4 498.175  17.021   2
 -11   7   4 574.300  24.586   7
   7 -11  -4 494.241  16.825   9
 -11  -8   4 3.80463 5.39070   2
 -11   8  -4 -2.0095  6.0436   1
  11   8   4 5.70662 5.58263   2
  -8 -11  -4 5.90282 6.33677   1
  -8 -11  -4 -6.3398  4.7450   9
  11  -8  -4 8.28558 5.36913   9
  -8  11   4 2.57843 5.01679   2
 -11   8  -4 2.38489 4.87055   9
  11   8   4 -0.2178  6.1392   6
  11  -8  -4 14.5861  6.8942   1
   8 -11   4 -3.5704  5.3719   2
   8  11  -4 2.69512 5.08534   9
  -8  11   4 1.09671 8.02891   7
  11   8  -4 4.16018 6.35926   6
 -11   8   4 10.6628  9.5628   7
   8 -11  -4 -11.872   5.358   1
  11   8  -4 2.15339 5.16385   9
 -11  -8  -4 -4.7176  4.7889   9
  -8 -11   4 4.12591 7.00443   3
  -8 -11   4 2.75587 5.20064   2
   8  11   4 4.44116 5.29884   2
   8 -11  -4 1.74837 4.99016   9
   8  11   4 3.85183 6.28651   6
  -8  11  -4 -0.0323  4.9896   9
  11  -8   4 18.7594  6.1225   2
 -11  -8  -4 -0.6857  5.9492   1
 -11   8   4 7.06508 5.17469   2
  -9 -11  -4 319.679  15.891   1
  11  -9  -4 333.945  16.006   1
 -11  -9   4 305.383  14.225   2
  11   9   4 291.011  13.691   2
   9 -11   4 295.757  14.098   2
  11  -9  -4 328.294  14.169   9
  -9  11   4 326.703  17.914   7
  11   9   4 295.918  15.701   6
   9  11  -4 291.560  13.619   9
 -11   9  -4 304.891  13.585   9
  -9  11   4 307.975  13.781   2
  -9 -11  -4 309.698  13.708   9
  11   9  -4 292.810  13.633   9
 -11  -9  -4 318.755  16.034   1
  -9 -11   4 316.765  14.403   2
  11  -9   4 319.062  14.629   2
 -11  -9  -4 313.532  13.741   9
  -9 -11   4 328.867  16.562   3
   9  11   4 309.476  16.064   6
   9 -11  -4 330.342  14.119   9
   9 -11  -4 292.757  15.504   1
   9  11   4 299.463  13.659   2
 -11   9   4 290.745  13.569   2
  -9  11  -4 309.810  13.702   9
 -11   9   4 339.309  19.678   7
   0 -12   4 1134.70   28.70   2
   0 -12   4 1137.37   35.49   3
   0  12  -4 1134.23   29.74   1
  12   0   4 1158.94   30.81   6
   0 -12  -4 1106.35   29.44   1
   0  12   4 1083.22   27.81   2
  12   0   4 1087.58   28.44   2
  12   0  -4 1118.93   29.41   1
 -12   0   4 1151.75   31.00   7
  12   0  -4 1059.42   27.41   9
 -12   0  -4 1137.25   29.54   1
 -12   0  -4 1138.21   27.56   9
 -12   0   4 1064.92   27.98   2
   0  12  -4 1119.89   27.79   9
   0 -12  -4 1133.93   27.63   9
  -1 -12  -4 0.21114 5.11932   1
  12  -1  -4 -0.2153  4.5227   9
   1  12  -4 -0.0721  4.3643   9
 -12   1  -4 0.40843 4.48931   9
   1 -12   4 7.07278 8.76245   3
  12   1   4 1.44445 4.77154   2
  -1 -12  -4 1.58467 4.25480   9
 -12  -1   4 0.91184 5.50455   7
 -12  -1   4 -0.7823  4.3376   2
 -12   1  -4 -0.2969  5.1275   1
  12   1   4 -1.6287  5.2673   6
  12  -1  -4 -0.0387  5.4420   1
  -1  12   4 0.30829 4.53667   2
   1  12  -4 -0.3607  5.4069   1
   1 -12   4 1.93326 4.78770   2
 -12   1   4 -3.8944  4.3531   2
  -1  12  -4 12.0154  5.6021   1
  -1 -12   4 -0.5627  4.4591   2
  12   1  -4 1.86105 4.91590   1
 -12  -1  -4 5.84154 5.51828   1
  12   1  -4 1.22636 4.04793   9
 -12  -1  -4 -0.3397  4.1109   9
   1 -12  -4 3.87362 5.20567   1
  12  -1   4 -3.0345  4.4381   2
   1 -12  -4 2.43374 4.25007   9
 -12   1   4 -6.6772  5.8004   7
   1  12   4 1.73922 4.80222   2
  -1 -12   4 11.7481  9.4695   3
  -1 -12   4 -1.4291  4.5338   2
  -1  12  -4 0.75444 4.51471   9
   2  12  -4 1983.36   45.01   1
 -12  -2   4 1968.45   43.56   2
  12  -2  -4 1927.74   42.71   9
  -2 -12  -4 1994.48   44.89   1
  -2  12   4 1904.49   43.01   2
  12  -2  -4 2027.08   45.00   1
   2  12  -4 1919.94   42.79   9
   2 -12   4 1920.09   43.87   2
  12   2   4 1922.03   46.34   6
  12   2   4 1870.83   43.35   2
 -12   2  -4 1884.35   42.07   9
 -12   2  -4 1980.21   45.06   1
  -2 -12  -4 1858.62   42.06   9
   2 -12   4 1957.95   47.85   3
 -12   2   4 2011.94   48.56   7
 -12   2   4 1920.89   43.20   2
  -2  12  -4 2039.42   45.61   1
   2 -12  -4 1876.48   42.14   9
  12   2  -4 1940.70   44.66   1
 -12  -2  -4 1940.99   42.25   9
   2 -12  -4 2033.67   45.14   1
  12  -2   4 1980.74   45.81   8
  12  -2   4 1916.57   43.69   2
  -2 -12   4 1935.43   51.79   3
  -2  12  -4 1977.13   42.74   9
   2  12   4 1874.27   42.87   2
  12   2  -4 1968.11   42.86   9
  -2 -12   4 2024.37   44.31   2
 -12  -2  -4 2003.70   45.09   1
   3 -12   4 4.80137 4.93618   2
 -12   3  -4 1.20448 4.50628   9
  12  -3  -4 -1.1814  4.2473   9
  -3  12   4 3.48873 4.75433   2
 -12   3  -4 3.49755 5.33189   1
 -12  -3   4 7.81803 4.94398   2
  -3 -12  -4 -1.1217  4.3114   9
   3  12  -4 8.48080 5.97892   1
  12  -3  -4 -5.9324  4.9459   1
  -3 -12  -4 8.67247 5.79523   1
  12   3   4 -2.1859  4.6445   2
  12   3   4 0.97043 5.45579   6
   3  12  -4 1.35055 4.62250   9
  -3 -12   4 0.17423 4.57616   2
 -12   3   4 0.17199 4.63004   2
 -12  -3  -4 -3.4015  4.1853   9
   3 -12  -4 -10.628   5.247   1
   3 -12  -4 2.98894 4.46888   9
  -3  12  -4 5.94043 5.44673   1
  12   3  -4 -0.5457  5.2519   1
  -3 -12   4 -1.2924  8.1329   3
   3  12   4 3.29214 4.85951   2
  12   3  -4 -1.4233  4.5435   9
  12  -3   4 0.64001 4.53821   2
  -3  12  -4 4.78035 4.68479   9
 -12  -3  -4 1.00117 5.30280   1
  -3  12  -4 -2.4114  4.3189   9
 -12   3   4 -3.3785  6.7260   7
   4 -12   4 1280.27   32.62   2
   4  12  -4 1291.04   31.75   9
  12  -4  -4 1312.34   31.59   9
 -12   4  -4 1366.56   33.94   1
   4  12  -4 1410.38   34.35   1
  12   4   4 1294.43   32.30   2
  12  -4  -4 1278.58   33.47   1
  12   4   4 1352.66   35.40   6
  -4 -12  -4 1370.32   34.05   1
  -4  12   4 1280.74   31.78   2
  -4 -12  -4 1328.50   31.50   9
 -12  -4   4 1296.57   32.45   2
 -12   4  -4 1276.58   31.35   9
 -12   4   4 1283.30   32.02   2
  -4 -12   4 1243.41   37.89   3
  -4  12  -4 1344.47   31.87   9
  12   4  -4 1303.98   34.48   6
  12   4  -4 1310.16   31.82   9
  -4  12  -4 1315.34   31.73   9
  -4 -12   4 1325.68   32.90   2
   4 -12  -4 1295.48   31.48   9
   4  12   4 1275.35   32.04   2
  -4  12  -4 1395.44   34.35   1
  12   4  -4 1352.38   33.72   1
 -12  -4  -4 1328.49   33.65   1
 -12   4   4 1269.59   38.16   7
   4 -12  -4 1347.04   33.90   1
  12  -4   4 1257.64   32.35   2
 -12  -4  -4 1309.16   31.54   9
  -5 -12  -4 -5.4688  4.3427   9
 -12   5  -4 8.14954 5.98224   1
  12   5   4 13.3802  6.4121   6
 -12   5  -4 -1.9469  4.5827   9
  -5  12   4 -6.2208  4.2306   2
  -5 -12  -4 7.59667 6.23717   1
  12   5   4 1.92041 5.04780   2
   5  12  -4 -0.5321  4.9567   9
   5 -12   4 -0.8910  5.0901   2
  12  -5  -4 -7.1177  4.2902   9
  12  -5  -4 -9.3783  5.3587   1
 -12  -5   4 -0.5900  4.4885   2
   5  12  -4 -7.4466  5.5260   1
  -5  12  -4 4.87152 6.07093   1
   5 -12  -4 -3.4974  4.6219   9
  -5 -12   4 1.24059 5.25067   2
  12  -5   4 -7.0260  4.3899   2
 -12   5   4 -1.8632  4.1634   2
 -12   5   4 -1.5718  7.4153   7
  -5 -12   4 -0.2893  7.1828   3
  -5  12  -4 2.51170 4.97144   9
  12   5  -4 -3.9200  5.1266   6
 -12  -5  -4 2.70794 6.27589   1
 -12  -5  -4 1.72761 4.80978   9
   5  12   4 -2.7964  4.6012   2
   5 -12  -4 2.22670 6.22827   1
  12   5  -4 2.31726 5.99621   1
  12   5  -4 3.20727 4.95808   9
   6 -12   4 2134.43   49.31   2
  -6  12   4 2164.28   48.61   2
  -6 -12  -4 2141.06   50.19   1
   6  12  -4 2143.82   48.08   9
  12  -6  -4 2233.25   48.28   9
  -6 -12  -4 2224.17   47.89   9
 -12  -6   4 2180.66   48.95   2
 -12   6  -4 2275.24   50.82   1
  12   6   4 2152.82   48.90   2
 -12   6  -4 2234.56   48.06   9
  12   6   4 2148.17   52.22   6
  12  -6  -4 2233.76   50.60   1
   6  12   4 2137.14   48.37   2
 -12   6   4 2108.36   48.29   2
  -6 -12   4 2028.75   52.84   3
 -12  -6  -4 2248.88   50.82   1
  12   6  -4 2273.05   50.96   1
  12  -6   4 2123.05   49.04   2
  12   6  -4 2260.91   48.20   9
  -6 -12   4 2137.63   49.03   2
   6  12   4 2128.55   52.43   6
  12   6  -4 2326.26   52.12   6
  -6  12  -4 2234.98   47.98   9
   6 -12  -4 2191.07   47.83   9
  12   6  -4 2295.22   50.92   1
 -12  -6  -4 2210.46   47.76   9
 -12   6   4 2163.94   56.22   7
  -7  12   4 27.3772  6.4903   2
   7  12  -4 25.9527  6.4172   9
  12  -7  -4 27.8698  6.4832   9
 -12   7  -4 20.0286  5.8298   9
  -7 -12  -4 10.6606  5.4506   9
 -12  -7   4 33.1567  6.7716   2
  -7 -12  -4 37.5445  7.8509   1
  12  -7  -4 24.6161  7.5797   1
  12   7   4 13.2547  5.9098   2
   7 -12   4 36.8148  7.2659   2
  12   7   4 27.7542  7.4889   6
  -7 -12   4 36.1160  6.8811   2
   7  12   4 9.60479 5.51390   2
  12  -7   4 16.6382  6.2041   2
 -12   7   4 18.1382  9.6956   7
 -12  -7  -4 36.6129  6.6269   9
   7 -12  -4 30.1467  7.5362   1
 -12  -7  -4 30.1038  7.6662   1
  -7  12  -4 27.4339  6.3512   9
   7 -12  -4 33.1915  6.5102   9
   7  12   4 35.4891  8.1871   6
 -12   7   4 30.2528  6.3308   2
  12   7  -4 23.0463  6.3787   9
  -7 -12   4 31.8142  8.8991   3
  12   7  -4 24.4105  7.0289   6
  -8  12   4 1025.92   28.06   2
  12  -8  -4 1036.53   27.99   9
  12   8   4 1014.81   28.22   2
 -12   8  -4 1025.90   27.78   9
  -8 -12  -4 1004.17   27.51   9
  12   8   4 966.447  30.818   6
   8 -12   4 1016.17   28.86   2
  -8 -12  -4 1092.47   30.55   1
  12  -8  -4 1081.60   30.49   1
   8  12  -4 1037.60   27.99   9
 -12  -8   4 1009.73   28.27   2
  -8 -12   4 1013.85   28.53   2
 -12  -8  -4 1122.85   28.07   9
   8 -12  -4 1059.07   27.90   9
 -12   8   4 1001.47   35.31   7
 -12   8   4 995.919  27.931   2
   8 -12  -4 1064.41   30.36   1
  12  -8   4 1002.63   28.55   2
   8  12   4 1042.27   31.59   6
 -12  -8  -4 1017.00   29.86   1
   8  12   4 1023.79   28.29   2
  12   8  -4 1020.47   27.83   9
  -8  12  -4 1073.50   27.83   9
  -8 -12   4 1045.18   32.02   3
  12   8  -4 1031.47   30.27   6
 -13   0  -4 5.53867 5.80024   1
   0 -13   4 -1.1908  5.1098   2
   0 -13  -4 -1.2191  4.5538   9
  13   0  -4 6.66118 5.87845   1
 -13   0  -4 1.13261 4.75844   9
  13   0   4 1.05257 5.53109   6
  13   0  -4 3.32385 4.58788   9
   0 -13  -4 -0.6174  5.3886   1
 -13   0   4 -0.7570  4.7625   2
 -13   0   4 7.43368 6.45982   7
   0 -13   4 -2.4610  5.2862   2
  13   0   4 -0.4830  4.8198   2
   0  13  -4 -0.1781  4.6725   9
   0  13   4 0.92815 4.85663   2
   0  13  -4 -6.0187  5.4063   1
   0 -13   4 1.38776 8.65805   3
  13  -1  -4 454.245  16.061   9
  -1 -13  -4 437.529  15.701   9
  13   1   4 445.165  18.249   6
   1 -13   4 404.286  16.375   2
 -13   1  -4 440.416  15.615   9
 -13   1  -4 478.516  17.942   1
   1  13  -4 452.860  15.981   9
   1 -13   4 412.299  20.543   3
  -1  13   4 424.498  15.732   2
 -13  -1   4 428.304  16.049   2
  -1 -13  -4 472.801  17.599   1
 -13  -1   4 457.228  17.865   7
   1  13  -4 473.003  17.866   1
  13  -1  -4 458.287  17.689   1
  13   1   4 437.568  16.303   2
 -13  -1  -4 478.383  16.010   9
 -13   1   4 451.115  19.206   7
   1 -13  -4 483.548  17.783   1
  13  -1   4 442.897  16.374   2
  13   1  -4 454.569  17.468   1
   1  13   4 417.962  15.673   2
  -1  13  -4 475.026  16.168   9
  -1  13  -4 452.024  17.775   1
 -13   1   4 446.987  16.310   2
   1 -13  -4 421.517  15.548   9
  -1 -13   4 440.947  16.682   2
  -1 -13   4 456.102  22.230   3
  -1 -13   4 455.114  16.785   2
  13   1  -4 457.341  16.085   9
 -13  -1  -4 499.405  18.054   1
  -2  13   4 28.7536  6.0987   2
 -13  -2   4 27.9140  5.8456   2
 -13   2  -4 29.8417  7.0043   1
  13   2   4 19.7762  6.8221   6
  13  -2  -4 33.1931  7.1761   1
   2 -13   4 19.9149  5.8922   2
 -13   2  -4 5.04216 5.21648   9
  13   2   4 37.8141  6.9331   2
  -2 -13  -4 35.4999  6.1500   9
   2 -13   4 31.4973  9.3690   3
   2  13  -4 33.4858  7.6266   1
  -2 -13  -4 35.1486  7.4990   1
  13  -2  -4 31.7565  6.2345   9
   2  13  -4 35.3647  6.3870   9
  -2  13  -4 24.3885  7.1460   1
 -13  -2  -4 30.4053  5.9360   9
  13  -2   4 32.2583  6.5216   2
   2  13   4 28.9182  6.0716   2
 -13   2   4 18.7500  5.8716   2
   2 -13  -4 28.0026  7.2768   1
  13   2  -4 28.0755  6.0588   9
  -2 -13   4 35.3459  6.7072   2
 -13   2   4 21.2890  7.9925   7
   2 -13  -4 31.8540  6.0642   9
  -2 -13   4 33.3141 10.4997   3
  13   2  -4 20.7746  6.5388   1
 -13  -2  -4 20.8156  6.8773   1
  -2  13  -4 22.0935  5.7523   9
  13  -3  -4 238.368  12.856   1
   3  13  -4 237.954  11.659   9
  13   3   4 211.299  13.483   6
  -3  13   4 207.431  10.967   2
 -13  -3   4 196.689  11.194   2
   3 -13   4 206.742  11.514   2
  -3 -13  -4 222.719  11.174   9
 -13   3  -4 204.766  12.483   1
  13  -3  -4 213.039  11.301   9
 -13   3  -4 212.274  11.017   9
  -3 -13  -4 215.972  12.522   1
  13   3   4 185.121  10.794   2
  13   3  -4 218.202  12.854   6
  -3 -13   4 203.294  11.379   2
  -3 -13   4 216.320  17.374   3
  -3  13  -4 209.162  11.132   9
  13  -3   4 203.502  11.159   2
  13   3  -4 219.224  12.571   1
   3 -13  -4 201.418  12.434   1
  13   3  -4 195.050  10.992   9
 -13   3   4 216.274  11.197   2
 -13  -3  -4 222.652  12.609   1
 -13  -3  -4 219.680  11.050   9
   3 -13  -4 214.648  10.994   9
   3  13   4 197.894  10.919   2
 -13   3   4 221.394  15.039   7
  13   4   4 14.2966  5.7475   2
 -13   4  -4 22.7093  5.8790   9
  13   4   4 7.17427 6.56767   6
  -4 -13  -4 19.2505  5.7876   9
  13  -4  -4 13.7181  5.7437   9
  -4 -13  -4 0.37492 5.98038   1
 -13   4  -4 24.2239  6.9207   1
   4  13  -4 10.4681  5.5891   9
   4 -13   4 19.3474  5.9327   2
  -4  13   4 19.2980  5.6265   2
 -13  -4   4 11.0896  5.5625   2
  13  -4  -4 22.1977  6.7276   1
   4 -13  -4 14.2552  5.6734   9
  -4  13  -4 11.4450  5.5509   9
 -13   4   4 26.5137  8.8007   7
   4 -13  -4 7.05122 6.42996   1
  -4 -13   4 18.9062  8.9133   3
 -13   4   4 12.8939  5.7115   2
  -4 -13   4 27.6943  6.4155   2
 -13  -4  -4 20.7537  6.8724   1
  13  -4   4 21.7421  6.4010   2
  -4  13  -4 15.5945  5.8310   9
 -13  -4  -4 6.39487 5.25543   9
  13   4  -4 14.5842  5.6800   9
  13   4  -4 17.1277  6.6540   6
  13   4  -4 9.10181 6.14241   1
   4  13   4 7.23430 5.72793   2
 -13   5  -4 236.493  11.786   9
   5 -13   4 227.802  12.117   2
  -5 -13  -4 210.017  11.413   9
  13   5   4 204.145  13.388   6
  13   5   4 192.983  11.567   2
   5  13  -4 217.863  12.067   9
 -13  -5   4 211.132  11.811   2
  13  -5  -4 220.213  13.481   1
  -5  13   4 208.576  11.456   2
  13  -5  -4 223.118  11.632   9
  -5 -13  -4 215.511  13.412   1
 -13  -5  -4 236.501  13.358   1
   5 -13  -4 200.306  13.273   1
   5  13   4 206.888  11.297   2
  -5 -13   4 207.804  15.307   3
 -13   5   4 209.030  15.809   7
  13   5  -4 227.017  11.816   9
 -13   5   4 213.051  11.501   2
   5 -13  -4 189.365  11.100   9
 -13  -5  -4 207.810  11.277   9
  13   5  -4 204.164  13.055   6
  13  -5   4 239.662  12.473   2
  -5  13  -4 190.432  11.235   9
  -5  13  -4 208.620  11.346   9
  -5 -13   4 227.062  12.058   2
  13  -6  -4 10.2053  6.7938   1
  13   6   4 9.67088 5.77956   2
  13   6   4 3.44210 6.26326   6
  -6  13   4 8.45174 5.55464   2
   6  13  -4 10.6067  5.8553   9
  -6 -13  -4 3.92240 6.32643   1
  -6 -13  -4 9.24058 5.51539   9
 -13  -6   4 4.98481 5.31128   2
 -13   6  -4 4.84599 5.45844   9
   6 -13   4 -0.6850  5.1877   2
  13  -6  -4 -2.2321  5.3367   9
  -6  13  -4 5.98716 5.35678   9
  13   6  -4 -5.8862  5.8862   6
  -6 -13   4 11.9398  8.2707   3
  -6  13  -4 7.97939 5.99226   9
 -13  -6  -4 6.61243 5.77538   9
  -6 -13   4 -1.4456  5.6445   2
  13   6  -4 0.27057 5.13448   9
 -13  -6  -4 1.99928 7.09225   1
  13  -6   4 9.52052 6.17449   2
 -13   6   4 12.2112  8.0566   7
   6  13   4 4.83942 5.28741   2
   6 -13  -4 8.77101 5.52210   9
 -13   6   4 5.06655 5.48810   2
   6 -13  -4 11.4969  7.0097   1
  13   7   4 628.904  23.602   6
 -13  -7   4 614.371  20.921   2
   7 -13   4 633.708  21.596   2
  13  -7  -4 636.586  20.647   9
  -7 -13  -4 614.565  20.208   9
 -13   7  -4 652.134  20.481   9
   7  13  -4 655.557  20.960   9
  -7  13   4 619.582  20.621   2
  -7 -13  -4 664.146  23.378   1
   7  13   4 651.001  23.933   6
  -7  13  -4 632.453  20.414   9
   7 -13  -4 627.657  22.612   1
  13   7  -4 653.212  22.982   6
  -7  13  -4 638.811  20.735   9
  13  -7   4 598.642  20.908   2
 -13  -7  -4 669.054  20.533   9
   7 -13  -4 665.390  20.682   9
  -7 -13   4 631.572  21.105   2
  13   7  -4 634.735  20.682   9
   7  13   4 622.955  20.616   2
 -13   7   4 665.310  21.042   2
  -7 -13   4 625.604  24.821   3
  14   0   4 963.740  29.686   6
 -14   0  -4 991.628  29.098   1
   0 -14   4 1030.91   33.75   3
   0 -14  -4 991.421  26.690   9
   0 -14   4 988.720  28.074   2
 -14   0  -4 1017.03   26.65   9
   0 -14  -4 1044.59   29.15   1
 -14   0   4 1004.57   29.98   7
   0  14   4 982.558  26.975   2
 -14   0   4 930.151  26.829   2
  14   0   4 939.043  27.112   2
   0 -14   4 956.207  27.548   2
  14   0  -4 983.876  26.774   9
  14   0  -4 1005.36   28.64   1
   0  14  -4 998.735  26.758   9
  14  -1  -4 33.4700  7.9109   1
  14  -1  -4 35.9948  6.8142   9
 -14  -1   4 40.3137  6.9552   2
   1  14  -4 39.0926  6.9066   9
  -1  14   4 46.8047  7.3832   2
  14   1   4 49.0167  7.5785   2
 -14   1  -4 34.7155  6.7131   9
   1 -14   4 51.2726 10.9749   3
  -1 -14  -4 37.6970  6.6280   9
   1 -14   4 21.9782  6.8493   2
  14   1   4 20.9599  7.5352   6
  -1 -14  -4 47.3102  8.3154   1
 -14   1  -4 29.6944  8.0757   1
  14   1  -4 29.4632  6.6689   9
 -14  -1  -4 36.3010  8.0878   1
   1 -14  -4 19.2777  7.5283   1
  14   1  -4 21.4636  7.2833   1
  -1 -14   4 26.1712  6.8990   2
  -1 -14   4 40.6846 10.8561   3
  -1  14  -4 24.1243  6.3726   9
   1  14   4 33.7572  6.8068   2
   1 -14  -4 19.7801  5.9985   9
  14  -1   4 19.9085  6.3506   2
 -14  -1  -4 25.8124  6.4364   9
 -14   1   4 38.4852  6.9074   2
  -1 -14   4 28.6265  7.0665   2
 -14   1   4 47.0194  9.2159   7
  14  -1   4 42.4765  8.3177   6
 -14  -2   4 1618.98   39.02   2
  -2  14   4 1544.31   38.27   2
   2 -14   4 1670.56   44.22   3
  14   2   4 1669.36   42.76   6
  14  -2  -4 1648.89   38.38   9
   2 -14   4 1570.47   39.65   2
  14   2   4 1644.25   39.48   2
  -2 -14  -4 1689.86   41.11   1
 -14   2  -4 1671.35   38.26   9
   2  14  -4 1679.10   38.68   9
  14  -2  -4 1648.96   40.95   1
  -2 -14  -4 1566.40   37.97   9
 -14   2   4 1606.62   39.06   2
  -2 -14   4 1572.46   45.53   3
   2 -14  -4 1659.30   41.04   1
  14  -2   4 1543.01   38.96   2
  14   2  -4 1659.86   38.48   9
  -2  14  -4 1566.29   38.16   9
   2 -14  -4 1608.84   38.09   9
  -2 -14   4 1624.03   39.86   2
 -14   2   4 1627.73   43.28   7
 -14  -2  -4 1633.11   41.07   1
 -14  -2  -4 1618.46   38.10   9
 -14  -3   4 84.9452  8.9195   2
  14   3   4 88.0479 10.6984   6
  14   3   4 86.3462  8.9316   2
   3  14  -4 111.311   9.449   9
  -3 -14  -4 93.7064  8.8154   9
   3 -14   4 104.897   9.681   2
  -3 -14  -4 90.3214 10.3739   1
 -14   3  -4 88.0088  8.7247   9
  -3  14   4 89.3554  8.8535   2
  14  -3  -4 90.5707  9.0711   9
  14   3  -4 90.5139  8.9566   9
   3  14   4 80.8991  8.4457   2
  -3 -14   4 93.8771  9.6027   2
  -3 -14   4 109.416  13.546   3
 -14  -3  -4 86.6871  8.6665   9
 -14   3   4 93.2828  9.1140   2
  14   3  -4 92.4790 10.5078   6
 -14  -3  -4 93.6462 10.6183   1
  14  -3   4 78.6532  8.9044   2
 -14   3   4 89.8031 11.9011   7
   3 -14  -4 98.6252 10.8774   1
  -3  14  -4 83.4692  8.7445   9
   3 -14  -4 105.161   9.169   9
  -4 -14  -4 576.553  19.180   9
   4 -14   4 560.067  19.826   2
  -4  14   4 571.940  19.220   2
 -14  -4   4 577.104  19.695   2
  14   4   4 557.695  19.738   2
  -4 -14  -4 590.049  21.380   1
  14  -4  -4 603.847  19.535   9
   4  14  -4 611.635  19.790   9
  14   4   4 590.120  22.601   6
 -14   4  -4 584.404  19.114   9
   4 -14  -4 567.495  19.031   9
  -4 -14   4 539.921  19.863   2
   4  14   4 562.736  19.344   2
 -14  -4  -4 572.931  19.036   9
  -4 -14   4 551.169  24.493   3
   4 -14  -4 599.952  22.074   1
  14   4  -4 576.976  21.886   6
  14   4  -4 606.999  19.506   9
 -14   4   4 598.318  24.342   7
 -14   4   4 582.779  19.571   2
  14  -4   4 573.594  20.087   2
   0   0   5 1.48418 2.51962   8
   0   0   5 -0.1588  2.3672   3
   0   0   5 0.72593 2.38975   7
   0   0   5 -1.0644  2.2543   5
   0   1   5 0.35799 2.31614   7
   0  -1   5 -3.4067  2.4705   5
   1   0   5 -4.3457  2.2254   5
   0   1   5 -3.2477  2.6041   8
  -1   0   5 -2.5256  2.5976   8
   1   0   5 0.94034 2.64210   7
   0  -1   5 -5.3373  2.5610   8
   1   0   5 -1.9367  2.7212   8
   0  -1   5 -2.4763  2.2922   7
  -1   0   5 1.11077 2.37384   7
   0  -1   5 -1.4884  2.2172   3
  -1   0   5 0.52564 2.54445   3
   0   1   5 -2.4968  2.2032   5
   1   0  -5 -2.3989  1.0048   4
   0   1   5 -3.4433  2.3540   3
   1   0   5 1.17013 2.49546   3
  -1   0   5 -6.6489  2.4417   5
   1   1   5 -3.2032  2.4441   7
  -1   1   5 -2.9580  2.7078   8
   1   1   5 -4.1362  2.6319   8
  -1   1   5 -2.9892  2.5981   7
   1  -1   5 -1.0675  2.7514   8
   1  -1   5 -1.1873  2.1910   3
  -1  -1   5 -0.6026  2.7177   5
  -1   1   5 -3.3109  2.5493   5
   1   1   5 0.84752 2.37500   3
  -1  -1   5 -1.3637  2.2883   3
  -1  -1   5 -4.7688  2.4844   8
   1  -1   5 -1.4940  2.7189   5
  -1  -1  -5 -3.3486  1.0180   4
   1  -1   5 -4.1350  2.5228   7
   1  -1  -5 -2.5944  1.0781   4
  -1  -1   5 -4.7384  2.2066   7
   1   1   5 -5.0437  2.2568   5
  -1   1   5 -3.7031  2.1597   3
   0   2   5 427.505  12.171   8
   2   0   5 438.722  12.044   5
   0   2   5 414.345  11.593   5
  -2   0   5 418.194  12.042   5
  -2   0  -5 428.990   9.562   4
  -2   0  -5 437.708   8.814   1
  -2   0   5 420.506  11.656   3
   0  -2   5 416.087  11.610   3
   0   2   5 437.043  11.620   7
   2   0   5 416.805  11.241   3
   0  -2   5 413.082  11.820   7
   0  -2   5 434.188  11.803   5
   2   0  -5 428.942   9.566   4
   0  -2   5 434.457  12.118   8
  -2   0   5 424.299  11.980   7
   2   0   5 419.444  11.861   7
  -2   0   5 436.520  12.181   8
   2   0   5 440.548  12.212   8
   0   2   5 422.423  11.781   3
  -2   1  -5 3.21456 1.75204   4
  -1   2   5 9.49648 3.03661   7
   2  -1  -5 1.06107 1.43602   1
  -2  -1   5 6.00158 3.11232   5
  -2  -1   5 7.70216 2.90905   3
   1  -2   5 3.18776 2.94284   5
   2   1   5 2.45879 2.61609   5
   2   1   5 7.37358 2.84141   3
  -2  -1   5 1.75186 2.78678   7
   2  -1  -5 4.49416 1.65918   4
  -1   2   5 5.86054 2.85927   3
  -1  -2  -5 4.74065 1.59917   4
  -2  -1   5 10.4286  3.0692   8
  -1   2   5 3.40155 2.52482   5
   1  -2   5 2.97129 2.67315   7
   1   2  -5 6.30037 1.76669   1
   2   1   5 3.86387 2.87097   7
   1  -2   5 3.70223 3.01868   8
  -1  -2  -5 5.10703 1.38970   1
   2   1   5 0.44003 2.60251   8
  -2   1  -5 7.58473 1.68196   1
  -1   2   5 8.55151 3.30873   8
   1  -2   5 1.74601 2.64952   3
  -2   1   5 8.71552 2.79270   3
  -2   1   5 6.30466 2.84939   7
   1   2   5 8.39950 2.86826   7
  -1  -2   5 3.89345 2.63251   5
   2   1  -5 5.61875 1.75672   4
  -1  -2   5 6.97650 2.94907   3
   2  -1   5 4.33749 2.53463   3
   2   1  -5 4.30751 1.63181   1
  -2  -1  -5 1.10633 1.55813   4
  -2   1   5 6.46512 2.92967   5
   2  -1   5 6.52231 3.09476   5
  -2  -1  -5 3.11496 1.47808   1
  -2   1   5 2.43745 3.05665   8
   1  -2  -5 4.89519 1.56904   4
   2  -1   5 10.0250  3.2561   8
  -1  -2   5 7.39742 3.00846   7
  -1  -2   5 4.44236 2.84578   8
   1   2   5 5.41599 2.96850   8
   2  -1   5 5.70985 3.11275   7
   1   2   5 7.01444 2.98277   3
   1   2   5 7.24640 2.87389   5
   1  -2  -5 4.57491 1.39017   1
  -1   2  -5 1.36084 1.65168   1
  -2   2   5 0.37257 2.78891   5
   2   2  -5 -3.6870  1.6807   1
  -2  -2   5 -4.0617  2.1279   7
   2  -2   5 4.37212 3.07610   8
   2  -2  -5 -0.9735  1.5330   1
   2   2   5 2.62148 2.54188   7
  -2  -2   5 -0.8764  2.4390   8
   2   2   5 -0.9574  2.5181   5
  -2   2   5 6.34666 2.80456   3
  -2   2  -5 2.42715 1.77287   1
   2   2  -5 2.89552 1.87196   4
  -2   2   5 0.30741 2.94809   8
  -2  -2  -5 -2.1387  1.5492   4
  -2   2   5 -0.5018  2.7488   7
   2   2   5 -2.0299  2.5562   8
  -2  -2   5 3.55964 2.81738   3
  -2  -2  -5 1.43131 1.58108   1
   2  -2   5 -1.4097  2.2967   3
   2  -2   5 -2.2756  2.6543   5
  -2  -2   5 -0.4445  2.6855   5
   2   2   5 -2.3980  2.4458   3
   2  -2  -5 -1.3528  1.5629   4
   0  -3   5 1.37853 2.59279   3
  -3   0  -5 -2.6369  1.7715   4
  -3   0   5 -0.5819  2.8535   7
  -3   0   5 -1.2471  2.7121   8
   3   0  -5 0.19111 1.85094   4
   3   0  -5 -2.7212  1.6096   1
   0   3   5 -1.3943  2.4814   5
   0   3   5 -4.7343  2.3580   7
   0   3  -5 -5.1206  1.7597   1
   3   0   5 -1.9118  2.2692   3
  -3   0   5 -5.5779  2.3265   3
  -3   0  -5 -3.1389  1.7142   1
   0  -3   5 -1.2693  2.3850   5
   0   3   5 -3.0649  2.7048   3
   0  -3   5 -2.3404  2.6914   8
   0   3   5 0.22300 2.89850   8
   0  -3   5 -1.7791  2.4124   7
   0  -3  -5 -4.7599  1.5108   1
   3   0   5 -0.4485  2.8203   8
  -1   3   5 3.19018 2.91709   8
   1  -3   5 -1.2412  2.5968   8
   3  -1  -5 0.35472 1.80035   1
  -3  -1   5 0.97593 2.44609   3
  -3  -1   5 -0.8071  2.9277   5
   3   1   5 -3.0390  2.3818   3
  -3   1  -5 3.91056 1.98802   1
   1  -3   5 -1.0973  2.6772   5
   3  -1  -5 -2.2979  1.7905   4
  -3   1  -5 -2.7330  1.8105   4
  -1   3   5 -2.2602  2.5998   7
   1   3  -5 -3.5300  1.8464   1
  -1   3   5 -4.6293  2.4743   5
   3   1   5 0.10391 2.78836   8
  -1   3   5 -0.6660  2.4469   3
   1  -3   5 -1.9770  2.5282   3
  -3  -1   5 -0.8797  2.7664   8
  -1  -3  -5 -3.4935  1.5875   4
  -3  -1   5 -4.3875  2.5737   7
  -1  -3  -5 -0.3252  1.7696   1
   3  -1   5 -0.2443  2.3217   3
   1   3   5 -2.8603  2.4673   3
  -3  -1  -5 -2.2312  1.6469   4
  -3   1   5 -1.0436  2.9450   8
   3   1  -5 -2.1183  1.8524   4
  -3   1   5 1.97834 2.81249   7
   1   3   5 -4.5012  2.3514   5
   3  -1   5 -4.1477  2.6875   8
  -1   3  -5 -0.6432  1.8237   1
   3   1  -5 0.61658 1.89623   1
  -3  -1  -5 -1.5830  1.6648   1
  -1  -3   5 -0.7395  2.6431   7
   1   3   5 4.64854 2.64052   7
  -1  -3   5 -3.1958  2.6991   3
  -1  -3   5 -2.6083  2.5917   5
   1  -3  -5 -2.2076  1.7175   1
  -3   1   5 1.25739 2.60409   3
   1   3   5 -2.5047  2.7366   8
  -1  -3   5 -1.8903  2.6417   8
  -3  -2   5 202.554   7.570   8
  -3  -2   5 214.291   7.960   3
  -3  -2   5 211.713   7.823   7
   2   3  -5 210.579   6.558   1
  -3  -2   5 226.116   8.377   5
  -3   2  -5 213.788   6.461   1
  -2  -3  -5 208.233   6.145   1
   2  -3   5 194.672   8.442   8
   3  -2  -5 215.399   6.630   4
   3   2   5 211.059   7.406   6
  -2   3   5 224.156   8.476   7
   3   2   5 213.478   7.876   5
   3   2   5 218.555   7.797   7
   3  -2  -5 205.417   6.237   1
   3   2   5 212.457   8.098   8
   3   2   5 202.620   7.752   3
  -2  -3  -5 224.327   6.694   4
  -2   3   5 220.451   8.097   3
   2  -3   5 213.505   7.613   3
   2   3   5 204.172   8.078   3
   3  -2   5 213.411   7.313   3
  -2  -3   5 192.441   7.874   3
   2   3   5 214.440   8.184   8
  -3   2   5 209.358   8.604   7
  -2  -3   5 221.878   8.059   5
   3  -2   5 213.901   8.744   8
  -2  -3   5 218.671   7.813   8
  -2   3  -5 207.419   6.488   1
   3   2  -5 213.966   6.891   4
   2   3   5 206.633   7.633   6
  -3  -2  -5 216.115   6.288   1
   2  -3  -5 227.157   6.342   1
  -2  -3   5 225.651   8.013   7
  -3   2   5 217.690   7.944   3
   2   3   5 210.428   7.437   7
   2  -3  -5 224.557   6.579   4
   2   3   5 208.436   7.492   5
   3   2  -5 210.799   6.419   1
  -3  -2  -5 217.654   6.632   4
   3  -3   5 -5.8056  2.6707   8
   3  -3  -5 -0.0720  2.1851   4
  -3  -3   5 -1.7341  1.3437   2
  -3  -3   5 -4.3815  2.6025   5
  -3   3   5 -5.1049  2.9187   7
   3   3   5 -3.9605  2.4632   7
  -3   3  -5 -2.9660  1.4289   9
  -3  -3   5 -0.8246  1.3848   2
  -3  -3  -5 -3.8550  2.0546   1
   3   3   5 -1.2414  2.5911   6
   3   3  -5 -1.8913  2.2785   1
  -3   3  -5 -4.6495  2.0634   1
  -3  -3   5 -1.9035  2.6169   7
  -3  -3  -5 -2.3377  2.1567   4
  -3  -3   5 -4.0857  2.7532   3
  -3   3   5 -0.7840  2.6072   3
   3  -3  -5 -0.9014  2.1256   1
   3  -3   5 -3.8621  1.2821   2
   3   3  -5 -2.0154  2.2462   4
   3   3   5 -1.9613  2.8680   3
  -3  -3   5 -1.4851  2.5586   8
   3  -3   5 -0.5504  1.3386   2
   3   3  -5 -5.2574  1.4617   9
   3   3   5 0.40369 2.75731   8
   3   3   5 -5.6864  2.6737   5
   3  -3   5 -1.2532  2.3230   3
   4   0   5 224.476   7.474   3
  -4   0  -5 222.715   7.117   4
   0   4  -5 225.356   7.030   1
   0   4   5 226.019   8.006   7
   0   4   5 231.838   7.978   5
   4   0  -5 233.465   4.929   9
   4   0   5 216.955   8.658   8
   0  -4   5 224.159   8.168   7
   0   4   5 204.232   8.618   8
   0  -4   5 228.208   8.659   3
  -4   0  -5 223.801   6.844   1
   0   4   5 214.114   8.333   3
   0  -4   5 220.246   8.135   5
  -4   0   5 222.165   8.577   8
   0  -4   5 220.370   5.201   2
  -4   0   5 221.551   8.065   3
   0  -4  -5 224.663   6.602   1
   4   0  -5 218.998   6.797   1
   4   0  -5 223.370   7.115   4
   0   4  -5 225.634   5.528   9
   0  -4   5 232.351   8.533   8
  -4   0   5 215.287   8.725   7
   1  -4   5 4.34399 1.46433   2
   1  -4   5 0.85549 3.09900   8
   4  -1  -5 3.88620 2.33930   4
  -1  -4  -5 0.79320 2.15312   1
   4  -1  -5 -0.2596  2.2045   1
   4   1   5 1.31557 2.87555   8
  -4   1  -5 1.27872 1.30511   9
  -4  -1   5 4.31602 2.63039   3
  -1   4   5 3.34648 2.78212   5
   1  -4   5 3.74531 3.00118   3
  -1   4   5 -0.5513  2.9829   3
  -4   1  -5 4.75955 2.34967   1
  -4  -1   5 6.10835 3.20000   7
   1   4  -5 2.48850 2.37457   1
   1  -4   5 8.55698 1.50475   2
   4   1   5 3.12959 2.76272   3
  -1  -4  -5 2.63576 2.20152   4
   1  -4   5 1.26268 2.88823   5
   1   4  -5 3.37853 1.62648   9
  -4  -1   5 3.42822 2.91588   8
  -1   4   5 2.23952 2.79067   7
  -4   1  -5 4.23983 2.28832   4
   4  -1  -5 2.50605 1.18234   9
   4   1  -5 3.91855 2.29566   1
   4   1  -5 -0.0588  2.1082   4
  -1  -4   5 6.45353 1.50013   2
   1   4   5 1.96118 3.03630   8
  -1   4  -5 5.91577 1.64013   9
   1   4   5 0.29910 2.40955   5
  -4  -1  -5 5.51987 2.31719   1
  -4  -1  -5 3.84714 2.19119   4
   4  -1   5 2.54474 3.19193   8
   4   1  -5 3.17244 1.45076   9
  -4   1   5 2.89614 3.03795   7
   1   4   5 7.77156 3.48035   3
   1   4   5 4.22824 2.68727   7
  -4   1   5 2.29396 2.63723   3
  -1  -4   5 2.93806 2.73137   7
  -1  -4   5 9.43645 3.05803   5
   4  -1   5 4.35563 2.56578   3
  -1  -4   5 3.68428 1.43470   2
  -1  -4   5 3.16401 2.74435   8
  -1  -4   5 4.99201 2.99488   3
   1  -4  -5 4.48110 2.26206   1
  -1   4  -5 2.67587 2.38127   1
  -4  -2   5 321.663   9.959   8
  -4  -2   5 320.754  10.381   3
  -2   4   5 318.356  10.582   3
  -2  -4  -5 323.516   8.764   1
   4   2   5 330.440  10.072   6
   2  -4   5 327.108  10.105   3
   4   2   5 324.132  10.401   8
  -4   2  -5 305.422   9.432   4
   4  -2  -5 322.942   7.171   9
  -4   2  -5 314.664   9.085   1
  -4   2  -5 322.558   7.587   9
   4   2   5 311.157   9.919   3
   2   4  -5 313.289   9.120   1
   4  -2  -5 321.524   9.218   4
   2   4  -5 320.325   7.774   9
  -2   4   5 321.656  10.627   7
   4  -2  -5 308.996   8.798   1
   2  -4   5 333.277   7.682   2
   2  -4   5 326.260  11.170   8
  -4  -2   5 307.457  10.109   7
  -4  -2   5 325.657   7.288   2
  -2  -4  -5 327.411   9.307   4
   2   4   5 329.943   9.449   7
  -4  -2  -5 313.511   8.856   1
  -2  -4   5 323.517  10.012   7
  -2  -4   5 335.108   9.779   8
   2  -4  -5 329.605   9.268   4
   4  -2   5 317.093   7.259   2
   4   2  -5 324.285   7.667   9
   4  -2   5 312.448  10.959   8
   2   4   5 318.179  10.324   6
   2  -4  -5 322.924   8.754   1
  -4   2   5 312.545  11.148   7
   4  -2   5 322.931   9.097   3
   4   2  -5 327.018   9.497   4
   4   2  -5 314.515   9.025   1
  -4  -2  -5 316.960   9.163   4
  -2  -4   5 287.220  10.514   3
   2   4   5 311.867  10.752   3
  -4   2   5 327.514  10.083   3
  -2  -4   5 310.365   9.885   5
   2   4   5 339.008   9.625   5
  -4  -2  -5 317.558   7.099   9
  -2   4  -5 309.521   9.076   1
   2   4   5 314.591  10.302   8
   3   4  -5 11.7870  2.4203   9
  -4  -3   5 8.10263 3.14649   7
   4   3   5 7.79504 1.56418   2
  -4  -3   5 8.28543 3.05435   8
   3   4  -5 10.2878  2.9029   1
  -4   3  -5 14.3678  2.3015   9
   4   3   5 9.20397 3.23000   8
  -3   4   5 8.29646 1.38400   2
   3   4  -5 9.04458 2.87366   1
   3  -4   5 15.8222  3.2447   3
  -3   4   5 7.91358 3.70258   7
  -3  -4  -5 11.6227  2.9743   4
  -3   4   5 9.46904 3.42388   3
   4   3   5 6.97182 1.53012   2
   3  -4   5 9.12942 2.22058   2
  -3   4   5 9.16858 1.37400   2
  -3  -4  -5 6.55697 2.69973   1
   4   3   5 10.6729  3.5568   3
  -4   3  -5 12.6166  2.9707   1
   4  -3  -5 13.8215  2.8243   1
  -3  -4  -5 9.61570 1.96579   9
   4  -3  -5 6.95556 1.97390   9
  -4  -3   5 9.84072 3.50590   5
   3  -4   5 9.52236 3.75927   8
  -4  -3   5 12.8956  3.4422   3
   4  -3  -5 7.43004 2.68717   4
  -4  -3   5 14.4727  2.2220   2
   4   3   5 4.85432 3.04915   6
  -4   3   5 0.83525 2.90267   3
  -4   3   5 8.47018 1.60461   2
   3   4   5 11.2838  1.4220   2
  -3  -4   5 11.1249  3.2179   7
  -4  -3  -5 12.0682  2.8771   1
  -4   3   5 9.29028 1.61321   2
   4  -3   5 10.8959  2.9244   3
  -3  -4   5 5.39324 2.01387   2
  -4  -3  -5 8.35157 1.98329   9
  -3  -4   5 13.8402  3.3979   5
  -3  -4   5 8.37839 2.99954   8
   4   3  -5 8.46021 2.88494   4
   3  -4  -5 11.9680  2.1027   9
   3   4   5 6.99352 2.93650   7
  -3   4  -5 9.27229 2.87814   1
   4   3  -5 9.81932 2.79771   1
   4   3  -5 10.9898  2.3891   9
   3  -4  -5 10.6529  2.7694   1
   3   4   5 8.93191 1.33769   2
  -3  -4   5 4.66137 3.17611   3
   4  -3   5 8.04536 3.93496   8
  -4   3   5 15.9378  4.2379   7
   3  -4  -5 7.55218 2.63308   4
   3   4   5 8.93566 3.21931   8
  -4  -3  -5 8.48256 2.81776   4
   3   4   5 8.00290 3.37516   3
   4  -3   5 10.7950  2.2346   2
   3   4   5 8.43371 3.25906   6
  -3   4  -5 15.1892  2.4511   9
  -4   4   5 -0.9021  2.8148   3
  -4  -4  -5 2.43258 2.62985   4
   4   4   5 1.67889 1.79814   2
   4  -4  -5 1.85330 2.13517   9
   4   4  -5 0.06257 2.58762   1
  -4  -4  -5 3.59233 2.13113   9
   4  -4   5 0.37114 2.46120   3
  -4  -4   5 0.77207 2.51194   8
   4  -4  -5 2.31508 2.61537   4
   4   4  -5 0.94233 2.27314   9
  -4  -4  -5 2.30061 2.59916   1
   4   4   5 -0.3168  2.7799   8
   4  -4   5 3.73755 2.28731   2
  -4  -4   5 3.16745 3.22099   5
  -4   4  -5 -1.7686  2.5481   1
  -4   4  -5 1.99159 2.25334   9
   4  -4  -5 -2.0441  2.4268   1
  -4   4   5 0.39197 3.32895   7
   4   4   5 -1.9305  2.9549   6
  -4  -4   5 0.35173 2.86047   3
   4   4  -5 3.07238 2.82569   4
  -4  -4   5 3.84396 2.81485   7
  -4  -4   5 3.92538 2.23067   2
  -4   4   5 2.84920 1.87959   2
   4  -4   5 3.83165 3.89824   8
  -5   0   5 -0.7134  1.6713   2
   0  -5   5 -5.2406  2.9361   3
   5   0  -5 -1.0003  2.4535   1
   0   5  -5 1.39088 2.00067   9
   0   5   5 -3.9703  3.1520   3
   5   0   5 -1.0821  1.6518   2
   0   5  -5 0.59470 2.42127   1
   5   0   5 -8.6132  2.6876   8
   0  -5   5 -1.2861  1.9083   2
   5   0  -5 -3.5382  1.7655   9
   5   0   5 -2.1198  2.3262   3
   0   5   5 3.16998 2.87277   7
   5   0  -5 -3.1227  2.2564   4
   0  -5  -5 -3.1470  1.6103   9
   5   0   5 0.03059 2.56399   6
   0   5   5 -2.0092  2.3959   5
  -5   0  -5 -3.7862  1.7303   9
  -5   0  -5 -0.0988  2.3928   4
   0  -5  -5 -2.1867  2.3553   1
   0  -5   5 -5.0083  2.8625   8
  -5   0  -5 -0.1180  2.3670   1
   0  -5   5 -1.7071  2.7113   5
  -5   0   5 -4.8746  3.0383   7
  -5   0   5 0.41769 2.76059   3
   5   1   5 33.4481  2.6187   2
  -5  -1   5 36.5794  2.8374   2
  -5  -1   5 35.5374  4.6910   7
   5   1   5 34.3324  4.1466   6
  -1   5   5 40.9672  4.4155   7
   5  -1  -5 28.6444  3.4251   1
   5   1   5 36.6740  4.6005   8
  -5  -1   5 38.3706  4.2878   3
  -1   5   5 23.1132  4.2717   3
  -1   5   5 31.6383  1.7760   2
  -1  -5  -5 30.7631  2.5779   9
  -5   1  -5 30.7594  2.7595   9
  -1  -5  -5 27.9742  3.4097   1
   1  -5   5 32.8533  3.0370   2
   1   5  -5 27.2428  3.6155   1
   1  -5   5 30.6343  2.9234   2
   1  -5   5 33.0890  4.6168   3
   1   5  -5 40.8626  3.3284   9
   1  -5   5 34.2108  4.2968   5
  -1  -5  -5 30.3355  3.6559   4
   5   1   5 38.8558  4.0273   3
  -5   1  -5 28.4052  3.6132   1
   1  -5   5 37.5704  4.7248   8
  -5   1  -5 36.3493  3.9054   4
  -1   5   5 28.8841  1.6683   2
  -1   5   5 36.4374  4.1494   5
   5  -1  -5 32.9429  3.6367   4
   5  -1  -5 36.5457  2.9364   9
   1  -5  -5 28.8934  3.4463   1
  -1  -5   5 29.7537  2.8693   2
   1   5   5 34.8438  3.8691   7
  -1  -5   5 33.5617  4.2292   8
   5  -1   5 31.9819  3.5351   3
  -1  -5   5 38.0143  4.8680   3
  -1   5  -5 39.3705  3.2373   9
   5   1  -5 34.6518  2.9546   9
   5   1  -5 35.7355  3.6679   1
  -1  -5   5 26.1527  3.9291   7
  -5   1   5 30.5002  4.7953   7
   1   5   5 27.0827  1.6778   2
  -5  -1  -5 27.1560  3.5233   1
  -1  -5   5 32.7788  4.0016   5
   5  -1   5 29.1727  4.6151   8
  -5  -1  -5 34.4548  3.6963   4
  -5  -1  -5 31.6536  2.8533   9
   1   5   5 28.0746  4.4573   3
   1   5   5 36.4711  3.8317   5
   1  -5  -5 32.3978  2.6152   9
   5  -1   5 36.1589  2.8342   2
  -1   5  -5 33.7265  3.8352   1
   1   5   5 32.0287  4.5078   8
  -5   1   5 33.0522  2.5754   2
   1   5   5 31.9446  1.7685   2
   5   1  -5 32.6109  3.7816   4
  -5   1   5 35.5430  4.0524   3
  -5  -2   5 2.19409 3.06879   3
  -5   2  -5 4.31384 2.17108   9
   2   5  -5 -0.4433  2.5235   1
   5   2   5 4.47498 1.90876   2
   2  -5   5 3.02716 3.19389   8
  -2   5   5 0.50064 3.20887   3
  -2   5   5 1.23645 3.25251   7
  -5  -2   5 2.27848 3.18058   7
  -5  -2   5 3.50680 1.91121   2
  -2  -5  -5 2.72971 2.47556   1
   5  -2  -5 2.80097 2.58517   4
  -2   5   5 1.83299 1.58926   2
   2  -5   5 5.01687 3.01709   3
  -2  -5  -5 6.03499 2.01491   9
  -2  -5  -5 4.77203 2.63368   4
   5   2   5 3.71538 3.13216   6
  -5   2  -5 -1.2380  2.4277   1
   2  -5   5 -0.2311  2.0591   2
  -5   2  -5 5.60197 2.84657   4
   5  -2  -5 2.63460 2.01975   9
   2   5  -5 2.52601 2.23998   9
   5  -2  -5 0.26229 2.39022   1
   5   2   5 6.75154 3.19562   3
   5   2   5 1.21540 2.80848   8
  -2   5  -5 2.06008 2.15581   9
  -5   2   5 2.82201 2.96371   3
   2   5   5 3.57008 2.60715   5
  -2  -5   5 3.42708 2.79778   5
  -2  -5   5 -3.6698  2.4822   7
   5  -2   5 3.10793 2.12159   2
   5  -2   5 4.38681 3.45641   8
   5   2  -5 1.63506 2.11065   9
  -2   5  -5 7.06025 2.82489   1
   2   5   5 0.32484 3.06588   6
  -5   2   5 5.27546 1.91490   2
   2  -5  -5 2.27851 2.68254   1
   2  -5  -5 5.35861 2.61722   4
  -2  -5   5 1.68476 2.55622   8
   5  -2   5 8.05691 2.67700   3
   5   2  -5 0.65926 2.51684   1
   2   5   5 6.39718 1.66602   2
  -5  -2  -5 2.27687 1.95621   9
  -5  -2  -5 9.07005 2.87562   4
  -5  -2  -5 6.27450 2.68843   1
   2   5   5 2.40027 3.06613   8
  -2  -5   5 2.38118 2.98095   3
  -5   2   5 1.48069 3.32642   7
   2   5   5 4.66390 2.59009   7
   5   2  -5 2.42840 2.64685   4
   2  -5  -5 6.71728 2.08131   9
  -2  -5   5 4.33446 2.15996   2
   5  -3  -5 0.69314 2.68570   4
   5   3   5 4.58784 3.18164   6
  -5  -3   5 3.04097 2.96482   3
   3   5  -5 6.75997 2.49651   9
  -3  -5  -5 -2.4875  2.3879   1
   5   3   5 2.25141 2.87235   8
  -3   5   5 2.79159 3.52046   7
  -5  -3   5 4.27868 2.87590   8
  -3   5   5 6.46063 2.03993   2
   5   3   5 2.97550 1.99844   2
  -3   5   5 6.93363 3.52898   3
   3   5  -5 1.20959 2.77318   1
   3  -5   5 1.31776 2.20960   2
  -5   3  -5 -0.3062  2.5598   4
  -5  -3   5 4.87539 2.27903   2
   5  -3  -5 6.38240 2.76796   1
   5  -3  -5 5.16729 2.33083   9
   3   5  -5 8.02754 2.53689   9
  -5   3  -5 6.97021 2.37821   9
  -5  -3   5 2.47069 2.90178   7
   3  -5   5 4.04940 3.11774   3
  -3  -5  -5 5.91097 2.27838   9
   3  -5   5 9.59320 4.17993   8
  -5   3  -5 1.78891 2.78865   1
  -3  -5  -5 2.29630 2.81766   4
   3   5   5 -0.7396  2.4339   7
   5  -3   5 0.78686 3.79031   8
  -3   5  -5 -0.4798  2.7285   1
  -3  -5   5 8.47675 3.22124   7
  -3  -5   5 3.43225 3.09392   5
  -3  -5   5 0.41903 3.08395   3
  -3  -5   5 5.52081 2.87808   8
   5   3  -5 5.00165 2.79674   4
   3   5   5 7.27643 3.15825   8
   5   3  -5 4.96592 2.39849   9
  -5   3   5 7.02991 2.12259   2
  -5   3   5 4.12289 4.05669   7
   5  -3   5 8.06845 2.46304   2
   3  -5  -5 4.35527 2.73156   1
  -3  -5   5 0.43705 2.17983   2
   3  -5  -5 8.81789 2.36672   9
   3  -5  -5 -2.2652  2.3852   4
   3   5   5 1.12586 1.92891   2
  -3   5  -5 5.83234 2.39070   9
  -5   3   5 5.15365 2.95973   3
   3   5   5 3.17383 3.23064   6
  -5  -3  -5 -0.1825  2.6101   1
  -5  -3  -5 2.24939 2.22691   9
  -5  -3  -5 2.98952 2.61603   4
   5   3  -5 3.72174 2.80981   1
   5  -4  -5 20.7054  3.6522   4
  -4  -5  -5 25.9283  4.0032   4
  -5  -4   5 20.6094  4.4214   3
   5   4   5 21.0219  4.2135   6
  -4   5   5 23.5725  4.1665   3
  -5   4  -5 20.1905  3.8373   1
  -4  -5  -5 17.7220  3.5232   1
   4   5  -5 21.5979  3.6641   1
   5   4   5 23.3892  3.9262   8
   5  -4  -5 20.1292  3.6222   1
   4  -5   5 16.9059  3.4685   3
   5  -4  -5 21.1860  3.0944   9
  -5   4  -5 18.3714  3.0270   9
  -4   5   5 22.3453  2.8786   2
  -5  -4   5 20.1086  3.1816   2
   4  -5   5 23.3262  5.2365   8
  -4  -5  -5 12.6631  2.8961   9
  -5  -4   5 14.4775  3.6102   7
   4   5  -5 19.8257  3.1608   9
   4  -5   5 21.2980  3.2618   2
  -4   5   5 24.8212  5.0379   7
  -5  -4   5 16.0002  4.0394   5
   5   4   5 17.4874  2.7402   2
   4   5  -5 21.5372  3.6964   1
  -4   5  -5 19.9701  3.8052   1
   4  -5  -5 20.7162  3.7359   4
  -5   4   5 22.7011  4.8870   7
  -4  -5   5 18.8560  3.8996   5
  -5  -4  -5 19.6161  3.7262   1
   4  -5  -5 25.5244  3.2367   9
  -4  -5   5 17.7899  3.4629   7
   4   5   5 19.8355  2.8167   2
   4   5   5 16.9318  3.5438   8
  -5   4   5 16.3990  2.8826   2
  -4  -5   5 22.3955  4.7155   3
   5   4  -5 20.4190  3.6253   1
  -4  -5   5 20.6430  3.2081   2
   5   4  -5 20.9484  3.6325   6
   5   4  -5 14.5007  3.5751   4
   4   5   5 18.4367  4.2408   6
   5  -4   5 28.2453  5.0842   8
  -4   5  -5 21.6961  3.1754   9
  -5  -4  -5 22.6590  3.6969   4
  -5  -4  -5 16.1753  2.8616   9
   5   4  -5 18.7662  3.2806   9
   5  -4   5 17.4115  3.2018   2
   4  -5  -5 16.0152  3.4811   1
  -5   4   5 18.2515  3.9684   3
   5  -5  -5 -1.5906  2.6616   9
   5   5  -5 -2.4680  2.7722   9
   5  -5   5 -1.0798  2.6833   2
   5  -5  -5 -0.7520  3.0728   1
   5   5   5 -1.8147  2.4085   2
  -5  -5   5 2.60970 3.25053   5
  -5   5   5 -0.0004  2.4827   2
   5   5  -5 -1.7722  3.1370   1
  -5   5   5 4.56701 4.68303   7
  -5  -5  -5 -2.8412  3.1459   4
   5   5   5 2.36754 3.56974   6
  -5  -5  -5 -1.8039  3.0214   1
  -5  -5   5 -2.9388  3.5662   3
   5   5  -5 -2.4652  3.0918   1
  -5   5  -5 -2.0324  2.4019   9
   5   5   5 2.42895 3.21173   8
  -5  -5   5 2.09051 3.14091   7
  -5  -5  -5 4.35822 2.72590   9
  -5   5   5 3.63680 3.39115   3
  -5  -5   5 -1.3694  2.5749   2
  -5   5  -5 1.23879 3.19332   1
   0  -6   5 412.728  11.010   2
   0   6  -5 411.207  10.943   9
   0   6  -5 399.267  11.974   1
   0  -6   5 411.413  13.570   3
   0  -6  -5 424.259  10.424   9
   0  -6   5 420.228  12.240   5
   6   0   5 444.568  13.539   8
   0  -6  -5 422.490  11.839   1
  -6   0   5 415.747  13.459   7
   6   0   5 437.244  12.497   6
  -6   0   5 428.521  10.595   2
   6   0  -5 447.067  12.451   4
  -6   0   5 413.339  12.062   3
   6   0  -5 436.013  11.903   1
   6   0  -5 446.674  10.967   9
  -6   0  -5 424.975  12.384   4
  -6   0  -5 406.254  11.730   1
  -6   0  -5 419.313  10.678   9
   0   6   5 423.453  10.053   2
   6   0   5 428.630  10.672   2
   0   6   5 439.669  11.887   7
   0  -6   5 436.417  12.877   8
   0   6   5 424.411  11.460   5
  -6  -1   5 8.14305 3.45340   7
   1  -6   5 3.68413 2.55849   2
   1  -6   5 1.76787 2.49288   2
  -1   6   5 1.07322 2.79490   5
   6   1   5 9.59340 3.47757   8
  -1  -6  -5 5.29828 2.36074   9
  -6   1  -5 4.36910 2.89602   4
   1  -6   5 4.04063 3.80830   3
   6   1   5 4.72453 3.11147   6
  -1  -6  -5 0.10469 2.53621   4
   6   1   5 3.13112 2.79220   3
  -6   1  -5 1.80525 2.32493   9
   1  -6   5 0.26523 3.38700   8
   1   6  -5 5.88878 3.07179   1
   6  -1  -5 1.14563 2.73626   1
   6  -1  -5 4.22461 2.78816   4
  -1   6   5 1.82215 1.98145   2
  -1   6   5 4.21267 3.69172   3
  -6  -1   5 3.89399 2.17555   2
  -1   6   5 -1.0695  3.0133   7
  -6  -1   5 2.37186 2.97308   3
   1   6  -5 2.77959 2.48239   9
   6  -1  -5 -1.4026  2.2205   9
  -6   1  -5 2.80176 2.86653   1
   6   1   5 2.92532 2.30855   2
  -1  -6  -5 1.86608 2.87595   1
  -6  -1  -5 -2.5899  2.3092   9
  -1  -6   5 10.7289  3.3960   8
  -6   1   5 6.51728 4.00477   7
   1   6   5 1.84584 2.00719   2
  -1  -6   5 3.98769 3.83248   3
   6  -1   5 5.40496 3.33787   8
   6  -1   5 5.92035 3.02653   6
   6   1  -5 2.05113 2.78414   1
  -6   1   5 4.78348 2.33564   2
   1   6   5 0.62848 2.52938   7
  -6  -1  -5 3.23885 2.83136   4
  -6  -1  -5 -0.1532  2.7620   1
  -1  -6   5 -0.0660  2.7284   5
  -1  -6   5 1.46339 2.49629   2
   6  -1   5 -0.1397  2.2550   2
   1  -6  -5 5.49340 2.41869   9
   6   1  -5 3.94483 2.50178   9
  -1   6  -5 1.06064 2.87945   1
  -6   1   5 3.84906 3.02165   3
   6   1  -5 -1.8216  2.5278   4
   1  -6  -5 0.44962 2.82083   1
  -1   6  -5 3.22159 2.51316   9
   6  -2  -5 200.942   7.071   9
   2  -6   5 199.061   7.307   2
  -2  -6  -5 203.574   6.848   9
   2  -6   5 222.681   9.211   3
  -2   6   5 227.275   8.960   7
   6   2   5 202.790   8.405   8
  -2  -6  -5 209.628   7.978   1
  -6  -2   5 212.509   8.959   7
   6  -2  -5 209.381   7.993   1
   6  -2  -5 217.204   8.455   4
   6   2   5 215.207   8.967   6
  -2   6   5 211.620   9.578   3
   6   2   5 206.902   6.812   2
  -2   6   5 210.455   6.463   2
  -6  -2   5 216.351   7.114   2
  -6   2  -5 211.975   8.473   4
  -6   2  -5 198.020   8.101   1
  -6  -2   5 213.795   8.542   3
  -6   2  -5 215.797   7.250   9
   2   6  -5 221.163   8.308   1
  -2  -6  -5 216.607   8.191   4
   2  -6   5 208.133   9.764   8
   2   6  -5 225.322   7.516   9
  -2  -6   5 208.799   8.058   7
   2  -6  -5 223.592   7.050   9
  -2  -6   5 221.352   8.007   8
  -2   6  -5 220.085   8.355   1
  -2  -6   5 196.609   7.932   5
   6   2  -5 207.926   8.377   4
  -6   2   5 202.972   7.966   3
  -2  -6   5 213.915   9.523   3
  -6  -2  -5 206.154   6.874   9
   2  -6  -5 197.503   7.827   1
   6  -2   5 214.495   7.150   2
   6   2  -5 197.953   7.992   1
   6  -2   5 201.449   9.758   8
  -6  -2  -5 210.356   8.137   4
  -6   2   5 229.371   7.005   2
   2   6   5 206.901   6.480   2
  -2  -6   5 214.861   7.340   2
   6   2  -5 197.482   7.222   9
  -2   6  -5 212.555   7.232   9
  -6  -2  -5 199.813   7.981   1
  -6   2   5 197.321  10.024   7
   3  -6   5 143.975   6.306   2
   6  -3  -5 142.414   7.141   4
   6  -3  -5 136.447   5.922   9
   6   3   5 133.775   6.759   8
  -6   3  -5 136.039   7.002   1
  -6  -3   5 144.209   5.990   2
  -6  -3   5 134.108   7.144   7
   3  -6   5 147.881   8.927   8
   6   3   5 133.279   7.459   6
  -3  -6  -5 128.057   6.915   4
  -3   6   5 130.508   7.840   3
  -6   3  -5 138.710   7.112   4
   3   6  -5 138.222   6.828   1
   3  -6   5 131.156   7.189   3
   3   6  -5 128.376   5.965   9
  -3   6   5 142.271   7.902   7
  -6   3  -5 133.239   5.811   9
  -3  -6  -5 134.152   6.652   1
  -3  -6  -5 141.450   5.872   9
   6   3   5 122.953   5.524   2
   6  -3  -5 133.589   6.685   1
  -3   6   5 140.300   5.478   2
  -6  -3   5 146.803   7.544   3
   3  -6  -5 125.053   5.695   9
   3   6   5 143.289   7.066   8
   3   6   5 142.696   5.540   2
  -3  -6   5 138.060   6.728   5
   6  -3   5 139.384   6.110   2
   6   3  -5 134.931   6.132   9
   3  -6  -5 142.424   7.144   4
  -3  -6   5 144.788   6.289   2
   6   3  -5 141.491   6.973   1
  -6  -3  -5 126.023   6.643   1
  -6  -3  -5 140.606   6.078   9
  -3  -6   5 136.127   6.667   7
  -6  -3  -5 134.564   6.892   4
   6  -3   5 139.514   8.730   8
  -3   6  -5 138.372   6.153   9
   3   6   5 153.960   8.114   6
  -6   3   5 129.642   6.538   3
  -6   3   5 119.390   8.334   7
  -3  -6   5 127.523   8.303   3
  -6   3   5 137.387   5.673   2
   3  -6  -5 134.638   6.694   1
  -3   6  -5 139.902   7.171   1
  -6  -4   5 190.918   9.086   3
   6  -4  -5 211.801   8.601   1
   6   4   5 191.295   7.122   2
  -4   6   5 211.545   9.436   3
   4  -6   5 207.108   7.947   2
  -6   4  -5 210.126   7.614   9
  -4  -6  -5 189.199   8.228   1
  -4   6   5 212.836   7.354   2
  -6  -4   5 198.471   8.498   7
   4  -6   5 200.284   8.115   3
  -4  -6  -5 213.827   8.909   4
   6  -4  -5 212.268   7.630   9
   4   6  -5 204.650   7.971   9
  -6  -4   5 204.435   7.467   2
   6   4   5 210.707   9.465   6
  -4  -6  -5 215.924   7.532   9
   4   6  -5 206.551   8.572   1
  -6   4  -5 188.381   8.512   1
   6   4   5 215.330   8.277   8
  -4   6   5 189.490   9.763   7
  -6   4   5 200.349   7.321   2
   4   6   5 204.489   8.532   8
   6   4  -5 188.900   8.365   1
  -4  -6   5 202.429   9.798   3
  -4   6  -5 213.606   7.862   9
  -6  -4  -5 219.192   7.690   9
   6  -4   5 221.004   7.995   2
  -6   4   5 207.786  10.690   7
   6   4  -5 214.377   7.883   9
   6   4  -5 213.816   8.580   6
  -4  -6   5 192.983   8.158   5
   6  -4   5 193.472  10.649   8
   4   6   5 206.354   7.260   2
  -6  -4  -5 215.465   9.030   4
  -4   6  -5 200.544   8.656   1
   4  -6  -5 208.402   7.549   9
  -6   4   5 209.085   8.635   3
   4   6   5 204.992   9.551   6
   4  -6  -5 199.364   8.391   1
  -4  -6   5 204.790   7.676   2
  -4  -6   5 201.234   8.000   7
  -6  -4  -5 204.099   8.408   1
   6   5   5 20.3835  4.7971   6
   6   5   5 20.4159  3.5592   2
  -5   6   5 18.4234  3.5851   2
   5  -6   5 24.3269  4.0314   2
  -6   5  -5 21.9992  4.5652   1
  -6  -5   5 24.2563  4.2294   7
  -6   5  -5 20.1556  3.6451   9
  -5  -6  -5 25.2955  4.3710   1
  -6  -5   5 22.7422  4.6661   5
  -6  -5   5 23.9972  3.7997   2
  -5  -6  -5 19.9110  4.5800   4
  -5   6   5 24.8511  5.6815   7
   6  -5  -5 18.5275  4.2964   1
   6  -5  -5 25.4410  4.0245   9
   5   6  -5 23.3602  4.4942   1
   5   6  -5 17.4838  3.7988   9
  -5  -6  -5 16.6774  3.3818   9
  -5   6   5 28.7992  4.9771   3
  -6  -5   5 15.1306  4.6007   3
   6   5  -5 14.4087  4.2339   1
  -6   5   5 22.3379  4.4508   3
   5   6   5 20.8157  3.5909   2
   5  -6  -5 24.5726  3.8499   9
  -5  -6   5 26.6415  5.1336   3
  -6  -5  -5 27.3787  3.9647   9
  -5  -6   5 20.3752  3.7885   2
  -5  -6   5 26.1337  4.4752   5
  -6  -5  -5 19.6334  4.2985   1
  -5   6  -5 20.8047  3.6670   9
  -6  -5  -5 18.0718  4.2192   4
   5   6   5 20.0140  4.8825   6
   6  -5   5 23.4506  4.0537   2
   6   5  -5 20.1744  4.4987   1
  -5   6  -5 21.4596  4.6002   1
  -6   5   5 23.2407  6.0672   7
   5  -6  -5 26.4511  4.2817   1
  -6   5   5 16.2071  3.4789   2
   6   5  -5 19.8244  3.7842   9
  -6  -6   5 4.20442 3.26741   2
  -6   6   5 4.48979 4.01372   3
  -6   6   5 -9.5392  4.2374   7
   6   6   5 4.32041 4.30174   6
  -6  -6   5 9.27664 3.89232   5
  -6  -6   5 -3.2312  4.1247   3
  -6   6   5 2.08367 3.19513   2
   6  -6  -5 -3.2136  3.1500   9
  -6   6  -5 -0.1931  3.7326   1
  -6  -6  -5 0.28763 3.76423   1
  -6  -6  -5 -1.9023  2.9946   9
  -6   6  -5 0.27683 3.10661   9
   6  -6  -5 -3.2175  3.6522   1
   6  -6   5 0.06046 3.38606   2
   6   6   5 0.76864 3.02107   2
   6   6  -5 1.77755 3.31351   9
   6   6  -5 5.78640 3.70466   1
   7   0  -5 0.76702 2.74061   9
   7   0   5 1.60083 2.63383   2
   7   0   5 0.16727 3.56274   8
   0  -7  -5 3.09516 3.16852   1
   0  -7   5 -0.7649  2.7501   2
   0  -7   5 0.58401 3.75317   3
   7   0  -5 2.66192 3.16472   1
   0  -7  -5 -0.6222  2.5209   9
   0   7  -5 -2.3945  2.6332   9
   0  -7   5 -1.0884  3.2301   8
  -7   0   5 -2.3494  3.6561   7
   0   7   5 1.85221 2.40252   2
   0  -7   5 3.09070 2.96210   2
  -7   0   5 -0.3514  2.7757   3
  -7   0  -5 1.62029 2.64573   9
  -7   0   5 0.95617 2.49051   2
   0   7  -5 1.35702 3.01213   1
   7   0   5 -2.5434  3.3753   6
  -7   0  -5 3.69244 3.27897   1
  -7   0  -5 0.20488 3.05111   4
   7   1   5 89.9609  6.4716   8
  -1  -7  -5 92.6254  5.9990   1
   1  -7   5 80.9014  7.1906   3
   7  -1  -5 73.7004  5.8675   1
   7   1   5 84.7536  6.1886   6
   1  -7   5 78.7276  6.9057   8
  -1  -7  -5 74.7565  6.0069   4
  -7  -1   5 97.7825  5.1822   2
  -1   7   5 83.4109  5.9639   7
   7  -1  -5 94.6470  5.4099   9
  -1  -7  -5 81.8946  4.9108   9
  -7   1  -5 99.0622  6.2522   1
   1   7  -5 85.2896  5.1389   9
   7   1   5 85.1994  5.1866   2
  -7  -1   5 85.1956  7.1429   7
  -7   1  -5 89.4348  6.1464   4
  -1   7   5 90.2486  4.8387   2
   1   7  -5 89.9240  5.9880   1
  -7   1  -5 85.8072  5.1690   9
   1  -7   5 82.0886  5.3747   2
  -7  -1   5 90.5113  6.1046   3
  -7  -1  -5 100.757   6.498   4
  -1  -7   5 79.4898  5.1934   2
  -7  -1  -5 80.3317  5.0994   9
  -1   7  -5 86.6747  6.1590   1
  -7   1   5 91.9216  5.6031   3
   1  -7  -5 85.4223  4.9526   9
  -1   7  -5 86.6484  5.2285   9
   7  -1   5 87.2910  6.1699   6
   1  -7  -5 82.0921  5.5343   1
  -1  -7   5 84.0743  7.8559   3
  -7   1   5 87.1293  7.6280   7
   7   1  -5 82.0115  5.2056   9
  -1  -7   5 85.7196  6.0106   8
   1   7   5 91.1121  4.8521   2
   7  -1   5 93.6219  7.0969   8
  -1  -7   5 79.9702  5.6319   5
  -7  -1  -5 85.5049  5.7472   1
   7   1  -5 79.5359  5.8248   1
   7  -1   5 76.8367  5.1216   2
  -7   1   5 78.8600  4.9454   2
   2  -7   5 25.4357  5.1929   8
  -2   7   5 25.2407  3.4381   2
  -2  -7  -5 23.8112  4.1827   1
  -2  -7  -5 27.6126  3.6142   9
  -7   2  -5 25.0301  3.6599   9
   2   7  -5 23.8927  3.6703   9
  -7   2  -5 31.1112  4.5078   4
   2  -7   5 21.8788  4.8397   3
   7  -2  -5 24.9034  4.0798   1
   7   2   5 27.3262  3.6385   2
  -7  -2   5 33.4151  5.0012   7
  -2  -7  -5 24.5243  4.1461   4
   2  -7   5 25.4621  3.9114   2
  -7   2  -5 17.1579  3.9619   1
   7   2   5 21.3175  4.4946   6
  -7  -2   5 29.5349  3.7303   2
  -7  -2   5 27.1452  4.5269   3
   2   7  -5 38.0229  4.7759   1
  -2   7   5 27.7698  4.6183   7
   7   2   5 32.5538  4.5360   8
   2   7  -5 17.2792  3.5344   9
   7  -2  -5 24.4730  3.7195   9
  -2  -7   5 28.1514  4.1430   5
   7   2  -5 29.0029  3.8177   9
  -2   7  -5 29.5892  4.4293   1
  -7  -2  -5 36.0549  4.5600   4
  -2  -7   5 23.9194  3.7206   2
  -7  -2  -5 18.4817  3.8954   1
   2  -7  -5 29.2386  3.6760   9
  -7   2   5 23.2701  3.3950   2
   2   7   5 25.6553  3.4265   2
   7  -2   5 21.1007  3.5879   2
  -2  -7   5 17.2850  5.1416   3
   7   2  -5 16.2105  4.0016   1
  -7   2   5 31.0861  4.1588   3
   7  -2   5 27.9044  5.3487   8
  -7  -2  -5 28.7720  3.7049   9
  -2   7  -5 24.3104  3.6705   9
   2  -7  -5 28.9949  4.4198   1
  -7   2   5 23.3685  5.3492   7
  -7   3  -5 11.4272  3.8632   1
   7  -3  -5 9.98478 3.20420   9
  -7   3  -5 7.63065 3.04474   9
  -7   3  -5 9.06845 3.80249   4
  -3  -7  -5 5.84479 3.67372   4
  -7  -3   5 6.76977 3.15252   2
   3   7  -5 9.11676 3.37507   9
   7   3   5 9.65648 3.69830   8
  -3  -7  -5 4.61423 3.44286   1
   3  -7   5 2.91815 3.06317   2
   3  -7   5 7.73050 3.79530   3
   7   3   5 7.88216 3.06194   2
   7  -3  -5 4.34554 3.51219   1
   7   3   5 2.08670 3.73777   6
  -7  -3   5 8.15423 3.85029   3
  -3   7   5 4.53273 4.11609   7
  -3  -7  -5 6.80570 3.10816   9
  -7  -3   5 9.32697 3.87459   7
  -3   7   5 8.90345 2.94455   2
   3   7  -5 3.86741 3.58636   1
  -7  -3  -5 -1.2777  3.1344   1
  -7  -3  -5 8.00299 2.95217   9
  -3  -7   5 -0.3265  4.4890   3
   7   3  -5 2.22770 3.29057   9
   3   7   5 5.27861 2.89631   2
  -3   7  -5 7.66056 3.17319   9
   3   7   5 2.15651 3.90321   6
   3  -7  -5 4.20178 2.77871   9
   3  -7  -5 3.48718 3.56582   1
  -3  -7   5 5.49837 3.21076   2
  -7   3   5 6.24707 2.95298   2
   7  -3   5 6.17021 3.15338   2
  -7   3   5 -7.0308  3.7801   7
  -7  -3  -5 11.0991  3.7395   4
  -3   7  -5 13.2748  4.1614   1
   7  -3   5 7.64336 4.44773   8
   7   3  -5 7.22290 3.64660   1
  -7   3   5 5.11398 3.14889   3
   7  -4  -5 4.23093 3.24145   9
   4  -7   5 8.22068 3.52909   2
  -4  -7  -5 1.35384 3.65092   1
  -4   7   5 9.10310 4.62034   7
  -7   4  -5 5.33675 3.07187   9
  -4  -7  -5 3.42505 2.97972   9
   4   7  -5 11.6454  3.5012   9
  -4   7   5 0.96120 2.85452   2
  -4  -7  -5 -5.5127  3.2489   4
   7   4   5 -1.8873  3.6549   6
  -7  -4   5 2.75723 3.17704   2
   4  -7   5 7.06035 3.91564   3
   7  -4  -5 1.83533 3.45222   1
   7   4   5 7.13239 3.20408   2
  -7  -4   5 3.72659 3.56982   7
  -7  -4   5 -0.4674  3.7486   3
  -7   4  -5 1.84600 3.62256   1
   4   7  -5 4.41675 3.74414   1
  -7   4   5 2.77634 2.99204   2
   4  -7  -5 1.59730 3.17481   9
  -7  -4  -5 3.75229 3.82818   1
  -7   4   5 -1.4961  5.3261   7
   4   7   5 7.75663 3.09259   2
  -7  -4  -5 4.63663 3.67849   4
   4   7   5 7.06904 4.45537   6
   7   4  -5 7.94515 3.73697   1
   7   4  -5 7.85942 3.96273   6
   7  -4   5 4.12722 3.21874   2
  -7  -4  -5 5.31211 3.04615   9
  -4   7  -5 1.94354 3.06785   9
  -4  -7   5 2.44833 3.20526   2
   4  -7  -5 2.67294 3.85190   1
  -4   7  -5 6.34981 4.04139   1
  -4  -7   5 -1.0740  4.5987   3
   7   4  -5 10.1244  3.4861   9
  -7   4   5 5.33954 3.74968   3
   5   7  -5 40.9324  4.8560   9
  -7  -5   5 40.0269  4.7122   2
   7   5   5 39.2706  4.6310   2
  -5   7   5 35.9211  6.5189   7
  -7  -5   5 40.7289  5.8374   3
  -5  -7  -5 31.6063  5.0343   1
   7  -5  -5 40.9819  5.4149   1
   7  -5  -5 36.4214  4.5655   9
  -5   7   5 32.3215  4.3918   2
  -7   5  -5 37.1830  4.6125   9
  -5  -7  -5 39.8314  4.5913   9
  -7   5  -5 30.0363  5.2314   1
   7   5   5 43.8281  5.9541   6
   5   7  -5 31.4382  5.1427   1
   5  -7   5 31.2460  4.7736   2
   7   5  -5 39.8202  5.3064   1
   5  -7  -5 37.1800  4.7348   9
   7   5  -5 38.2800  5.3520   6
  -5  -7   5 42.2500  6.5780   3
  -5  -7   5 34.4629  4.7098   2
   7  -5   5 32.0250  4.6102   2
   5   7   5 25.7897  5.4653   6
  -7  -5  -5 39.8020  4.6743   9
  -7  -5  -5 37.3074  5.1514   1
   5  -7  -5 31.1646  4.9369   1
  -7   5   5 30.5434  7.5270   7
  -7   5   5 29.6471  4.2198   2
   7   5  -5 30.1873  4.5610   9
  -5   7  -5 29.6930  5.1159   1
  -5   7  -5 36.3433  4.6680   9
   5   7   5 35.5768  4.4814   2
  -7  -6   5 32.1376  4.8549   2
  -6   7   5 24.0811  4.1613   2
  -7   6  -5 24.2835  4.3540   9
   7   6   5 24.9036  5.5429   6
   7  -6  -5 25.1184  4.3944   9
  -6   7   5 15.3866  6.2915   7
   6   7  -5 24.6011  5.2002   1
   7  -6  -5 19.7896  4.9906   1
   7   6   5 25.2640  4.4510   2
  -7   6  -5 25.5996  5.2434   1
   6  -7   5 30.1054  4.8991   2
  -6  -7  -5 24.7314  4.9160   1
   6   7  -5 25.4378  4.6060   9
  -6  -7  -5 24.5627  4.4938   9
  -7  -6   5 30.8565  5.9945   3
  -7  -6  -5 25.2250  4.3050   9
   6   7   5 25.5394  5.8036   6
   7   6  -5 36.3061  5.8322   1
  -6   7  -5 18.7046  5.0103   1
   7  -6   5 24.9152  4.6363   2
  -7  -6  -5 36.6768  5.5222   1
   6   7   5 31.1623  4.5823   2
  -6   7  -5 31.8857  4.8105   9
  -6  -7   5 25.1055  4.7383   2
  -6  -7   5 33.9906  6.4724   3
   7   6  -5 26.3237  4.6159   9
   7   6  -5 30.2064  5.5371   1
   6  -7  -5 28.8072  4.5827   9
   6  -7  -5 23.2336  4.9587   1
  -7   6   5 28.3895  4.4992   2
  -7   6   5 27.5330  7.0369   7
  -7  -7   5 -1.3376  3.7191   2
   7   7  -5 5.90701 4.01916   9
   7  -7  -5 2.05190 3.66346   9
   7  -7  -5 10.7991  4.6165   1
  -7  -7  -5 -4.4515  3.4231   9
   7   7   5 -6.2758  4.3571   6
  -7   7  -5 4.54313 4.51900   1
  -7  -7   5 -2.9078  4.8396   3
  -7  -7  -5 3.25687 4.60641   1
  -7   7   5 0.27242 3.45751   2
   7   7  -5 -10.354   3.560   1
  -7   7  -5 -1.5314  3.7021   9
   7   7   5 -3.3008  3.6842   2
  -7   7   5 -5.3709  5.8350   7
   7  -7   5 5.34317 4.17023   2
  -8   0  -5 86.1756  5.5738   9
   8   0   5 78.0626  5.6038   2
  -8   0   5 72.2234  7.4167   7
   8   0  -5 82.3082  6.5324   1
   0  -8   5 91.5008  6.8326   8
   0  -8   5 78.0986  5.7596   2
   8   0  -5 75.7028  5.5370   9
   0   8   5 74.6714  5.1552   2
  -8   0   5 82.0964  5.9227   3
   0  -8   5 86.3535  8.6120   3
  -8   0   5 84.4062  5.6211   2
   0   8  -5 81.1043  6.6772   1
   0  -8   5 91.5053  5.9919   2
   8   0   5 92.4379  7.3558   8
   0   8  -5 81.8482  5.6068   9
   8   0   5 85.7217  6.9927   6
   0  -8  -5 77.6264  5.4406   9
   0  -8  -5 85.6127  6.4574   1
  -8   0  -5 82.5809  6.2687   1
  -1  -8  -5 141.096   6.725   9
   8  -1  -5 138.763   7.712   1
   1   8  -5 133.858   7.068   9
  -8  -1   5 142.714   7.364   3
   8   1   5 142.988   6.810   2
   1   8  -5 120.116   7.716   1
   8  -1  -5 137.255   6.892   9
  -8  -1   5 136.299   6.560   2
   1  -8   5 121.974   8.021   8
  -1  -8  -5 136.587   7.603   1
  -8  -1   5 142.944   8.594   7
  -8   1  -5 139.667   7.980   1
   8   1   5 134.028   7.780   8
  -1  -8  -5 137.379   7.792   4
   8   1   5 149.134   8.155   6
  -8   1  -5 134.531   6.829   9
   1  -8   5 137.788   9.166   3
  -1   8   5 126.378   6.308   2
   1  -8   5 141.930   7.096   2
  -8  -1  -5 135.117   7.749   1
  -1  -8   5 123.931  10.286   3
   8  -1   5 142.827   7.995   6
   8  -1   5 128.005   8.569   8
  -8   1   5 145.718   9.603   7
  -1   8  -5 144.844   7.808   1
   8  -1   5 129.638   6.878   2
   8   1  -5 139.908   7.099   9
  -8  -1  -5 134.448   6.598   9
  -1   8  -5 136.003   6.814   9
   1  -8  -5 133.285   7.582   1
   8   1  -5 144.837   7.489   1
   1   8   5 133.161   6.498   2
  -1  -8   5 142.179   7.022   2
   1  -8  -5 135.298   6.762   9
  -8   1   5 146.022   6.734   2
  -2   8   5 11.1970  3.3493   2
   8   2   5 3.43789 3.28535   2
   2  -8   5 7.12633 4.67917   8
   2  -8   5 12.7009  4.9825   3
  -8  -2   5 -0.7413  3.8369   7
   2   8  -5 6.69872 3.89428   1
   2  -8   5 9.54144 3.61541   2
  -2  -8  -5 7.45741 3.45637   9
   8   2   5 15.9488  4.1887   8
  -8  -2   5 9.57303 4.07479   3
  -2  -8  -5 6.64631 4.04664   1
  -8  -2   5 10.1037  3.4354   2
   8  -2  -5 11.5247  3.6781   9
   2   8  -5 7.36501 3.80951   9
   2   8  -5 12.0857  3.7150   9
  -8   2  -5 5.98991 4.15176   1
  -8   2  -5 9.36641 3.36194   9
  -2   8   5 5.99730 4.11794   7
  -2  -8  -5 9.73187 4.09633   4
   8  -2  -5 12.5125  3.9880   1
   8   2   5 12.7255  4.5091   6
  -8  -2  -5 9.00589 4.07731   1
  -8  -2  -5 13.0992  3.5982   9
   2   8   5 9.45555 3.43309   2
  -2   8  -5 10.5108  4.3641   1
   8  -2   5 3.06205 4.52164   8
  -2  -8   5 11.0460  3.8104   2
   2  -8  -5 17.6296  3.7089   9
  -2  -8   5 12.6826  5.4849   3
  -8   2   5 11.4880  5.5844   7
  -2   8  -5 10.4703  3.6495   9
  -8   2   5 5.71658 3.33144   2
   8   2  -5 3.82810 3.49485   9
   8  -2   5 4.02120 3.31896   2
   8   2  -5 9.97394 4.16783   1
   2  -8  -5 7.24256 3.80215   1
   3   8  -5 1.32611 3.73814   1
  -3   8   5 2.53363 3.06544   2
  -8  -3   5 4.58677 3.21250   2
  -8   3  -5 -2.0603  3.0273   9
  -3  -8  -5 0.84795 3.15312   9
   8   3   5 -1.3090  3.0350   2
  -8  -3   5 -1.9196  3.9368   3
  -3   8   5 -0.0436  3.8297   7
   3   8  -5 1.78133 3.37451   9
   3  -8   5 4.78513 3.48855   2
  -8   3  -5 3.01428 3.83816   1
   8  -3  -5 3.74017 3.46835   9
   8   3   5 -2.3709  3.6919   6
   3  -8   5 9.84005 4.62023   3
  -3  -8  -5 1.35386 4.00934   1
  -8  -3   5 0.81388 3.68115   7
   8  -3  -5 0.02966 3.74343   1
   8   3  -5 -1.2919  3.5283   1
  -3   8  -5 6.75143 3.56682   9
   8   3  -5 5.20509 3.43533   9
  -8   3   5 -4.2545  5.2169   7
   3  -8  -5 3.59286 3.20339   9
  -8   3   5 0.58758 3.20285   2
  -8  -3  -5 0.20126 3.85460   1
   3  -8  -5 -1.1517  3.6877   1
   8  -3   5 2.88365 3.54681   2
  -8  -3  -5 -1.3456  3.0110   9
  -3  -8   5 1.30196 3.40553   2
   8  -3   5 2.28641 4.73653   8
   3   8   5 1.97304 3.05226   2
  -3  -8   5 3.18423 5.43137   3
  -3   8  -5 2.67507 4.08392   1
   4  -8   5 182.071   8.529   2
   4   8  -5 191.452   8.480   9
   4   8  -5 187.721   9.375   1
  -8   4  -5 168.726   7.993   9
  -4  -8  -5 179.024   9.213   1
   8   4   5 176.606   9.781   6
  -4  -8  -5 168.048   7.889   9
   8   4   5 174.135   8.012   2
   8  -4  -5 190.547   8.381   9
   8  -4  -5 171.454   8.824   1
  -8   4  -5 176.884   9.187   1
  -8  -4   5 190.796   8.320   2
  -8  -4   5 184.182   8.742   7
  -8  -4   5 197.690   9.639   3
  -4   8   5 172.778   7.767   2
  -4   8   5 200.118  10.459   7
  -4  -8   5 182.299  11.586   3
  -8  -4  -5 194.912   9.561   1
  -4   8  -5 182.796   8.434   9
   4   8   5 182.076   7.984   2
  -4  -8   5 172.202   8.334   2
   8   4  -5 170.837   8.212   9
  -8  -4  -5 185.405   8.073   9
   4  -8  -5 177.232   9.264   1
   8   4  -5 170.594   9.195   1
   8  -4   5 174.206   8.345   2
  -4   8  -5 169.375   9.121   1
   4   8   5 186.566  10.394   6
   4  -8  -5 173.279   8.086   9
  -8   4   5 169.607  12.402   7
  -8   4   5 178.543   7.885   2
   8   4  -5 190.463   9.512   6
   5  -8   5 71.1300  6.4285   2
  -8   5  -5 85.8861  7.4882   1
   8   5   5 81.3559  6.4091   2
   5   8  -5 72.3050  6.4555   9
   8  -5  -5 79.6883  7.0425   1
   5   8  -5 88.4074  7.5586   1
   8  -5  -5 82.5141  6.4410   9
  -5  -8  -5 77.4633  6.3311   9
  -5   8   5 85.2357  6.3092   2
  -8  -5   5 83.2747  6.2850   2
  -8  -5   5 79.4142  7.6228   3
  -5   8   5 80.9595  8.5845   7
   8   5   5 81.6785  7.9211   6
  -5  -8  -5 82.2129  7.4809   1
  -8   5  -5 73.6944  6.1784   9
   5   8   5 80.0791  6.2830   2
   8   5  -5 75.6704  7.1179   1
   8   5  -5 101.735   7.764   6
  -5   8  -5 84.5646  7.4396   1
  -8   5   5 72.8399  9.9116   7
  -8  -5  -5 83.8426  6.2214   9
   5  -8  -5 86.9391  6.2922   9
  -5  -8   5 89.0450  6.6736   2
  -5  -8   5 87.0239  9.0562   3
  -8  -5  -5 81.0648  7.1581   1
   5   8   5 77.7623  7.7366   6
   5  -8  -5 90.7097  7.4283   1
  -5   8  -5 74.1021  6.3347   9
   8   5  -5 76.0887  6.4889   9
  -8   5   5 74.9797  6.1894   2
   8  -5   5 79.0198  6.6474   2
   8  -6  -5 2.84061 4.00841   9
   8   6   5 2.62444 3.94269   2
  -8   6  -5 9.53099 5.12078   1
  -8   6  -5 -0.3952  3.6616   9
  -6  -8  -5 1.36236 4.38928   1
  -6   8   5 3.16670 3.92472   2
   6   8  -5 1.51647 4.63729   1
   6  -8   5 2.76166 4.11737   2
   8   6   5 13.2575  5.2391   6
  -6  -8  -5 5.61927 3.82976   9
  -6   8   5 10.6604  6.4135   7
   6   8  -5 5.35722 4.07255   9
   8  -6  -5 3.97110 4.25153   1
  -8  -6   5 -0.1371  4.5147   3
  -8  -6   5 1.50953 3.78412   2
  -6   8  -5 -1.3833  4.3374   1
   8   6  -5 3.98948 4.04691   9
   6   8   5 2.65091 3.91290   2
  -8  -6  -5 0.14061 4.29868   1
  -6  -8   5 -0.0756  3.8559   2
  -6  -8   5 1.25063 5.52198   3
   6  -8  -5 4.28313 4.75177   1
  -8   6   5 1.35542 3.71307   2
   8  -6   5 10.7355  4.3876   2
   6  -8  -5 3.11435 3.85559   9
   8   6  -5 0.17092 4.33671   1
  -6   8  -5 3.42610 3.89569   9
   8   6  -5 1.35203 4.47719   1
  -8   6   5 6.24796 7.56476   7
   6   8   5 1.67925 4.42011   6
  -8  -6  -5 6.16979 4.06681   9
   8   7   5 120.300   9.894   6
   7   8  -5 118.053   8.718   1
   7  -8   5 110.304   7.886   2
  -7   8   5 108.594  11.328   7
  -8  -7   5 117.226   9.653   3
  -8  -7   5 117.726   7.884   2
  -8   7  -5 123.668   8.975   1
  -8   7  -5 117.743   7.842   9
  -7  -8  -5 143.571   8.993   1
  -7  -8  -5 127.247   7.827   9
   7   8  -5 126.077   8.007   9
   8   7   5 111.992   7.799   2
  -7   8   5 97.5156  7.0835   2
   8  -7  -5 122.896   8.583   1
   8  -7  -5 107.095   7.754   9
   7   8   5 104.005   9.712   6
   8   7  -5 101.481   7.625   9
   8   7  -5 119.546   8.688   1
   8  -7   5 104.467   7.742   2
   7   8   5 112.791   7.322   2
  -7   8  -5 96.0759  8.7849   1
  -7  -8   5 111.410   9.969   3
   7  -8  -5 105.491   7.562   9
  -8   7   5 144.092  13.628   7
  -7  -8   5 127.191   8.036   2
   7  -8  -5 125.024   9.097   1
  -8   7   5 118.599   7.598   2
  -7   8  -5 112.333   7.596   9
  -8  -7  -5 130.287   8.650   1
  -8  -7  -5 124.762   7.694   9
   8  -8   5 3.97208 4.66257   2
   8   8   5 3.48503 4.58550   2
  -8   8  -5 -5.7878  3.8749   9
  -8  -8  -5 -0.9572  4.1656   9
   8   8   5 5.26844 5.51980   6
   8  -8  -5 4.24390 4.78939   9
   8   8  -5 4.03974 5.00886   1
   8  -8  -5 1.98276 4.83107   1
   8   8  -5 2.84905 4.25921   9
  -8   8   5 -2.5978  7.1750   7
  -8  -8   5 0.04644 5.48948   3
  -8  -8  -5 3.09703 5.00159   1
  -8   8   5 2.20529 3.91041   2
  -8  -8   5 -1.7208  4.1583   2
  -8   8  -5 4.63658 5.54658   1
  -9   0  -5 0.18221 4.15553   1
   9   0   5 -4.7809  3.8783   6
   0  -9  -5 1.93696 3.30943   9
   0  -9  -5 1.77239 4.07294   1
   0   9   5 -1.9898  3.3966   2
   0  -9   5 -1.9915  3.4212   2
   9   0   5 4.99723 4.34510   8
  -9   0   5 -0.6824  3.3780   2
   0   9  -5 2.76066 3.55493   9
   9   0  -5 -2.4554  3.9421   1
   9   0  -5 2.66987 3.35131   9
   0  -9   5 -1.2979  3.4174   2
   0  -9   5 -8.6025  5.7914   3
   9   0   5 -2.3518  3.4184   2
   0   9  -5 2.83729 4.25945   1
  -9   0   5 11.1606  5.1869   7
  -9   0  -5 2.18219 3.53402   9
  -9  -1   5 10.5536  3.7443   2
   9  -1  -5 12.4341  4.5143   1
   1   9  -5 7.24845 4.55747   1
  -1  -9  -5 14.6254  4.4181   1
   1   9  -5 10.2920  3.8711   9
  -1   9   5 20.2209  4.1317   2
  -1  -9  -5 14.8175  3.8336   9
   9   1   5 13.4911  4.5932   8
   9  -1  -5 11.1827  3.7820   9
   1  -9   5 16.3311  4.4429   2
   1  -9   5 10.0878  4.9607   8
  -9   1  -5 5.69103 3.51889   9
   9   1   5 9.85088 4.04155   2
   1   9  -5 11.4883  3.9619   9
  -9  -1   5 12.8297  5.0765   7
   1  -9   5 3.43210 5.46254   3
  -9   1  -5 15.4941  4.4450   1
   9   1   5 9.03863 4.74775   6
   1   9   5 7.73543 3.66085   2
   1  -9  -5 11.7909  4.2990   1
  -9   1   5 9.50304 3.70632   2
   1  -9  -5 15.3427  3.8318   9
   9   1  -5 13.1333  4.6091   1
   9   1  -5 13.4149  4.1535   9
  -1  -9   5 20.9955  7.1627   3
  -1  -9   5 20.8520  4.4568   2
   9  -1   5 8.44026 4.89850   8
  -1   9  -5 16.1279  4.0622   9
  -1   9  -5 7.60585 4.69072   1
   9  -1   5 7.67483 4.58989   6
   9  -1   5 13.1093  4.1437   2
  -9  -1  -5 10.8273  4.3768   1
  -9  -1  -5 8.81999 3.70687   9
  -9   1   5 7.91488 5.53146   7
  -9   2  -5 31.0696  5.6176   1
  -9   2  -5 40.5102  4.9038   9
   2  -9   5 33.2978  5.2696   2
   2  -9   5 38.9027  6.5368   8
  -9  -2   5 34.9137  4.9198   2
   2  -9   5 44.9114  6.9099   3
   9   2   5 34.6363  5.7850   6
  -2  -9  -5 39.9606  4.8435   9
  -2  -9  -5 45.7611  5.9629   1
  -9  -2   5 46.1636  6.3144   7
   2   9  -5 44.0228  5.8470   1
   9   2   5 39.0851  4.9342   2
   2   9  -5 41.8839  5.1316   9
   9  -2  -5 41.5896  5.6241   1
   9  -2  -5 40.7539  5.0699   9
  -2   9   5 27.2280  4.5317   2
   9   2  -5 38.8446  5.4555   1
   2  -9  -5 42.0945  5.1526   9
  -9  -2  -5 36.8955  4.8083   9
   9   2  -5 42.1689  5.2556   9
  -2   9  -5 33.1081  5.3653   1
  -9   2   5 29.7712  4.5950   2
  -2   9  -5 37.3082  4.9984   9
   9  -2   5 45.7161  5.2675   2
  -9  -2  -5 33.9943  5.2671   1
  -9   2   5 46.1438  7.8890   7
   2  -9  -5 41.2238  5.7847   1
   2   9   5 40.3197  4.9600   2
   9  -2   5 45.0744  6.7365   8
  -2  -9   5 33.4733  5.0668   2
  -2  -9   5 46.8994  8.4838   3
   9   3   5 26.8170  5.7520   6
   3   9  -5 21.9873  4.6747   9
  -3  -9  -5 27.7219  4.5769   9
  -9   3  -5 22.6534  5.4240   1
  -9  -3   5 31.0213  5.2502   3
   3   9  -5 30.6045  5.4737   1
   9  -3  -5 28.0840  5.4543   1
   9  -3  -5 34.9363  5.0097   9
  -9  -3   5 25.1635  5.4870   7
  -9  -3   5 35.5195  4.8841   2
   3  -9   5 26.3036  4.8593   2
  -9   3  -5 24.0628  4.6209   9
  -3   9   5 29.2394  4.6506   2
   3  -9   5 29.4037  6.1721   3
   9   3   5 27.4392  4.6633   2
  -3  -9  -5 30.7131  5.4866   1
  -3  -9   5 17.2539  4.5530   2
   3   9   5 34.7861  4.8016   2
  -3  -9   5 25.1563  7.1337   3
  -3   9  -5 26.6747  4.7635   9
   9  -3   5 27.3639  6.5389   8
   3  -9  -5 34.0381  4.9374   9
  -3   9  -5 32.0669  5.7437   1
  -9   3   5 31.6529  4.7671   2
   3  -9  -5 29.1133  5.6542   1
   9   3  -5 35.5002  5.7348   1
  -9  -3  -5 21.8410  4.5130   9
   9  -3   5 31.9385  4.8899   2
  -9  -3  -5 27.8331  5.4703   1
  -9   3   5 19.7342  7.1189   7
   9   3  -5 27.4010  4.7890   9
   4   9  -5 -0.1341  3.7787   9
   9  -4  -5 -2.9359  4.0498   1
  -9  -4   5 -0.9500  3.5495   2
  -4  -9  -5 -0.5026  4.2244   1
  -9   4  -5 1.02379 3.59612   9
   4   9  -5 0.89776 4.29726   1
   9   4   5 -3.0299  3.6462   2
  -4  -9  -5 3.79824 3.70732   9
  -4   9   5 6.81631 5.19416   7
  -9   4  -5 0.68717 4.48705   1
  -9  -4   5 1.29355 4.03770   3
   9   4   5 -3.7486  4.2947   6
   4  -9   5 2.59663 3.98552   2
  -4   9   5 2.50503 3.86236   2
   9  -4  -5 1.31404 3.64383   9
   9   4  -5 1.94995 4.33279   1
   4  -9  -5 4.72295 3.71104   9
  -4   9  -5 -3.0505  3.2977   9
   4   9   5 8.08409 5.10016   6
   4  -9  -5 -3.5430  4.5109   1
  -9  -4  -5 0.95740 4.48930   1
  -9   4   5 0.02376 3.81282   2
  -4   9  -5 1.97943 4.35570   1
  -4  -9   5 -1.0667  3.7712   2
  -4  -9   5 -5.4205  5.3174   3
   9   4  -5 3.08185 4.32431   6
  -9   4   5 1.42625 6.59434   7
   9  -4   5 0.45472 4.14403   2
   4   9   5 -3.7348  3.2817   2
  -9  -4  -5 3.72042 3.79171   9
   9   4  -5 -0.5810  3.7292   9
   9   5   5 4.70937 4.10007   2
  -9  -5   5 15.2595  5.0437   3
   9  -5  -5 1.66254 4.80810   1
  -9   5  -5 -4.4938  3.6543   9
  -5  -9  -5 2.28175 3.93712   9
  -9   5  -5 2.85326 4.60073   1
   5   9  -5 1.19931 3.97061   9
  -5   9   5 10.1105  4.1195   2
   5  -9   5 1.91207 4.20528   2
   9  -5  -5 4.43195 4.18568   9
   5   9  -5 9.77216 4.95407   1
   9   5   5 7.83389 5.25188   6
  -5  -9  -5 0.55870 4.85745   1
  -9  -5   5 10.6079  4.1957   2
  -5   9   5 16.6106  5.9914   7
   5   9   5 10.8735  5.5281   6
  -5  -9   5 2.19847 4.14726   2
  -5  -9   5 2.30135 5.56578   3
   9   5  -5 9.54488 5.07966   1
   5   9   5 6.71030 4.18113   2
  -5   9  -5 5.48086 4.77087   1
  -9  -5  -5 5.42929 3.93366   9
   5  -9  -5 10.4246  4.4858   9
   5  -9  -5 -2.6175  4.7485   1
   9   5  -5 5.45882 4.85575   6
  -9  -5  -5 13.8446  4.9163   1
   9   5  -5 0.88191 3.76434   9
  -9   5   5 2.27016 7.10436   7
   9  -5   5 5.66830 4.33780   2
  -9   5   5 4.27590 4.14828   2
  -5   9  -5 12.8328  4.4621   9
   9  -6  -5 158.201   8.925   9
  -6  -9  -5 159.629   8.947   9
  -9  -6   5 198.539  11.092   3
  -9   6  -5 180.119   8.921   9
  -6   9   5 162.895   8.556   2
  -9   6  -5 174.719  10.311   1
   6   9  -5 163.473   9.180   9
   9   6   5 177.342   9.168   2
  -9  -6   5 180.571   9.298   2
  -6   9   5 183.719  11.671   7
   6  -9   5 175.362   9.426   2
   6   9  -5 182.758  10.470   1
   9  -6  -5 158.109  10.051   1
   9   6   5 177.674  10.841   6
  -6  -9  -5 183.493  10.245   1
  -6   9  -5 165.377   8.982   9
  -6  -9   5 179.025   9.452   2
  -9  -6  -5 164.194   9.862   1
  -6   9  -5 191.002  10.435   1
   9   6  -5 166.856   9.059   9
   6   9   5 184.380  11.289   6
   6  -9  -5 155.898   8.708   9
   9   6  -5 174.655  10.061   1
   9  -6   5 185.918   9.611   2
   9   6  -5 185.789  10.359   1
  -9   6   5 174.720   8.727   2
  -9  -6  -5 165.834   8.850   9
   6  -9  -5 189.817  10.640   1
   6   9   5 170.042   9.165   2
  -6  -9   5 179.250  11.677   3
  -9   6   5 190.761  16.563   7
  -7  -9  -5 84.1733  7.4608   9
  -9   7  -5 94.0752  7.8548   9
  -7  -9  -5 84.5073  8.6406   1
  -7   9   5 90.2166 10.6869   7
   9  -7  -5 93.5837  8.7120   1
   9   7   5 98.1691  9.3416   6
  -9  -7   5 106.915   7.827   2
  -7   9   5 93.7773  7.7060   2
  -9  -7   5 90.0521  9.2045   3
   9  -7  -5 82.8241  7.5506   9
  -9   7  -5 90.9278  8.7952   1
   7  -9   5 96.9630  8.2591   2
   7   9  -5 98.7158  8.9595   1
   7   9  -5 89.2045  7.7726   9
   9   7   5 88.5104  7.8601   2
   7  -9  -5 105.622   9.258   1
  -7  -9   5 101.099  10.498   3
  -7   9  -5 89.5314  9.0488   1
   9  -7   5 90.8588  8.0669   2
   7   9   5 105.224  10.027   6
  -9   7   5 96.4725 13.2124   7
   7  -9  -5 93.4596  7.7372   9
   7   9   5 103.404   7.748   2
  -9   7   5 84.8032  7.3435   2
  -7   9  -5 97.9723  7.8936   9
  -9  -7  -5 91.8086  8.6313   1
  -9  -7  -5 84.0240  7.2764   9
   9   7  -5 108.430   9.322   1
  -7  -9   5 88.1958  7.6678   2
   9   7  -5 101.720   8.094   9
   8   9  -5 6.84620 4.96527   9
  -9  -8   5 15.7271  6.2286   3
   9   8   5 10.6622  4.9333   2
   9  -8  -5 14.4379  5.2112   9
  -8   9   5 12.2850  7.9376   7
  -8   9   5 8.31777 4.61172   2
   8  -9   5 2.96614 4.91219   2
  -9  -8   5 4.87937 4.65925   2
  -9   8  -5 2.74881 5.82398   1
  -8  -9  -5 3.17443 4.45280   9
   8   9  -5 3.71698 5.81207   1
   9   8   5 4.43186 5.94034   6
  -9   8  -5 0.20601 4.44661   9
  -8  -9  -5 14.1211  5.6785   1
   9  -8  -5 3.13017 5.62078   1
  -8  -9   5 5.25504 6.06564   3
   8   9   5 0.73875 4.27019   2
   9   8  -5 5.18686 5.23416   1
  -8  -9   5 11.5354  5.1003   2
   9   8  -5 -4.5809  3.9895   9
  -9   8   5 5.25081 9.11374   7
   8  -9  -5 19.2016  5.9310   1
   8  -9  -5 -0.9301  4.4422   9
  -8   9  -5 5.24293 5.47471   1
  -9  -8  -5 10.5708  5.8665   1
  -9   8   5 2.05036 4.27020   2
   8   9   5 6.77919 5.91455   6
  -8   9  -5 5.59348 4.60867   9
  -9  -8  -5 9.08211 4.77737   9
   9  -8   5 -0.1725  4.6679   2
   9  -9   5 -6.2397  4.7266   2
  -9  -9  -5 -2.9581  4.2585   9
  -9  -9   5 0.60650 4.70619   2
   9   9   5 2.43191 4.67072   2
  -9  -9  -5 -7.9866  5.5452   1
   9   9   5 -7.4338  5.6174   6
  -9   9   5 11.8103  8.9691   7
   9   9  -5 -3.2176  4.5762   9
   9  -9  -5 -0.1554  4.6708   9
  -9  -9   5 1.89200 6.17555   3
  -9   9  -5 2.01654 5.83373   1
  -9   9   5 1.36171 4.78199   2
  -9   9  -5 -2.5640  4.4441   9
   9  -9  -5 2.99868 5.38558   1
   9   9  -5 2.25385 6.01871   1
   0 -10   5 76.2304  6.8294   2
   0  10   5 66.5089  6.1615   2
   0  10  -5 81.2990  7.8191   1
   0 -10  -5 78.0533  7.4072   1
   0 -10   5 77.7092 10.3296   3
   0 -10   5 70.9195  6.7307   2
 -10   0  -5 69.1250  6.1646   9
 -10   0  -5 83.4537  7.8624   1
   0  10  -5 64.6121  6.3455   9
  10   0   5 80.7582  7.8109   6
  10   0   5 71.4437  6.4104   2
  10   0   5 72.0392  7.5811   8
   0 -10  -5 83.7377  6.6985   9
 -10   0   5 73.0916  8.2613   7
  10   0  -5 84.3588  7.6152   1
 -10   0   5 75.8141  6.6143   2
  10   0  -5 82.5346  6.7651   9
   0  10  -5 69.4883  6.3364   9
   1  10  -5 35.9838  5.3954   9
   1  10  -5 38.4436  6.2829   1
  -1 -10  -5 47.8315  6.4272   1
  -1 -10  -5 48.8161  5.5315   9
  10  -1  -5 46.6951  6.3750   1
  10   1   5 42.4964  5.7386   2
 -10  -1   5 39.2626  5.4573   2
  10  -1  -5 50.2556  5.7263   9
   1 -10   5 49.6215  8.5133   3
 -10  -1   5 41.6765  6.7687   7
  10   1   5 38.7849  6.4243   6
 -10   1  -5 37.0428  6.1942   1
 -10   1  -5 54.2502  5.7329   9
  -1  10   5 41.0222  5.3088   2
   1 -10   5 31.2758  5.2923   2
 -10  -1  -5 48.2142  5.5275   9
 -10  -1  -5 47.8635  6.2219   1
  -1  10  -5 51.1638  6.7529   1
  -1  10  -5 42.5493  5.6105   9
  -1 -10   5 37.0026  9.3087   3
  10   1  -5 51.5478  5.7236   9
  10  -1   5 45.2477  6.6272   8
   1 -10  -5 31.1821  4.9661   9
  10   1  -5 44.7545  6.2837   1
   1  10   5 42.7592  5.2329   2
   1 -10  -5 49.5042  6.5750   1
  -1 -10   5 50.3006  6.0542   2
  10  -1   5 49.3727  5.6481   2
  10  -1   5 43.8718  6.6897   6
 -10   1   5 42.0369  5.3090   2
 -10   1   5 43.3103  7.5091   7
   2  10  -5 73.2011  7.5586   1
  -2 -10  -5 71.6831  6.5162   9
   2 -10   5 71.0054  8.1097   8
   2 -10   5 76.9914  8.8350   3
  -2  10   5 85.0201  6.6722   2
   2 -10   5 83.3265  7.0572   2
 -10   2  -5 76.3118  7.6299   1
 -10  -2   5 77.2620  6.5313   2
  10   2   5 73.0182  6.5424   2
  10  -2  -5 77.2827  7.7048   1
  -2 -10  -5 82.0504  7.5609   1
  10   2   5 82.5718  8.1909   6
   2  10  -5 79.2387  6.9153   9
  10  -2  -5 79.3340  6.8219   9
 -10   2  -5 71.0375  6.5525   9
 -10  -2   5 73.4930  7.9422   7
  -2 -10   5 75.5745 10.9360   3
  -2  10  -5 90.5477  7.9361   1
 -10   2   5 66.8350  9.1860   7
 -10  -2  -5 88.3728  7.6980   1
  10  -2   5 84.4840  8.5362   8
 -10   2   5 75.4104  6.4173   2
  -2  10  -5 78.7536  6.7697   9
 -10  -2  -5 77.2114  6.6198   9
   2 -10  -5 70.1716  7.1998   1
  10   2  -5 73.3307  6.7596   9
   2  10   5 71.8056  6.2325   2
  -2 -10   5 75.0684  6.9402   2
   2 -10  -5 88.4617  6.5979   9
  10   2  -5 72.1701  7.3458   1
  10  -2   5 72.4112  6.6578   2
  10  -3  -5 72.4385  7.3035   1
 -10   3  -5 79.9146  7.7678   1
  -3  10   5 76.1974  6.4717   2
   3  10  -5 67.2766  7.3849   1
  10   3   5 68.2590  7.8473   6
   3 -10   5 66.9837  7.9777   3
  10   3   5 73.4812  6.6327   2
  -3 -10  -5 73.2329  7.3923   1
  10  -3  -5 76.5435  6.7253   9
   3 -10   5 72.7955  6.8820   2
   3  10  -5 82.7670  7.1061   9
 -10   3  -5 75.1601  6.6596   9
  -3 -10  -5 73.5145  6.5546   9
 -10  -3   5 83.5956  7.7686   7
 -10  -3   5 81.1504  6.8715   2
  10   3  -5 77.5052  7.7974   1
  -3  10  -5 75.1060  6.7725   9
  10  -3   5 77.9724  8.8768   8
 -10   3   5 78.6092  6.7446   2
  10  -3   5 75.0718  6.9022   2
 -10  -3  -5 79.1304  6.6936   9
  -3 -10   5 71.0978 10.3670   3
   3 -10  -5 84.8115  7.0014   9
 -10   3   5 63.0558  9.5731   7
   3  10   5 87.7990  6.8909   2
  10   3  -5 76.2503  6.8557   9
   3 -10  -5 72.5000  7.5627   1
  -3  10  -5 78.4476  7.8812   1
 -10  -3  -5 89.6610  7.9476   1
  -3 -10   5 69.4525  6.7278   2
   4  10  -5 52.8705  7.0030   1
   4 -10   5 60.3753  6.6526   2
 -10   4  -5 53.7505  6.0362   9
  -4 -10  -5 49.4885  6.7525   1
   4  10  -5 51.4238  6.1088   9
  10   4   5 43.7258  5.7895   2
  10  -4  -5 47.4383  6.6310   1
  -4 -10  -5 58.1157  6.0834   9
  10   4   5 59.2061  7.6980   6
 -10  -4   5 50.1361  6.0356   2
  -4  10   5 50.8588  5.6629   2
 -10   4  -5 48.3173  6.9762   1
  10  -4  -5 46.9272  5.9700   9
 -10  -4  -5 50.7042  5.8698   9
   4 -10  -5 63.1449  7.3678   1
  10  -4   5 62.5768  6.5079   2
  10   4  -5 43.5065  5.8626   9
 -10  -4  -5 60.1628  7.0785   1
  -4 -10   5 41.8778  8.9072   3
 -10   4   5 53.8498  6.0785   2
   4  10   5 53.4528  6.0972   2
  -4  10  -5 58.8201  7.4800   1
 -10   4   5 66.2222 10.4530   7
   4 -10  -5 55.2484  6.1480   9
  10   4  -5 60.3829  7.1738   1
  10   4  -5 59.4789  7.2611   6
  -4  10  -5 55.4102  6.2120   9
  -4 -10   5 54.5852  6.3961   2
  10  -5  -5 163.049   9.095   9
  10   5   5 179.843   9.373   2
   5 -10   5 173.621   9.596   2
   5  10  -5 162.062  10.516   1
  10  -5  -5 166.687  10.075   1
  10   5   5 186.403  11.321   6
  -5 -10  -5 172.810  10.202   1
 -10   5  -5 178.715   9.304   9
   5  10  -5 150.495   8.968   9
 -10  -5   5 154.612   8.933   2
 -10   5  -5 153.228  10.015   1
  -5  10   5 161.307   8.693   2
  -5 -10  -5 177.522   9.282   9
 -10  -5  -5 166.821  10.061   1
  10  -5   5 164.954   9.393   2
  10   5  -5 154.631   9.098   9
  10   5  -5 203.204  11.175   1
 -10  -5  -5 158.338   8.927   9
   5 -10  -5 161.587   8.998   9
 -10   5   5 163.183   8.813   2
   5 -10  -5 159.887  10.123   1
  -5 -10   5 167.838  13.963   3
 -10   5   5 179.681  15.926   7
   5  10   5 172.729  11.210   6
  -5 -10   5 169.551   9.393   2
   5  10   5 174.578   9.204   2
  10   5  -5 155.216  10.042   6
  -5  10  -5 150.676   8.875   9
  -5  10  -5 190.344  10.785   1
   6 -10   5 8.45662 4.79435   2
 -10  -6   5 4.38597 4.54844   2
 -10   6  -5 9.13025 5.55786   1
 -10   6  -5 14.3283  4.8423   9
 -10  -6   5 13.0324  5.7182   3
  -6  10   5 10.2399  6.7261   7
  10  -6  -5 8.02676 5.63017   1
   6  10  -5 8.91346 4.86552   9
  -6 -10  -5 12.0223  5.8213   1
   6  10  -5 7.66389 5.31445   1
  10   6   5 -1.8993  5.1530   6
  -6 -10  -5 20.3474  5.1389   9
  10  -6  -5 11.1270  4.9027   9
  10   6   5 10.2289  4.8638   2
  -6  10   5 7.51576 4.62514   2
   6  10   5 17.5279  5.2937   2
  -6  10  -5 10.3476  4.7584   9
  10   6  -5 5.08257 5.68007   6
  10   6  -5 9.60891 5.56352   1
 -10   6   5 16.7588  5.1118   2
  10   6  -5 3.24028 4.42531   9
 -10  -6  -5 14.1375  4.8677   9
  10  -6   5 6.43114 4.73283   2
   6 -10  -5 10.4578  5.6177   1
  -6  10  -5 6.26161 5.44199   1
 -10   6   5 9.38985 9.45965   7
   6  10   5 18.4845  6.6548   6
  -6 -10   5 18.7332  5.3732   2
   6 -10  -5 14.7754  4.9127   9
 -10  -6  -5 4.04329 5.47749   1
  -6 -10   5 17.6803  7.7269   3
  10   6  -5 17.5359  6.0408   1
  -7 -10  -5 56.6346  6.7640   9
 -10  -7   5 67.8339  8.3765   3
  10  -7  -5 54.9355  6.9993   9
 -10   7  -5 52.8650  6.8045   9
  10   7   5 62.4431  8.6106   6
  -7 -10  -5 53.8772  7.6502   1
  -7  10   5 35.5461  8.5198   7
   7  10  -5 60.9993  7.2181   9
   7 -10   5 58.3327  7.1622   2
 -10  -7   5 48.7998  6.7203   2
   7  10  -5 58.5219  8.0308   1
 -10   7  -5 49.3894  7.8960   1
  10   7   5 59.5573  7.0093   2
  10  -7  -5 59.0533  8.0619   1
  -7  10   5 42.4224  6.1967   2
 -10  -7  -5 55.4304  7.8146   1
 -10  -7  -5 59.5640  6.8999   9
  10   7  -5 52.3037  6.8527   9
  10  -7   5 51.5903  7.0037   2
 -10   7   5 43.5485 11.5596   7
   7  10   5 56.6848  8.5548   6
  -7  10  -5 54.2101  6.7605   9
  10   7  -5 50.3246  7.7928   1
  -7 -10   5 56.1886  6.8909   2
 -10   7   5 54.7226  6.6047   2
  -7  10  -5 56.1906  8.0012   1
   7 -10  -5 43.6620  6.2586   9
   7 -10  -5 49.2337  7.4659   1
   7  10   5 56.4041  6.7302   2
  -7 -10   5 57.7497  9.4252   3
   8 -10   5 124.575   9.341   2
  -8  10   5 125.270  13.049   7
  10   8   5 118.203  10.987   6
 -10  -8   5 124.935   8.992   2
  -8 -10  -5 118.627  10.586   1
   8  10  -5 137.254  10.961   1
  10   8   5 126.570   9.313   2
 -10   8  -5 140.141  11.352   1
  10  -8  -5 122.462  10.539   1
 -10  -8   5 132.048  10.929   3
   8  10  -5 125.850   9.248   9
  -8 -10  -5 130.432   8.847   9
  -8  10   5 134.011   9.043   2
  10  -8  -5 124.514   9.081   9
 -10   8  -5 136.445   9.098   9
   8 -10  -5 124.396   8.808   9
  -8 -10   5 113.443   9.159   2
  10   8  -5 108.061   8.999   9
  -8  10  -5 120.263   8.845   9
  -8  10  -5 138.219  11.081   1
 -10  -8  -5 144.109  10.439   1
   8  10   5 116.292  11.056   6
  -8 -10   5 110.554  11.642   3
 -10  -8  -5 121.592   8.736   9
   8  10   5 129.469   9.125   2
   8 -10  -5 124.873  10.372   1
 -10   8   5 121.699   8.592   2
  10   8  -5 130.264  10.667   1
 -10   8   5 130.276  15.391   7
  10  -8   5 106.259   8.974   2
  -9 -10  -5 0.59191 4.78098   9
   9  10  -5 1.66273 5.09401   9
 -10  -9   5 -2.2278  4.9835   2
  -9 -10  -5 -6.2373  6.0540   1
  -9  10   5 -1.8260  7.8880   7
 -10   9  -5 -0.2575  6.5513   1
  -9  10   5 1.01497 4.54952   2
  10  -9  -5 9.42522 6.52828   1
 -10   9  -5 0.20602 5.03055   9
   9 -10   5 -1.7390  5.1208   2
   9  10  -5 -7.4162  5.3963   1
  10  -9  -5 -10.146   4.392   9
  10   9   5 7.37073 6.31493   6
  10   9   5 7.62514 5.46966   2
 -10  -9   5 0.45210 6.76384   3
  -9 -10   5 0.23376 6.63971   3
   9  10   5 -4.6402  4.6298   2
  10  -9   5 11.2826  5.7627   2
   9  10   5 1.82588 6.46668   6
  -9  10  -5 6.26773 5.34476   9
   9 -10  -5 -9.6701  4.6834   9
 -10   9   5 15.7825  9.5952   7
  -9 -10   5 2.87640 5.18788   2
  10   9  -5 12.8858  6.4385   1
 -10  -9  -5 4.12893 4.99745   9
  10   9  -5 6.64185 5.36768   9
 -10   9   5 0.34008 5.01622   2
  -9  10  -5 8.20877 6.37417   1
 -10  -9  -5 -2.8217  5.6796   1
   9 -10  -5 -7.9213  5.3817   1
 -10 -10   5 4.66155 5.37371   2
  10 -10  -5 5.63786 6.74625   1
 -10  10  -5 -0.3948  6.4667   1
  10  10   5 -4.4797  6.2151   6
 -10 -10   5 -3.3479  6.2503   3
 -10 -10  -5 2.63118 5.23197   9
  10  10   5 -3.1442  4.9843   2
 -10 -10  -5 4.16701 6.10666   1
 -10  10  -5 -1.5339  4.8750   9
  10 -10   5 1.99970 5.40332   2
  10 -10  -5 -0.8627  4.9708   9
 -10  10   5 2.51615 5.23031   2
 -10  10   5 -10.382   7.911   7
  10  10  -5 -13.169   4.623   9
  10  10  -5 -1.1869  6.1256   1
  11   0   5 3.12178 4.14013   2
   0 -11  -5 -6.8395  3.6315   9
 -11   0  -5 -4.4682  4.4176   1
 -11   0  -5 4.76181 4.14806   9
 -11   0   5 -2.3290  3.8827   2
   0  11  -5 4.21265 4.88783   1
  11   0  -5 -4.5011  4.4046   1
   0 -11  -5 -1.3277  4.5551   1
  11   0  -5 0.62343 4.11392   9
   0 -11   5 2.08489 4.51219   2
   0 -11   5 -8.5641  7.3542   3
   0 -11   5 5.54271 4.48764   2
  11   0   5 -4.6805  4.4908   6
 -11   0   5 3.92263 5.57388   7
   0  11   5 7.00066 4.29783   2
   0  11  -5 -4.0979  3.7623   9
 -11  -1   5 11.9361  4.7656   2
  11  -1  -5 13.6102  4.6603   9
 -11  -1   5 28.8418  6.7908   7
  11   1   5 28.2849  5.2662   2
  -1 -11  -5 30.1367  6.2272   1
   1 -11   5 22.4074  5.1107   2
   1  11  -5 8.94532 4.57740   9
   1  11  -5 14.0617  5.7115   1
  11   1   5 22.9147  6.1374   6
 -11   1  -5 23.8282  6.0765   1
   1 -11   5 21.1751  7.8172   3
 -11   1  -5 13.8555  4.6734   9
  -1 -11  -5 17.7020  4.7817   9
  11  -1  -5 16.2493  5.4997   1
  -1  11   5 17.4509  5.0505   2
  11   1  -5 22.8676  5.0684   9
   1 -11  -5 14.3310  4.6982   9
 -11   1   5 24.8472  7.1409   7
   1 -11  -5 28.1725  5.9954   1
  -1 -11   5 15.6955  5.0904   2
  11  -1   5 23.3997  5.3178   2
  11   1  -5 31.5424  6.0467   1
 -11  -1  -5 21.0973  4.8334   9
  11  -1   5 18.6473  6.0541   8
 -11  -1  -5 21.5081  5.8238   1
  -1  11  -5 19.0584  4.8496   9
 -11   1   5 20.5872  4.8666   2
   1  11   5 19.6724  4.8325   2
  -1 -11   5 20.6870 10.0455   3
  -1  11  -5 29.7949  6.4360   1
  -1  11  -5 12.7922  4.6923   9
  11  -1   5 6.84647 5.34239   6
  11  -2  -5 20.6427  5.0078   9
 -11   2  -5 14.5762  4.7101   9
  11  -2  -5 18.6102  5.5379   1
   2 -11   5 18.7460  5.1255   2
 -11   2  -5 23.0280  5.9244   1
   2 -11   5 20.4730  7.3761   3
  11   2   5 11.4815  5.7082   6
   2  11  -5 15.5365  5.9234   1
  11   2   5 17.5277  5.1560   2
  -2 -11  -5 15.7316  4.9184   9
  -2 -11  -5 15.4071  5.4565   1
 -11  -2   5 31.2215  6.5189   7
  -2  11   5 12.3816  4.7240   2
 -11  -2   5 19.8443  4.9340   2
   2  11  -5 10.5140  4.7501   9
  11  -2   5 20.8850  6.3004   8
  -2  11  -5 19.1807  4.7413   9
  -2 -11   5 28.6804 10.3086   3
  11   2  -5 17.6617  5.3883   1
 -11   2   5 3.04802 6.01330   7
  -2 -11   5 12.5021  5.0039   2
  11   2  -5 11.5477  4.6084   9
   2 -11  -5 15.4360  4.8261   9
 -11  -2  -5 19.4312  4.9017   9
  11  -2   5 19.5444  5.2133   2
  -2  11  -5 20.3510  6.1404   1
   2 -11  -5 22.6250  5.7174   1
   2  11   5 16.5868  4.8728   2
 -11   2   5 13.9221  4.6703   2
 -11  -2  -5 10.9975  5.7378   1
  11   3   5 3.68432 4.47139   2
  11  -3  -5 14.9381  4.9459   9
   3 -11   5 24.3317  6.8873   3
 -11   3  -5 2.02236 5.33260   1
   3  11  -5 11.4850  4.8088   9
  11  -3  -5 4.61298 5.18260   1
 -11  -3   5 20.2904  4.9944   2
  11   3   5 4.57010 5.24841   6
   3 -11   5 10.0402  4.7960   2
  -3 -11  -5 11.5305  5.6136   1
 -11   3  -5 18.8927  4.6978   9
  -3 -11  -5 6.98933 4.38881   9
  -3  11   5 9.66172 4.35692   2
   3  11  -5 10.2890  5.7994   1
 -11   3   5 5.85684 7.47356   7
  11   3  -5 2.50045 5.40498   1
 -11   3   5 5.52877 4.35768   2
 -11  -3  -5 15.6017  4.8471   9
  11  -3   5 18.7478  5.0363   2
  -3  11  -5 12.7334  4.8561   9
  -3  11  -5 6.62440 5.72673   1
  11   3  -5 11.1730  4.8184   9
   3 -11  -5 9.35081 5.69902   1
  -3 -11   5 15.4323  9.4670   3
   3  11   5 16.4014  4.9510   2
 -11  -3  -5 4.34571 5.24181   1
  -3 -11   5 5.51749 4.73439   2
  11  -3   5 7.20513 6.09797   8
   3 -11  -5 11.3719  4.8498   9
 -11   4  -5 5.08642 4.47308   9
  11  -4  -5 13.7896  5.7207   1
 -11  -4   5 1.52955 4.17492   2
  11   4   5 7.63784 5.81329   6
  -4 -11  -5 8.17453 5.37072   1
  11   4   5 5.08686 4.50687   2
  -4 -11  -5 14.3530  4.8514   9
   4  11  -5 3.87708 4.26112   9
  -4  11   5 0.52819 4.20420   2
   4 -11   5 7.19797 4.94217   2
  11  -4  -5 6.57876 4.49828   9
   4  11  -5 4.52588 5.25575   1
 -11   4  -5 11.6745  5.7238   1
  -4  11  -5 0.20622 4.43122   9
  11   4  -5 6.70341 5.33213   1
 -11   4   5 12.3291  7.4419   7
  -4  11  -5 2.73094 5.18215   1
 -11   4   5 6.65839 4.73431   2
  11  -4   5 9.72174 5.03946   2
 -11  -4  -5 8.16683 4.60229   9
  -4 -11   5 5.82747 4.69973   2
 -11  -4  -5 13.4769  5.9750   1
   4 -11  -5 4.99925 4.68856   9
  11   4  -5 8.20704 5.57547   6
   4 -11  -5 4.19807 5.53788   1
   4  11   5 -2.3541  4.4073   2
  -4 -11   5 6.39382 8.32460   3
  11   4  -5 4.79274 4.60033   9
  -5  11   5 5.40970 4.67878   2
 -11   5  -5 4.05645 4.38320   9
  11   5   5 -0.3472  5.6752   6
  -5 -11  -5 -2.1203  4.9248   1
  11  -5  -5 12.5306  5.8517   1
  11  -5  -5 3.73922 4.58346   9
  11   5   5 -1.9039  4.6390   2
   5 -11   5 1.32770 4.74873   2
   5  11  -5 6.30750 5.96108   1
   5  11  -5 2.14564 4.61539   9
 -11   5  -5 7.37705 5.50020   1
  -5 -11  -5 1.57617 4.46809   9
 -11  -5   5 0.37993 4.31985   2
  -5 -11   5 12.1404  7.3141   3
  11   5  -5 7.37643 5.82644   1
 -11  -5  -5 -1.6156  5.0641   1
   5 -11  -5 5.09553 4.63721   9
  11   5  -5 3.58840 5.39725   6
   5 -11  -5 0.41636 5.18418   1
  -5  11  -5 5.52170 5.53923   1
  -5  11  -5 -2.6262  4.3718   9
  -5 -11   5 1.71063 4.57409   2
 -11   5   5 -5.1552  8.1099   7
  11  -5   5 4.98873 4.53124   2
  11   5  -5 0.16815 4.57140   9
   5  11   5 5.55510 4.53935   2
 -11  -5  -5 2.45536 4.36420   9
 -11   5   5 4.87013 4.73638   2
  11  -6  -5 -2.8900  4.4315   9
  11   6   5 -1.0509  5.5153   6
   6 -11   5 -3.2530  4.7329   2
  11   6   5 -3.0556  4.7282   2
  -6  11   5 -3.6932  4.2833   2
   6  11  -5 9.71339 4.92737   9
   6  11  -5 1.05438 5.42167   1
  -6 -11  -5 4.87946 4.80775   9
 -11   6  -5 -3.2194  4.4143   9
 -11   6  -5 4.50156 5.62397   1
 -11  -6   5 -5.2341  4.3537   2
  11  -6  -5 0.65808 5.63315   1
  -6 -11  -5 1.53455 5.33120   1
   6  11   5 -5.7133  4.2154   2
   6 -11  -5 2.01865 4.52949   9
  11   6  -5 -4.7466  5.0835   1
 -11  -6  -5 2.44756 5.55588   1
  11  -6   5 -0.5753  4.8388   2
 -11   6   5 -0.5997  9.2655   7
  -6 -11   5 6.22991 5.08847   2
  11   6  -5 2.20171 5.40128   1
  -6 -11   5 1.10982 7.34406   3
   6  11   5 -2.8886  5.6104   6
  -6  11  -5 -0.5592  5.3594   1
  11   6  -5 0.56294 4.61817   9
 -11   6   5 -4.3008  4.0078   2
  -6  11  -5 -2.5805  4.4908   9
  11   6  -5 3.42537 5.85717   6
   6 -11  -5 -1.5308  5.3015   1
 -11  -6  -5 14.0576  4.9805   9
  -7  11   5 2.90101 4.79426   2
 -11   7  -5 3.48385 6.26548   1
  11   7   5 0.98215 4.91121   2
  11   7   5 9.25913 6.51332   6
   7  11  -5 -3.2717  4.9475   9
  11  -7  -5 1.34812 4.89381   9
  11  -7  -5 -9.6188  5.5835   1
  -7 -11  -5 0.54378 4.54960   9
 -11   7  -5 -5.8309  4.5782   9
   7 -11   5 3.68784 5.30556   2
 -11  -7   5 9.90160 5.09822   2
   7  11  -5 0.25773 5.63600   1
  -7 -11  -5 1.58766 6.01766   1
  -7 -11   5 11.8458  7.8079   3
 -11  -7  -5 3.48244 6.29582   1
  -7  11  -5 -1.3649  4.7373   9
   7 -11  -5 5.91708 6.23877   1
  11  -7   5 0.02797 4.97459   2
 -11   7   5 34.0564 11.4329   7
  11   7  -5 3.81836 6.18825   1
  -7  11  -5 3.71788 6.49742   1
   7  11   5 3.08543 6.27637   6
   7 -11  -5 -0.5718  4.6410   9
 -11   7   5 -3.7842  4.2964   2
  11   7  -5 3.96241 5.13611   9
   7  11   5 1.27496 5.15522   2
 -11  -7  -5 7.40930 5.00860   9
  -7 -11   5 -3.5196  4.7516   2
  11   8   5 28.1540  7.8113   6
  11   8   5 45.4943  6.7909   2
 -11   8  -5 36.8188  6.6214   9
  -8 -11  -5 35.0635  6.4523   9
   8  11  -5 51.6409  8.2894   1
  -8  11   5 54.9747  9.9693   7
  -8  11   5 37.6180  6.3683   2
  11  -8  -5 44.5344  8.2276   1
  -8 -11  -5 46.0296  8.1605   1
   8  11  -5 34.3288  6.8030   9
 -11   8  -5 47.5799  8.2847   1
   8 -11   5 42.5288  6.9566   2
 -11  -8   5 30.2690  6.5482   2
  11  -8  -5 42.5972  6.8491   9
 -11  -8  -5 43.6731  6.8556   9
   8 -11  -5 41.1633  6.8390   9
  -8 -11   5 47.7312  9.3527   3
  11  -8   5 54.5310  7.5367   2
  11   8  -5 41.5037  8.0563   1
  11   8  -5 43.1246  7.1228   9
  -8  11  -5 54.2553  7.2889   9
  -8  11  -5 47.5140  8.2980   1
 -11   8   5 31.3605 10.9504   7
   8  11   5 38.4081  6.5706   2
  -8 -11   5 45.0602  7.0431   2
 -11  -8  -5 37.4098  7.6511   1
 -11   8   5 41.9679  6.4932   2
   8  11   5 32.7502  7.9743   6
   8 -11  -5 34.3073  7.4525   1
  11  -9  -5 2.35941 6.64858   1
  -9  11   5 -0.0329  7.8233   7
  -9  11   5 -5.0274  5.0734   2
 -11  -9   5 -3.8553  4.8979   2
  -9 -11  -5 -5.0363  4.8957   9
  11   9   5 -0.7240  5.1816   2
   9  11  -5 1.81162 5.25747   9
  11   9   5 -1.0982  6.2257   6
  -9 -11  -5 15.8746  7.1515   1
   9  11  -5 -3.3195  5.7936   1
 -11   9  -5 -1.3220  6.6827   1
   9 -11   5 6.34325 5.74542   2
  11  -9  -5 6.39937 5.50422   9
 -11   9  -5 8.11293 5.39189   9
 -11   9   5 -6.0770  8.3466   7
 -11  -9  -5 1.87671 6.80460   1
   9 -11  -5 1.30267 5.36357   9
   9 -11  -5 3.62240 6.66208   1
   9  11   5 -4.4243  5.1153   2
  11  -9   5 -1.7302  5.1356   2
  -9 -11   5 8.98826 7.20746   3
  11   9  -5 7.81102 6.55851   1
   9  11   5 -7.7761  5.9569   6
  -9  11  -5 -2.9373  5.1390   9
 -11  -9  -5 2.91016 5.23575   9
  -9 -11   5 4.22572 5.36322   2
  11   9  -5 -0.5448  5.1457   9
  -9  11  -5 2.48583 7.04257   1
 -11   9   5 3.12048 5.39111   2
  12   0   5 180.092   9.852   2
   0  12  -5 207.073  11.594   1
  12   0  -5 209.224  11.506   1
   0  12  -5 176.202   9.904   9
   0 -12   5 195.609  16.482   3
 -12   0  -5 195.571   9.967   9
   0 -12   5 197.922  10.255   2
   0 -12   5 177.119   9.984   2
   0 -12  -5 202.341  10.099   9
  12   0  -5 183.256   9.860   9
 -12   0  -5 209.370  11.477   1
   0 -12  -5 189.377  11.625   1
 -12   0   5 182.803   9.869   2
 -12   0   5 180.694  12.111   7
   0  12   5 193.223   9.873   2
  12   0   5 203.998  11.952   6
 -12  -1   5 11.0171  6.0238   7
  12   1   5 9.20086 4.86637   2
   1  12  -5 2.16825 4.71816   9
  -1 -12  -5 0.44319 5.40103   1
 -12   1  -5 1.17442 5.16006   1
  -1 -12  -5 4.04364 4.51810   9
 -12   1  -5 6.30731 4.44567   9
  12   1   5 0.78478 5.31633   6
   1  12  -5 13.7505  6.3852   1
 -12  -1   5 3.29103 4.44374   2
   1 -12   5 -10.222   7.627   3
   1 -12   5 3.76322 4.79397   2
  12  -1  -5 -6.7917  4.0381   9
  12  -1  -5 1.82937 5.56924   1
  -1  12   5 3.47580 4.68736   2
  12  -1   5 0.84819 5.38567   6
  12   1  -5 8.83346 5.38042   1
  12   1  -5 1.74610 4.35725   9
  12  -1   5 6.13823 4.68762   2
  -1 -12   5 -3.9269  4.7002   2
   1 -12  -5 0.87751 4.40534   9
   1  12   5 -0.1032  4.3089   2
 -12   1   5 4.43278 4.36836   2
 -12  -1  -5 3.75658 4.35374   9
   1 -12  -5 -0.4993  5.0486   1
  -1  12  -5 3.77381 4.64835   9
 -12  -1  -5 6.68353 5.54091   1
  -1  12  -5 -3.6229  5.3850   1
  -1 -12   5 3.36767 9.38111   3
 -12   1   5 2.51571 6.18128   7
  -2 -12  -5 40.8585  7.2989   1
   2 -12   5 32.4143  8.5154   3
  -2  12   5 38.6869  5.7980   2
 -12   2  -5 32.8411  7.2165   1
 -12   2  -5 32.0136  5.7590   9
  12   2   5 27.9858  7.0435   6
   2  12  -5 32.9291  5.9938   9
  12  -2  -5 18.4832  6.3488   1
  -2 -12  -5 26.1854  5.3831   9
  12   2   5 34.8318  6.0785   2
   2 -12   5 33.6845  6.1976   2
   2  12  -5 28.2500  7.0305   1
 -12  -2   5 29.9985  5.7726   2
  12  -2  -5 31.5579  5.8328   9
  -2  12  -5 15.8469  5.0729   9
  12   2  -5 21.2408  6.2287   1
   2  12   5 22.9452  5.2615   2
  -2 -12   5 22.3430  5.6341   2
  -2  12  -5 22.4295  6.6209   1
 -12  -2  -5 25.0574  5.3023   9
 -12   2   5 25.9092  7.3558   7
 -12  -2  -5 30.7496  7.1011   1
   2 -12  -5 23.2349  6.4511   1
  -2  12  -5 34.5203  5.8800   9
  -2 -12   5 21.0701 11.0762   3
  12  -2   5 25.1666  5.7065   2
  12   2  -5 33.5104  6.0242   9
   2 -12  -5 22.3471  5.4774   9
 -12   2   5 30.7534  5.9405   2
  12  -2   5 19.0685  6.7392   8
 -12   3  -5 104.357   8.504   9
  12   3   5 123.633  10.905   6
  12  -3  -5 123.029   8.663   9
  -3 -12  -5 97.2381  9.3733   1
  -3  12   5 89.0410  7.9052   2
  12  -3  -5 92.3222  9.2741   1
  12   3   5 97.1978  8.3940   2
   3  12  -5 119.818  10.270   1
   3 -12   5 97.2533  8.6619   2
 -12   3  -5 124.680  10.395   1
  -3 -12  -5 109.689   8.065   9
 -12  -3   5 110.611   8.329   2
   3  12  -5 115.469   8.565   9
  12  -3   5 120.589  11.104   8
  -3  12  -5 97.2471  8.3404   9
  -3  12  -5 98.5554  9.5736   1
   3 -12  -5 112.593   8.263   9
   3  12   5 113.616   7.970   2
  -3 -12   5 104.832  14.016   3
 -12  -3  -5 99.5167  9.6261   1
  12   3  -5 90.1387  8.1674   9
 -12   3   5 112.429   8.353   2
 -12  -3  -5 122.390   8.438   9
  -3  12  -5 89.9716  8.1153   9
  12   3  -5 103.705   9.600   1
  -3 -12   5 105.344   8.797   2
  12  -3   5 96.9848  8.5899   2
   3 -12  -5 117.716   9.977   1
 -12   3   5 121.877  12.956   7
  12   4   5 13.6224  6.8787   6
   4  12  -5 6.08600 6.32522   1
 -12   4  -5 22.0295  5.5033   9
  -4 -12  -5 10.6430  6.2201   1
  12  -4  -5 19.1436  6.3978   1
  12   4   5 16.0925  5.3901   2
  12  -4  -5 16.3097  5.2496   9
  -4  12   5 8.93570 4.77413   2
 -12   4  -5 3.20706 6.01512   1
   4 -12   5 22.3821  5.8227   2
 -12  -4   5 10.4829  5.1376   2
   4  12  -5 32.8493  6.1525   9
  -4 -12  -5 13.2151  5.0899   9
  12   4  -5 10.8256  6.4023   6
   4 -12  -5 9.20528 5.84628   1
 -12  -4  -5 12.6146  6.4377   1
 -12   4   5 10.7014  8.5798   7
  12  -4   5 32.6047  8.3700   8
  12   4  -5 15.8557  6.1911   1
 -12  -4  -5 14.0238  5.1900   9
 -12   4   5 20.9723  5.3539   2
  -4 -12   5 21.7994  9.4808   3
   4 -12  -5 3.87710 4.84495   9
   4  12   5 16.5089  5.5487   2
  12   4  -5 18.3146  5.4803   9
  12  -4   5 16.8964  5.6180   2
  -4  12  -5 16.4034  5.4515   9
  -4 -12   5 9.72768 5.28911   2
  -4  12  -5 11.5356  6.5664   1
  12   5   5 84.9107  9.9569   6
  -5 -12  -5 86.3298  9.5694   1
  12  -5  -5 91.6599  9.4059   1
  -5 -12  -5 75.8913  7.7245   9
   5 -12   5 86.6203  8.4292   2
  12  -5  -5 81.1285  8.1598   9
   5  12  -5 88.2721  9.6631   1
  12   5   5 71.1426  7.6734   2
   5  12  -5 77.9085  8.1948   9
 -12   5  -5 79.7995  8.1127   9
 -12   5  -5 89.9715  9.7899   1
  -5  12   5 86.4763  7.8279   2
 -12  -5   5 70.9401  7.6186   2
  12   5  -5 79.1045  9.3059   1
  12   5  -5 89.3846  9.7218   6
   5 -12  -5 64.9664  7.4554   9
  -5 -12   5 76.2378 11.7478   3
 -12  -5  -5 74.4605  7.7683   9
 -12   5   5 84.9071  8.0242   2
   5 -12  -5 89.1727  9.7139   1
  12   5  -5 74.1232  7.8646   9
   5  12   5 83.1830  7.8793   2
 -12  -5  -5 90.6301  9.6971   1
 -12   5   5 62.6238 11.3616   7
  -5  12  -5 103.437  10.087   1
  -5 -12   5 90.5038  8.5490   2
  -5  12  -5 72.6035  7.9046   9
  12  -5   5 89.4448  8.2561   2
   6  12  -5 16.0488  5.9101   9
  -6 -12  -5 23.0725  5.8897   9
 -12  -6   5 12.2808  5.4706   2
 -12   6  -5 20.4230  7.0364   1
 -12   6  -5 30.4814  6.3650   9
  12  -6  -5 21.2335  7.0209   1
   6  12  -5 20.1914  6.9047   1
  -6  12   5 21.5411  5.8309   2
  12  -6  -5 27.9174  6.1999   9
   6 -12   5 27.0616  6.2611   2
  12   6   5 30.1332  7.6041   6
  12   6   5 22.9469  5.9912   2
  -6 -12  -5 23.9964  7.3012   1
  -6  12  -5 29.1298  7.3491   1
  -6  12  -5 20.1667  5.9538   9
  12   6  -5 14.3131  6.6283   1
 -12   6   5 14.9813  8.9607   7
  12   6  -5 37.2169  7.6592   6
   6 -12  -5 29.2031  6.0511   9
  -6 -12   5 12.8721  8.5509   3
 -12   6   5 21.9333  5.8890   2
  12   6  -5 33.1887  7.2596   1
  12   6  -5 22.5970  6.0822   9
  12  -6   5 18.8568  6.0029   2
 -12  -6  -5 15.6349  7.0718   1
   6 -12  -5 22.5586  7.4777   1
 -12  -6  -5 21.2831  5.7173   9
   6  12   5 14.6951  5.6062   2
  -6 -12   5 22.6470  5.9395   2
  12  -7  -5 4.90013 5.98733   1
 -12   7  -5 8.30588 6.88317   1
 -12   7  -5 4.91213 5.23842   9
  12  -7  -5 5.80969 5.47284   9
   7  12  -5 2.98012 6.03742   1
  -7  12   5 1.44853 5.07373   2
  -7 -12  -5 -4.4836  5.8017   1
   7 -12   5 6.89890 5.61450   2
 -12  -7   5 -0.4968  5.0290   2
  12   7   5 -2.8838  5.9008   6
  -7 -12  -5 1.49241 5.07232   9
   7  12  -5 1.29898 5.35390   9
  12   7   5 0.31183 5.25653   2
 -12  -7  -5 -1.2438  4.9634   9
   7  12   5 6.29252 5.33671   2
   7  12   5 -5.8328  5.9491   6
  -7  12  -5 -0.3839  5.1344   9
 -12   7   5 -3.4347  8.7947   7
  12  -7   5 9.78851 5.60731   2
  12   7  -5 4.30834 5.46709   9
  -7  12  -5 -3.7838  6.1159   1
 -12  -7  -5 -1.0536  6.4396   1
  12   7  -5 0.95631 6.08986   1
   7 -12  -5 2.16485 6.32855   1
   7 -12  -5 9.59723 5.68123   9
 -12   7   5 8.51564 5.15874   2
  -7 -12   5 5.59007 5.18036   2
  -7 -12   5 1.22704 7.19638   3
  -8 -12  -5 -3.3500  5.0703   9
   8 -12   5 -5.0111  5.1648   2
  12   8   5 -1.0210  6.2265   6
  12   8   5 3.05115 5.69115   2
   8  12  -5 5.12858 6.01117   9
  -8  12   5 1.97719 5.82159   2
  12  -8  -5 -4.7876  6.2153   1
 -12   8  -5 2.65135 5.13515   9
  12  -8  -5 -3.1542  5.2413   9
  -8 -12  -5 8.31686 7.08563   1
 -12  -8   5 0.67403 5.06048   2
 -12   8  -5 4.13985 7.08555   1
  12   8  -5 3.63275 5.31579   9
   8  12   5 1.86630 6.42572   6
  -8 -12   5 -4.9467  4.9170   2
  -8 -12   5 2.83451 7.17721   3
   8 -12  -5 1.24589 6.15116   1
 -12   8   5 5.55972 5.11919   2
   8  12   5 -2.2547  5.1854   2
  12   8  -5 4.26687 6.31469   1
 -12  -8  -5 -0.6286  5.2600   9
   8 -12  -5 -0.4484  5.1720   9
 -12   8   5 21.1567 10.7300   7
  12  -8   5 -4.0895  5.0845   2
 -12  -8  -5 9.32807 7.08036   1
  -8  12  -5 -1.0736  5.3454   9
   0 -13  -5 -5.7596  5.2234   1
  13   0  -5 -1.0347  5.4517   1
 -13   0  -5 0.84914 5.85137   1
   0 -13   5 4.52810 9.65637   3
 -13   0  -5 -1.1175  4.5832   9
   0 -13  -5 -7.4258  4.2229   9
 -13   0   5 -1.2971  4.4594   2
   0  13   5 2.42492 4.78164   2
  13   0  -5 -2.4883  4.7102   9
   0 -13   5 -4.3072  4.7133   2
  13   0   5 2.13654 6.01491   6
   0 -13   5 -0.2654  4.9588   2
   0  13  -5 7.38410 5.13616   9
  13   0   5 -4.9152  4.6346   2
 -13   0   5 2.67795 6.46887   7
   0  13  -5 9.25813 6.12277   1
  13   1   5 107.674   9.006   2
   1  13  -5 117.237  10.720   1
  -1 -13  -5 103.559   8.584   9
 -13   1  -5 106.705   8.774   9
 -13   1  -5 111.771  10.413   1
   1 -13   5 101.137   8.973   2
 -13  -1   5 109.904  10.805   7
   1 -13   5 102.807   9.123   2
  13   1   5 114.749  10.719   6
 -13  -1   5 127.578   8.768   2
   1  13  -5 114.811   9.236   9
  13  -1  -5 113.497  10.362   1
  -1 -13  -5 115.367  10.316   1
  13  -1  -5 113.349   9.158   9
  -1  13   5 107.958   8.842   2
   1 -13   5 118.694  13.487   3
   1 -13  -5 101.762   8.607   9
 -13   1   5 91.6304  8.3388   2
  -1  13  -5 129.071  11.174   1
  13  -1   5 102.258   8.765   2
  -1 -13   5 100.769   9.125   2
   1 -13  -5 111.059  10.159   1
  13   1  -5 137.602  10.992   1
  13   1  -5 112.922   9.117   9
  13  -1   5 141.602  10.795   6
  -1 -13   5 111.899  14.866   3
 -13  -1  -5 92.1992  9.6235   1
  -1  13  -5 115.287   9.127   9
 -13   1   5 119.781  12.183   7
   1  13   5 122.904   8.632   2
 -13  -1  -5 96.2091  8.4665   9
 -13   2  -5 24.5179  7.2089   1
  13   2   5 12.0386  5.5680   2
 -13  -2   5 21.7648  5.5975   2
  13  -2  -5 17.2762  5.7158   9
 -13   2  -5 12.3712  5.3274   9
  -2 -13  -5 8.98578 6.29060   1
  -2 -13  -5 10.7216  5.4368   9
   2 -13   5 12.3297  5.6517   2
   2  13  -5 10.9706  6.5039   1
   2 -13   5 28.8673  9.5579   3
   2  13  -5 8.89726 5.59954   9
  13   2   5 13.1728  6.6571   6
  13  -2  -5 14.3151  6.5103   1
  -2  13   5 15.8394  5.6166   2
 -13  -2  -5 19.7925  6.9627   1
  13   2  -5 15.3180  6.5356   1
   2  13   5 17.3337  5.4358   2
  13  -2   5 5.80496 5.37103   2
   2 -13  -5 22.0682  5.6794   9
  13   2  -5 10.3813  5.2997   9
  -2 -13   5 12.6618  5.4851   2
  -2  13  -5 18.1285  5.7442   9
  -2 -13   5 24.1353 10.9026   3
 -13   2   5 18.2204  7.9668   7
  -2  13  -5 8.43195 6.23543   1
   2 -13  -5 16.0727  6.4083   1
 -13   2   5 8.01528 4.99872   2
 -13  -2  -5 11.1399  5.3875   9
   3  13  -5 9.92105 6.67337   1
  -3  13   5 5.63149 4.96831   2
  -3 -13  -5 15.4458  5.2964   9
 -13   3  -5 4.97408 6.53131   1
  13   3   5 -0.7847  5.2692   2
 -13   3  -5 3.50681 5.07088   9
  -3 -13  -5 5.43535 6.32429   1
   3  13  -5 4.88676 5.31437   9
  13  -3  -5 -4.0834  5.4278   1
   3 -13   5 4.05725 5.31057   2
 -13  -3   5 7.43598 5.11984   2
  13  -3  -5 7.28666 5.27275   9
  13   3   5 12.2471  6.7068   6
   3 -13  -5 3.44992 4.90136   9
 -13  -3  -5 10.1085  6.3006   1
   3  13   5 8.78139 5.09072   2
 -13   3   5 9.47148 5.33285   2
  13   3  -5 11.8528  6.3313   1
 -13  -3  -5 2.74819 4.76675   9
 -13   3   5 3.51092 7.72513   7
  13  -3   5 11.9389  6.9878   8
   3 -13  -5 11.5342  6.6986   1
  13   3  -5 10.7599  5.2711   9
  -3 -13   5 10.8754  5.7676   2
  -3  13  -5 6.73895 5.30727   9
  -3  13  -5 6.39017 5.20758   9
  -3 -13   5 16.3781 10.0429   3
  13  -3   5 11.6606  5.6252   2
  -3  13  -5 3.82230 5.98675   1
  -4 -13  -5 14.5479  5.3972   9
   4  13  -5 0.03534 6.42899   1
   4 -13   5 10.5659  5.6701   2
 -13   4  -5 7.48705 6.76657   1
  13  -4  -5 12.8563  5.6267   9
  13   4   5 1.01976 6.42039   6
 -13   4  -5 7.79059 5.35051   9
  -4  13   5 20.7733  5.6133   2
  13  -4  -5 10.0247  6.2255   1
 -13  -4   5 12.7540  5.7702   2
  13   4   5 23.9956  6.2521   2
  -4 -13  -5 14.7714  6.5104   1
   4  13  -5 21.4636  6.2012   9
 -13   4   5 7.06406 8.35898   7
  -4 -13   5 6.20670 8.96225   3
  13   4  -5 13.5605  5.7195   9
  -4  13  -5 17.9460  6.9536   1
 -13  -4  -5 10.3509  6.5719   1
  13   4  -5 2.11082 5.84554   1
   4 -13  -5 12.3708  5.5049   9
 -13   4   5 19.5008  5.7918   2
  -4  13  -5 6.44070 5.37207   9
  -4 -13   5 5.83534 5.24018   2
   4  13   5 12.6269  5.5703   2
  -4  13  -5 20.8062  5.9506   9
  13  -4   5 26.9132  6.1724   2
   4 -13  -5 -1.2749  5.8234   1
 -13  -4  -5 4.19204 5.13540   9
  13   4  -5 14.9276  6.7685   6
 -13  -5   5 22.2883  6.2299   2
   5  13  -5 22.1277  6.3396   9
 -13   5  -5 13.5311  5.6914   9
  -5 -13  -5 28.2154  6.2525   9
  -5  13   5 23.7710  6.0637   2
   5  13  -5 40.2234  8.3322   1
  13  -5  -5 18.1030  7.2894   1
 -13   5  -5 22.6340  7.4541   1
  13   5   5 33.1165  8.0347   6
  -5 -13  -5 28.9645  7.7283   1
  13  -5  -5 27.5817  6.4647   9
  13   5   5 20.6882  6.1047   2
   5 -13   5 32.5170  6.8010   2
 -13   5   5 22.6231  5.8094   2
 -13   5   5 9.97105 8.60075   7
  -5 -13   5 23.8537  6.3347   2
  -5  13  -5 24.9467  6.3581   9
 -13  -5  -5 17.1260  7.0490   1
  -5  13  -5 30.9577  7.5870   1
  -5  13  -5 25.1669  6.2374   9
   5 -13  -5 10.3855  5.6411   9
  13   5  -5 11.2637  6.5911   6
  -5 -13   5 29.6305  9.7512   3
   5  13   5 16.6528  5.9703   2
  13   5  -5 31.1057  6.6486   9
 -13  -5  -5 13.5826  5.7884   9
  13  -5   5 20.6902  6.1440   2
   5 -13  -5 28.1739  7.3951   1
  13   5  -5 21.0041  6.9569   1
  13   6   5 8.11803 5.53501   2
  13  -6  -5 15.6565  6.2751   9
  13   6   5 17.2580  7.6030   6
  -6  13   5 14.9599  5.7004   2
  -6 -13  -5 26.0031  6.3319   9
  -6 -13  -5 16.7496  7.4411   1
 -13   6  -5 5.99018 7.25086   1
 -13  -6   5 15.2576  6.1339   2
   6 -13   5 1.10355 5.41122   2
  13  -6  -5 7.36834 6.47475   1
   6  13  -5 -1.7854  5.1671   9
 -13   6  -5 17.6198  6.1092   9
 -13   6   5 7.79005 8.71964   7
 -13  -6  -5 2.02276 6.46875   1
  -6 -13   5 22.2181  6.0996   2
  -6  13  -5 12.3896  5.9432   9
  13   6  -5 8.26799 6.77975   1
  13   6  -5 4.75296 6.60347   1
 -13  -6  -5 11.8866  5.7594   9
  13   6  -5 11.4642  6.7122   6
   6  13   5 5.52572 5.53844   2
   6 -13  -5 8.60192 7.20936   1
   6 -13  -5 11.2533  5.6964   9
  -6 -13   5 3.95171 7.84217   3
 -13   6   5 5.18738 5.63556   2
  13   6  -5 5.54509 5.45550   9
  13  -6   5 7.90751 5.98970   2
   0  14   5 125.478   9.255   2
 -14   0   5 144.991  12.759   7
 -14   0  -5 157.965  10.125   9
  14   0  -5 130.635   9.762   9
   0 -14  -5 155.436  11.271   1
   0 -14   5 150.737  10.290   2
   0 -14   5 132.912   9.987   2
   0 -14  -5 132.468   9.524   9
  14   0   5 137.367   9.857   2
 -14   0   5 134.874   9.500   2
 -14   0  -5 140.918  11.804   1
  14   0   5 150.288  12.932   6
   0  14  -5 139.835  11.778   1
   0  14  -5 139.642   9.965   9
   0 -14   5 111.083  14.458   3
  14   0  -5 155.308  11.216   1
  14  -1  -5 -11.694   5.713   1
  -1 -14  -5 1.38800 5.11925   9
   1 -14   5 7.91427 9.61673   3
  -1  14   5 2.54189 5.29128   2
  14   1   5 -3.6664  5.2712   2
   1 -14   5 -1.8429  5.0115   2
   1  14  -5 -5.9673  5.0139   9
   1 -14   5 4.04604 5.55551   2
  14  -1  -5 -5.6296  5.4164   9
 -14  -1   5 0.59869 5.38523   2
 -14   1  -5 3.00803 6.21162   1
   1  14  -5 -9.8483  5.8976   1
  -1 -14  -5 6.35478 6.32725   1
  14   1   5 6.70403 6.60567   6
 -14   1  -5 6.35970 5.35902   9
  14  -1   5 5.84721 6.87695   6
  14   1  -5 -2.3716  5.8470   1
   1  14   5 2.40379 4.95990   2
   1 -14  -5 -0.1916  5.9471   1
 -14  -1  -5 -7.0503  6.1603   1
 -14  -1  -5 -3.5463  4.8673   9
  14   1  -5 6.22546 5.32968   9
  -1  14  -5 -5.1522  6.4865   1
 -14   1   5 3.42145 5.49429   2
 -14   1   5 -3.5155  6.5773   7
  -1 -14   5 0.31086 5.27790   2
  -1  14  -5 -3.4254  5.1172   9
   1 -14  -5 3.25987 5.11365   9
  14  -1   5 3.37409 5.34189   2
  -1 -14   5 -13.023   8.615   3
  -2  14   5 11.8988  5.7141   2
  14  -2  -5 11.8350  5.7520   9
  -2 -14  -5 2.03081 5.31453   9
  14   2   5 18.1748  7.4615   6
  -2 -14  -5 10.5048  6.9359   1
   2  14  -5 24.8734  6.3976   9
  14  -2  -5 20.4969  7.5593   1
 -14   2  -5 19.4402  7.3056   1
  14   2   5 9.68358 5.84039   2
 -14  -2   5 20.9344  6.1045   2
 -14   2  -5 18.8181  6.0137   9
   2 -14   5 1.92695 5.37289   2
   2  14   5 9.31514 5.40737   2
   2 -14  -5 12.6510  6.8008   1
 -14   2   5 16.0958  8.3248   7
  14  -2   5 12.5517  5.7027   2
 -14   2   5 15.0391  5.8453   2
 -14  -2  -5 20.2968  7.0382   1
 -14  -2  -5 18.2714  5.9110   9
  -2  14  -5 9.48588 5.74745   9
  -2 -14   5 23.8584 10.4846   3
  -2 -14   5 12.2195  6.2041   2
  14   2  -5 17.1537  7.4162   1
   2 -14  -5 18.0307  5.9560   9
  14   2  -5 16.5513  5.8676   9
   3  14  -5 13.0539  5.8842   9
  14  -3  -5 11.8033  7.0696   1
  14   3   5 17.3807  6.4704   2
  -3  14   5 34.2587  6.5728   2
 -14   3  -5 8.78202 7.21831   1
  -3 -14  -5 19.6393  6.0712   9
   3 -14   5 14.5621  6.2269   2
  -3 -14  -5 22.9587  8.1175   1
 -14  -3   5 21.1503  6.0603   2
 -14   3  -5 15.9973  5.9399   9
  14   3   5 17.7722  7.3851   6
  14  -3  -5 36.8396  6.8756   9
 -14  -3  -5 25.1142  6.3148   9
   3  14   5 20.9601  6.1659   2
 -14  -3  -5 19.7538  7.7955   1
  14   3  -5 28.1153  6.3828   9
  -3  14  -5 28.4447  6.6565   9
  14  -3   5 17.0315  6.0794   2
  14   3  -5 30.0423  7.6550   6
  14   3  -5 25.2604  7.8410   1
 -14   3   5 18.4896  6.1956   2
   3 -14  -5 23.6587  6.2666   9
   3 -14  -5 23.9660  7.6538   1
  -3 -14   5 19.7538 10.5285   3
  -3 -14   5 24.4643  6.6344   2
 -14   3   5 29.9429  9.0972   7
   0   0   6 77.1287  5.5067   8
   0   0   6 93.4222  5.4337   3
   0   0   6 77.5931  5.3427   7
   0   0   6 77.3383  5.7247   5
  -1   0   6 -0.9252  2.9087   8
   0   1   6 -1.7197  2.8622   5
  -1   0   6 0.29984 2.67429   3
   0   1   6 -1.3253  2.5528   7
   0   1   6 1.54031 2.64470   3
   0   1   6 -3.8232  2.7657   8
   0  -1   6 -2.9788  2.7620   5
   0  -1   6 -1.1650  2.9962   8
   1   0   6 2.84268 3.07572   8
   0  -1   6 -0.1581  2.7911   3
  -1   0   6 -7.6857  2.1978   7
   0  -1   6 3.77730 2.93147   7
   1   0   6 1.46958 2.52544   3
   1   0   6 -3.9527  2.7055   7
   1   0   6 -1.4342  2.9142   5
  -1   0   6 3.16429 2.78122   5
  -1   1   6 514.758  14.517   8
   1   1   6 488.582  13.558   3
  -1  -1   6 507.741  14.067   7
  -1  -1  -6 506.750  10.124   4
  -1  -1   6 528.314  14.324   5
  -1  -1   6 522.340  14.066   3
  -1   1  -6 536.124   9.923   1
   1   1   6 532.543  14.090   7
   1   1   6 530.733  14.600   8
   1  -1   6 515.984  13.763   3
   1   1   6 518.555  13.949   5
   1  -1   6 516.540  14.104   5
   1  -1  -6 515.969  10.149   4
  -1  -1   6 525.346  14.387   8
  -1   1   6 497.021  13.961   5
   1  -1   6 518.274  14.499   8
  -1   1   6 522.586  14.320   7
  -1   1   6 539.972  14.105   3
   1   1  -6 532.234   9.914   1
   1  -1   6 495.223  14.006   7
   2   0   6 3958.76   75.16   7
   2   0   6 3937.81   73.99   3
  -2   0   6 3933.64   76.21   8
  -2   0   6 3821.17   74.35   3
   0   2  -6 4019.98   71.38   1
  -2   0   6 3872.82   75.25   7
   0  -2   6 3945.79   75.18   7
  -2   0   6 3884.64   75.36   5
   0  -2   6 3931.75   75.13   5
   2   0   6 3800.51   75.13   5
   0   2   6 3950.01   76.52   8
   0   2   6 3861.67   74.50   3
  -2   0  -6 3983.16   70.97   1
   2   0  -6 4010.95   73.51   4
   0  -2   6 3903.44   74.39   3
  -2   0  -6 3971.42   73.46   4
   0  -2  -6 3898.05   73.00   4
   2   0   6 4000.25   76.52   8
   0  -2   6 4066.01   76.36   8
   0   2   6 4016.01   75.06   7
   2   0  -6 4081.55   71.03   1
   0   2   6 3978.82   74.93   5
  -2  -1   6 -2.4509  2.7127   7
  -1   2   6 -0.7372  2.9278   8
   2   1   6 -0.0966  2.7778   3
  -2   1  -6 -1.6969  1.5323   1
   1  -2   6 2.37290 2.96936   3
   2   1   6 -1.9935  2.9082   5
   2   1   6 0.86654 2.90434   7
  -2  -1   6 1.41406 2.92545   3
   1   2  -6 -1.4463  1.6318   1
  -1   2   6 -2.0681  2.4690   3
  -2  -1   6 0.37257 3.03301   8
  -2  -1   6 1.36309 3.07216   5
   2   1   6 0.74899 2.81746   8
   2  -1  -6 0.66947 1.37899   1
  -1   2   6 2.85645 2.85015   5
  -1  -2  -6 0.80668 1.38171   4
   1  -2   6 1.73927 3.03650   7
   2  -1  -6 -1.5168  1.4395   4
  -1  -2  -6 1.58826 1.22735   1
  -1   2   6 -0.5480  2.9163   7
   1  -2   6 -1.0388  2.7918   8
   1  -2   6 -2.5628  2.9992   5
  -1   2  -6 -0.8137  1.6000   1
   1   2   6 -1.1413  2.5601   7
  -2  -1  -6 -0.1856  1.4483   4
   1   2   6 -0.0828  2.8992   3
  -1  -2   6 2.19683 3.05496   8
  -1  -2   6 -0.1246  2.9656   3
   2  -1   6 -0.8647  2.5747   3
   2  -1   6 0.20140 2.88312   7
  -2   1   6 5.95772 3.24351   5
   2  -1   6 -1.7138  3.0633   8
  -1  -2   6 -3.1899  2.8417   7
   1  -2  -6 -1.1245  1.3493   4
   1   2   6 0.02926 2.79186   5
   2  -1   6 -2.4289  3.0345   5
  -1  -2   6 -1.7009  2.9441   5
  -2  -1  -6 -0.4128  1.3318   1
  -2   1   6 0.33680 2.79440   7
  -2   1   6 0.96161 3.27172   8
   1   2   6 -1.0527  2.9899   8
  -2   1   6 0.21127 2.85168   3
   2   1  -6 -0.0988  1.5246   1
   2   1  -6 0.78586 1.64579   4
   1  -2  -6 -0.7408  1.2558   1
   2  -2   6 7242.64  131.68   3
  -2  -2   6 7189.22  133.51   5
   2  -2   6 7137.04  133.71   5
  -2  -2   6 7060.72  132.44   3
   2  -2   6 7168.16  135.64   8
   2  -2  -6 7269.07  129.91   1
  -2  -2   6 7396.06  134.79   8
   2   2   6 7164.46  133.08   5
   2   2   6 7306.20  132.89   7
   2  -2  -6 7554.71  134.11   4
  -2  -2  -6 7276.70  133.98   4
  -2  -2  -6 7385.84  129.95   1
   2   2  -6 7268.99  130.41   1
  -2   2   6 7230.55  135.75   8
  -2   2  -6 7299.95  130.45   1
  -2   2   6 7130.15  132.26   3
  -2  -2   6 7187.93  133.19   7
   2   2   6 7035.34  132.11   3
  -2   2   6 7314.36  133.75   7
  -2   2   6 7208.00  133.59   5
   2   2   6 7318.09  135.28   8
   0   3   6 0.85752 3.13967   8
   0  -3   6 0.87442 3.09579   3
  -3   0   6 0.64858 2.82971   8
   0  -3  -6 1.82931 1.69870   1
   0   3  -6 -0.8568  1.8834   1
   0   3   6 -4.7496  2.6601   3
   3   0   6 1.68006 2.88134   8
  -3   0  -6 0.09258 1.71094   1
   3   0  -6 -1.9986  1.7053   1
   3   0   6 -1.5844  2.9553   5
   0  -3  -6 0.59325 1.62957   4
   0  -3   6 0.28214 2.94561   8
   0   3   6 -0.6557  2.6732   7
  -3   0  -6 -1.3672  1.7687   4
  -3   0   6 -2.3773  2.6255   7
   0   3   6 0.71135 2.77538   5
   3   0  -6 -2.0299  1.7448   4
   0  -3   6 -0.7423  2.6644   7
  -3   0   6 -0.0278  3.0976   5
  -3   0   6 0.92450 2.70157   3
   3   0   6 -0.1798  2.8109   3
   0  -3   6 3.99655 3.22820   5
  -1   3   6 711.047  18.508   3
   3   1   6 741.133  18.760   5
  -3  -1   6 727.661  18.453   3
   3   1   6 742.656  18.562   7
   1  -3   6 765.614  19.268   8
  -3   1  -6 760.044  15.850   1
   3   1   6 756.589  18.087   3
   3  -1  -6 764.230  16.243   4
  -3  -1   6 766.905  19.087   5
  -1   3   6 721.055  18.346   5
  -1  -3  -6 749.111  16.039   4
  -1   3   6 751.853  19.578   8
  -3  -1   6 763.450  18.980   7
   1   3  -6 767.403  15.975   1
  -1  -3  -6 740.705  15.306   1
   3  -1  -6 754.761  15.569   1
  -1   3   6 751.660  18.706   7
   1  -3   6 745.928  18.918   7
   1  -3   6 753.612  18.910   5
  -3  -1   6 766.369  18.887   8
   1  -3   6 717.610  18.296   3
   3   1   6 777.884  19.333   8
  -3   1  -6 753.349  16.439   4
   3  -1   6 730.689  17.628   3
   1   3   6 757.629  18.279   7
  -3   1   6 763.996  19.278   5
   3  -1   6 765.518  19.583   8
   3   1  -6 759.502  15.732   1
  -3   1   6 752.372  19.172   7
  -1   3  -6 747.447  15.903   1
   1   3   6 742.670  19.139   8
  -3   1   6 765.486  19.469   8
  -1  -3   6 759.105  18.644   5
  -1  -3   6 775.161  18.789   8
  -3   1   6 771.033  18.582   3
   3   1  -6 755.588  16.478   4
  -3  -1  -6 763.898  16.305   4
  -1  -3   6 756.510  18.652   7
  -1  -3   6 749.676  18.734   3
   1  -3  -6 757.121  15.411   1
   1   3   6 770.729  18.265   5
   1  -3  -6 750.094  16.040   4
   1   3   6 716.020  18.582   3
  -3   2  -6 377.289   9.674   1
  -2   3   6 375.280  12.662   8
  -2  -3  -6 392.559   9.283   1
   3   2   6 384.048  11.671   3
  -2   3   6 371.119  11.714   3
   3   2   6 377.033  11.843   5
  -3  -2   6 386.650  11.995   5
   2  -3   6 371.410  12.358   8
   2   3  -6 377.252   9.711   1
   3   2   6 402.063  11.007   6
   3  -2  -6 390.472   9.398   1
   2  -3   6 379.027  12.008   5
   3   2   6 368.765  11.897   8
   3  -2  -6 383.324   9.791   4
  -2  -3  -6 383.343   9.767   4
  -3  -2   6 373.230  12.003   3
  -2   3   6 388.498  12.355   7
  -3  -2   6 372.774  11.637   8
  -2   3   6 384.814  12.089   5
   2  -3   6 386.941  11.437   3
  -3  -2   6 367.712  11.896   7
   3   2   6 383.499  11.691   7
  -2  -3   6 378.655  11.731   7
   2   3   6 404.721  12.403   8
  -3   2   6 399.833  12.562   7
   3   2  -6 396.170  10.199   4
   2   3   6 387.233  11.459   7
   2   3   6 388.623  12.134   3
   2  -3  -6 386.440   9.284   1
  -3   2   6 380.266  12.562   8
   2  -3  -6 385.123   9.700   4
  -3  -2  -6 376.579   9.733   4
  -2  -3   6 397.883  11.738   8
  -2  -3   6 389.725  12.245   3
   2   3   6 382.242  11.583   5
  -3   2   6 366.115  11.668   3
  -3  -2  -6 377.228   9.358   1
   3  -2   6 385.618  11.236   3
  -2  -3   6 394.251  12.066   5
   3  -2   6 392.224  12.839   8
  -2   3  -6 383.620   9.760   1
   3   2  -6 380.083   9.627   1
  -3   3   6 1019.99   23.89   3
   3   3   6 1013.02   23.74   5
   3  -3  -6 1050.21   22.39   4
   3   3   6 1073.13   23.88   6
  -3  -3   6 1004.19   24.29   3
  -3  -3   6 1070.76   24.20   7
   3   3   6 1048.48   24.53   8
   3  -3   6 1031.88   25.48   8
  -3  -3  -6 1057.49   22.37   4
  -3  -3  -6 1023.97   21.54   1
   3  -3  -6 1038.95   21.62   1
  -3  -3   6 1089.60   24.51   5
   3   3   6 1022.87   24.05   3
  -3   3  -6 1041.89   22.00   1
   3  -3   6 1026.42   23.07   3
   3   3  -6 1097.74   23.06   4
  -3   3   6 1043.49   25.03   7
   3   3   6 1067.11   23.72   7
  -3  -3   6 1059.49   23.84   8
   3   3  -6 1052.80   22.01   1
   0  -4   6 3630.54   69.29   5
   0   4   6 3597.42   68.55   5
   4   0   6 3565.63   67.65   3
  -4   0   6 3624.19   70.51   8
  -4   0   6 3523.35   68.51   3
   0   4   6 3592.06   70.82   8
   0  -4  -6 3570.55   68.42   4
   0  -4  -6 3585.86   66.32   1
  -4   0  -6 3617.55   68.83   4
   0   4   6 3449.62   69.04   3
   0  -4   6 3608.48   69.41   7
   4   0   6 3607.63   70.64   8
   4   0  -6 3711.36   68.92   4
   0   4  -6 3543.63   66.88   1
   0   4   6 3620.50   68.81   7
   0  -4   6 3558.17   69.08   3
  -4   0   6 3580.38   70.08   7
  -4   0  -6 3625.29   66.72   1
   0  -4   6 3609.76   70.14   8
   4   0  -6 3625.61   66.63   1
   4   1   6 151.975   6.940   3
  -1   4   6 151.535   7.716   3
  -4   1  -6 143.209   5.892   4
  -1   4   6 138.824   7.654   8
   4   1   6 165.686   6.591   6
  -4  -1   6 167.122   7.324   3
  -4  -1   6 159.251   7.546   7
   4  -1  -6 146.850   5.581   1
  -4   1  -6 148.285   5.636   1
   1  -4   6 154.564   7.446   3
  -4  -1   6 149.039   7.367   8
   1  -4   6 152.477   7.753   8
   4  -1  -6 152.163   5.775   4
   1   4  -6 150.441   5.962   1
  -4  -1   6 127.372   7.523   5
  -1   4   6 142.190   7.270   5
   4   1   6 142.935   7.545   8
  -1  -4  -6 142.339   5.368   1
  -1   4   6 153.059   7.268   7
  -1  -4  -6 150.471   5.625   4
   1  -4   6 147.741   7.453   5
   4  -1   6 164.844   8.183   8
   1   4   6 144.018   6.696   5
  -4   1   6 159.843   8.092   7
  -4  -1  -6 152.217   5.600   1
   4   1  -6 152.491   5.692   1
   1  -4  -6 145.469   5.474   1
  -4   1   6 149.639   7.206   3
  -1  -4   6 139.937   7.566   3
  -1  -4   6 152.416   7.279   8
   4  -1   6 155.387   6.701   3
  -1  -4   6 157.545   7.328   5
   4   1  -6 147.561   5.911   4
   1   4   6 151.055   6.861   7
   1   4   6 143.752   7.330   8
  -1  -4   6 157.681   7.403   7
   1   4   6 144.904   7.582   3
  -4  -1  -6 150.856   5.893   4
  -1   4  -6 149.210   5.833   1
  -4  -2   6 2423.58   48.46   5
  -4  -2   6 2294.35   47.70   7
  -2   4   6 2333.31   47.70   3
   2  -4   6 2334.41   47.01   3
   4  -2  -6 2386.90   46.71   4
  -4  -2   6 2314.34   47.57   3
   4   2   6 2317.78   46.87   3
  -4  -2   6 2425.57   47.88   8
  -2   4   6 2360.90   47.65   5
  -2  -4  -6 2331.93   45.07   1
   4  -2  -6 2357.91   45.23   1
  -4   2  -6 2412.72   47.17   4
  -2  -4  -6 2365.06   46.65   4
   4   2   6 2380.18   48.45   8
  -4   2  -6 2348.31   45.50   1
   2   4  -6 2340.10   45.68   1
  -2   4   6 2415.98   48.25   7
   4   2   6 2456.25   47.81   6
   2  -4   6 2313.30   49.08   8
   4  -2   6 2314.67   49.31   8
   2   4   6 2366.61   48.10   3
   2   4   6 2361.91   48.43   8
  -4  -2  -6 2406.97   45.22   1
  -4   2   6 2359.26   48.80   7
  -2  -4   6 2293.08   48.02   3
  -4  -2  -6 2437.06   46.74   4
  -2  -4   6 2441.05   47.75   8
   2   4   6 2415.64   46.89   7
  -2  -4   6 2355.27   47.44   5
   2  -4  -6 2350.91   46.54   4
  -4   2   6 2366.55   47.24   3
  -2  -4   6 2304.16   47.40   7
   4   2  -6 2420.65   47.18   4
  -2   4  -6 2386.39   45.68   1
   2   4   6 2345.11   46.79   5
   2  -4  -6 2322.34   45.00   1
   4   2  -6 2326.95   45.43   1
   4  -2   6 2371.48   45.98   3
   4  -3  -6 1.00089 2.51842   1
  -4   3  -6 3.76605 2.00612   9
  -4  -3   6 9.18987 3.25162   8
   4  -3  -6 2.59211 2.51434   4
   4   3   6 -2.6404  2.9230   8
  -4  -3   6 5.59910 3.30346   7
   3   4  -6 0.21309 2.71375   1
   3  -4   6 3.90070 3.48731   8
   3   4  -6 3.66826 2.79425   1
   4   3   6 1.83608 3.41269   3
  -3   4   6 0.94707 3.44178   7
  -4   3  -6 4.62914 2.62646   1
   3  -4   6 3.02174 3.16533   3
  -4  -3   6 7.22266 3.65069   5
  -3  -4  -6 0.41579 2.34812   4
  -4  -3   6 -2.8036  3.2546   3
  -3  -4  -6 5.06742 2.62463   1
   3   4  -6 1.27256 2.03314   9
   4   3   6 0.83400 3.03586   6
  -3   4   6 3.94353 3.08391   3
   4   3  -6 3.23105 1.97514   9
  -3  -4   6 10.2723  3.4087   7
   4   3  -6 -0.6984  1.8855   9
   3   4   6 7.23729 3.68501   3
  -4   3   6 1.30616 3.17653   3
   3   4   6 1.46969 3.15833   8
  -3  -4   6 -0.6890  3.4044   3
   3   4   6 2.00423 2.95726   7
  -3  -4   6 2.41805 3.23033   5
   3   4   6 7.45445 3.11125   5
   3  -4  -6 0.88552 2.40214   1
   4  -3   6 7.57971 3.06693   3
   4   3  -6 4.26924 2.72492   4
  -3  -4   6 -0.6582  3.0336   8
  -4  -3  -6 2.55478 2.63142   1
  -4  -3  -6 2.55647 2.39592   4
  -3   4  -6 4.25286 2.66917   1
   4  -3   6 0.36683 3.38651   8
  -3   4  -6 1.60733 1.90313   9
  -4   3   6 1.77030 3.45057   7
   3   4   6 7.97276 3.33741   6
   4   3  -6 5.45864 2.55774   1
   3  -4  -6 2.27494 2.45143   4
  -4  -4  -6 1390.08   29.92   4
   4   4  -6 1373.17   30.39   4
   4   4  -6 1352.58   29.09   1
  -4  -4   6 1395.28   26.17   2
   4  -4  -6 1379.42   28.81   1
  -4   4  -6 1351.77   29.11   1
   4  -4   6 1341.76   32.50   8
   4  -4  -6 1389.22   26.79   9
  -4   4  -6 1427.86   27.47   9
  -4   4   6 1357.11   31.99   7
   4   4   6 1339.08   30.98   3
  -4  -4   6 1377.28   31.40   3
   4  -4  -6 1435.55   29.95   4
  -4  -4   6 1382.74   30.33   7
   4   4  -6 1435.16   27.58   9
   4  -4   6 1365.87   29.20   3
   4   4   6 1366.94   30.68   8
  -4  -4   6 1409.80   30.75   5
  -4  -4   6 1363.57   29.71   8
  -4  -4  -6 1367.41   28.75   1
   4  -4   6 1403.98   26.22   2
   4   4   6 1409.37   31.29   6
  -4   4   6 1416.24   30.76   3
   5   0   6 1.52908 2.91861   3
   0   5   6 -1.6645  3.5074   8
   0   5  -6 -1.5635  1.9625   9
   0  -5   6 -2.1378  3.1150   5
   5   0  -6 -1.1826  2.3128   4
   0  -5   6 2.49999 3.38191   8
   5   0  -6 -0.0178  2.5775   1
   0   5  -6 -2.6652  2.4144   1
   0   5   6 -0.5574  2.9688   7
  -5   0  -6 -0.7935  2.5207   1
  -5   0  -6 -1.6078  2.3026   4
  -5   0   6 -2.8932  2.8832   3
   0  -5   6 6.15060 3.30934   3
   0   5   6 -2.9096  2.8705   5
   0   5   6 -0.0055  3.0962   3
  -5   0   6 -4.0187  3.0384   7
   0  -5  -6 2.45693 2.50132   1
   5   0   6 -0.2355  3.0212   8
  -1   5   6 350.253  11.565   7
  -1   5   6 355.753  11.290   5
   1  -5   6 359.643  11.831   5
  -5  -1   6 351.725  11.589   3
  -1   5   6 361.129  12.394   3
   1  -5   6 368.668  12.130   3
  -5   1  -6 364.193  10.593   4
   1  -5   6 365.177  12.402   8
  -5   1  -6 362.266   8.692   9
   5   1   6 369.897  11.116   6
   5   1   6 359.093  12.177   8
   1   5  -6 324.539  10.138   1
  -1  -5  -6 363.284  10.325   4
  -5  -1   6 368.356  12.490   7
   5  -1  -6 364.280  10.189   1
   5  -1  -6 364.607  10.525   4
   5   1   6 356.825  11.051   3
   1   5  -6 370.163   9.049   9
  -5   1  -6 367.796  10.379   1
  -1  -5  -6 353.662   9.962   1
  -1  -5   6 352.942  12.181   3
   1  -5  -6 377.137  10.134   1
  -1   5  -6 375.638   9.015   9
  -5  -1  -6 349.947  10.076   1
  -1  -5   6 370.770  11.672   8
  -5   1   6 368.583  12.976   7
  -1  -5   6 367.510  11.592   5
   1   5   6 363.235  10.954   5
   5   1  -6 372.333  10.665   4
   1   5   6 353.400  12.492   3
   5  -1   6 356.348  12.625   8
  -1  -5   6 342.014  11.555   7
   1   5   6 347.774  12.268   8
  -5  -1  -6 364.403  10.609   4
   5   1  -6 370.371   8.828   9
   5   1  -6 340.348  10.046   1
  -5   1   6 357.459  11.470   3
   1   5   6 357.494  11.025   7
   5  -1   6 362.255  10.499   3
  -1   5  -6 346.485  10.286   1
  -2   5   6 12.2114  3.8058   3
   2  -5   6 14.1482  1.8189   2
  -5   2  -6 16.5662  3.4116   4
   5   2   6 15.3504  3.7814   3
   5  -2  -6 12.9802  3.0484   4
   2   5  -6 17.0523  2.7167   9
   5  -2  -6 19.5105  3.3564   1
   2   5  -6 16.7375  3.5655   1
   5   2   6 8.85096 3.68435   8
   2  -5   6 14.6604  3.7991   3
   2  -5   6 11.2268  4.2434   8
  -5   2  -6 15.4133  3.4355   1
  -5   2  -6 18.9896  2.6184   9
  -5  -2   6 14.8544  3.9007   3
  -2  -5  -6 14.7015  3.0207   4
  -5  -2   6 13.4374  3.8313   8
  -2   5   6 24.2201  4.4113   7
  -2   5   6 13.3091  3.8305   5
  -2  -5  -6 20.4313  3.4003   1
  -5  -2   6 7.32740 3.61047   7
   5   2   6 16.5414  3.8358   6
   5   2  -6 13.0764  2.5103   9
  -2  -5   6 13.8713  3.7941   5
   2   5   6 12.9290  3.8930   8
   2  -5  -6 14.8828  3.0312   4
  -2  -5   6 15.0726  1.7814   2
  -5  -2  -6 16.5707  3.2571   1
  -2  -5   6 22.2258  3.9822   8
   2   5   6 19.6032  3.6632   7
  -5   2   6 19.8518  4.7959   7
  -5  -2  -6 12.0904  3.0106   4
  -2   5  -6 15.1678  2.5785   9
   5   2  -6 10.5054  3.0781   4
  -2  -5   6 10.7817  4.2026   3
   2   5   6 18.4161  4.6253   3
  -2  -5   6 16.3716  3.8367   7
   5  -2   6 15.6892  3.2714   3
  -5   2   6 19.5930  3.9058   3
   5   2  -6 16.5592  3.4188   1
  -2   5  -6 16.4366  3.5168   1
   2   5   6 20.6794  3.7947   5
   2  -5  -6 11.2897  3.0250   1
   5  -2   6 13.6868  4.5365   8
   3   5  -6 467.104  11.610   9
   5   3   6 471.748  14.011   8
   3  -5   6 471.729  13.609   3
  -3   5   6 467.229  14.351   3
   5   3   6 477.991  14.071   6
  -3  -5  -6 465.208  12.981   4
  -3  -5  -6 461.540  10.814   9
  -5  -3   6 467.492  13.968   7
  -3  -5  -6 444.851  12.248   1
   3   5  -6 447.512  12.684   1
  -3   5   6 473.215  14.822   7
  -5  -3   6 465.639   9.999   2
   5   3   6 475.907  14.190   3
   5  -3  -6 473.279  12.647   1
   5  -3  -6 456.472  12.865   4
   5  -3  -6 466.774  11.014   9
  -5  -3   6 485.461  13.562   8
   3  -5   6 466.689  15.189   8
  -5  -3   6 471.479  14.562   5
  -5   3  -6 445.001  12.850   1
  -5  -3   6 465.690  14.327   3
  -5   3  -6 460.953  11.307   9
   3  -5  -6 476.503  10.906   9
   3   5   6 430.464  12.678   5
  -5  -3  -6 472.369  12.915   4
   5   3  -6 465.129  11.474   9
   5   3  -6 456.951  12.662   1
  -5   3   6 478.354  15.568   7
   3   5   6 484.946  13.014   7
  -3   5  -6 435.734  12.705   1
  -5  -3  -6 462.532  12.460   1
  -5   3   6 449.055  13.652   3
  -3   5  -6 483.754  11.468   9
  -3  -5   6 483.682  13.784   5
   3  -5  -6 459.391  12.516   1
  -3  -5   6 452.152  14.790   3
  -3  -5   6 455.316  13.032   8
  -3  -5   6 477.779  13.801   7
   3   5   6 471.278  14.431   6
   5  -3   6 440.595  15.067   8
   3   5   6 470.632  14.150   8
   5   3  -6 460.975  13.196   4
  -5  -3  -6 474.223  10.964   9
   3  -5  -6 470.194  12.963   4
  -4   5   6 18.9552  4.4928   3
   5   4   6 36.3341  5.1595   6
   4   5  -6 20.5391  3.4423   9
   5  -4  -6 26.6596  3.9871   4
  -4  -5  -6 27.6815  3.2659   9
   4  -5   6 24.8475  2.9589   2
  -5  -4   6 20.4811  4.7647   3
  -5   4  -6 24.2336  3.3810   9
  -5   4  -6 26.6808  4.1374   1
  -4  -5  -6 21.9396  3.9632   4
  -5  -4   6 19.8513  2.7177   2
   5  -4  -6 27.4354  3.3008   9
   4   5  -6 19.6428  3.9239   1
   4  -5   6 25.0875  4.1430   3
   5   4   6 25.8229  4.4196   8
   4  -5   6 24.7130  5.2666   8
   4   5  -6 23.6958  4.0731   1
  -4  -5  -6 23.6599  3.8820   1
  -4   5   6 25.5056  5.2269   7
   5  -4  -6 24.8052  4.0125   1
  -5  -4   6 30.5253  4.8831   5
  -5  -4   6 17.7085  4.0191   7
   5  -4   6 28.0731  3.0262   2
   4  -5  -6 22.9408  3.1110   9
  -4   5  -6 24.3371  3.4410   9
  -5  -4  -6 23.5986  4.0464   4
   4   5   6 25.4718  4.7680   6
  -4   5  -6 24.3700  4.0828   1
  -4  -5   6 18.1149  4.2534   5
   5  -4   6 19.0893  4.9981   8
  -4  -5   6 35.7199  5.4885   3
  -4  -5   6 24.2791  2.9378   2
  -5  -4  -6 27.6941  3.2030   9
  -5   4   6 33.2401  5.4551   7
   4   5   6 26.2298  4.5396   8
   4  -5  -6 17.6511  3.6668   4
   5   4  -6 22.3526  4.1468   1
   4  -5  -6 31.0796  4.1678   1
  -5  -4  -6 30.4131  4.0861   1
  -4  -5   6 26.8860  4.4003   7
  -5   4   6 24.3968  4.5397   3
   5   4  -6 21.6740  3.3725   9
   5   5  -6 742.915  17.311   9
  -5   5   6 743.718  14.899   2
  -5  -5  -6 731.832  19.015   4
   5  -5   6 733.062  16.507   2
  -5   5   6 715.637  19.131   3
   5  -5  -6 693.970  18.097   1
  -5  -5   6 728.300  16.381   2
   5  -5   6 738.984  22.108   8
  -5  -5   6 722.781  20.360   3
  -5   5   6 726.667  21.241   7
  -5   5  -6 697.656  16.937   9
   5  -5  -6 727.698  16.790   9
   5   5   6 758.939  19.256   8
   5   5  -6 705.816  18.396   1
   5   5  -6 689.025  18.329   1
   5   5   6 729.820  14.839   2
   5   5   6 753.481  20.299   6
  -5   5  -6 724.505  18.550   1
  -5  -5   6 717.811  18.647   7
  -5  -5  -6 742.839  16.668   9
  -5  -5   6 718.285  19.088   5
  -5  -5  -6 685.752  17.981   1
   0   6  -6 6081.26  116.10   1
   6   0  -6 6280.62  115.82   1
   0  -6  -6 6238.32  112.44   9
   0  -6   6 6382.61  113.73   2
  -6   0   6 6309.48  112.22   2
   0  -6  -6 6074.15  115.47   1
   0  -6   6 6175.12  117.45   3
  -6   0  -6 6442.99  112.95   9
   6   0  -6 6401.35  113.22   9
   0  -6   6 6268.95  116.88   5
   0   6   6 6352.30  116.19   7
   0   6   6 6249.79  118.07   3
   6   0   6 6308.41  119.40   8
   0   6  -6 6360.43  113.45   9
   6   0  -6 6396.15  119.63   4
   0  -6   6 6279.55  118.68   8
  -6   0   6 6290.36  116.00   3
  -6   0   6 6203.79  118.56   7
  -6   0  -6 6027.65  115.78   1
  -6   0  -6 6293.85  119.50   4
   0   6   6 6313.05  115.73   5
   1   6  -6 37.5410  4.4637   1
  -6   1  -6 48.5580  4.6867   4
   6   1   6 35.3380  5.1044   8
   1  -6   6 44.9481  5.5674   8
  -1   6   6 46.2901  4.8266   5
  -6   1  -6 43.2910  3.7078   9
  -6  -1   6 35.9769  2.5657   2
  -6  -1   6 38.3747  4.9141   3
   1   6  -6 37.9986  3.6985   9
   6  -1  -6 39.2858  4.3072   1
  -6  -1   6 36.3359  5.0996   7
  -1   6   6 42.7116  5.8687   3
  -1  -6  -6 40.2066  3.3580   9
   1  -6   6 43.5532  5.4968   3
  -1  -6  -6 41.4180  4.3956   4
  -6   1  -6 37.6209  4.3194   1
   1  -6   6 36.7412  3.2297   2
  -1  -6  -6 41.8823  4.2423   1
   6  -1  -6 44.6885  4.5490   4
   6  -1  -6 43.4825  3.6960   9
   6   1   6 40.0936  4.6177   3
  -1   6   6 42.8866  5.1379   7
   6   1   6 47.1911  5.1914   6
  -6  -1  -6 43.6178  3.6074   9
  -1  -6   6 37.2804  3.1623   2
   6  -1   6 34.8056  2.5932   2
   6   1  -6 37.8266  4.4359   1
  -6  -1  -6 30.4244  4.1183   1
   1   6   6 46.4171  4.6132   7
  -1   6  -6 40.4185  4.5411   1
  -6   1   6 33.3915  4.8315   3
  -1   6  -6 42.2341  3.8500   9
   6  -1   6 40.8673  5.7247   8
  -1  -6   6 45.2055  5.2641   5
  -1  -6   6 44.1344  5.8117   3
  -1  -6   6 44.4774  4.9321   8
   6   1  -6 41.6407  3.6995   9
   6   1  -6 45.1635  4.6717   4
  -6   1   6 49.0288  6.2369   7
   1  -6  -6 40.7539  4.4069   1
  -6  -1  -6 42.4542  4.5012   4
   1  -6  -6 45.0207  3.5291   9
  -2   6   6 2760.59   53.21   5
   2  -6   6 2644.92   53.31   3
   6   2   6 2588.96   52.25   3
   2  -6   6 2663.62   50.04   2
  -6   2  -6 2670.39   54.13   4
   6   2   6 2736.10   54.58   6
   6  -2  -6 2584.87   49.92   9
   6  -2  -6 2752.11   53.90   4
  -2  -6  -6 2586.34   51.83   1
  -6   2  -6 2695.11   50.18   9
  -2  -6  -6 2702.12   53.73   4
   2  -6   6 2674.76   50.07   2
  -2   6   6 2616.75   54.21   3
  -6  -2   6 2693.73   54.22   7
  -6  -2   6 2663.13   49.32   2
   2  -6   6 2652.94   55.41   8
  -6   2  -6 2592.34   52.24   1
  -2   6   6 2668.69   53.69   7
   2   6  -6 2582.30   52.24   1
   6   2   6 2663.96   54.14   8
   2   6  -6 2649.49   50.47   9
  -6  -2   6 2644.76   53.20   3
   6  -2  -6 2640.60   52.02   1
   6   2  -6 2690.49   50.41   9
   2  -6  -6 2642.69   49.67   9
   6  -2   6 2587.71   55.46   8
  -2  -6   6 2644.40   53.02   7
  -2  -6   6 2692.88   49.98   2
  -2  -6   6 2675.55   52.86   5
  -6   2   6 2746.04   52.86   3
   6   2  -6 2645.92   54.02   4
  -6  -2  -6 2631.80   53.75   4
  -2  -6   6 2660.53   53.09   8
   2   6   6 2703.54   54.63   8
  -6  -2  -6 2682.54   49.96   9
   2  -6  -6 2589.38   51.86   1
  -2  -6   6 2591.17   54.66   3
  -6  -2  -6 2582.11   51.92   1
   6   2  -6 2574.63   52.07   1
   2  -6  -6 2704.13   53.68   4
  -6   2   6 2671.71   48.24   2
  -2   6  -6 2716.32   50.48   9
  -2   6  -6 2570.60   52.33   1
  -6   2   6 2645.62   55.58   7
   6  -2   6 2672.17   49.44   2
   6  -3  -6 63.4022  5.2577   1
   6  -3  -6 66.9562  5.7079   4
  -3   6   6 70.4688  6.9018   3
  -6  -3   6 66.0519  6.2271   7
   3  -6   6 55.0419  6.9200   8
  -6   3  -6 76.8555  5.7930   1
  -6  -3   6 73.1360  4.0428   2
  -3   6   6 74.0138  6.9008   7
   6   3   6 79.4925  6.5117   8
   3   6  -6 66.0122  5.7511   1
  -3  -6  -6 67.3335  5.3938   1
   6   3   6 69.4428  3.2708   2
   3  -6   6 65.5432  6.2525   3
   3   6  -6 80.6961  5.0110   9
  -6   3  -6 72.5797  5.9819   4
  -3  -6  -6 80.0602  5.7780   4
  -3  -6  -6 71.1899  4.5395   9
   3   6  -6 65.4027  4.8730   9
  -6   3  -6 71.4834  4.5439   9
   3  -6   6 70.1734  4.5118   2
  -6  -3   6 55.7445  6.0220   3
   6  -3  -6 70.5811  4.7061   9
   6   3   6 76.1256  6.6388   6
  -3  -6   6 79.2294  6.1423   7
   3  -6  -6 71.0278  4.4682   9
   6  -3   6 72.9832  4.2632   2
   6   3  -6 69.8624  5.0755   9
   3  -6  -6 66.9730  5.5479   1
   3  -6  -6 66.5455  5.5115   4
   3   6   6 71.1009  6.3402   8
   6  -3   6 62.5561  6.8092   8
  -3  -6   6 70.7793  6.1050   5
  -6  -3  -6 72.4579  4.6595   9
  -6  -3  -6 74.1418  5.9644   4
   3   6   6 82.8123  7.0330   6
  -3   6  -6 65.1469  5.7367   1
  -6   3   6 77.4069  6.2994   3
  -6   3   6 69.3295  7.5202   7
  -3  -6   6 56.0399  6.4182   3
  -6  -3  -6 68.1811  5.5168   1
  -3   6  -6 70.3359  4.8445   9
   6   3  -6 70.2140  5.6514   1
  -6   3   6 75.9402  3.3525   2
  -3  -6   6 69.9487  4.2651   2
   4   6  -6 2806.09   56.55   1
   6  -4  -6 2879.69   56.25   1
  -6  -4   6 2861.82   54.08   2
  -4  -6  -6 2786.85   56.03   1
   6   4   6 2838.30   57.24   8
   6   4   6 2841.61   59.10   6
   4  -6   6 2851.32   54.40   2
  -6   4  -6 2845.52   54.42   9
   6   4   6 2845.32   52.96   2
   6  -4  -6 2871.80   54.25   9
  -4   6   6 2857.67   58.81   7
   4   6  -6 2921.90   54.81   9
  -6  -4   6 2826.94   57.67   3
  -4  -6  -6 2895.92   54.10   9
  -4  -6  -6 2879.20   58.06   4
   4  -6   6 2774.80   55.89   3
   4  -6   6 2832.61   60.76   8
  -4   6   6 2813.17   57.53   3
  -4   6   6 2863.15   52.47   2
  -6  -4   6 2812.16   56.84   7
  -6  -4   6 2836.09   57.75   5
  -6   4  -6 2832.31   56.58   1
   6  -4   6 2869.64   54.29   2
  -4  -6   6 2830.45   56.29   7
  -6  -4  -6 2738.86   56.11   1
  -6  -4  -6 2859.23   58.11   4
  -6   4   6 2826.52   60.52   7
  -6   4   6 2906.51   52.99   2
   4  -6  -6 2881.39   56.20   1
   4   6   6 2807.96   59.37   6
  -6   4   6 2914.15   56.72   3
   4   6   6 2893.94   52.41   2
   4   6   6 2791.53   57.30   8
  -4  -6   6 2903.71   56.68   5
   6  -4   6 2817.31   60.71   8
   4  -6  -6 2907.43   54.14   9
   6   4  -6 2833.47   56.36   1
  -4  -6   6 2863.45   54.31   2
  -4  -6   6 2835.00   58.77   3
  -4   6  -6 2806.55   54.56   9
  -4   6  -6 2764.68   56.58   1
   6   4  -6 2913.24   54.76   9
  -6  -4  -6 2870.05   54.11   9
  -5  -6  -6 42.9996  5.3172   4
   5   6  -6 40.4504  4.6920   9
  -6  -5   6 41.1046  4.1306   2
   5  -6   6 37.7132  4.2477   2
  -6  -5   6 33.7078  5.7959   3
   6  -5  -6 40.0624  4.3907   9
  -6   5  -6 27.8515  4.9794   1
  -6  -5   6 34.3118  5.0786   7
   5  -6   6 38.2425  7.0648   8
  -6   5  -6 39.3312  4.4147   9
   6  -5  -6 31.5005  4.7526   1
  -5  -6  -6 33.7093  4.8658   1
   6   5   6 37.0166  3.5275   2
  -5   6   6 37.4662  3.4270   2
   5   6  -6 37.3771  5.1139   1
  -6  -5   6 38.1515  5.5390   5
  -5   6   6 20.7520  5.9375   7
   6   5   6 44.5866  5.9017   6
  -5   6   6 33.4967  5.5078   3
  -5  -6  -6 39.2412  4.3067   9
   6   5  -6 36.1136  5.2025   1
   5  -6  -6 35.1019  4.8622   1
   6   5  -6 40.6519  4.7652   9
  -6  -5  -6 38.9747  5.0110   1
  -5  -6   6 42.6819  6.4024   3
   5   6   6 39.9799  3.4786   2
   6  -5   6 29.4334  6.6593   8
   6  -5   6 35.9109  4.2254   2
  -6  -5  -6 35.5174  4.9800   4
  -5  -6   6 37.5643  5.0943   5
  -6   5   6 36.8026  3.5653   2
  -5   6  -6 37.7728  4.5823   9
  -5  -6   6 35.9034  4.0387   2
  -6  -5  -6 35.1174  4.2753   9
   6   5  -6 35.8344  5.0969   1
  -5   6  -6 35.2135  5.1009   1
  -5  -6   6 37.6620  5.0884   7
   5  -6  -6 36.0548  4.3959   9
  -6   5   6 30.1587  5.0665   3
  -6   5   6 34.6364  6.4416   7
   5   6   6 22.8136  5.2949   6
  -6  -6  -6 1649.67   33.99   9
   6  -6  -6 1658.57   34.17   9
  -6   6  -6 1635.10   36.22   1
   6   6   6 1662.30   38.51   6
  -6   6   6 1643.52   36.31   3
   6   6   6 1662.98   32.89   2
   6  -6   6 1635.94   34.11   2
  -6   6  -6 1621.51   34.29   9
  -6   6   6 1606.90   32.86   2
  -6   6   6 1569.45   39.50   7
   6   6  -6 1590.74   34.46   9
   6  -6   6 1602.12   40.69   8
  -6  -6   6 1665.20   34.07   2
   6  -6  -6 1597.56   35.53   1
  -6  -6   6 1696.86   36.14   5
   6   6  -6 1657.35   35.99   1
  -6  -6  -6 1597.25   35.62   1
  -6  -6  -6 1636.14   37.13   4
  -6  -6   6 1607.05   37.78   3
   0   7  -6 0.81324 2.89719   9
   7   0  -6 -1.2204  3.1234   1
   0  -7   6 0.14222 4.16348   3
   7   0   6 -6.3403  3.5082   8
   0  -7   6 -3.8056  3.6997   8
   0  -7  -6 0.87650 3.19813   4
  -7   0   6 -5.4473  3.8892   7
   0  -7  -6 -0.0334  3.0864   1
   0  -7  -6 6.25209 2.84198   9
   7   0   6 -2.4922  2.2366   2
  -7   0  -6 1.21082 3.46878   1
   7   0  -6 -3.1558  2.7480   9
  -7   0   6 -0.7760  2.2331   2
  -7   0  -6 3.76243 3.39508   4
   0   7  -6 2.05143 3.21040   1
  -7   0   6 -3.2382  3.3351   3
   0  -7   6 -0.3751  2.5968   2
  -7   0  -6 -1.1049  2.8114   9
  -7  -1   6 1118.04   25.89   3
  -1  -7  -6 1111.76   25.98   4
  -1  -7  -6 1081.16   24.98   1
   7   1   6 1097.27   26.86   8
   1   7  -6 1107.52   24.03   9
  -7  -1   6 1135.24   27.50   7
  -7   1  -6 1131.79   23.74   9
  -1  -7  -6 1124.55   23.38   9
   7   1   6 1083.70   26.36   6
   1  -7   6 1090.06   26.98   8
  -7   1  -6 1064.44   25.21   1
   1  -7   6 1169.53   23.67   2
  -7   1  -6 1153.54   26.46   4
  -7  -1   6 1131.72   22.81   2
   1  -7   6 1094.98   27.23   3
   7  -1  -6 1064.71   25.05   1
   1   7  -6 1081.97   25.36   1
   7  -1  -6 1117.99   23.73   9
  -1   7   6 1162.36   26.00   7
  -1  -7   6 1108.96   23.42   2
  -7  -1  -6 1118.77   23.59   9
   1  -7  -6 1075.34   24.91   1
  -7  -1  -6 1074.54   25.14   1
   7  -1   6 1068.31   22.71   2
  -1   7  -6 1072.39   25.37   1
  -1  -7   6 1121.93   25.71   5
   7   1  -6 1151.57   23.97   9
  -7   1   6 1085.78   22.37   2
   7   1  -6 1073.51   25.00   1
  -1  -7   6 1074.31   27.73   3
  -1  -7   6 1144.22   26.07   8
  -7   1   6 1100.24   28.21   7
   1  -7  -6 1115.36   23.35   9
  -7   1   6 1077.23   25.33   3
  -7  -1  -6 1123.22   26.14   4
   7  -1   6 1101.23   27.58   8
  -1   7  -6 1119.76   24.08   9
  -2   7   6 15.6292  2.2899   2
   2   7  -6 18.0684  3.6909   9
  -7   2  -6 14.6971  3.2868   9
   7   2   6 16.2263  2.8613   2
  -7   2  -6 13.4080  4.1010   1
  -7  -2   6 11.9071  4.4253   7
   2   7  -6 19.7159  4.2646   1
  -2  -7  -6 16.3200  3.9285   4
   7   2   6 8.51827 4.07085   6
  -2   7   6 13.5825  4.4939   7
  -2  -7  -6 16.9748  3.9869   1
   2  -7   6 20.3378  3.3916   2
  -2  -7  -6 16.3318  3.3500   9
  -7   2  -6 8.53174 4.04374   4
   2  -7   6 13.7742  4.6566   3
  -7  -2   6 16.1855  4.4974   3
   7   2   6 12.6031  4.1137   8
   7  -2  -6 14.5621  3.3198   9
   7  -2  -6 17.6802  4.0443   1
   2  -7   6 19.5555  3.3177   2
   2  -7   6 10.4193  4.7779   8
  -7  -2   6 14.1786  2.9314   2
  -7  -2  -6 17.3414  3.6025   9
  -2  -7   6 14.9409  3.1717   2
   7  -2   6 13.9242  3.0742   2
   7  -2   6 15.3410  5.0748   8
   7   2  -6 18.2799  3.6480   9
   7   2  -6 15.6171  3.9457   1
   2  -7  -6 17.4281  3.2533   9
  -2   7  -6 14.1349  4.0051   1
  -7  -2  -6 15.4208  3.9204   1
  -2  -7   6 14.0154  4.1426   5
  -2  -7   6 4.28089 4.93347   3
  -7   2   6 16.8884  5.3675   7
  -7   2   6 14.4145  3.9810   3
  -7  -2  -6 11.1555  3.5594   4
   2   7   6 16.2872  2.1901   2
  -2   7  -6 12.0291  3.4249   9
  -7   2   6 12.4769  2.6373   2
   2  -7  -6 13.1758  3.8477   1
   3  -7   6 254.007   8.624   2
  -3  -7  -6 233.069   9.670   1
  -7  -3   6 236.170  10.275   7
   7   3   6 252.764   7.715   2
   3   7  -6 236.870   9.906   1
   7  -3  -6 234.738   8.587   9
   7   3   6 274.164  10.570   8
  -3  -7  -6 246.730  10.100   4
   3   7  -6 276.730   9.376   9
   7   3   6 255.582  10.788   6
  -3   7   6 258.494  10.869   7
  -3   7   6 275.127   7.304   2
  -7  -3   6 250.416   8.106   2
  -3  -7  -6 254.260   8.471   9
  -7  -3   6 249.637  10.516   3
  -7   3  -6 238.205  10.043   1
  -7   3  -6 259.001   8.772   9
   3  -7   6 249.320  10.720   3
   3  -7   6 267.409  12.415   8
   7  -3  -6 271.757  10.053   1
  -7   3  -6 272.107  10.717   4
  -7   3   6 247.077  12.645   7
  -7   3   6 253.287   7.667   2
  -3  -7   6 260.749   8.570   2
  -3   7  -6 257.617   9.062   9
  -7  -3  -6 255.496   8.681   9
   3   7   6 245.789   7.017   2
   7  -3   6 245.585   8.309   2
  -3  -7   6 252.628   9.713   7
  -3  -7   6 255.620  12.104   3
  -7   3   6 255.644   9.805   3
   7  -3   6 232.777  11.996   8
   7   3  -6 246.003   9.643   1
   7   3  -6 255.678   9.098   9
   3  -7  -6 249.274   8.638   9
  -7  -3  -6 244.433   9.760   1
  -3   7  -6 258.566  10.325   1
   3  -7  -6 242.005   9.681   1
  -7  -3  -6 246.417  10.061   4
  -3  -7   6 249.633   9.809   5
  -4  -7  -6 67.7538  6.3617   4
   4   7  -6 71.0996  6.4531   1
  -7  -4   6 75.4756  6.7668   7
  -4   7   6 70.7406  7.3623   3
   4   7  -6 65.7569  5.6904   9
  -4   7   6 73.5909  7.5849   7
  -7  -4   6 74.8854  7.1535   3
  -7  -4   6 67.7403  4.9931   2
   4  -7   6 64.7815  5.2330   2
  -4   7   6 78.8135  4.5162   2
   7   4   6 72.4131  4.8227   2
   4  -7   6 61.9463  8.0672   8
  -7   4  -6 72.6628  5.6757   9
  -4  -7  -6 64.4244  6.1176   1
   7   4   6 70.5542  7.1469   6
  -4  -7  -6 71.5898  5.4718   9
  -7   4  -6 66.9514  6.3715   1
   7  -4  -6 69.0720  5.5868   9
   7  -4  -6 74.9085  6.4449   1
   4   7   6 75.4053  4.3533   2
   7  -4   6 71.8008  5.2291   2
  -7  -4  -6 66.8798  6.1401   1
  -7  -4  -6 70.4037  5.2726   9
  -7   4   6 69.7183  8.4112   7
   7  -4   6 69.0932  8.1692   8
  -4  -7   6 66.9936  5.1084   2
  -4   7  -6 70.8432  5.7833   9
  -7   4   6 70.2687  4.6365   2
  -7   4   6 67.9032  6.3893   3
   4  -7  -6 62.8744  6.1401   1
   4   7   6 73.7871  7.4913   6
   7   4  -6 76.7070  5.6835   9
   7   4  -6 60.8168  6.1425   1
   4  -7  -6 75.0782  5.4476   9
  -7  -4  -6 74.4089  6.5706   4
  -4  -7   6 63.8090  7.7169   3
  -4   7  -6 66.1814  6.2466   1
  -7   5  -6 389.679  12.166   9
  -5  -7  -6 399.154  12.015   9
   7   5   6 406.071  11.158   2
   5   7  -6 409.938  12.602   9
  -7   5  -6 409.585  13.764   1
  -5   7   6 374.669  15.226   7
  -7  -5   6 403.147  14.538   3
  -5   7   6 396.268  10.820   2
   7   5   6 401.710  14.666   6
  -7  -5   6 420.409  14.398   5
   5   7  -6 386.902  13.383   1
   5  -7   6 400.358  12.008   2
  -5   7   6 394.150  14.328   3
   5  -7   6 410.452  16.896   8
  -7  -5   6 404.092  11.878   2
   7  -5  -6 394.949  13.281   1
  -5  -7  -6 396.006  13.437   1
   7  -5  -6 407.112  12.263   9
  -5  -7   6 409.043  15.536   3
  -5  -7   6 385.763  11.762   2
  -7   5   6 385.089  16.958   7
  -5   7  -6 406.334  13.869   1
   5  -7  -6 410.287  12.235   9
   7   5  -6 395.414  12.485   9
  -7  -5  -6 400.149  13.366   1
  -7  -5  -6 393.555  12.115   9
   5   7   6 403.252  10.900   2
  -7   5   6 414.337  13.561   3
   7  -5   6 403.941  12.028   2
  -5   7  -6 374.644  12.187   9
  -7   5   6 387.097  11.014   2
   7   5  -6 401.531  13.354   1
   5  -7  -6 384.494  13.280   1
   5   7   6 366.134  14.563   6
   7  -5   6 387.213  16.655   8
  -7  -6   6 27.5328  5.9299   3
  -6   7   6 23.4815  3.9613   2
  -6  -7  -6 26.8256  4.6543   9
   6   7  -6 21.1566  5.1449   1
  -6   7   6 27.2773  6.5093   7
  -7   6  -6 26.1007  4.6165   9
   7  -6  -6 22.3748  4.6137   9
  -6  -7  -6 22.8330  5.2823   1
   6  -7   6 35.7047  7.7890   8
  -7   6  -6 25.8295  5.3919   1
   7   6   6 15.3446  3.8528   2
  -7  -6   6 21.4705  4.2769   2
   7  -6  -6 14.0650  4.7653   1
   7   6   6 27.4031  6.2487   6
   6   7  -6 21.8050  4.7962   9
   6  -7   6 17.9120  4.4513   2
   7  -6   6 19.6453  7.1619   8
  -6  -7   6 29.2415  6.6192   3
   6   7   6 23.7053  5.9234   6
   7   6  -6 18.6662  4.5621   9
  -6   7  -6 28.7107  4.9163   9
  -6  -7   6 29.9845  4.6476   2
   6   7   6 24.2982  4.0400   2
  -7   6   6 29.6957  7.4658   7
  -7   6   6 25.2751  4.2046   2
  -7  -6  -6 32.1763  5.6149   1
   6  -7  -6 23.6397  5.1336   1
   6  -7  -6 28.7433  4.6208   9
  -6   7  -6 22.4794  5.2768   1
   7   6  -6 24.5240  5.4517   1
   7  -6   6 22.6065  4.5530   2
  -7  -6  -6 20.8654  4.5509   9
   7   6  -6 19.8016  4.9293   1
  -7   7  -6 319.666  11.805   9
   7   7   6 339.309  14.543   6
  -7  -7   6 316.025  14.171   3
   7   7   6 328.328  10.807   2
  -7   7   6 321.831  10.680   2
   7   7  -6 318.700  12.919   1
   7  -7   6 334.742  11.721   2
  -7   7   6 281.760  15.307   7
  -7  -7   6 324.001  11.384   2
   7  -7  -6 326.538  12.902   1
   7  -7   6 340.957  17.884   8
   7   7  -6 331.736  12.272   9
   7  -7  -6 321.107  11.698   9
  -7  -7  -6 338.248  11.725   9
  -7  -7  -6 334.671  12.798   1
  -7   7  -6 326.420  13.235   1
  -8   0   6 1314.24   32.51   7
   0  -8   6 1298.42   31.01   8
  -8   0  -6 1313.44   30.29   1
   8   0  -6 1338.91   28.75   9
   0  -8  -6 1336.43   30.03   1
   0  -8   6 1331.48   28.58   2
  -8   0  -6 1332.86   31.23   4
  -8   0   6 1334.61   29.85   3
   0  -8   6 1342.67   33.19   3
   0   8  -6 1357.82   29.07   9
   0  -8  -6 1384.60   31.11   4
   0   8  -6 1360.85   30.56   1
   8   0   6 1359.36   32.09   8
   8   0  -6 1313.76   30.06   1
  -8   0   6 1342.33   27.84   2
   8   0   6 1311.54   27.79   2
   0   8   6 1338.99   26.73   2
   0  -8  -6 1352.01   28.35   9
  -8   0  -6 1370.88   28.59   9
  -1  -8  -6 110.827   7.182   4
  -8  -1   6 99.7141  5.4630   2
   8   1   6 94.9401  7.2388   6
   1  -8   6 107.724   7.803   8
   8  -1  -6 94.4190  6.9296   1
   1   8  -6 109.638   7.524   1
   8   1   6 110.965   5.854   2
  -8   1  -6 98.6990  6.0751   9
  -8   1  -6 93.4313  7.2761   1
  -8  -1   6 116.260   7.334   3
  -1   8   6 116.978   5.092   2
   1  -8   6 126.300   6.438   2
   1  -8   6 101.190   8.783   3
  -8   1  -6 100.530   7.124   4
  -1  -8  -6 103.066   6.969   1
  -1  -8  -6 106.615   5.962   9
  -8  -1   6 93.6618  8.2326   7
   8  -1  -6 107.827   6.382   9
   1   8  -6 101.398   6.221   9
   8   1   6 106.824   8.010   8
  -1  -8   6 104.764   6.134   2
  -1   8  -6 99.7355  7.0194   1
  -8   1   6 105.616   5.401   2
  -8   1   6 98.5216  6.5462   3
   8   1  -6 110.411   7.102   1
  -8  -1  -6 107.186   7.193   1
   1  -8  -6 90.1007  6.7567   1
   1   8   6 110.408   4.994   2
  -8   1   6 110.421   9.377   7
   8  -1   6 108.499   8.261   8
  -1   8  -6 97.3194  6.5012   9
  -1  -8   6 104.697   9.498   3
   1  -8  -6 105.363   6.107   9
   8  -1   6 101.507   5.563   2
   8   1  -6 109.668   6.238   9
  -8  -1  -6 92.6849  6.8545   4
  -8  -1  -6 115.422   6.418   9
  -2  -8  -6 763.528  17.984   9
   2   8  -6 735.444  18.498   9
  -8  -2   6 717.428  20.682   7
   8   2   6 739.924  20.276   8
  -8   2  -6 726.046  19.626   1
   2   8  -6 734.082  18.505   9
   2  -8   6 739.495  18.054   2
  -2  -8  -6 766.280  20.210   4
   8  -2  -6 735.008  19.427   1
   8   2   6 751.424  20.872   6
   2  -8   6 728.996  17.990   2
   8  -2  -6 737.236  18.146   9
  -2  -8  -6 721.898  19.349   1
   2  -8   6 755.842  21.845   8
  -8  -2   6 739.677  19.684   3
  -8   2  -6 715.842  18.012   9
   2  -8   6 733.786  21.102   3
  -2   8   6 755.690  16.576   2
   8   2   6 743.191  17.314   2
  -8  -2   6 761.506  17.495   2
   2   8  -6 724.271  19.764   1
  -2   8   6 734.274  19.998   7
  -2  -8   6 732.319  18.038   2
  -8  -2  -6 722.714  19.443   1
  -8  -2  -6 778.591  18.290   9
  -2   8  -6 747.382  19.968   1
   2  -8  -6 779.196  19.692   1
   8  -2   6 724.797  17.587   2
   8   2  -6 705.650  19.317   1
  -2  -8   6 751.764  22.985   3
   8   2  -6 737.375  18.421   9
  -2   8  -6 737.222  18.530   9
   8  -2   6 745.058  21.975   8
   2   8   6 753.950  16.527   2
  -8   2   6 762.142  23.208   7
  -8   2   6 741.301  17.198   2
   2  -8  -6 753.370  18.089   9
  -8  -2  -6 772.235  20.526   4
   8   3   6 65.4298  7.1505   6
  -3   8   6 68.1372  4.6743   2
  -8   3  -6 52.0862  5.2005   9
   8  -3  -6 61.8638  5.5258   9
  -3  -8  -6 51.1480  6.1000   4
  -3  -8  -6 64.4523  6.3387   1
   3   8  -6 66.3510  5.8778   9
  -3  -8  -6 69.4790  5.6376   9
   8  -3  -6 65.3058  6.4176   1
   3  -8   6 71.2979  8.0260   8
  -3   8   6 66.0918  7.1175   7
  -8  -3   6 75.2666  6.8691   3
   8   3   6 68.0359  5.1575   2
  -8   3  -6 58.2909  6.1718   1
  -8  -3   6 73.6773  5.2257   2
   3  -8   6 68.5094  6.9829   3
   3   8  -6 65.4108  6.5032   1
  -8  -3   6 66.6361  6.9218   7
   3  -8   6 62.7628  5.4824   2
  -8  -3  -6 60.6087  6.2783   1
  -8   3   6 81.0631  9.2534   7
   8  -3   6 59.4998  5.2213   2
   8   3  -6 67.8978  6.5414   1
   3  -8  -6 62.9723  6.2227   1
  -3  -8   6 77.7311  8.9798   3
   3  -8  -6 60.9260  5.2653   9
  -8   3   6 62.4756  4.8815   2
   8  -3   6 68.5465  8.1759   8
  -3   8  -6 69.8194  5.9362   9
  -3   8  -6 54.1110  6.1340   1
  -8  -3  -6 67.4591  5.5024   9
   8   3  -6 66.0379  5.9001   9
  -3  -8   6 64.4744  5.5523   2
   3   8   6 64.0861  4.5661   2
  -4   8   6 3514.53   64.91   2
   8  -4  -6 3350.33   65.82   9
   8  -4  -6 3401.66   68.11   1
  -8   4  -6 3304.76   65.94   9
   8   4   6 3548.43   71.31   6
   4  -8   6 3372.12   72.89   8
   4   8  -6 3361.92   66.32   9
  -4  -8  -6 3490.48   68.19   1
  -8  -4   6 3452.83   68.47   3
  -4   8   6 3400.60   69.59   7
  -8  -4   6 3434.88   68.15   7
  -8  -4   6 3445.96   65.97   2
   4  -8   6 3444.31   66.43   2
   8   4   6 3549.56   65.58   2
  -8   4  -6 3527.63   68.83   1
   4   8  -6 3434.10   68.65   1
  -4  -8  -6 3445.36   65.76   9
   8   4  -6 3433.81   68.36   1
  -4  -8   6 3456.52   71.74   3
  -8   4   6 3369.40   65.27   2
   8   4  -6 3312.95   66.27   9
  -4   8  -6 3406.07   66.22   9
  -4   8  -6 3358.31   68.57   1
  -8   4   6 3318.56   73.38   7
   4  -8  -6 3388.05   65.82   9
   4  -8  -6 3444.55   68.29   1
   4   8   6 3421.38   71.73   6
   4   8   6 3387.96   64.90   2
  -8  -4  -6 3404.96   68.23   1
   8  -4   6 3355.23   66.10   2
   8  -4   6 3449.91   73.03   8
  -4  -8   6 3500.53   66.43   2
  -8  -4  -6 3439.38   65.94   9
  -8  -5   6 27.3671  5.8656   3
  -5  -8  -6 19.1864  4.3160   9
  -8  -5   6 25.7810  4.3584   2
  -8   5  -6 22.7427  5.5645   1
   8  -5  -6 22.8281  4.7909   9
   8   5   6 18.5430  5.6809   6
  -5   8   6 18.3812  6.2190   7
   8   5   6 22.7283  4.2262   2
  -5   8   6 21.2596  3.8722   2
   5   8  -6 23.8264  4.8402   9
   5  -8   6 24.2965  4.5277   2
   5   8  -6 26.5221  5.6704   1
  -8   5  -6 18.2882  4.4990   9
   8  -5  -6 16.7229  5.0254   1
  -5  -8  -6 17.3209  4.9873   1
   5  -8   6 28.8068  7.8017   8
  -8  -5  -6 21.9623  4.6626   9
  -5  -8   6 9.89423 5.89711   3
   5   8   6 18.5670  5.8151   6
  -8   5   6 19.6294  3.9807   2
   8   5  -6 17.7174  5.2322   1
  -8  -5  -6 22.0357  5.1768   1
  -5   8  -6 26.6850  4.9817   9
   5   8   6 16.6939  3.9575   2
   5  -8  -6 28.1841  5.6098   1
   8  -5   6 6.81531 6.43533   8
  -5  -8   6 20.5512  4.5178   2
   8  -5   6 26.9658  4.6077   2
  -5   8  -6 26.4132  5.6660   1
   8   5  -6 19.0257  4.8358   9
  -8   5   6 36.0233  8.6226   7
   5  -8  -6 8.70293 3.94527   9
   6  -8   6 2016.92   42.73   2
  -6  -8  -6 2066.54   42.39   9
   8  -6  -6 2040.51   42.62   9
   6   8  -6 2004.26   42.78   9
  -8  -6   6 2040.00   45.40   3
  -6   8   6 1950.87   47.39   7
   6   8  -6 2084.03   44.82   1
  -8   6  -6 2041.13   44.69   1
   8  -6  -6 2030.59   44.20   1
   6  -8   6 2006.30   51.16   8
  -6   8   6 1989.61   41.12   2
  -6  -8  -6 2049.76   44.48   1
  -8  -6   6 2028.68   42.31   2
  -8   6  -6 1999.46   42.53   9
   8   6   6 2068.28   41.71   2
   8   6   6 2063.61   46.92   6
   6   8   6 2099.28   41.56   2
   8   6  -6 1994.96   44.42   1
  -6   8  -6 2061.79   44.76   1
   8   6  -6 2040.01   43.14   9
   8  -6   6 1964.58   42.61   2
  -8  -6  -6 2049.65   42.26   9
  -6  -8   6 2058.88   42.56   2
  -6   8  -6 2041.58   42.81   9
  -8   6   6 2032.94   50.78   7
  -8  -6  -6 2034.15   44.36   1
   8  -6   6 1956.25   50.08   8
  -8   6   6 2005.48   41.50   2
   6  -8  -6 2046.33   44.30   1
   6  -8  -6 1992.71   42.38   9
  -6  -8   6 2046.83   47.15   3
   8   6  -6 2042.54   44.53   1
   6   8   6 2023.80   46.93   6
  -8  -7   6 67.1556  8.4085   3
  -8   7  -6 74.0274  6.9555   9
   8   7   6 77.3007  6.4900   2
   7  -8   6 63.1341 10.8926   8
   7   8  -6 68.7275  6.8411   9
   8  -7  -6 63.5580  7.4500   1
  -7  -8  -6 67.8784  6.5833   9
   8  -7  -6 64.3790  6.5640   9
   8   7   6 69.1769  8.4464   6
   7   8  -6 60.2106  7.2902   1
  -7  -8  -6 58.3691  7.4495   1
  -8   7  -6 60.1481  7.5927   1
  -8  -7   6 62.0228  6.3227   2
  -7   8   6 54.3226  9.3045   7
  -7   8   6 70.1021  6.2183   2
   7  -8   6 78.3022  6.9916   2
  -8   7   6 66.6457  6.0663   2
  -8   7   6 76.9929 10.3079   7
   8  -7   6 63.7978 10.6881   8
   7   8   6 62.8571  6.0310   2
   8  -7   6 65.7384  6.5061   2
   8   7  -6 79.5404  7.9347   1
   7   8   6 74.3122  8.6969   6
  -7  -8   6 62.4784  6.3091   2
  -7  -8   6 70.7788  8.7929   3
   7  -8  -6 81.0066  7.1982   9
   7  -8  -6 67.6564  7.5089   1
  -8  -7  -6 71.9309  6.6830   9
  -8  -7  -6 74.5590  7.7124   1
  -7   8  -6 73.8306  6.9508   9
   8   7  -6 78.4859  7.2891   9
  -7   8  -6 73.0174  7.8377   1
   8   8  -6 2485.81   51.84   9
  -8   8  -6 2440.21   53.61   1
   8  -8   6 2430.88   51.39   2
  -8   8   6 2555.66   50.22   2
  -8   8  -6 2479.69   51.33   9
  -8  -8  -6 2421.39   51.04   9
   8   8  -6 2384.21   53.23   1
  -8   8   6 2438.25   59.05   7
  -8  -8   6 2414.57   54.95   3
  -8  -8   6 2450.55   51.15   2
   8  -8  -6 2383.58   51.12   9
   8  -8  -6 2459.09   53.29   1
   8   8   6 2571.99   56.78   6
  -8  -8  -6 2478.07   53.62   1
   8   8   6 2482.05   50.31   2
   0   9  -6 -1.4751  4.1845   1
  -9   0   6 9.41579 5.33611   7
  -9   0  -6 -6.9057  4.0110   1
  -9   0   6 -1.3065  3.1912   2
   0  -9  -6 -0.7448  3.4294   9
   0  -9  -6 1.15747 3.88115   1
   0   9  -6 -2.2228  3.4146   9
   0  -9   6 -1.5255  3.4437   2
   0   9   6 -3.5107  3.0062   2
   9   0  -6 -5.1779  3.2397   9
   9   0   6 -2.1990  4.2096   8
   9   0  -6 -3.4816  3.7467   1
   9   0   6 2.18770 3.48110   2
   0  -9   6 4.76917 5.98769   3
  -9   0  -6 -0.5695  3.6475   9
   9   1   6 270.010   9.426   2
   1  -9   6 239.616   9.487   2
  -9  -1   6 252.791  12.180   7
   9   1   6 273.818  11.928   6
  -9   1  -6 245.931  10.922   1
   1   9  -6 255.360   9.906   9
   1  -9   6 271.982  13.133   3
   1   9  -6 225.573   9.544   9
   1  -9   6 256.743   9.627   2
   1  -9   6 241.520  11.356   8
  -1  -9  -6 252.391  10.812   1
  -1   9   6 254.856   8.415   2
  -9   1  -6 247.150   9.572   9
   9  -1  -6 258.278  10.697   1
   9   1   6 240.217  11.176   8
  -9  -1   6 263.874   9.128   2
   1   9  -6 249.828  10.784   1
   9  -1  -6 253.207   9.794   9
  -1  -9  -6 240.916   9.321   9
  -1  -9   6 239.375   9.509   2
   9   1  -6 258.453   9.824   9
  -9  -1  -6 252.008  10.652   1
  -1   9  -6 255.722  11.210   1
   9  -1   6 250.966  12.021   8
  -1   9  -6 245.369   9.843   9
  -9  -1  -6 248.566   9.482   9
   9  -1   6 250.971   9.273   2
  -9   1   6 245.181  12.953   7
   1  -9  -6 236.479  10.642   1
   1  -9  -6 254.155   9.607   9
   9   1  -6 237.761  10.396   1
   1   9   6 247.713   8.485   2
  -9   1   6 249.020   8.958   2
  -1  -9   6 265.215  14.185   3
  -9  -2   6 92.3786  6.1461   2
   9   2   6 102.300   8.580   6
   2  -9   6 78.4100  8.4746   3
  -9  -2   6 103.772   7.464   3
  -2  -9  -6 100.596   7.582   1
   2  -9   6 90.0757  8.6575   8
   9   2   6 84.5073  5.9880   2
  -9   2  -6 94.5376  6.4693   9
   2   9  -6 93.7775  7.8857   1
   9  -2  -6 99.6725  6.5054   9
  -2   9   6 104.147   5.736   2
  -9  -2   6 100.500   8.642   7
   2   9  -6 83.0617  6.5947   9
   2  -9   6 101.973   6.654   2
  -9   2  -6 94.6794  7.8647   1
   9  -2  -6 79.2490  7.3233   1
  -2  -9  -6 87.8659  6.4333   9
  -9   2   6 105.728  10.269   7
   2   9   6 87.7896  5.7322   2
   2  -9  -6 90.4398  7.5711   1
  -2   9  -6 109.544   7.723   1
  -9  -2  -6 90.0750  6.3614   9
   9   2  -6 95.0326  7.5823   1
  -2  -9   6 100.832   6.749   2
   9  -2   6 82.8014  6.1549   2
   9  -2   6 83.9470  8.6149   8
  -9   2   6 92.5919  6.0263   2
  -2   9  -6 98.7436  6.9221   9
  -2  -9   6 95.2839 10.3656   3
   2  -9  -6 99.0175  6.7192   9
  -9  -2  -6 97.8824  7.3413   1
   9   2  -6 88.4202  6.5779   9
  -3   9   6 132.303   6.662   2
   9   3   6 143.722   7.164   2
   3  -9   6 154.003  10.707   8
  -9  -3   6 132.756   9.060   7
   3   9  -6 104.054   7.305   9
  -9  -3   6 117.853   6.868   2
   9   3   6 139.144   9.303   6
  -3  -9  -6 140.042   8.723   1
   9  -3  -6 102.819   7.717   1
   3  -9   6 121.825   9.464   3
  -9   3  -6 153.493   9.184   1
   3   9  -6 130.936   8.495   1
  -3  -9  -6 133.007   7.330   9
   9  -3  -6 121.550   7.329   9
  -9   3  -6 117.199   7.551   9
   3  -9   6 127.250   7.251   2
  -9  -3   6 134.131   8.434   3
  -9   3   6 127.981   6.755   2
  -3  -9   6 131.323   7.469   2
  -3  -9   6 129.457  11.316   3
   9  -3   6 135.264  10.260   8
   9   3  -6 137.301   7.916   9
  -3   9  -6 127.299   7.532   9
  -9  -3  -6 118.295   7.276   9
  -3   9  -6 123.783   8.942   1
   3   9   6 142.339   6.930   2
   3  -9  -6 131.598   8.603   1
   9  -3   6 125.281   7.090   2
   9   3  -6 129.356   8.278   1
  -9  -3  -6 132.375   8.731   1
   3  -9  -6 128.737   7.236   9
  -9   3   6 122.939  11.559   7
   9   4   6 16.6565  5.4739   6
   4  -9   6 -0.8368  5.7348   8
  -4  -9  -6 8.17409 4.75629   1
   9   4   6 -4.5598  3.4734   2
  -9   4  -6 -2.0115  3.7912   9
  -4   9   6 8.77577 5.12006   7
   4  -9   6 -9.5097  3.4172   2
   9  -4  -6 -2.3222  4.3275   1
  -9   4  -6 -5.1040  4.3495   1
  -9  -4   6 -0.4287  3.7065   2
  -9  -4   6 8.00194 4.74912   3
   4   9  -6 -2.1629  4.1943   1
   4   9  -6 -4.2106  3.6265   9
   9  -4  -6 1.05066 3.82678   9
  -4   9   6 6.82177 3.56673   2
  -4  -9  -6 -0.2249  3.5876   9
   4  -9  -6 1.49778 3.96615   9
  -9  -4  -6 -2.2446  3.8937   9
  -9   4   6 7.14317 6.79269   7
   9   4  -6 0.10127 4.58780   1
  -4  -9   6 5.36412 6.56249   3
  -9  -4  -6 -9.4440  3.7705   1
  -4   9  -6 2.70333 4.59531   1
   4  -9  -6 -1.3523  4.6698   1
   4   9   6 -3.6228  3.4608   2
  -4  -9   6 3.06792 4.02924   2
   9   4  -6 -1.7491  3.4886   9
  -9   4   6 -2.1872  3.3470   2
  -4   9  -6 -1.9005  3.5736   9
   9  -4   6 11.9209  6.3506   8
   9  -4   6 3.54497 3.99893   2
   5  -9   6 550.720  21.487   8
   9   5   6 524.469  14.882   2
   5   9  -6 540.015  17.372   1
  -9  -5   6 522.559  15.255   2
   9  -5  -6 488.467  16.445   1
   5  -9   6 495.913  15.372   2
  -5   9   6 491.843  18.013   7
   9   5   6 495.915  17.930   6
  -5  -9  -6 529.181  15.483   9
   9  -5  -6 495.412  15.455   9
  -5  -9  -6 521.261  17.161   1
  -9   5  -6 536.388  17.170   1
  -9  -5   6 538.046  17.636   3
  -5   9   6 513.198  14.289   2
   5   9  -6 511.021  15.809   9
  -9   5  -6 497.568  15.424   9
  -9   5   6 468.325  21.867   7
   5   9   6 536.009  18.822   6
  -5  -9   6 530.974  20.350   3
   9  -5   6 499.718  20.259   8
   9  -5   6 509.235  15.321   2
  -5  -9   6 509.373  15.392   2
  -9  -5  -6 518.083  17.102   1
  -5   9  -6 500.912  15.631   9
   9   5  -6 501.478  16.812   1
   5  -9  -6 531.829  15.658   9
   9   5  -6 521.170  15.868   9
   5   9   6 491.929  14.381   2
  -9  -5  -6 499.839  15.319   9
   5  -9  -6 523.902  17.185   1
  -5   9  -6 527.744  17.335   1
  -9   5   6 506.184  14.546   2
   6  -9   6 2.73409 4.32206   2
  -9  -6   6 4.59712 4.23231   2
  -6   9   6 5.07785 3.93989   2
  -6  -9  -6 4.49659 4.23442   9
   6   9  -6 12.6674  5.7167   1
   9   6   6 5.98728 5.68795   6
  -6  -9  -6 2.68425 4.94548   1
   9   6   6 10.2581  4.2366   2
  -9   6  -6 10.1759  4.4426   9
   9  -6  -6 -0.1301  4.1415   9
  -9   6  -6 8.74216 5.56302   1
  -9  -6   6 7.78415 5.74353   3
   6   9  -6 5.03984 4.51784   9
   9  -6  -6 4.46456 4.69664   1
   6  -9   6 -0.7770  6.7696   8
  -6   9   6 0.09851 5.93915   7
   6  -9  -6 15.1051  4.7666   9
   6   9   6 10.7281  4.4910   2
  -9   6   6 4.10241 3.82182   2
  -6   9  -6 12.2756  4.6847   9
  -9  -6  -6 6.44627 5.33391   1
   9   6  -6 1.50932 4.82048   1
  -6   9  -6 1.40531 4.91099   1
  -6  -9   6 7.02535 4.59017   2
   9  -6   6 -0.0969  7.1373   8
  -9  -6  -6 14.2370  4.5842   9
   6  -9  -6 0.43467 5.20767   1
  -6  -9   6 11.3058  6.7969   3
   9   6  -6 9.63280 5.23877   1
   6   9   6 2.90228 5.66552   6
   9   6  -6 4.20109 4.38448   9
   9  -6   6 11.9177  4.6087   2
  -9   6   6 1.18707 7.92813   7
  -7   9   6 588.386  16.705   2
   9  -7  -6 604.249  19.145   1
   7   9  -6 593.132  19.338   1
   9  -7  -6 594.849  17.945   9
  -9  -7   6 572.602  19.932   3
  -9   7  -6 588.996  17.927   9
   7   9  -6 599.087  18.193   9
   9   7   6 625.839  21.156   6
  -9  -7   6 566.482  17.304   2
  -7  -9  -6 583.410  17.651   9
   7  -9   6 597.669  17.729   2
  -7  -9  -6 603.418  19.539   1
  -7   9   6 556.516  21.777   7
  -9   7  -6 633.736  19.884   1
   9   7   6 584.370  16.974   2
  -9   7   6 557.788  16.596   2
   7  -9  -6 584.460  17.677   9
  -7   9  -6 576.909  19.494   1
   9   7  -6 576.899  17.990   9
  -9   7   6 598.705  25.459   7
   7   9   6 615.978  21.168   6
  -9  -7  -6 629.484  17.998   9
   7  -9  -6 602.347  19.340   1
  -7  -9   6 632.723  22.037   3
  -7  -9   6 542.827  17.247   2
  -7   9  -6 545.654  17.603   9
   9  -7   6 639.748  25.131   8
   9   7  -6 581.203  19.281   1
  -9  -7  -6 637.158  19.786   1
   9  -7   6 575.514  17.819   2
   7   9   6 627.311  17.136   2
   9   8   6 75.9763  7.2856   2
   8  -9   6 89.5685  7.9046   2
   9   8   6 78.9736  9.7096   6
   9  -8  -6 73.5574  7.5548   9
  -8   9   6 85.5108  7.2373   2
  -9  -8   6 63.4110  9.0251   3
  -8  -9  -6 82.8196  8.9597   1
   8   9  -6 82.6144  9.0219   1
  -9   8  -6 79.4262  9.0315   1
   9  -8  -6 77.7392  8.5002   1
  -8   9   6 73.6575 11.1537   7
   8   9  -6 68.8758  7.5293   9
  -9   8  -6 73.0601  7.4338   9
  -9  -8   6 79.6413  7.4805   2
  -8  -9  -6 75.8506  7.6139   9
   8  -9  -6 75.9429  7.5609   9
  -8   9  -6 94.5719  9.3034   1
  -8  -9   6 70.0528  7.3255   2
  -8   9  -6 72.2896  7.4814   9
  -9   8   6 88.1101  7.1534   2
   8   9   6 92.8906  7.6039   2
   9   8  -6 80.7502  7.7225   9
   9  -8   6 84.0343  7.5939   2
  -9  -8  -6 89.2664  9.1286   1
   8   9   6 79.6335  9.5128   6
  -8  -9   6 81.9193  9.9957   3
   9   8  -6 87.9369  8.9037   1
  -9  -8  -6 83.5074  7.7824   9
  -9   8   6 62.4057 11.1405   7
   8  -9  -6 60.2719  8.0342   1
  -9  -9  -6 599.857  19.061   9
   9   9  -6 599.437  19.414   9
  -9   9  -6 661.982  21.851   1
   9   9   6 640.808  18.446   2
   9  -9   6 639.417  19.416   2
   9   9  -6 642.824  21.471   1
   9  -9  -6 593.863  20.643   1
  -9  -9  -6 634.420  21.386   1
  -9  -9   6 641.705  22.596   3
  -9   9   6 637.391  18.247   2
  -9   9   6 640.501  26.266   7
   9   9   6 659.968  23.035   6
  -9   9  -6 605.745  19.195   9
  -9  -9   6 617.555  19.026   2
   9  -9  -6 608.593  19.183   9
 -10   0   6 3003.13   59.79   2
  10   0  -6 3003.86   62.34   1
   0  10  -6 3008.46   60.72   9
  10   0   6 3137.80   64.26   8
   0 -10   6 3079.28   60.80   2
   0 -10   6 3056.28   66.76   3
 -10   0  -6 3193.24   62.82   1
 -10   0   6 2976.78   64.62   7
   0 -10  -6 3122.77   62.67   1
  10   0   6 2990.28   60.17   2
 -10   0  -6 3042.39   60.26   9
   0  10  -6 2968.31   60.55   9
   0 -10  -6 3001.38   59.93   9
   0  10  -6 3082.37   62.90   1
   0  10   6 3099.11   59.23   2
  10   0  -6 2939.89   60.37   9
   1 -10   6 492.709  14.963   2
  10   1   6 493.577  14.512   2
 -10  -1   6 507.450  14.400   2
  10  -1  -6 478.478  16.357   1
  -1 -10  -6 485.945  16.383   1
 -10   1  -6 507.239  16.565   1
  10  -1  -6 474.791  15.087   9
  10   1   6 555.338  17.817   6
  -1 -10  -6 498.327  15.048   9
 -10   1  -6 486.105  14.878   9
   1 -10   6 499.648  19.404   3
   1  10  -6 488.828  16.535   1
  -1  10   6 493.306  13.680   2
   1  10  -6 489.785  15.359   9
   1 -10   6 496.966  14.995   2
 -10  -1   6 484.842  17.578   7
   1  10  -6 477.386  15.215   9
   1 -10  -6 484.416  16.119   1
 -10  -1  -6 477.895  14.906   9
  10   1  -6 483.166  16.438   1
 -10   1   6 500.268  19.006   7
  10  -1   6 498.451  14.538   2
   1  10   6 483.114  13.759   2
  -1 -10   6 451.390  14.524   2
  -1  10  -6 484.453  15.203   9
  -1 -10   6 525.533  21.192   3
 -10   1   6 510.825  14.369   2
 -10  -1  -6 505.034  16.203   1
  -1  10  -6 497.823  16.609   1
   1 -10  -6 487.079  14.772   9
  10  -1   6 508.270  17.593   8
  10   1  -6 494.061  15.141   9
   2  10  -6 2147.57   47.39   1
 -10  -2   6 2182.39   44.69   2
  -2 -10  -6 2146.39   44.82   9
   2 -10   6 2144.18   45.34   2
 -10   2  -6 2105.16   44.95   9
  10  -2  -6 2190.79   47.05   1
   2 -10   6 2159.71   49.08   8
  10  -2  -6 2083.91   44.93   9
  -2  10   6 2234.29   44.01   2
   2 -10   6 2115.49   45.30   2
   2 -10   6 2157.95   49.01   3
  10   2   6 2229.57   49.21   6
 -10   2  -6 2139.01   47.15   1
 -10  -2   6 2249.91   48.47   7
  10   2   6 2215.49   44.75   2
  -2 -10  -6 2151.65   46.95   1
   2  10  -6 2127.58   45.53   9
   2 -10  -6 2125.99   46.84   1
  -2  10  -6 2150.50   45.51   9
 -10   2   6 2067.46   50.76   7
 -10  -2  -6 2234.87   47.23   1
  10   2  -6 2130.93   45.45   9
  10   2  -6 2179.44   47.17   1
 -10  -2  -6 2119.98   44.96   9
 -10   2   6 2204.70   44.43   2
  -2  10  -6 2279.51   47.73   1
  10  -2   6 2141.96   44.95   2
  -2 -10   6 2155.38   45.25   2
  10  -2   6 2214.45   49.66   8
  -2 -10   6 2295.38   53.46   3
   2  10   6 2233.75   44.12   2
   2 -10  -6 2134.29   44.88   9
   3 -10   6 16.1351  6.8454   8
 -10  -3   6 4.39136 4.99708   7
  10   3   6 11.0426  4.3290   2
   3  10  -6 13.1168  4.7457   9
  10  -3  -6 17.5250  4.7048   9
   3 -10   6 7.59015 4.64204   2
  10  -3  -6 11.8350  4.8703   1
  -3 -10  -6 12.0865  4.6657   9
 -10   3  -6 9.86587 4.40147   9
  10   3   6 18.5107  5.8137   6
 -10   3  -6 9.81708 5.37017   1
  -3  10   6 9.31228 4.14506   2
   3  10  -6 19.6634  5.5730   1
  -3 -10  -6 9.40132 5.34924   1
   3 -10   6 11.6349  5.6557   3
 -10  -3   6 16.1965  4.3658   2
 -10   3   6 11.4173  7.3228   7
 -10   3   6 9.31415 4.07111   2
  -3  10  -6 12.2612  4.6968   9
 -10  -3  -6 21.7503  5.7390   1
  10   3  -6 7.27292 4.38354   9
   3  10   6 28.2052  4.7072   2
  10  -3   6 11.1977  4.4027   2
  -3 -10   6 3.76206 7.32738   3
  10   3  -6 11.9868  5.1891   1
  -3 -10   6 14.8071  4.6844   2
   3 -10  -6 15.0409  5.2435   1
  10  -3   6 14.8985  6.6997   8
  -3  10  -6 7.69309 5.34947   1
   3 -10  -6 11.6059  4.6467   9
 -10  -3  -6 13.3778  4.5576   9
  10   4   6 2178.09   49.67   6
   4 -10   6 2178.74   45.66   2
   4 -10   6 2101.56   51.09   8
  10  -4  -6 2104.40   45.19   9
  -4 -10  -6 2128.81   47.15   1
  10  -4  -6 2154.63   47.30   1
  10   4   6 2150.94   44.82   2
 -10   4  -6 2199.56   47.87   1
 -10   4  -6 2181.78   45.29   9
   4  10  -6 2179.84   47.80   1
  -4  10   6 2174.28   44.07   2
   4  10  -6 2049.42   45.37   9
 -10  -4   6 2134.25   44.90   2
  -4 -10  -6 2160.34   45.14   9
  -4  10  -6 2199.78   47.99   1
   4 -10  -6 2152.33   45.15   9
  10  -4   6 2075.17   51.04   8
  10   4  -6 2068.53   45.48   9
  10  -4   6 2173.68   45.36   2
  -4 -10   6 2147.11   45.36   2
   4  10   6 2187.48   44.28   2
  -4 -10   6 2128.77   52.50   3
 -10  -4  -6 2141.85   45.22   9
  -4  10  -6 2131.69   45.56   9
 -10   4   6 2154.67   44.48   2
 -10   4   6 2113.19   53.67   7
  10   4  -6 2190.07   47.61   1
   4 -10  -6 2211.75   47.70   1
 -10  -4  -6 2241.68   47.53   1
  10  -5  -6 54.7729  6.7014   9
  -5 -10  -6 69.9366  6.9697   9
   5 -10   6 61.4007  9.9838   8
   5  10  -6 55.9956  7.4935   1
 -10   5  -6 63.4979  6.6967   9
 -10  -5   6 69.2416  6.5878   2
   5  10  -6 66.1585  7.1817   9
   5 -10   6 62.2522  6.7749   2
 -10   5  -6 46.6854  7.2254   1
  10   5   6 81.7621  6.7758   2
  -5 -10  -6 80.9782  8.1332   1
  -5  10   6 66.4101  6.0604   2
  10  -5  -6 75.1797  7.9336   1
  10   5   6 77.6857  8.8280   6
 -10   5   6 75.1230  6.6207   2
  10  -5   6 66.5976  6.8216   2
   5 -10  -6 66.3131  6.8267   9
  -5  10  -6 66.8418  6.8962   9
  10   5  -6 69.5553  7.0751   9
  -5 -10   6 79.6470 10.3163   3
 -10  -5  -6 63.4548  6.7650   9
  -5 -10   6 46.2251  6.3040   2
   5  10   6 82.6819  6.7339   2
   5 -10  -6 56.9314  7.6610   1
 -10  -5  -6 69.2717  8.1176   1
 -10   5   6 54.5668 10.7202   7
  10  -5   6 77.2806 10.2658   8
  10   5  -6 76.2309  8.2572   1
  -5  10  -6 60.9307  7.9178   1
   6 -10   6 622.586  18.669   2
  -6  10   6 619.903  21.883   7
 -10  -6   6 667.682  20.677   3
   6 -10   6 624.915  25.270   8
  -6  10   6 643.003  17.507   2
  10   6   6 632.095  18.131   2
  10   6   6 664.791  22.179   6
   6  10  -6 652.421  19.281   9
  10  -6  -6 660.064  20.472   1
  -6 -10  -6 633.343  18.600   9
  10  -6  -6 650.693  19.146   9
 -10  -6   6 629.567  18.348   2
  -6 -10  -6 649.896  20.560   1
   6  10  -6 640.768  20.518   1
 -10   6  -6 648.031  20.929   1
 -10   6  -6 628.338  18.811   9
  10  -6   6 580.889  24.304   8
  10   6  -6 655.360  20.816   1
  -6 -10   6 674.696  18.980   2
   6  10   6 616.218  22.011   6
  -6  10  -6 647.082  20.987   1
 -10   6   6 626.051  27.577   7
 -10  -6  -6 670.343  19.080   9
  10   6  -6 631.522  19.041   9
  -6 -10   6 661.292  24.159   3
 -10   6   6 649.404  17.942   2
   6 -10  -6 645.003  20.434   1
  -6  10  -6 619.012  18.807   9
   6 -10  -6 635.002  18.737   9
  10  -6   6 607.668  18.446   2
 -10  -6  -6 636.545  20.386   1
  10   6  -6 667.143  20.948   1
   6  10   6 642.507  17.885   2
  -7  10   6 267.162  10.716   2
 -10   7  -6 260.391  11.757   9
   7 -10   6 256.767  11.752   2
  -7 -10  -6 257.480  11.647   9
  -7  10   6 259.356  15.350   7
  10  -7  -6 272.762  12.981   1
 -10   7  -6 270.059  13.293   1
  10   7   6 261.935  14.389   6
 -10  -7   6 272.372  11.666   2
  10   7   6 250.624  11.110   2
  10  -7  -6 257.477  11.755   9
   7  10  -6 258.466  13.046   1
   7  10  -6 208.728  11.287   9
 -10  -7   6 264.430  13.810   3
  -7 -10  -6 258.147  13.449   1
  -7 -10   6 241.077  15.003   3
   7  10   6 251.689  14.196   6
  10  -7   6 273.133  11.868   2
   7 -10  -6 235.477  11.429   9
  10  -7   6 253.715  17.652   8
 -10   7   6 264.154  11.001   2
  10   7  -6 261.287  11.919   9
 -10   7   6 228.201  19.292   7
   7  10   6 263.351  11.187   2
  -7  10  -6 269.230  11.883   9
  -7  10  -6 288.507  14.115   1
  10   7  -6 255.826  13.120   1
   7 -10  -6 256.505  12.832   1
  -7 -10   6 239.815  11.309   2
 -10  -7  -6 242.629  12.766   1
 -10  -7  -6 254.722  11.410   9
   8  10  -6 963.623  27.076   1
  10   8   6 966.500  28.797   6
  -8  10   6 949.874  23.896   2
  10   8   6 926.424  24.157   2
  -8 -10  -6 958.899  27.257   1
 -10  -8   6 950.880  27.717   3
 -10   8  -6 882.782  24.625   9
   8 -10   6 896.321  24.814   2
   8  10  -6 865.821  25.036   9
  10  -8  -6 886.382  24.740   9
  -8 -10  -6 896.034  24.752   9
 -10  -8   6 910.643  24.561   2
 -10   8  -6 903.995  27.033   1
  -8  10   6 983.711  30.808   7
  10  -8  -6 910.482  26.580   1
 -10   8   6 957.119  34.908   7
  10   8  -6 924.942  26.718   1
  -8  10  -6 877.721  24.888   9
 -10   8   6 947.258  23.941   2
 -10  -8  -6 915.724  24.627   9
  10   8  -6 905.925  25.166   9
 -10  -8  -6 947.552  26.846   1
   8 -10  -6 885.420  26.360   1
  -8 -10   6 920.674  24.536   2
  10  -8   6 880.925  24.663   2
   8  10   6 940.738  29.052   6
  -8 -10   6 897.542  28.768   3
  -8  10  -6 954.445  27.290   1
   8  10   6 998.243  24.360   2
   8 -10  -6 959.506  25.271   9
  -9  10   6 17.6808  8.8682   7
  10  -9  -6 12.1847  6.2248   1
  -9 -10  -6 6.65057 5.49502   9
 -10   9  -6 5.45345 6.38965   1
  -9 -10  -6 22.7283  7.3348   1
   9  10  -6 3.43445 5.31901   9
   9 -10   6 4.52983 5.47222   2
  10  -9  -6 10.8551  5.5424   9
 -10   9  -6 4.28027 5.21148   9
  -9  10   6 13.6357  5.4873   2
 -10  -9   6 13.0108  7.1411   3
  10   9   6 13.5773  5.6573   2
  10   9   6 6.29124 6.65852   6
   9  10  -6 7.22657 6.21304   1
 -10  -9   6 8.46283 5.13697   2
   9 -10  -6 11.3711  6.5133   1
 -10  -9  -6 2.91045 5.06071   9
   9  10   6 10.1808  6.9626   6
 -10   9   6 10.0663  9.5998   7
   9 -10  -6 10.5202  5.5035   9
  -9  10  -6 6.19108 6.43684   1
  10   9  -6 4.72146 6.17703   1
   9  10   6 9.08774 5.48510   2
  -9  10  -6 1.41902 5.24159   9
  -9 -10   6 12.0319  7.2072   3
 -10   9   6 1.13347 5.06257   2
  -9 -10   6 10.4109  5.5354   2
  10   9  -6 13.9303  5.8325   9
 -10  -9  -6 8.77062 6.72511   1
  10  -9   6 8.17602 5.68941   2
  11   0   6 7.15996 4.50699   2
 -11   0  -6 -1.6464  4.1017   9
   0  11   6 -4.7397  3.6952   2
   0  11  -6 2.59292 5.61371   1
   0 -11  -6 1.20929 4.20314   9
  11   0  -6 -1.3356  4.7495   1
   0  11  -6 -1.2276  4.0925   9
  11   0  -6 -4.8227  3.9406   9
   0 -11  -6 2.83615 5.13449   1
 -11   0   6 7.07527 5.87538   7
   0  11  -6 4.71488 4.33539   9
   0 -11   6 0.66459 4.40225   2
 -11   0  -6 -2.9387  4.9205   1
   0 -11   6 -0.8117  7.3399   3
 -11   0   6 2.05760 4.09715   2
   1  11  -6 659.725  18.843   9
   1  11  -6 655.724  20.244   1
  11  -1  -6 630.705  20.008   1
  11  -1  -6 608.078  18.278   9
 -11   1  -6 640.063  20.052   1
 -11   1  -6 635.411  18.420   9
   1 -11   6 626.964  18.365   2
 -11  -1   6 671.492  21.672   7
   1 -11   6 675.801  23.706   3
  11   1   6 634.180  17.886   2
 -11  -1   6 619.292  17.581   2
  -1 -11  -6 643.347  18.217   9
  -1  11   6 669.281  17.296   2
  -1 -11  -6 671.252  19.986   1
  11   1   6 622.861  20.592   6
   1 -11   6 650.262  18.539   2
  -1 -11   6 626.828  25.544   3
 -11  -1  -6 665.981  18.551   9
 -11   1   6 638.199  22.479   7
 -11   1   6 632.101  17.632   2
  -1  11  -6 625.512  18.542   9
  11  -1   6 663.814  21.053   8
   1 -11  -6 626.712  18.126   9
  -1 -11   6 600.505  18.265   2
  -1  11  -6 663.683  20.763   1
  11   1  -6 659.052  20.152   1
   1 -11  -6 650.110  19.881   1
  11  -1   6 611.673  17.843   2
   1  11   6 663.903  17.326   2
 -11  -1  -6 649.681  20.140   1
  -1  11  -6 591.078  18.263   9
  11   1  -6 639.123  18.513   9
  -2 -11  -6 8.24677 5.55497   1
  -2 -11  -6 6.99657 4.48439   9
   2 -11   6 12.8977  4.8650   2
  -2  11   6 1.10612 3.93978   2
   2  11  -6 8.78662 5.19618   1
 -11  -2   6 1.26165 5.33236   7
 -11  -2   6 -0.9472  4.0017   2
   2 -11   6 -5.7885  4.1791   2
   2  11  -6 1.67671 4.39066   9
  11   2   6 -1.8877  4.2788   2
   2 -11   6 0.21110 6.45418   3
  11  -2  -6 0.50970 4.28953   9
  11  -2  -6 0.58203 4.98647   1
  11   2   6 8.39260 5.72205   6
 -11   2  -6 7.60697 4.52320   9
 -11   2  -6 0.93275 5.36052   1
  -2 -11   6 6.53954 8.75905   3
  11   2  -6 1.77334 4.80897   1
 -11   2   6 14.6080  7.1145   7
  -2  11  -6 5.22095 5.38929   1
 -11  -2  -6 11.3305  5.3038   1
  11   2  -6 -1.7990  4.2938   9
  11  -2   6 11.5741  6.0592   8
   2  11   6 3.80699 4.19458   2
  -2  11  -6 1.15139 4.49949   9
  11  -2   6 2.78472 4.35951   2
 -11  -2  -6 1.76219 4.33569   9
   2 -11  -6 2.51484 4.44275   9
   2 -11  -6 1.65189 4.83707   1
 -11   2   6 1.18699 4.16363   2
  -2 -11   6 4.88857 4.29704   2
  11   3   6 592.285  17.369   2
   3 -11   6 610.653  18.145   2
  -3 -11  -6 589.665  17.573   9
  11  -3  -6 618.091  18.118   9
  11   3   6 635.330  20.865   6
  11  -3  -6 582.852  19.475   1
  -3 -11  -6 618.207  19.460   1
 -11   3  -6 600.015  19.571   1
   3 -11   6 592.112  21.307   8
 -11   3  -6 583.286  17.727   9
   3  11  -6 581.601  18.037   9
  -3  11   6 627.441  16.894   2
 -11  -3   6 610.883  17.435   2
   3  11  -6 579.622  19.556   1
  -3 -11   6 602.581  17.801   2
 -11  -3  -6 605.057  19.653   1
  11   3  -6 594.237  19.241   1
  -3  11  -6 608.766  18.050   9
   3 -11  -6 598.241  19.440   1
  11   3  -6 588.839  18.181   9
 -11   3   6 613.971  17.247   2
   3  11   6 601.204  16.853   2
  11  -3   6 601.482  21.610   8
  -3  11  -6 571.503  19.813   1
   3 -11  -6 585.362  17.715   9
 -11  -3  -6 633.811  18.144   9
  -3 -11   6 609.436  25.433   3
 -11   3   6 636.360  23.961   7
 -11   4  -6 7.35139 6.01337   1
  11  -4  -6 14.8700  5.3552   9
  -4 -11  -6 28.6494  6.5793   1
  11   4   6 15.3298  5.1776   2
   4 -11   6 11.5140  4.7710   2
   4  11  -6 18.8898  5.2532   9
 -11   4  -6 17.7398  5.1020   9
   4  11  -6 18.4930  6.1232   1
  -4  11   6 21.1193  4.8030   2
  -4 -11  -6 22.7894  5.2685   9
  11  -4  -6 17.1541  5.6950   1
   4 -11   6 12.2807  7.1258   8
 -11  -4   6 15.3301  4.8295   2
  11   4   6 16.8035  6.4280   6
 -11   4   6 11.8126  4.6412   2
 -11   4   6 13.9335  7.8082   7
   4 -11  -6 14.7460  5.1953   9
  11   4  -6 13.7684  5.0821   9
   4 -11  -6 9.87162 6.01311   1
  -4 -11   6 13.0290  8.9576   3
   4  11   6 14.3301  4.7931   2
  11  -4   6 17.0646  5.1591   2
 -11  -4  -6 19.8831  5.0789   9
 -11  -4  -6 9.81398 5.63305   1
  11   4  -6 17.6033  6.4372   1
  -4 -11   6 18.1801  5.0346   2
  -4  11  -6 12.7889  5.1480   9
  11  -4   6 6.68345 6.81026   8
  -4  11  -6 16.2387  6.3114   1
   5  11  -6 267.509  12.929   1
  11  -5  -6 249.118  12.411   1
   5 -11   6 248.949  15.470   8
 -11   5  -6 243.154  11.291   9
  -5 -11  -6 222.340  10.945   9
  -5  11   6 243.513  10.380   2
  11   5   6 251.498  14.183   6
  -5 -11  -6 246.132  12.423   1
  11   5   6 246.017  10.870   2
   5  11  -6 224.783  11.186   9
 -11   5  -6 270.691  13.099   1
   5 -11   6 234.892  11.137   2
  11  -5  -6 244.012  11.310   9
 -11  -5   6 254.691  11.124   2
 -11   5   6 256.380  10.645   2
   5 -11  -6 220.972  11.041   9
  -5  11  -6 262.044  11.662   9
  11   5  -6 227.311  11.168   9
  11  -5   6 226.974  15.111   8
  -5  11  -6 277.622  13.802   1
 -11  -5  -6 252.163  11.316   9
  -5 -11   6 242.358  16.262   3
  11   5  -6 236.405  12.871   1
  11  -5   6 210.384  10.760   2
 -11   5   6 209.127  17.857   7
   5  11   6 249.573  10.731   2
  -5 -11   6 233.245  11.205   2
   5 -11  -6 221.112  12.588   1
 -11  -5  -6 242.831  12.828   1
  11  -6  -6 37.1497  6.9796   1
  -6  11   6 32.4358  5.5823   2
 -11   6  -6 44.5685  6.3453   9
   6  11  -6 49.9753  6.9642   9
 -11  -6   6 38.5303  6.2610   2
  11   6   6 37.8569  8.2446   6
 -11   6  -6 33.0821  7.4804   1
   6 -11   6 31.5666  5.9764   2
  -6 -11  -6 42.6067  7.4677   1
  -6 -11  -6 43.3615  6.7076   9
  11   6   6 26.7242  5.9515   2
  11  -6  -6 44.1744  6.6526   9
   6  11  -6 41.0925  7.6943   1
   6 -11   6 29.6370  9.8702   8
   6  11   6 42.3955  6.1756   2
  -6 -11   6 39.4365  6.3466   2
 -11  -6  -6 21.8145  6.6381   1
 -11  -6  -6 33.6458  6.1457   9
  -6  11  -6 36.4945  6.2787   9
   6 -11  -6 26.5994  6.8723   1
  11   6  -6 54.4434  8.1873   1
 -11   6   6 33.6334  5.6417   2
  11   6  -6 36.7130  6.2977   9
   6 -11  -6 46.3855  6.6613   9
  -6  11  -6 48.8387  7.9573   1
  -6 -11   6 46.2968  9.9276   3
  11   6  -6 27.0442  7.1440   1
  11  -6   6 41.9458  6.6595   2
 -11   6   6 38.5630 10.8105   7
 -11   7  -6 41.3590  7.7806   1
  11   7   6 44.9762  6.6187   2
  -7  11   6 33.7511  5.8717   2
 -11  -7   6 25.6828  5.9993   2
  11  -7  -6 43.7924  6.8004   9
  11   7   6 33.8887  8.0222   6
  -7 -11  -6 40.5801  6.5928   9
  -7 -11  -6 40.2010  7.4796   1
   7  11  -6 34.7310  6.5397   9
   7 -11   6 31.9230  6.2059   2
 -11   7  -6 31.3336  6.4220   9
   7  11  -6 36.0721  7.9213   1
  11  -7  -6 31.4376  7.1450   1
  11  -7   6 44.8450  6.8586   2
  -7  11  -6 39.1271  7.9080   1
   7 -11  -6 35.2748  6.4250   9
  11   7  -6 40.3749  7.7711   1
  -7 -11   6 25.7677  8.9472   3
   7  11   6 25.2236  5.8358   2
 -11  -7  -6 40.2777  6.4874   9
   7  11   6 46.0290  8.5335   6
   7 -11  -6 49.0145  8.0346   1
 -11   7   6 30.8430 12.7489   7
  11   7  -6 43.7770  6.8068   9
 -11  -7  -6 33.6356  7.7212   1
  -7  11  -6 34.8214  6.4583   9
 -11   7   6 44.3948  6.2187   2
  -7 -11   6 54.8653  7.1359   2
   8 -11   6 7.68785 5.65751   2
  -8  11   6 0.75635 4.68520   2
 -11  -8   6 3.74523 4.88079   2
  11   8   6 -2.2252  4.9935   2
  11  -8  -6 9.46191 5.35680   9
 -11   8  -6 6.86778 5.39556   9
  -8 -11  -6 8.68956 6.22337   1
  11  -8  -6 -9.5576  5.2026   1
   8  11  -6 7.66563 6.40289   1
  -8 -11  -6 1.03786 4.89552   9
   8  11  -6 0.68110 5.17229   9
 -11   8  -6 10.1559  6.4879   1
  11   8   6 -4.3995  6.0327   6
  -8 -11   6 1.45630 5.27259   2
 -11   8   6 3.84886 5.01094   2
 -11  -8  -6 9.59177 6.28614   1
  -8  11  -6 -3.7087  6.1398   1
   8 -11  -6 0.53446 5.55111   1
 -11  -8  -6 2.11429 5.04709   9
  11   8  -6 7.41372 5.53956   9
  11  -8   6 2.44106 5.04129   2
   8 -11  -6 -5.7098  4.7505   9
   8  11   6 -0.1025  6.6539   6
  -8  11  -6 9.56414 5.66442   9
   8  11   6 3.65284 5.11809   2
 -11   8   6 -6.3247  9.7147   7
  -8 -11   6 14.2782  7.8889   3
  11   8  -6 0.15530 6.09843   1
 -12   0   6 1010.03   25.18   2
   0  12  -6 1004.43   26.17   9
 -12   0  -6 998.348  25.908   9
  12   0  -6 987.357  26.010   9
   0  12  -6 1073.49   28.36   1
   0 -12  -6 1013.68   25.75   9
  12   0  -6 1039.83   28.04   1
   0  12   6 1014.92   24.65   2
   0 -12  -6 1003.75   27.81   1
 -12   0  -6 1026.28   27.83   1
 -12   0   6 1030.46   29.76   7
   0 -12   6 904.529  32.021   3
  12   0   6 1076.89   26.02   2
   0 -12   6 985.227  25.760   2
   1  12  -6 13.1750  6.2017   1
   1 -12   6 7.25901 5.13909   2
  12   1   6 28.1142  7.0354   6
  12   1   6 17.8327  5.2822   2
   1 -12   6 21.7792  5.5561   2
 -12  -1   6 31.3177  5.5088   2
 -12   1  -6 13.7214  5.2146   9
  12  -1  -6 14.7422  5.9843   1
  -1  12   6 25.5989  5.1183   2
  12  -1  -6 14.5620  5.3713   9
   1 -12   6 24.4292  8.5466   3
 -12  -1   6 19.1737  6.7524   7
  -1 -12  -6 29.0279  5.9045   9
 -12   1  -6 18.7622  6.1041   1
  -1 -12  -6 24.4369  6.4840   1
   1  12  -6 9.11267 5.19641   9
  -1 -12   6 15.6963  9.7854   3
  -1  12  -6 8.85530 6.19286   1
   1 -12  -6 23.5445  6.2210   1
  12  -1   6 24.3010  5.6459   2
   1  12   6 13.1018  4.8596   2
  -1  12  -6 14.5546  5.3553   9
  12   1  -6 14.1609  5.7566   1
 -12   1   6 21.5670  5.2473   2
   1 -12  -6 23.2130  5.8875   9
 -12  -1  -6 22.1689  6.6551   1
 -12   1   6 14.6839  7.5497   7
  -1 -12   6 14.9358  5.5394   2
  -1  12  -6 22.7893  5.5510   9
 -12  -1  -6 13.9962  5.1131   9
  12   1  -6 18.4085  5.4285   9
   2 -12   6 1229.26   30.04   2
   2  12  -6 1162.72   30.05   9
   2 -12   6 1220.02   34.59   3
 -12   2  -6 1287.93   30.36   9
  12  -2  -6 1207.73   31.65   1
  12  -2  -6 1209.26   30.13   9
  -2 -12  -6 1187.81   29.71   9
 -12  -2   6 1237.57   29.53   2
   2  12  -6 1245.24   32.36   1
  -2  12   6 1262.69   28.74   2
 -12   2  -6 1249.19   32.37   1
  12   2   6 1266.47   29.66   2
  -2 -12  -6 1243.34   31.91   1
  12   2   6 1260.51   33.59   6
   2 -12   6 1258.78   30.36   2
  -2  12  -6 1281.27   32.83   1
   2 -12  -6 1249.70   30.11   9
  12   2  -6 1196.59   31.77   1
 -12  -2  -6 1254.93   32.15   1
  -2  12  -6 1232.58   30.23   9
  -2 -12   6 1261.18   40.79   3
  -2  12  -6 1222.63   30.23   9
 -12   2   6 1214.48   29.09   2
  12   2  -6 1189.06   30.12   9
 -12  -2  -6 1188.29   29.86   9
   2 -12  -6 1244.35   32.19   1
  12  -2   6 1309.10   34.03   8
   2  12   6 1225.02   28.75   2
  -2 -12   6 1233.49   29.94   2
  12  -2   6 1200.09   29.47   2
 -12   2   6 1269.12   35.98   7
 -12   3  -6 211.963  10.717   9
 -12   3  -6 221.776  12.527   1
  12   3   6 227.491  13.515   6
  12  -3  -6 207.790  12.231   1
 -12  -3   6 223.678  10.565   2
   3  12  -6 221.673  12.479   1
  -3 -12  -6 223.939  12.550   1
  12  -3  -6 220.867  11.261   9
  -3  12   6 234.030  10.430   2
   3 -12   6 218.389  11.155   2
   3  12  -6 225.102  11.175   9
  12   3   6 231.666  10.768   2
  -3 -12  -6 222.548  10.925   9
  12  -3   6 234.162  14.151   8
  -3  12  -6 230.111  11.318   9
   3 -12  -6 232.389  12.437   1
 -12  -3  -6 220.475  10.874   9
 -12   3   6 228.008  15.698   7
  -3 -12   6 223.280  11.141   2
  -3  12  -6 214.934  12.740   1
  -3 -12   6 211.854  19.193   3
   3  12   6 226.812  10.190   2
  12   3  -6 212.530  12.071   1
 -12   3   6 213.243  10.174   2
  12  -3   6 224.577  10.820   2
  12   3  -6 211.186  11.073   9
   3 -12  -6 225.502  11.045   9
 -12  -3  -6 223.376  12.206   1
  12  -4  -6 1047.75   27.25   9
 -12  -4   6 1076.83   26.86   2
   4  12  -6 1035.57   27.51   9
 -12   4  -6 1021.09   27.07   9
   4  12  -6 1025.99   29.34   1
  -4  12   6 1041.71   25.83   2
 -12   4  -6 1100.43   29.95   1
  -4 -12  -6 1037.05   27.07   9
  12   4   6 1037.68   26.47   2
  12  -4  -6 1064.41   29.41   1
   4 -12   6 1082.28   27.55   2
  -4 -12  -6 1016.93   28.76   1
  12   4   6 1095.27   30.99   6
 -12   4   6 1048.99   35.19   7
  12   4  -6 1099.96   29.45   1
  12   4  -6 1048.70   27.49   9
  -4 -12   6 1080.03   36.20   3
   4  12   6 1043.71   25.96   2
  -4 -12   6 1039.56   27.13   2
  -4  12  -6 1068.22   29.85   1
  -4  12  -6 1053.21   27.50   9
 -12   4   6 1093.30   26.51   2
   4 -12  -6 1081.35   27.45   9
 -12  -4  -6 1066.19   29.23   1
  12  -4   6 1044.05   27.04   2
  12  -4   6 1113.89   32.59   8
 -12  -4  -6 1044.04   27.14   9
   4 -12  -6 1088.98   29.43   1
  12   5   6 -3.7025  5.8535   6
   5 -12   6 4.33252 7.56822   8
  -5 -12  -6 0.20638 4.87098   9
 -12   5  -6 4.38964 6.52068   1
  12   5   6 5.61176 5.39546   2
   5  12  -6 -5.7217  4.6353   9
  -5 -12  -6 1.78592 5.76501   1
   5  12  -6 7.15780 6.63203   1
 -12   5  -6 0.34419 4.73906   9
   5 -12   6 0.06560 4.67401   2
 -12  -5   6 -1.3220  4.6699   2
  12  -5  -6 -3.0759  4.5342   9
  12  -5  -6 5.63363 6.21216   1
  -5  12   6 5.10826 4.71365   2
   5  12   6 2.89795 4.71562   2
  12  -5   6 -9.6070  4.3880   2
  -5  12  -6 -3.5859  4.5933   9
 -12   5   6 -2.9285  4.5205   2
  -5  12  -6 9.01925 6.48838   1
  12   5  -6 -5.1790  5.8869   1
   5 -12  -6 -2.5713  4.7096   9
 -12  -5  -6 1.36931 4.83304   9
  12   5  -6 2.43745 4.93994   9
 -12  -5  -6 -9.2610  5.5165   1
 -12   5   6 0.58038 7.66334   7
   5 -12  -6 2.30358 6.20792   1
  -5 -12   6 -0.0631  5.0643   2
  -5 -12   6 7.33502 8.45434   3
  12  -6  -6 1022.92   29.58   1
  -6 -12  -6 1014.91   29.64   1
   6  12  -6 1020.17   27.81   9
 -12   6  -6 1069.19   30.26   1
  -6 -12  -6 1020.96   27.27   9
 -12  -6   6 1010.30   26.82   2
  12  -6  -6 983.499  27.205   9
  -6  12   6 1033.67   25.88   2
   6  12  -6 1048.24   29.77   1
 -12   6  -6 969.344  27.007   9
  12   6   6 1060.90   31.28   6
  12   6   6 1089.65   27.08   2
  -6 -12   6 1019.13   26.98   2
  12   6  -6 1041.55   29.74   1
  12  -6   6 1040.42   27.45   2
   6 -12  -6 1065.28   27.54   9
 -12  -6  -6 1080.88   29.90   1
  12   6  -6 1045.89   27.97   9
  -6 -12   6 1023.05   33.60   3
 -12   6   6 1063.21   26.41   2
  -6  12  -6 1107.53   30.40   1
   6 -12  -6 1054.35   29.72   1
   6  12   6 1015.27   26.03   2
 -12  -6  -6 1034.74   27.27   9
 -12   6   6 1003.93   36.91   7
  12   6  -6 1070.74   30.09   1
  -6  12  -6 1065.32   28.00   9
 -12   7  -6 -1.8574  6.0444   1
  12   7   6 0.09879 5.29457   2
   7  12  -6 2.81596 5.80566   9
  12   7   6 -0.0195  6.3757   6
   7  12  -6 4.50458 6.75129   1
  -7 -12  -6 5.25958 6.58823   1
 -12  -7   6 -0.8328  5.1133   2
 -12   7  -6 5.36468 5.31185   9
   7 -12   6 0.92060 5.40609   2
  -7  12   6 -1.1364  4.8151   2
  12  -7  -6 7.03912 6.01358   1
 -12   7   6 -0.4661  4.7554   2
  -7 -12   6 6.46434 7.96446   3
  -7 -12   6 3.26154 5.10486   2
   7  12   6 1.92135 5.06386   2
  12   7  -6 0.89885 5.85488   1
 -12  -7  -6 3.40680 6.61213   1
  -7  12  -6 7.36439 5.50251   9
   7 -12  -6 -0.1774  5.8489   1
  -7  12  -6 -2.7808  6.2133   1
  12   7  -6 3.28078 5.50644   9
  12  -7   6 6.05417 5.45743   2
   0 -13  -6 -0.7774  5.9537   1
   0  13   6 -4.1914  4.5022   2
 -13   0  -6 2.65864 5.72276   1
   0 -13   6 -2.6617  4.6726   2
   0 -13   6 6.96818 9.07705   3
   0  13  -6 -5.6549  4.8515   9
  13   0  -6 5.00613 5.02384   9
  13   0   6 -0.6278  4.8764   2
 -13   0   6 -0.9393  4.6907   2
  13   0  -6 -2.9446  5.7010   1
   0 -13  -6 -5.4541  4.6506   9
 -13   0  -6 -5.4883  4.5618   9
 -13   0   6 4.05940 6.40536   7
   0  13  -6 0.61863 5.91733   1
  13   1   6 33.0937  6.2274   2
  13  -1  -6 29.5871  6.8382   1
   1 -13   6 19.7308  5.7636   2
 -13  -1   6 25.1192  5.8116   2
  13  -1  -6 28.6824  6.2190   9
 -13   1  -6 40.1234  6.7077   9
   1  13  -6 35.9891  6.5361   9
   1 -13   6 21.7790  9.5465   3
 -13  -1   6 21.6491  7.2379   7
   1  13  -6 21.2594  6.9818   1
  -1 -13  -6 18.3397  7.0798   1
   1 -13   6 42.6099  6.5586   2
  -1  13   6 33.4504  5.8129   2
  -1 -13  -6 30.2650  6.1299   9
 -13   1  -6 31.5942  7.3847   1
 -13   1   6 39.4040  6.2983   2
   1 -13  -6 14.7870  6.5308   1
 -13  -1  -6 17.5945  5.7324   9
 -13   1   6 40.8982  8.8167   7
  -1  13  -6 40.8974  6.8857   9
   1  13   6 19.3650  5.4092   2
  13   1  -6 27.9003  7.4893   1
  -1  13  -6 23.4673  7.3736   1
  -1 -13   6 17.9507  6.1378   2
  13   1  -6 22.6929  5.9600   9
  13  -1   6 33.9423  6.3160   2
 -13  -1  -6 26.5219  6.8675   1
   1 -13  -6 18.9401  5.9598   9
  -1 -13   6 28.8838 11.4300   3
  -2 -13  -6 3.83924 5.41861   9
 -13  -2   6 -7.8656  4.5696   2
  13  -2  -6 0.95952 5.68804   1
  13   2   6 6.31646 5.20651   2
 -13   2  -6 2.46060 5.92726   1
   2 -13   6 1.64055 5.25197   2
  13  -2  -6 1.64230 4.88117   9
  -2  13   6 1.30115 4.70904   2
 -13   2  -6 0.72061 4.74690   9
   2  13  -6 1.09606 5.11420   9
   2 -13   6 12.7962  8.5296   3
   2  13  -6 9.36260 6.44245   1
   2 -13   6 10.6168  5.5803   2
  -2 -13  -6 -6.1403  5.4110   1
  13   2   6 2.25809 6.59368   6
   2 -13  -6 -1.8369  5.6563   1
  13  -2   6 1.36140 5.06277   2
  -2 -13   6 0.51537 4.80447   2
   2  13   6 -1.9583  4.7339   2
 -13  -2  -6 10.3348  6.1622   1
 -13   2   6 4.07808 7.60796   7
   2 -13  -6 -4.8526  4.7505   9
  13   2  -6 6.67256 5.01656   9
  -2  13  -6 -2.0360  5.7058   1
 -13  -2  -6 -6.9201  4.2575   9
 -13   2   6 10.1095  4.9779   2
  -2 -13   6 -4.0534 10.0996   3
  13   2  -6 8.29054 6.39945   1
  -2  13  -6 1.59079 5.05566   9
  -2  13  -6 -4.8921  4.8849   9
   3  13  -6 349.423  14.483   9
   3  13  -6 360.850  16.185   1
  -3 -13  -6 343.899  15.562   1
  -3 -13  -6 347.963  14.157   9
  -3  13   6 353.401  13.402   2
 -13   3  -6 348.788  15.964   1
  13   3   6 357.378  13.903   2
  13  -3  -6 356.926  14.726   9
  13   3   6 358.029  16.834   6
 -13   3  -6 365.280  14.383   9
   3 -13   6 334.258  14.123   2
 -13  -3   6 352.686  13.840   2
  13  -3  -6 366.657  16.210   1
   3 -13  -6 348.844  14.227   9
   3  13   6 364.062  13.342   2
  -3 -13   6 335.232  14.212   2
 -13   3   6 369.973  19.583   7
 -13  -3  -6 349.659  15.920   1
  -3  13  -6 347.098  15.973   1
 -13  -3  -6 357.640  14.137   9
  -3 -13   6 339.147  21.883   3
  13   3  -6 360.118  14.494   9
  13  -3   6 340.797  13.873   2
  -3  13  -6 333.151  14.255   9
   3 -13  -6 364.041  16.286   1
  13   3  -6 369.202  16.369   6
  -3  13  -6 382.512  14.818   9
  13   3  -6 378.123  16.098   1
 -13   3   6 351.808  13.425   2
  13  -4  -6 10.2919  6.6234   1
 -13  -4   6 4.78490 5.05598   2
  13  -4  -6 5.25226 5.56787   9
  13   4   6 2.45558 5.20458   2
 -13   4  -6 2.72695 5.23489   9
  -4  13   6 -1.2293  4.8726   2
  -4 -13  -6 -3.7947  6.0854   1
 -13   4  -6 -1.8655  6.0289   1
  13   4   6 1.25133 6.71164   6
   4  13  -6 0.00636 5.97263   1
   4 -13   6 12.3009  5.4904   2
  -4 -13  -6 -0.3168  4.8552   9
   4  13  -6 7.47916 5.39861   9
 -13   4   6 -2.1800  7.9250   7
  -4  13  -6 7.30550 5.41540   9
 -13  -4  -6 -0.1199  5.9815   1
  13   4  -6 2.50151 5.19634   9
  -4  13  -6 7.46452 5.46257   9
  13   4  -6 -0.5869  6.0237   1
   4 -13  -6 -1.1950  4.8677   9
   4 -13  -6 5.03771 6.36331   1
   4  13   6 0.58438 5.12100   2
  -4 -13   6 -5.8258  8.8589   3
  -4 -13   6 6.05407 5.08011   2
  13  -4   6 -1.2694  5.1693   2
  -4  13  -6 -0.1006  6.1824   1
 -13  -4  -6 1.65298 5.06049   9
 -13   4   6 -3.6176  4.6138   2
  13   5   6 365.442  17.549   6
  13   5   6 349.890  14.055   2
  -5  13   6 370.897  13.720   2
   5  13  -6 328.418  14.703   9
   5 -13   6 347.964  14.668   2
 -13   5  -6 391.667  17.333   1
 -13  -5   6 369.561  14.321   2
  13  -5  -6 381.073  16.617   1
   5  13  -6 357.536  16.457   1
  -5 -13  -6 353.417  16.089   1
  -5  13  -6 353.316  14.900   9
  -5  13  -6 348.174  17.054   1
  -5 -13   6 342.180  14.486   2
 -13  -5  -6 357.358  16.406   1
   5  13   6 377.120  13.909   2
   5 -13  -6 344.490  16.630   1
  13   5  -6 344.542  16.340   1
  -5 -13   6 374.229  20.708   3
 -13   5   6 362.646  13.930   2
  13  -5   6 371.383  14.304   2
   0   0   7 4.87014 3.26575   3
   0   0   7 0.25900 3.39869   8
   0   0   7 3.81705 3.40377   7
   0   0   7 5.30085 3.41878   5
   0  -1   7 -4.7397  3.1376   8
   0   1   7 0.79011 2.95750   7
   1   0   7 2.45537 3.41644   8
   0   1   7 1.77107 3.23590   3
   0   1   7 0.98569 2.92991   8
  -1   0   7 -0.0667  3.1259   5
  -1   0   7 1.40723 3.21765   7
   0  -1   7 0.43737 3.04716   3
  -1   0   7 -1.3618  2.9723   3
   1   0   7 3.58533 2.88138   3
   0  -1   7 -4.9752  2.9298   5
   1   0   7 7.66111 3.28530   5
   0   1   7 -6.3396  2.5114   5
   1   0   7 5.09772 3.28493   7
  -1   0   7 -0.8013  3.2103   8
   0  -1   7 -2.2250  2.7488   7
   1   1  -7 2.04798 1.17522   1
   1  -1   7 1.14535 3.59305   8
  -1  -1   7 -0.9347  3.0892   7
  -1  -1   7 -1.6535  3.0135   3
   1   1   7 -1.2157  3.0991   7
   1  -1   7 7.10301 3.23036   7
  -1  -1   7 -0.0966  3.2547   8
  -1   1  -7 2.38621 1.18299   1
   1  -1   7 0.47139 2.90680   3
   1   1   7 3.25544 3.18556   3
  -1   1   7 1.90606 3.14089   5
   1   1   7 -2.1914  3.1132   5
  -1   1   7 0.38104 2.95928   7
  -1   1   7 -2.5513  2.9954   3
   1   1   7 -1.3865  3.3715   8
   1  -1   7 -2.8750  3.1692   5
  -1  -1   7 1.17580 2.94600   5
  -1   1   7 2.74298 3.54423   8
   0   2   7 96.4083  6.0679   7
   0   2  -7 99.1299  3.6257   1
   0  -2   7 102.490   6.685   5
   2   0   7 81.1145  6.7079   8
   0  -2   7 92.8923  6.4270   3
   2   0   7 93.5507  6.2263   5
  -2   0  -7 95.3306  3.1967   1
   0   2   7 98.7837  6.9251   8
   2   0   7 100.006   6.273   7
  -2   0   7 96.0217  6.3604   3
  -2   0   7 102.353   6.937   8
   0   2   7 93.3696  6.3749   5
  -2   0   7 99.2932  6.5317   7
  -2   0   7 92.2633  6.5815   5
   2   0  -7 95.7671  3.2174   1
   0  -2   7 91.1541  6.4401   7
   0   2   7 90.4576  6.3937   3
   2   0   7 85.3392  5.9954   3
   2   0  -7 92.4030  3.2716   4
   0  -2   7 89.8296  6.1936   8
  -1  -2  -7 37.5582  1.9412   4
  -1   2   7 40.5132  4.9341   7
  -2   1  -7 40.6629  2.6533   1
   2   1   7 29.8550  4.4341   5
  -1   2   7 33.1808  4.4340   3
  -2  -1   7 40.1841  4.8186   8
   2   1   7 37.1069  4.6713   3
  -2  -1   7 38.0219  5.1184   5
   2  -1  -7 35.1762  2.2107   4
   1  -2   7 28.5539  4.4164   7
   1  -2   7 29.9478  4.7353   5
  -2  -1   7 30.4853  4.5819   3
   2  -1  -7 40.0807  2.3480   1
  -1  -2  -7 39.0338  2.1111   1
  -2  -1   7 32.0294  4.7192   7
   1  -2   7 38.9954  4.9720   8
  -1   2   7 35.9934  4.9289   5
   2   1   7 40.8268  4.7684   7
   2   1   7 42.7224  5.2732   8
  -1   2   7 33.7282  5.1003   8
   1  -2   7 37.8324  4.6765   3
   1   2  -7 39.8366  2.8225   1
  -1   2  -7 39.4873  2.7315   1
   2  -1   7 36.8232  5.1893   8
   1  -2  -7 39.6261  2.1636   1
   1   2   7 36.3594  4.5246   7
  -1  -2   7 38.4203  4.6831   7
  -1  -2   7 35.4331  4.6074   8
  -2  -1  -7 38.3033  2.2812   1
  -2   1   7 46.3653  5.5392   8
   1   2   7 42.7856  5.3298   8
  -2   1   7 39.8076  4.8985   3
   2  -1   7 36.8996  4.6576   7
   1  -2  -7 35.2160  1.9891   4
  -1  -2   7 32.0829  4.8737   5
   1   2   7 44.0014  5.0831   3
   2   1  -7 37.7827  2.5466   1
   1   2   7 30.5989  4.5940   5
  -2  -1  -7 35.1674  2.2129   4
   2  -1   7 39.8068  4.7444   3
  -2   1   7 40.7845  4.9665   5
   2  -1   7 40.9536  5.1966   5
  -1  -2   7 36.0454  4.8499   3
  -2   1   7 30.8222  4.5941   7
  -2   2   7 0.57842 3.49489   5
  -2  -2   7 -4.0819  2.9768   3
  -2   2   7 -5.6768  2.7186   7
  -2  -2   7 5.20722 3.50328   8
   2   2   7 -2.2831  3.2112   3
   2  -2   7 -0.3853  3.2087   8
  -2  -2   7 -6.4666  2.9184   7
   2  -2   7 -3.8595  3.3089   5
  -2   2   7 3.35505 3.33478   3
   2  -2  -7 1.54572 1.57640   4
  -2   2  -7 0.60775 2.00149   1
  -2  -2   7 0.62759 3.10213   5
   2   2  -7 3.95309 1.95159   1
   2   2   7 -1.9289  3.2808   5
   2   2   7 -2.5352  2.9769   7
   2  -2  -7 -0.5952  1.6219   1
  -2   2   7 -6.2361  3.2500   8
  -2  -2  -7 -4.9019  1.6368   1
   2  -2   7 -5.5138  2.7546   3
   2   2   7 -0.8827  3.3404   8
  -2  -2  -7 -1.0450  1.5217   4
   0   3   7 -1.5109  3.1432   7
   0   3   7 4.18910 3.35452   5
   0   3   7 1.08884 3.30825   8
   3   0   7 4.49905 3.46146   8
   0  -3  -7 -1.2323  1.5243   4
  -3   0  -7 -0.1437  1.7265   4
   3   0  -7 3.30716 1.96091   1
   3   0   7 3.10265 3.15764   3
   0   3  -7 2.69314 2.05689   1
  -3   0   7 5.13934 3.65124   7
  -3   0  -7 -1.8293  1.8351   1
  -3   0   7 2.92258 3.22607   5
   3   0  -7 0.34051 1.78352   4
   0  -3   7 5.70978 3.30318   7
  -3   0   7 -4.2540  3.2763   8
   0  -3   7 8.16716 3.85614   8
   3   0   7 -1.2561  3.4421   5
   0  -3   7 2.10895 3.27378   3
   0  -3   7 -3.5048  3.1298   5
  -3   0   7 2.92257 3.31713   3
   0  -3  -7 0.11139 1.69858   1
   0   3   7 3.91833 3.52400   3
  -3  -1   7 4.03746 3.54737   8
   3   1   7 1.23354 3.08720   8
   3  -1  -7 1.42965 1.96210   1
  -3   1  -7 3.19131 2.09228   1
   3   1   7 1.13241 3.10926   7
   1  -3   7 8.72392 3.77068   8
  -3  -1   7 4.17606 3.41559   3
  -1   3   7 -2.6395  3.3990   8
  -1  -3  -7 0.97532 1.65056   4
  -1   3   7 5.20226 3.45187   3
  -3  -1   7 4.80517 3.60209   5
   3   1   7 0.07769 3.16608   3
   1  -3   7 1.28992 3.62407   5
  -3  -1   7 4.93765 3.58996   7
  -1   3   7 2.96467 3.09223   7
   3  -1  -7 2.03119 1.85571   4
  -1  -3  -7 0.94330 1.82380   1
   3   1   7 -0.7486  3.5287   5
   1  -3   7 7.25777 3.79394   7
  -1   3   7 -3.6026  3.1511   5
   1   3  -7 0.57349 2.16167   1
   1  -3   7 3.88420 3.29814   3
  -3  -1  -7 0.65530 1.94117   1
   1  -3  -7 -0.0915  1.6338   4
   1   3   7 3.76838 3.26868   7
   3  -1   7 4.26371 3.08279   3
  -1  -3   7 -1.7558  2.8252   7
  -1  -3   7 -3.3239  3.2381   8
   3   1  -7 -0.8612  2.0053   1
  -1  -3   7 -3.0210  3.3453   3
  -3  -1  -7 2.17375 1.84111   4
  -1  -3   7 2.07473 3.39933   5
   1   3   7 2.55080 3.38652   8
  -3   1   7 2.05732 2.98668   3
   1   3   7 3.45592 3.23936   5
  -3   1   7 0.52511 3.44103   7
   3   1  -7 -0.4115  1.8685   4
   3  -1   7 4.41613 3.82125   8
   1  -3  -7 -1.4148  1.7717   1
  -1   3  -7 0.46119 2.07254   1
   1   3   7 1.14278 3.57269   3
  -3   1   7 0.96445 3.23835   5
  -3   1   7 -3.4478  3.3639   8
   3  -1   7 0.62924 3.61143   5
   2  -3   7 106.238   7.223   5
  -3  -2   7 94.5769  6.3618   7
  -3  -2   7 97.9597  6.5382   5
  -3  -2   7 94.5866  6.7402   3
   3  -2  -7 106.047   4.531   1
   2   3  -7 93.0431  4.7429   1
  -2   3   7 91.4789  6.7871   5
  -2   3   7 107.161   6.966   3
  -2   3   7 105.038   6.728   7
  -2   3   7 102.916   7.129   8
  -3   2  -7 106.784   4.806   1
   3   2   7 103.886   6.674   3
   3   2   7 98.6293  6.7871   5
   2  -3   7 98.1432  6.3663   3
   3   2   7 104.575   6.641   7
   3  -2  -7 98.8543  4.3685   4
   3   2   7 93.0542  6.8566   8
  -2  -3  -7 101.194   4.279   4
   2  -3   7 101.245   7.279   8
  -3  -2   7 93.8777  6.4399   8
  -2  -3  -7 112.877   4.419   1
  -2  -3   7 99.7297  6.5697   8
  -2  -3   7 98.2512  7.0116   3
  -2  -3   7 101.950   6.465   7
   3  -2   7 109.746   6.305   3
  -3   2   7 112.429   7.423   7
   2  -3  -7 104.189   4.368   1
   3   2  -7 102.143   4.516   1
   3   2  -7 104.781   4.993   4
  -3   2   7 99.6127  6.3531   3
  -3  -2  -7 97.0182  4.3883   4
  -3   2   7 96.0869  7.5050   5
   2   3   7 101.149   6.372   7
  -3  -2  -7 98.1149  4.4610   1
  -3   2   7 104.683   7.534   8
   2   3   7 105.945   7.086   8
  -2  -3   7 97.5299  6.7960   5
  -2   3  -7 111.826   4.851   1
   2   3   7 99.3911  6.5214   3
   2   3   7 95.8756  6.6574   5
   3  -2   7 98.8493  7.3272   8
   2  -3  -7 105.776   4.331   4
  -3  -3   7 2.70287 3.17924   7
   3   3   7 0.43557 3.04877   6
  -3  -3  -7 0.28062 2.18963   1
  -3   3  -7 2.53047 2.66503   1
   3   3  -7 -2.0005  2.4068   1
  -3  -3   7 1.07030 3.77489   5
  -3  -3   7 -0.5285  3.4736   3
  -3   3   7 -3.7453  3.4670   7
   3   3   7 -4.6920  3.2726   3
   3   3   7 0.15299 3.20944   7
   3  -3  -7 1.53422 2.37683   1
   3   3   7 -4.1062  2.9229   8
  -3  -3   7 3.47629 3.43294   8
   3  -3   7 -1.1369  3.8768   8
  -3  -3  -7 0.14820 2.14976   4
  -3   3   7 0.00757 3.10705   3
   3  -3  -7 2.59342 2.21970   4
   3   3   7 2.28262 3.79314   5
  -3   3   7 -1.5894  3.6242   5
   3  -3   7 -2.8203  3.1961   3
  -4   0   7 70.8937  6.5170   8
   0  -4   7 73.5627  6.4955   7
   0   4   7 68.6069  6.3576   3
  -4   0   7 74.9845  6.9291   5
  -4   0  -7 79.4576  4.4322   1
   4   0  -7 66.5877  4.2445   1
   0   4   7 66.5793  5.9263   7
   4   0   7 81.1467  6.0408   3
   0  -4   7 79.2775  6.6779   3
   0   4  -7 63.2022  4.3985   1
   0  -4   7 81.1590  6.6322   5
   0   4   7 75.5018  6.8014   8
   0  -4  -7 71.5553  4.1606   1
   0  -4   7 78.6021  6.5771   8
  -4   0  -7 77.9035  4.2169   4
   0   4   7 77.6789  6.2787   5
  -4   0   7 61.3198  6.0836   7
   0  -4  -7 66.9387  3.8881   4
   4   0  -7 69.4802  4.1225   4
  -4   0   7 71.6667  6.2226   3
   4   0   7 64.2999  6.4881   8
  -1   4   7 2.93150 3.55214   7
  -4   1  -7 3.18453 2.48641   1
   4   1   7 2.68645 3.87645   8
  -4  -1   7 4.39914 3.60899   8
   4  -1  -7 8.27489 2.40581   4
  -1   4   7 10.0531  3.7480   5
  -4  -1   7 -0.9333  3.4452   7
   4  -1  -7 2.98984 2.35425   1
  -1   4   7 -1.3151  3.9468   8
  -1  -4  -7 0.95601 2.39242   1
  -4  -1   7 3.41368 3.62936   3
   1  -4   7 -0.9983  3.0421   3
  -1   4   7 1.96257 3.67658   3
  -4  -1   7 16.0457  4.4812   5
   1  -4   7 5.07701 3.81154   5
  -1  -4  -7 5.76474 2.29665   4
  -4   1  -7 5.45886 2.50006   4
   4   1   7 8.72272 3.49191   3
   1   4  -7 1.24982 2.61726   1
   1  -4   7 2.33935 3.79060   8
   4   1  -7 3.84243 2.44375   4
   1   4   7 7.41551 4.13629   8
   4   1  -7 2.84946 2.48060   1
  -1  -4   7 1.92233 3.61098   5
  -1  -4   7 6.30880 3.60103   7
  -4   1   7 4.06217 4.09760   5
  -4  -1  -7 6.90442 2.59610   1
   1  -4  -7 11.9868  2.6560   1
   4  -1   7 3.31433 3.35774   3
  -1   4  -7 5.71613 2.71476   1
  -4  -1  -7 5.95582 2.39496   4
  -4   1   7 1.78437 3.13529   3
   1   4   7 7.68249 3.47941   5
  -4   1   7 2.16429 3.79987   7
  -1  -4   7 2.11220 3.79460   3
   1   4   7 7.01693 4.09878   3
  -1  -4   7 -2.2597  3.2515   8
   4  -1   7 6.79294 4.09685   8
   1  -4  -7 6.18800 2.31487   4
   1   4   7 6.05408 3.39019   7
  -4   1   7 2.65481 3.98962   8
   4   2   7 193.890   9.199   8
   2   4  -7 192.397   7.021   1
  -2  -4  -7 173.094   6.427   1
   4   2   7 192.883   8.815   3
   4  -2  -7 187.559   6.656   4
  -4  -2   7 180.827   8.840   3
   4  -2  -7 180.800   6.568   1
   2  -4   7 190.551   8.535   3
  -2   4   7 181.503   8.609   7
  -4  -2   7 172.520   8.736   7
  -2  -4  -7 184.005   6.478   4
  -2   4   7 186.139   8.769   5
  -2   4   7 172.199   8.870   3
   2  -4   7 195.487   9.542   8
  -4  -2   7 185.694   8.658   8
  -4  -2   7 186.452   9.167   5
  -4   2  -7 183.446   6.749   1
  -2  -4   7 181.378   8.397   8
   2   4   7 176.009   8.963   3
   2   4   7 191.851   8.295   5
   4   2  -7 175.403   6.609   1
  -4   2   7 184.121   8.387   3
  -2  -4   7 179.642   8.634   7
   2  -4  -7 177.346   6.368   1
   4  -2   7 180.454   7.780   3
   2   4   7 178.243   8.044   7
  -4  -2  -7 183.090   6.653   4
  -2   4  -7 188.507   6.892   1
  -2  -4   7 183.636   8.750   5
   4  -2   7 164.826   8.815   8
   4   2  -7 184.506   6.873   4
   2  -4  -7 178.730   6.353   4
  -4  -2  -7 174.533   6.412   1
  -4   2   7 186.806   9.242   7
  -2  -4   7 187.849   9.259   3
   2   4   7 193.506   9.220   8
  -4   2   7 179.147   9.386   5
   3  -4   7 8.39747 3.60496   3
  -3   4   7 11.9085  4.1924   7
   3   4  -7 8.32301 3.16890   1
  -3  -4  -7 11.4879  2.9044   4
  -4  -3   7 14.0004  4.3879   5
   3  -4   7 5.66129 4.03502   8
  -3   4   7 6.63504 4.04294   5
   4  -3  -7 4.29836 2.62321   4
  -3  -4  -7 8.37887 2.94562   1
   3   4  -7 5.62766 3.02835   1
   4   3   7 10.1457  3.7432   6
   4   3   7 8.25903 4.03148   8
   4   3   7 5.23932 4.08731   3
  -4  -3   7 8.05403 3.78909   8
  -4   3  -7 9.54620 3.09989   1
  -4  -3   7 10.0707  4.2827   3
  -3   4   7 13.6978  4.3363   3
  -4  -3   7 9.23739 4.11932   7
   4  -3  -7 8.74355 3.02978   1
   3  -4  -7 6.86698 2.64207   4
  -4   3   7 8.36277 4.10238   7
   4   3  -7 8.65086 3.05524   1
   4  -3   7 5.49484 3.31655   3
  -4  -3  -7 9.43584 2.88260   4
   4   3  -7 4.60459 2.98655   4
  -3   4  -7 16.6502  3.4105   1
   4  -3   7 10.9460  4.4894   8
  -3  -4   7 9.45295 3.61816   8
   3  -4  -7 7.52155 2.90733   1
   3   4   7 8.92600 4.22832   3
  -4   3   7 7.37353 3.86483   3
   3   4   7 11.3224  3.9152   5
   3   4   7 7.22475 3.51227   7
   3   4   7 9.96998 4.29783   8
  -4  -3  -7 3.58417 2.79697   1
   3   4   7 3.27825 3.64291   6
  -3  -4   7 6.96327 4.18506   3
  -3  -4   7 13.4230  4.0765   5
  -3  -4   7 1.80407 3.51250   7
  -4  -4   7 -1.7041  3.8191   3
  -4  -4  -7 -0.4581  2.7785   1
   4   4   7 0.62634 3.52908   8
  -4  -4   7 -1.7176  3.5351   7
  -4   4   7 0.00177 4.17688   7
   4   4  -7 2.27852 2.94540   1
  -4  -4   7 1.69114 3.26072   8
  -4  -4  -7 -0.0989  2.7457   4
   4  -4  -7 -0.9718  2.9173   1
   4   4   7 1.78687 4.04227   3
   4  -4  -7 -0.6121  2.6118   4
   4  -4   7 -8.6878  4.0058   8
  -4   4   7 -0.1244  3.7198   3
   4  -4   7 0.30907 3.42292   3
   4   4   7 3.03008 3.79990   6
  -4  -4   7 2.34486 3.93221   5
  -4   4  -7 -4.1508  2.9046   1
  -5   0  -7 4.96576 2.70495   4
   0  -5   7 -1.2654  3.5870   5
   5   0   7 0.14127 3.10553   3
   0  -5  -7 4.70488 2.60082   4
   0  -5  -7 -1.1489  2.5816   1
  -5   0  -7 -1.7962  2.5837   1
   0   5   7 -7.4125  3.5836   8
   0   5   7 3.75237 3.65120   5
   5   0  -7 2.34925 2.73927   4
   0   5  -7 4.92759 2.87045   1
   0  -5   7 1.85131 3.84970   3
  -5   0   7 -1.8255  3.3530   3
  -5   0   7 -2.5115  3.7878   7
   0   5   7 6.40740 3.50429   7
   5   0   7 -5.9467  3.5325   8
   0  -5   7 -9.1354  3.2688   8
   0   5   7 1.66247 3.93019   3
   5   0  -7 0.69464 2.56778   1
  -1   5   7 10.7831  3.9929   7
   5   1   7 5.65330 4.09580   8
  -5  -1   7 5.57677 4.41385   5
   1   5  -7 14.2747  3.4100   1
  -1   5   7 9.23675 3.90383   5
  -1  -5  -7 9.75610 3.10618   1
   5  -1  -7 13.3972  3.0643   4
   5  -1  -7 10.5413  3.1485   1
   1  -5   7 13.3471  4.3250   3
  -5   1  -7 11.2065  3.1182   4
  -1  -5  -7 11.1999  2.8074   4
   1  -5   7 9.74710 4.21357   5
   5   1   7 9.52307 3.85512   3
   1  -5   7 10.1291  4.3951   8
  -5   1  -7 14.7012  3.3627   1
  -1   5   7 9.44377 4.45344   3
  -5  -1   7 9.81075 4.19783   8
  -5  -1   7 13.7432  4.4449   7
  -5  -1   7 11.4686  4.1784   3
  -5   1   7 14.5460  4.7220   7
   5  -1   7 7.36286 3.53525   3
   1   5   7 7.61703 3.64756   5
  -5   1   7 8.29212 3.84579   3
  -1  -5   7 10.7088  4.1202   5
  -1   5  -7 11.9778  3.2627   1
   1   5   7 6.48330 4.32181   8
   1  -5  -7 13.6864  3.2561   1
   5   1  -7 12.8212  3.1589   4
   1   5   7 8.18445 3.64392   7
   1   5   7 16.5350  4.6981   3
  -5  -1  -7 10.9086  3.1264   1
  -1  -5   7 12.0631  4.1456   3
  -1  -5   7 8.73774 4.02156   8
  -5  -1  -7 9.06534 2.90090   4
  -1  -5   7 11.0147  4.1076   7
   1  -5  -7 8.11641 2.80100   4
   5   1  -7 7.21997 3.05144   1
   5  -1   7 16.6033  4.7104   8
   5   2   7 2.52135 3.46321   3
   2  -5   7 5.00585 3.82628   3
   2  -5   7 -1.1848  4.2154   8
   2   5  -7 1.60408 2.99981   1
  -2  -5  -7 5.05139 2.86626   1
  -5  -2   7 4.70872 3.96841   7
  -5  -2   7 5.63279 4.37125   5
  -5   2  -7 4.72227 3.07568   4
   5  -2  -7 3.77309 2.93115   1
  -5  -2   7 2.13093 3.78003   3
  -2   5   7 5.59839 3.95546   5
  -2   5   7 0.14346 3.85066   7
   5  -2  -7 7.83460 2.84439   4
  -5   2  -7 6.56958 3.16504   1
   5   2   7 8.29784 4.01298   8
  -5  -2   7 8.31075 3.82386   8
  -2  -5  -7 0.94222 2.66634   4
  -2   5   7 2.95054 3.55602   3
   5  -2   7 3.35242 4.23276   8
   5  -2   7 5.15514 3.42098   3
   5   2  -7 1.90840 2.89344   1
   5   2  -7 5.16932 3.00014   4
   2  -5  -7 5.06353 2.75509   4
  -2  -5   7 3.90098 3.72124   8
   2   5   7 5.06429 3.99374   8
   2   5   7 1.31597 3.48185   7
  -5  -2  -7 3.26975 2.71289   4
  -5   2   7 -2.1172  4.0951   7
  -5  -2  -7 2.06334 2.98649   1
   2   5   7 4.24260 4.44544   3
  -5   2   7 5.65612 3.77367   3
   2   5   7 14.6704  4.0197   5
  -2  -5   7 5.54104 3.62249   7
  -2  -5   7 14.0589  4.6838   3
  -2  -5   7 -0.6080  3.4421   5
  -2   5  -7 6.50560 3.20785   1
   2  -5  -7 3.84257 3.05660   1
  -3   5   7 5.98364 4.12212   5
  -5  -3   7 3.74318 3.45769   7
   5  -3  -7 2.20117 2.89897   1
   5  -3  -7 9.13935 3.19752   4
   3  -5   7 -4.4892  4.0671   8
   5   3   7 4.25573 3.89328   3
  -3  -5  -7 3.99015 2.99676   4
  -5  -3   7 9.02124 4.37179   5
   3  -5   7 -1.3585  3.4775   3
   5   3   7 -2.2102  3.2759   6
  -5  -3   7 8.14515 4.13438   8
  -3   5   7 9.44395 4.19761   3
   3   5  -7 4.47546 3.19880   1
  -5  -3   7 4.69013 3.81214   3
   3   5  -7 7.91957 2.60730   9
  -3   5   7 12.5811  4.6096   7
  -5   3  -7 5.86274 3.30585   1
   5   3   7 3.62490 3.84895   8
  -3  -5  -7 3.82983 3.11860   1
  -3  -5   7 1.75948 3.73547   5
  -5   3   7 5.08300 3.76995   3
   3   5   7 -2.3282  3.9810   8
  -3  -5   7 2.03677 3.65090   8
  -3   5  -7 7.12713 3.28485   1
  -5  -3  -7 7.61590 2.97637   4
   3  -5  -7 4.53615 2.89120   4
   3   5   7 7.45853 3.56446   5
  -3  -5   7 5.65566 4.37695   3
  -5   3   7 4.89707 4.79923   7
  -5  -3  -7 1.57881 2.99811   1
   5  -3   7 7.47036 4.75277   8
   3   5   7 6.85057 4.48154   3
  -3  -5   7 -1.4296  3.5568   7
   3  -5  -7 4.09082 3.27128   1
   5   3  -7 6.00528 3.24855   4
   5   3  -7 7.31501 3.35489   1
   3   5   7 9.91055 3.80157   7
  -3   5  -7 3.47934 2.50369   9
   5   4   7 5.49728 3.87169   8
  -4  -5  -7 12.4723  3.5139   4
   5  -4  -7 4.89685 3.23040   4
   4   5  -7 0.78207 2.75509   9
   4   5  -7 1.41994 3.33789   1
   4  -5   7 7.20255 5.02598   8
   4  -5   7 0.13748 3.64941   3
   5   4   7 0.27923 4.36889   3
  -5  -4   7 0.65314 3.93742   5
  -4  -5  -7 1.81006 3.35634   1
  -5   4  -7 -4.7109  3.0388   1
  -4   5   7 8.38125 4.34288   3
  -5   4  -7 4.07123 2.71314   9
   5  -4  -7 0.91474 3.22323   1
   4   5  -7 2.38491 2.80143   9
   5   4   7 0.91786 3.82285   6
  -5  -4   7 0.77847 4.16066   3
  -4   5   7 -2.4680  4.2927   7
  -5  -4   7 -1.5548  3.5409   7
   4  -5  -7 -3.1536  3.1558   1
   4   5   7 7.63051 4.27537   6
  -4  -5   7 -4.8669  3.6480   5
  -4  -5   7 3.98541 4.33747   3
   4   5   7 1.02575 3.82539   8
  -4   5  -7 2.99864 2.77182   9
  -5   4   7 1.15605 4.67976   7
   5  -4   7 -0.0615  4.6066   8
  -5   4   7 -0.4859  3.8003   3
  -5  -4  -7 0.11979 3.21242   1
   5   4  -7 3.73475 2.98831   9
  -5  -4  -7 0.56952 2.94534   4
  -4  -5   7 -1.6494  3.5039   7
   4  -5  -7 -3.4884  2.8965   4
   5   4  -7 3.34489 3.54795   1
  -4   5  -7 2.17091 3.44055   1
  -5  -5   7 -3.2111  3.5691   7
  -5  -5   7 0.45060 3.91523   5
  -5   5   7 5.67109 4.27681   3
  -5  -5  -7 1.82356 2.87335   9
   5   5  -7 0.68412 3.54038   1
   5  -5  -7 -0.6804  3.3937   1
   5   5  -7 3.44725 3.54200   1
  -5  -5  -7 -1.7653  3.3135   1
  -5   5   7 -10.099   4.262   7
  -5   5  -7 2.02444 3.85344   1
  -5  -5  -7 -2.9426  3.2861   4
   5  -5  -7 -3.6220  2.5972   9
   5   5   7 -1.0266  4.2167   6
   5   5  -7 -2.3322  2.9749   9
   5   5   7 -1.8393  3.6240   8
  -5  -5   7 0.58448 4.36863   3
   5  -5   7 2.12264 4.86783   8
  -5   5  -7 -0.1305  3.0271   9
   0  -6  -7 308.958  10.134   4
   0   6   7 320.609  11.220   7
   6   0  -7 330.763  10.727   4
   6   0  -7 322.531  10.349   1
   0  -6  -7 304.176   9.924   1
  -6   0   7 307.357  12.483   7
  -6   0   7 337.754  11.819   3
   0   6   7 335.346  11.342   5
   0  -6   7 299.236  12.479   3
   0  -6   7 328.267  11.946   5
  -6   0  -7 329.800  10.475   1
  -6   0  -7 331.002  10.598   4
   0   6   7 324.556  12.862   3
   0   6  -7 321.159   9.217   9
   0   6  -7 314.085  10.527   1
   6   0   7 325.761  12.624   8
   0  -6   7 334.639  12.193   8
  -1   6   7 0.45902 3.53163   5
   1  -6   7 11.5848  4.4713   8
  -1  -6  -7 5.99066 3.26367   1
  -1   6   7 0.06192 3.78784   3
   1   6  -7 7.27604 3.59647   1
   6  -1  -7 4.26052 3.26194   4
  -6   1  -7 3.67517 3.06898   4
   6   1   7 3.02985 4.07883   8
  -6   1  -7 4.18259 3.44211   1
   6  -1  -7 6.99046 3.25515   1
  -6  -1   7 4.92352 3.84791   3
  -1   6   7 -0.4812  3.5487   7
  -6  -1   7 2.85680 4.13741   7
  -1  -6  -7 1.25312 2.89332   4
   1  -6   7 7.31265 4.19485   3
   1   6  -7 6.69942 2.73555   9
  -6  -1  -7 6.92905 3.41142   1
  -1   6  -7 7.40495 3.68144   1
   6   1  -7 3.09297 3.10615   4
   6  -1   7 7.64515 4.55281   8
  -1  -6   7 6.58287 3.97674   5
   1  -6  -7 8.68379 3.34442   1
  -6   1   7 15.4275  5.0786   7
  -6  -1  -7 5.33041 3.08931   4
  -1   6  -7 2.90789 2.70699   9
  -1  -6   7 -1.9584  3.6458   8
   1   6   7 -2.8127  4.3197   3
   1   6   7 4.17264 3.75798   7
  -1  -6   7 -0.5977  4.3301   3
   1   6   7 1.64670 4.22151   8
   6   1  -7 1.64664 3.17140   1
  -6   1   7 1.02716 3.52581   3
  -6  -2   7 45.3550  6.0173   7
  -2   6   7 47.3242  5.9643   7
   2   6  -7 55.6743  5.3863   1
  -2  -6  -7 45.4827  4.6021   4
  -2  -6  -7 57.3591  5.1794   1
   2  -6   7 50.0621  6.0836   3
  -6   2  -7 56.6358  4.1460   9
   6  -2  -7 51.8634  4.8615   1
  -6   2  -7 46.1817  4.9342   4
   6  -2  -7 56.3441  5.2122   4
   2   6  -7 53.1890  4.4414   9
  -2   6   7 50.4465  6.2548   3
  -6   2  -7 56.0953  5.2254   1
   6   2   7 53.9114  5.9859   3
   6   2   7 56.5026  6.2488   8
  -6  -2   7 59.1395  6.1862   3
   2  -6   7 44.2453  6.3160   8
  -2   6   7 51.2519  6.0780   5
  -6  -2  -7 54.9299  4.9495   4
  -6   2   7 55.2082  5.9122   3
  -2   6  -7 54.3518  4.3611   9
  -2  -6   7 56.2260  6.0010   7
  -2  -6   7 47.0565  5.6642   8
  -2  -6   7 51.6039  5.8318   5
   6   2  -7 55.9163  4.3241   9
  -2  -6   7 54.2592  6.8462   3
   2   6   7 62.1115  6.5573   8
   6  -2   7 55.1759  6.6161   8
  -2   6  -7 50.7877  5.3514   1
   6   2  -7 52.7688  5.1280   4
  -6  -2  -7 56.3689  5.0876   1
   6   2  -7 55.2918  5.2126   1
   2   6   7 56.3883  6.9522   3
   2  -6  -7 47.7165  4.8975   1
  -6   2   7 54.8386  7.0709   7
   2  -6  -7 52.3857  4.8972   4
  -3   6   7 105.856   8.487   3
  -3   6   7 120.955   7.876   5
   6   3   7 118.535   7.795   6
  -3   6   7 114.987   8.145   7
  -3  -6  -7 111.677   6.537   4
   3   6  -7 120.524   6.941   1
   6  -3  -7 119.395   6.673   4
  -6   3  -7 115.761   5.664   9
  -6   3  -7 105.826   6.623   1
   6   3   7 120.176   7.794   8
   6  -3  -7 104.212   6.559   1
  -6  -3   7 104.176   7.775   3
   3  -6   7 124.498   7.805   3
   3   6  -7 113.171   5.924   9
   3  -6   7 108.688   8.983   8
   6   3   7 117.040   7.652   3
  -6  -3   7 125.231   8.613   5
  -6  -3   7 138.100   8.210   7
  -3  -6  -7 119.706   6.754   1
  -3  -6   7 120.178   7.512   5
   3   6   7 128.169   8.481   8
  -3   6  -7 128.037   7.116   1
   3  -6  -7 124.973   6.642   4
  -6  -3  -7 119.203   6.794   1
  -3  -6   7 104.742   7.117   7
   6   3  -7 109.911   6.861   1
  -6   3   7 110.879   7.461   3
  -6   3   7 129.485   9.356   7
  -6  -3  -7 110.708   6.483   4
  -3  -6   7 126.235   8.826   3
  -3   6  -7 122.802   5.994   9
   6  -3   7 116.614   9.498   8
   3  -6  -7 112.602   6.687   1
   6   3  -7 122.391   5.947   9
   4  -6   7 91.4134  8.5435   8
  -4   6   7 106.514   8.455   3
  -4   6   7 86.1895  8.0473   7
  -4  -6  -7 95.1674  6.2837   1
   4   6  -7 85.7238  6.5148   1
   4  -6   7 96.2311  7.0902   3
  -6   4  -7 84.3675  6.4347   1
   6   4   7 96.1474  7.7532   8
   6   4   7 93.4886  7.8147   6
  -6  -4   7 81.9935  7.6347   5
  -6  -4   7 81.5233  7.2408   7
  -4  -6  -7 95.0770  5.2918   9
  -6  -4   7 88.8136  7.9533   3
   4   6  -7 96.3125  5.8013   9
   6  -4  -7 79.8267  6.0396   1
   6  -4  -7 94.1071  5.3813   9
  -4  -6  -7 105.630   6.854   4
  -6   4  -7 80.1606  5.5125   9
  -4  -6   7 90.7403  6.7899   7
   4   6   7 88.8005  7.3147   8
   6   4  -7 87.0453  6.7000   1
  -6  -4  -7 85.6185  5.3822   9
   4  -6  -7 88.0300  6.2140   1
  -6   4   7 96.6381  7.5925   3
  -4  -6   7 83.4804  3.5365   2
  -4  -6   7 95.9832  6.9832   5
   4  -6  -7 86.3655  5.3068   9
   4   6   7 89.8684  7.6846   6
   6   4  -7 85.6336  5.6972   9
  -4   6  -7 103.387   6.813   1
  -6  -4  -7 87.4713  6.6435   1
  -4  -6   7 89.3188  8.3541   3
  -4   6  -7 90.8509  5.5631   9
   6  -4   7 89.8704  8.7522   8
  -6   4   7 94.1363  9.1133   7
  -6  -4  -7 93.8953  6.3768   4
  -6  -5   7 -7.6286  4.2184   3
  -6   5  -7 5.31846 3.33826   9
   6   5   7 2.20779 4.19006   8
   6  -5  -7 0.82205 3.59933   1
  -6  -5   7 2.84504 4.08943   7
   6  -5  -7 -1.9329  3.1518   9
   5  -6   7 -4.3270  5.0868   8
   5   6  -7 -2.5262  3.5808   1
  -5   6   7 0.24595 4.76658   7
  -6   5  -7 2.72064 3.87753   1
  -6  -5   7 6.91256 2.39129   2
   5   6  -7 -2.4860  3.2296   9
  -5   6   7 -2.2410  4.3205   3
  -5  -6  -7 -1.2988  3.6172   4
   6   5   7 4.70790 4.53123   6
  -5  -6  -7 11.8147  3.5509   9
  -5  -6  -7 0.68248 3.60671   1
  -6  -5   7 -1.4722  4.4756   5
   5  -6   7 4.64591 2.48086   2
   6  -5   7 1.49236 2.29608   2
   5   6   7 -0.3733  4.2102   8
  -5   6  -7 0.93833 3.90170   1
  -5   6  -7 3.29678 3.33814   9
  -6   5   7 -4.6464  3.7917   3
   6   5  -7 3.94934 3.42447   9
   6   5  -7 3.20987 3.82917   1
  -5  -6   7 3.87509 4.06359   7
   6   5  -7 -3.3195  3.6547   1
  -6  -5  -7 3.40291 3.25521   9
  -5  -6   7 -3.3967  2.2887   2
  -6  -5  -7 -2.7609  3.5576   4
  -6   5   7 -5.5075  4.3816   7
  -6  -5  -7 1.39488 3.88505   1
   5   6   7 3.66064 4.48417   6
   5  -6  -7 0.91937 3.63219   1
  -5  -6   7 2.12187 3.96786   5
   5  -6  -7 1.68181 3.12165   9
  -5  -6   7 -2.1621  4.7293   3
   6  -5   7 -1.2289  4.9902   8
  -6  -6  -7 -2.2890  4.0078   4
   6   6  -7 4.68325 3.72335   9
  -6   6  -7 6.00921 3.71331   9
   6  -6   7 -1.8038  2.9372   2
  -6   6   7 -1.2692  4.1344   3
  -6   6   7 -2.0905  5.2354   7
  -6  -6   7 5.93125 4.66507   5
  -6  -6   7 1.09638 2.82459   2
   6  -6  -7 -0.3891  3.5193   9
  -6   6  -7 0.42914 4.13587   1
   6   6  -7 -0.6310  3.7511   1
   6   6   7 -1.7003  4.5589   6
   6  -6  -7 3.94298 3.95690   1
  -6  -6  -7 -0.5760  3.9077   1
   6  -6   7 3.16519 5.99202   8
  -6  -6   7 -2.8702  4.7517   3
  -6  -6  -7 2.18412 3.37583   9
   0  -7   7 -0.9061  3.8321   5
   7   0  -7 0.01471 3.23595   1
   7   0  -7 -0.6479  2.8060   9
  -7   0  -7 -0.6726  3.5795   1
   0  -7   7 0.63504 4.56667   3
   0   7  -7 -2.2875  2.7813   9
  -7   0  -7 -0.6632  3.3011   4
  -7   0   7 -2.2763  3.6240   3
   7   0   7 -5.0203  4.1111   8
  -7   0   7 3.21516 4.74755   7
   0  -7  -7 1.78022 3.20702   4
   0   7  -7 -7.7857  3.0742   1
   0  -7   7 1.46387 4.12722   8
  -7   0  -7 -4.3300  2.7402   9
   0  -7  -7 3.42593 3.38537   1
  -7   1  -7 49.6383  4.5694   9
   1  -7   7 39.4311  5.9970   8
   7   1   7 49.5605  6.2649   8
  -1  -7  -7 50.6511  5.0865   4
  -1  -7  -7 43.1848  4.9898   1
   1   7  -7 42.8495  5.2536   1
  -7   1  -7 47.4459  5.3001   4
   7  -1  -7 45.6293  5.1109   1
  -7   1  -7 45.1481  5.2311   1
  -1   7   7 41.8431  5.7464   7
   1   7  -7 51.3726  4.7647   9
   1  -7   7 44.6070  6.4414   3
  -7  -1   7 44.1218  5.9111   3
   1  -7   7 46.0692  2.8604   2
   7  -1  -7 48.8386  4.4872   9
  -7  -1   7 51.2811  6.7162   7
  -1   7   7 49.3076  7.0013   3
   7   1  -7 40.5959  4.4664   9
  -1   7  -7 48.3428  4.7886   9
  -1  -7   7 43.9495  5.6256   8
  -1  -7   7 45.0978  2.8169   2
  -1  -7   7 46.1745  5.7504   5
  -7  -1  -7 43.6816  4.3367   9
   7  -1   7 54.9600  6.8202   8
  -7  -1  -7 40.5775  5.0233   4
   1  -7  -7 41.7892  4.9099   1
   7   1  -7 44.6907  5.0563   1
  -7   1   7 38.7475  6.8622   7
  -1   7  -7 36.0908  5.0398   1
  -1  -7   7 43.3113  6.8049   3
  -7   1   7 43.3550  5.7830   3
  -7  -1  -7 42.6884  5.0235   1
  -7   2  -7 56.0906  5.7047   4
  -7   2  -7 41.1725  5.1951   1
  -7  -2   7 42.7286  5.8518   3
   2  -7   7 45.8976  3.2739   2
  -2  -7  -7 44.1639  5.2015   4
  -2  -7  -7 43.5307  5.1269   1
   2  -7   7 51.8821  6.9600   8
   7  -2  -7 53.4511  5.5766   1
   2   7  -7 42.8169  5.3023   1
   2  -7   7 54.8527  6.6507   3
   2   7  -7 43.6502  4.6150   9
  -7  -2   7 47.3092  6.3766   7
  -2   7   7 40.2013  5.8713   7
  -7   2  -7 46.8632  4.5374   9
  -2   7   7 44.9231  6.7742   3
   7  -2  -7 44.6314  4.5161   9
   7   2   7 52.5843  6.3263   8
  -7  -2  -7 45.0578  4.4508   9
  -2  -7   7 44.5560  3.1580   2
  -7  -2  -7 44.0988  5.2367   4
  -2  -7   7 50.3819  6.8026   3
  -2   7  -7 43.6854  5.3470   1
  -2  -7   7 54.9258  6.1780   5
  -7  -2  -7 56.2760  5.5692   1
  -7   2   7 51.3513  7.3264   7
   7   2  -7 51.3079  5.4251   1
  -2   7  -7 48.8273  4.7508   9
  -7   2   7 53.9492  5.9490   3
   7   2  -7 44.6105  4.6856   9
   7  -2   7 54.9318  6.9221   8
   2  -7  -7 46.9448  5.3467   1
  -7   3  -7 1.91941 3.90817   4
  -7  -3   7 7.43407 4.54856   3
   3   7  -7 -1.7161  3.0763   9
  -7   3  -7 3.07482 3.15950   9
   3  -7   7 -0.3246  2.4315   2
   7   3   7 -0.8484  4.0789   6
   3  -7   7 -3.2096  4.2267   3
   3  -7   7 1.92431 4.48279   8
  -3  -7  -7 -1.9507  3.6401   1
   7  -3  -7 0.07463 3.52111   1
  -7   3  -7 -4.3231  3.7392   1
  -3  -7  -7 -0.5395  3.4678   4
   7  -3  -7 -1.5999  2.9560   9
   3   7  -7 0.66548 3.40928   9
  -3  -7  -7 2.09166 3.14639   9
  -3   7   7 4.99149 5.13755   3
  -3   7   7 2.16317 4.32081   7
  -3   7   7 5.87409 4.55789   5
  -7  -3   7 -1.8832  4.0354   7
   3   7  -7 3.14811 3.74788   1
   7   3   7 -4.2173  4.0320   8
   7   3  -7 0.47279 3.68978   1
  -3   7  -7 -5.1639  3.0026   9
   7   3  -7 -3.0901  3.0789   9
   3   7   7 0.56478 4.39253   8
   3  -7  -7 0.43064 3.77726   1
  -7  -3  -7 4.25715 3.71368   1
  -3  -7   7 -1.5695  4.1394   5
  -7  -3  -7 -1.1370  2.7777   9
  -7   3   7 -0.0306  3.8931   3
   3  -7  -7 -4.2638  2.9317   9
  -3   7  -7 -2.4790  3.4958   1
  -7  -3  -7 -1.7490  3.5397   4
   7  -3   7 0.38352 4.38090   8
  -3  -7   7 2.76152 4.19041   7
  -3  -7   7 4.54500 5.12071   3
  -7   3   7 -2.4505  4.9688   7
  -3  -7   7 -2.4935  2.2519   2
   7  -4  -7 1.75595 3.27978   9
  -4  -7  -7 0.05773 3.21975   9
   4   7  -7 6.07994 3.86687   1
   4  -7   7 -0.9045  2.5987   2
   4   7  -7 -0.2177  3.4226   9
   4  -7   7 -6.6601  4.3116   8
   7   4   7 -0.2233  4.1487   8
  -4   7   7 1.74755 4.79884   7
  -7   4  -7 -4.8059  3.0606   9
  -7   4  -7 -0.6885  3.9022   1
  -7  -4   7 0.33812 4.18336   7
  -4  -7  -7 1.10921 3.77574   1
  -7  -4   7 -1.0477  4.5128   5
   7   4   7 5.94093 4.40161   6
   4  -7   7 -0.3972  2.7472   2
  -4  -7  -7 8.88084 4.07462   4
  -7  -4   7 3.99235 2.39128   2
  -7  -4   7 -1.8684  4.2065   3
  -4   7   7 5.71897 4.95381   3
   7  -4  -7 1.85964 3.75415   1
   7   4  -7 -1.5584  3.8212   1
  -7  -4  -7 1.98406 3.48091   9
   7   4  -7 1.68950 3.53474   9
  -4  -7   7 -1.7482  2.6180   2
  -7   4   7 4.19783 4.63620   3
  -7  -4  -7 -4.8727  3.4275   4
  -7  -4  -7 0.37944 3.87622   1
   7  -4   7 2.27312 2.56665   2
   4  -7  -7 4.89623 3.40234   9
   4  -7  -7 1.24719 3.78681   1
   4   7   7 2.57841 4.41179   8
  -4   7  -7 10.0939  4.2142   1
  -7   4   7 13.9823  6.2371   7
  -4  -7   7 -5.7071  4.3224   3
   7  -4   7 3.20080 5.40773   8
  -4   7  -7 3.72999 3.27227   9
   5  -7   7 10.7305  3.2985   2
  -7   5  -7 7.30576 3.69977   9
   5   7  -7 3.67700 3.76234   9
  -5   7   7 2.79367 4.95012   3
  -7  -5   7 11.6518  5.0107   5
  -5  -7  -7 5.43582 3.61029   9
  -7   5  -7 3.38680 4.47097   1
  -5   7   7 3.01422 4.81151   7
  -5  -7  -7 11.6740  4.5082   1
  -5  -7  -7 11.7823  4.4278   4
  -7  -5   7 6.03387 5.06147   3
   7  -5  -7 9.69592 4.24535   1
   7  -5  -7 13.9898  4.0232   9
  -7  -5   7 8.78402 3.09822   2
   5  -7   7 3.94416 5.46955   8
   7   5   7 -1.4093  4.6113   6
  -7  -5   7 6.21665 4.70046   7
   5   7  -7 2.52901 4.41606   1
  -5  -7   7 3.33328 5.44083   3
   5  -7  -7 10.1421  3.8384   9
  -7   5   7 5.12555 4.78824   3
   7   5  -7 14.7409  4.6646   1
   7  -5   7 15.3220  3.3157   2
   5  -7  -7 1.67403 3.91410   1
   5   7   7 15.0240  5.7323   6
  -7   5   7 8.64369 6.24338   7
  -5  -7   7 3.05574 2.92118   2
  -7  -5  -7 19.0124  4.6919   1
   7   5  -7 8.81320 3.81675   9
  -7  -5  -7 7.32343 3.79237   9
  -5   7  -7 5.51276 4.49143   1
   7   5  -7 4.13973 4.26837   1
   7  -5   7 12.4711  6.1752   8
  -7  -5  -7 6.20563 4.30973   4
  -5   7  -7 8.47293 3.75909   9
   7   6   7 11.1885  5.6062   6
   6   7  -7 9.82158 4.83193   1
   6  -7   7 11.9651  3.6912   2
  -6   7   7 7.29204 5.43122   3
  -6   7   7 12.4398  6.3914   7
  -6  -7  -7 9.08856 4.01106   9
  -7  -6   7 6.63420 5.35209   3
   6  -7   7 23.9266  7.6970   8
   7  -6  -7 10.5242  4.1123   9
  -6  -7  -7 7.55874 4.60221   1
  -7  -6   7 6.69880 5.08950   5
   6   7  -7 15.3884  4.5676   9
  -7  -6   7 9.92214 3.51836   2
  -7   6  -7 14.9792  4.4774   9
   7  -6  -7 13.6345  4.7166   1
  -7   6  -7 19.3031  5.3663   1
  -6  -7   7 15.9702  3.7221   2
   7  -6   7 14.7761  3.7262   2
  -7  -6  -7 10.7993  4.8307   1
   7   6  -7 8.04023 4.65716   1
  -7  -6  -7 11.7557  3.9778   9
  -7   6   7 11.3781  6.8265   7
   6  -7  -7 6.39175 4.65741   1
   6   7   7 12.1260  5.7233   6
   6  -7  -7 11.1025  4.2565   9
  -6   7  -7 18.8413  5.2290   1
   7   6  -7 12.9730  4.5695   9
  -7   6   7 10.5882  5.1212   3
  -6  -7   7 13.6729  6.0870   3
   7   6  -7 13.1524  4.9101   1
   7  -6   7 12.3812  6.8388   8
  -6   7  -7 12.4364  4.0967   9
  -7  -7  -7 -7.0001  4.1471   1
   7   7  -7 -5.5484  4.2807   1
   7   7   7 -2.1854  5.0979   6
  -7   7  -7 -3.9409  3.9667   9
   7   7  -7 5.37760 4.25648   9
  -7   7   7 -5.6246  5.8899   7
   7  -7  -7 -3.9953  4.1060   1
  -7  -7   7 4.33406 5.68480   3
  -7   7  -7 -1.5806  4.3383   1
   7  -7  -7 -5.7484  3.8699   9
  -7  -7   7 -1.5909  3.4056   2
  -7  -7  -7 -2.5290  4.0271   9
   7  -7   7 0.07409 3.71696   2
   7  -7   7 -1.2246  7.0482   8
   0   8  -7 4.26266 3.55103   9
   0  -8  -7 2.14926 3.81102   1
  -8   0   7 1.73613 3.95660   3
   0  -8   7 7.24638 2.88213   2
  -8   0   7 5.63353 5.13887   7
   0  -8  -7 4.42731 3.36881   9
  -8   0  -7 -0.6280  4.0165   1
   8   0   7 2.61898 4.61077   8
   0   8  -7 7.96433 3.92900   1
   0  -8   7 -2.4733  4.1392   8
   0  -8  -7 4.09750 3.86024   4
   0  -8   7 1.25121 5.19852   3
  -8   0  -7 -0.8192  3.6984   4
   8   0  -7 5.33145 3.38342   9
  -8   0  -7 -2.2598  3.1071   9
   8   0  -7 0.87670 4.18972   1
   1  -8   7 73.4970  7.5710   8
   1   8  -7 64.3227  5.5559   9
  -8   1  -7 76.5443  5.7962   9
   1  -8   7 71.7665  7.9293   3
  -8   1  -7 82.6095  7.0197   4
  -8  -1   7 81.5528  8.1278   7
   8   1   7 61.8712  7.1207   8
  -1  -8  -7 76.2171  6.5321   1
   1   8  -7 75.2747  6.8565   1
   8  -1  -7 68.5296  5.7518   9
  -1  -8  -7 71.5131  5.4961   9
   8  -1  -7 69.8055  6.4501   1
  -8  -1   7 73.0028  6.9137   3
  -1  -8  -7 81.8643  6.6531   4
   1  -8   7 72.6584  4.7515   2
  -8   1  -7 71.7247  6.6586   1
   8   1  -7 80.0177  5.6867   9
  -8  -1  -7 79.0448  6.6646   1
   8  -1   7 79.5139  7.9191   8
   1  -8  -7 69.5430  5.4612   9
  -1  -8   7 71.1808  4.6221   2
  -1  -8   7 77.7010  8.7137   3
  -1   8  -7 82.3268  6.9851   1
  -8  -1  -7 70.6738  5.7321   9
   1  -8  -7 75.1311  6.4955   1
  -1   8  -7 74.3022  5.9476   9
  -8  -1  -7 87.2647  6.7371   4
  -8   1   7 82.4635  8.6987   7
  -8   1   7 73.5401  6.8990   3
   8   1  -7 72.3405  6.4634   1
   2   8  -7 6.36049 3.76197   9
   2   8  -7 4.08744 4.14592   1
   8   2   7 -0.5498  4.2758   8
  -2  -8  -7 1.08457 3.81459   4
   2  -8   7 1.85270 4.93750   8
  -2  -8  -7 -0.2982  3.2926   9
  -8   2  -7 7.09070 3.58122   9
   2  -8   7 -1.3652  2.9388   2
  -8  -2   7 -5.8528  3.7867   3
  -8   2  -7 4.99938 4.10881   1
  -8  -2   7 3.04805 2.39087   2
   2   8  -7 -6.3114  3.2692   9
  -8  -2   7 0.84509 4.64917   7
   2  -8   7 -4.6564  4.8239   3
   8  -2  -7 -6.3313  3.6113   1
  -2  -8  -7 5.83689 4.04887   1
   8  -2  -7 -3.5892  3.0773   9
  -2  -8   7 -3.1291  5.3072   3
  -2   8  -7 0.28984 3.48743   9
  -8  -2  -7 -0.2827  3.3637   9
   2  -8  -7 1.97586 3.80924   1
   8  -2   7 -3.3322  4.7605   8
  -8   2   7 0.85030 5.55122   7
   8   2  -7 -0.8803  3.3948   9
  -8  -2  -7 6.23819 4.08663   1
  -8  -2  -7 3.53211 4.08627   4
   8   2  -7 4.01628 3.98775   1
  -8   2   7 -2.8304  3.8866   3
  -2  -8   7 0.11832 2.77056   2
   8  -2   7 -0.8025  2.2933   2
   2  -8  -7 0.20543 3.28371   9
  -2   8  -7 5.82730 4.05216   1
  -3   8   7 4.37561 5.11906   7
  -3  -8  -7 -0.2116  3.3431   9
  -8  -3   7 10.8936  4.9622   3
   3  -8   7 -1.2185  4.9187   3
  -3  -8  -7 -2.9121  3.9510   1
  -8  -3   7 1.47100 4.49096   7
  -8  -3   7 4.12179 2.74277   2
   8  -3  -7 1.29103 3.49559   9
  -8   3  -7 0.36851 4.17837   1
   3  -8   7 4.26611 5.10512   8
   8   3   7 7.14219 4.97798   6
   3  -8   7 0.27016 3.07307   2
  -8   3  -7 6.68460 3.67414   9
   3   8  -7 0.75357 4.20490   1
   3   8  -7 1.94290 3.71610   9
   3  -8   7 -2.0417  3.0806   2
  -3  -8  -7 2.26764 3.93122   4
   8  -3  -7 4.19721 4.02678   1
   8   3   7 3.21041 4.38922   8
  -8  -3  -7 5.43854 4.08892   4
  -3   8  -7 4.70597 4.47874   1
  -8  -3  -7 -0.8994  3.4264   9
   3  -8  -7 0.70532 3.34886   9
  -8   3   7 2.97333 5.83777   7
   8   3  -7 0.51065 3.60928   9
   8  -3   7 1.60960 2.73363   2
   8  -3   7 0.89635 4.49585   8
  -8  -3  -7 2.86509 4.04850   1
  -3   8  -7 0.33495 3.56624   9
   8   3  -7 -5.1926  3.8085   1
  -3  -8   7 3.22401 3.07619   2
  -3  -8   7 2.70806 5.75356   3
   3  -8  -7 12.3147  4.3431   1
   8  -4  -7 104.199   6.792   9
   4   8  -7 84.6458  7.4781   1
   8   4   7 100.782   9.006   6
   4   8  -7 89.7353  7.0107   9
  -8  -4   7 90.0435  8.0315   7
   4  -8   7 85.4453  5.5927   2
  -8  -4   7 86.8272  5.1407   2
  -4  -8  -7 79.8688  7.1885   1
  -8   4  -7 87.3705  6.5143   9
  -4  -8  -7 95.4587  6.4606   9
  -4   8   7 95.7455  8.8945   7
   4  -8   7 83.2807  9.4848   8
  -8   4  -7 77.6991  7.5393   1
   8  -4  -7 79.4715  7.0566   1
  -8  -4   7 79.8962  7.9184   3
  -8  -4  -7 90.0032  6.4317   9
  -4  -8   7 87.7779  5.5370   2
  -4   8  -7 81.7260  7.4824   1
   4  -8  -7 73.4540  7.0703   1
   8   4  -7 85.5753  6.9005   9
  -4  -8   7 86.1000  9.5442   3
   4  -8  -7 91.0646  6.4010   9
   8  -4   7 88.0344  5.2851   2
  -8   4   7 97.2509 10.5617   7
  -8  -4  -7 75.9852  7.2121   1
   8  -4   7 89.2829  9.4543   8
  -4   8  -7 82.8596  6.5444   9
   8   4  -7 100.239   7.358   1
  -5   8   7 36.7336  6.8798   7
   8   5   7 38.2712  6.6832   6
   5  -8   7 32.7774  8.2028   8
  -8   5  -7 29.7638  5.8956   1
   5   8  -7 31.9383  5.8968   1
  -5  -8  -7 31.7851  5.0080   9
  -8  -5   7 31.3619  6.4475   5
  -8  -5   7 25.1692  4.0423   2
  -8  -5   7 40.3868  6.6580   3
  -5  -8  -7 30.7543  5.7315   1
   5  -8   7 27.3375  4.3006   2
   8  -5  -7 30.4105  5.1080   9
   5   8  -7 32.6114  5.3398   9
  -8   5  -7 28.1488  5.0908   9
   8  -5  -7 38.1959  5.9702   1
  -8  -5  -7 27.0068  5.6007   1
  -8  -5  -7 33.2117  4.9292   9
  -5  -8   7 26.8071  4.2417   2
  -5   8  -7 32.2128  6.1842   1
   5  -8  -7 34.0802  5.8709   1
   8  -5   7 29.3183  7.9070   8
  -5   8  -7 28.8972  4.9809   9
   8  -5   7 34.5528  4.4188   2
   8   5  -7 29.2557  5.2758   9
   8   5  -7 24.8155  5.6566   1
   5   8   7 37.3609  6.8249   6
  -8   5   7 27.9341  8.3671   7
   5  -8  -7 31.9042  5.0904   9
  -5  -8   7 42.0864  7.7735   3
  -8  -6   7 17.8519  5.9382   3
   6  -8   7 21.2417  4.4053   2
  -8   6  -7 8.59203 5.23445   1
  -6  -8  -7 10.7168  4.3725   9
   6   8  -7 10.8831  4.6258   9
  -8   6  -7 6.82998 4.48378   9
   8  -6  -7 4.07924 4.44593   9
   6   8  -7 12.1648  4.9902   1
  -6   8   7 3.01430 5.80699   7
   6  -8   7 13.3586  7.9263   8
  -6  -8  -7 14.5655  5.3184   1
  -8  -6   7 6.84569 3.70723   2
   8   6   7 10.7097  6.1999   6
   8  -6  -7 15.3141  5.1311   1
  -6   8  -7 7.77830 4.54388   9
   8   6  -7 6.69927 5.12032   1
   8  -6   7 15.4386  7.3517   8
  -8  -6  -7 7.91315 4.41256   9
   8   6  -7 6.40717 4.59222   1
   8   6  -7 9.84181 4.57368   9
  -6  -8   7 12.5922  6.5515   3
   6   8   7 10.8782  5.7859   6
   6  -8  -7 16.3649  5.3245   1
  -6  -8   7 7.87491 3.90465   2
  -8  -6  -7 7.37679 4.70900   1
   8  -6   7 10.5419  4.0701   2
  -8   6   7 7.69413 7.18690   7
  -6   8  -7 16.2034  5.0538   1
   6  -8  -7 11.8205  4.6856   9
  -7   8   7 91.5931 10.8912   7
   8  -7  -7 82.7746  7.3469   9
  -7  -8  -7 83.2619  8.2569   1
  -8  -7   7 98.8733  9.6575   3
   7   8  -7 86.2905  7.4734   9
   7  -8   7 84.2523  6.7746   2
   8   7   7 88.0335  9.5025   6
  -8  -7   7 103.260   6.814   2
  -8   7  -7 76.9962  8.3240   1
   7   8  -7 83.8769  8.4759   1
   7  -8   7 88.3064 12.3774   8
   8  -7  -7 93.7480  8.4841   1
  -8   7  -7 79.0947  7.2942   9
  -7  -8  -7 86.6303  7.4339   9
   7   8   7 88.2162  9.5849   6
  -8  -7  -7 95.7687  8.4656   1
  -8  -7  -7 91.1277  7.3214   9
   8  -7   7 70.3288 11.0903   8
   7  -8  -7 76.7075  8.0331   1
  -7  -8   7 95.2019 10.1427   3
   8  -7   7 93.1092  6.7977   2
  -8   7   7 97.1609 11.9196   7
  -7   8  -7 108.934   9.053   1
   7  -8  -7 92.7934  7.6166   9
  -7   8  -7 100.988   7.901   9
   8   7  -7 92.4253  8.5871   1
  -7  -8   7 86.8569  6.4417   2
   8   7  -7 80.1614  7.5776   9
   8  -8  -7 -1.2999  5.1996   1
  -8   8  -7 4.25668 4.60662   9
  -8   8  -7 -7.7912  4.9485   1
   8   8  -7 -7.6767  4.3958   9
  -8  -8  -7 -8.3013  4.1832   9
   8  -8   7 2.98871 4.55603   2
  -8  -8   7 4.32452 6.17400   3
   8   8   7 -8.3357  5.8635   6
  -8   8   7 -1.9195  6.7654   7
  -8  -8  -7 3.07736 5.40949   1
   8  -8  -7 2.04955 4.94586   9
  -8  -8   7 -1.0751  3.9508   2
   8  -8   7 -0.5078  8.4111   8
   8   8  -7 2.26006 5.44111   1
   9   0  -7 7.50447 3.94061   9
   0  -9  -7 1.87756 4.25422   1
   0  -9   7 -5.0923  5.6923   3
  -9   0  -7 0.54824 4.42074   1
   0  -9  -7 2.44986 3.68145   9
   0   9  -7 -3.8345  3.5546   9
  -9   0  -7 0.17457 3.71201   9
   9   0   7 -1.7172  4.8686   8
  -9   0   7 6.51566 2.90606   2
  -9   0   7 6.06433 5.48255   7
   9   0  -7 3.64095 4.40630   1
   0   9  -7 5.23398 4.59024   1
   0  -9   7 -5.0925  3.0538   2
   9   0   7 4.61374 2.82127   2
   9  -1  -7 -5.1412  3.3820   9
  -9  -1   7 3.25040 4.63707   3
   1  -9   7 1.18694 5.44099   3
   9   1   7 4.59928 2.77820   2
  -1  -9  -7 -5.1892  4.0199   1
   9  -1  -7 5.27200 4.41801   1
  -9   1  -7 4.26001 4.49535   1
   1   9  -7 1.23541 3.83237   9
  -9  -1   7 2.22613 5.26529   7
  -1  -9  -7 5.68127 3.67804   9
   1   9  -7 2.25635 4.28695   1
  -9   1  -7 0.98436 3.75458   9
   1  -9   7 1.03912 3.34889   2
   1  -9   7 0.74643 4.88490   8
  -9  -1   7 3.70990 2.91550   2
   9   1   7 -2.1578  4.5893   8
  -9  -1  -7 0.80507 3.67280   9
   9   1  -7 -4.7330  4.0286   1
  -1   9  -7 2.38147 4.53253   1
  -1  -9   7 10.4716  6.6470   3
  -9  -1  -7 3.27580 4.40847   1
   9  -1   7 -2.1329  2.8983   2
   9   1  -7 1.95498 3.94615   9
  -1  -9   7 5.37100 3.50126   2
   9  -1   7 1.45340 5.12708   8
  -1   9  -7 4.15822 3.78973   9
   1  -9  -7 -3.3135  4.0227   1
  -9   1   7 1.74697 2.66683   2
  -9   1   7 -4.1866  5.3432   7
   1  -9  -7 6.25401 3.76688   9
   9   2   7 9.39819 5.24598   8
  -2  -9  -7 22.3717  4.5618   9
  -9  -2   7 12.8448  5.0389   3
   9  -2  -7 15.1515  5.0204   1
   2   9  -7 19.6015  4.7703   9
   2  -9   7 17.1416  3.9835   2
   9  -2  -7 15.6803  4.3363   9
  -9  -2   7 23.2302  3.6248   2
  -9  -2   7 23.5296  5.9651   7
  -2  -9  -7 19.3372  5.0998   1
   2  -9   7 26.7643  6.5375   8
   2  -9   7 17.0057  6.0679   3
   2   9  -7 14.9832  5.0595   1
  -9   2  -7 16.9034  5.1361   1
  -9   2  -7 5.97970 4.17167   9
   2   9  -7 19.8738  4.8434   9
   2  -9  -7 12.0421  4.2795   9
  -2  -9   7 19.8937  7.2846   3
  -9  -2  -7 14.9450  5.0073   1
  -9   2   7 29.0752  7.1598   7
  -2  -9   7 17.5721  3.9580   2
   9   2  -7 23.1539  5.0464   1
  -2   9  -7 21.3717  4.7428   9
   9  -2   7 14.2801  3.6507   2
   9   2  -7 19.1631  4.6382   9
   2  -9  -7 21.1136  5.1335   1
   9  -2   7 21.6248  6.4079   8
  -9  -2  -7 13.1580  4.3534   9
  -2   9  -7 16.1196  5.2707   1
  -9   3  -7 11.3409  5.1356   1
   9   3   7 22.3441  5.9528   6
   9  -3  -7 18.5882  4.7934   9
  -9  -3   7 18.0473  5.9663   7
  -9  -3   7 15.3164  5.5982   3
   9  -3  -7 28.4174  5.4936   1
   3   9  -7 22.7486  5.6238   1
  -3  -9  -7 20.3182  4.5744   9
   3   9  -7 22.1084  5.0039   9
   3  -9   7 21.3340  4.3037   2
   3  -9   7 16.9839  4.2167   2
   3  -9   7 26.3172  6.5442   3
  -9  -3   7 26.5188  4.0466   2
  -3  -9  -7 22.3025  5.2542   1
   3  -9   7 12.1468  5.8825   8
  -9   3  -7 19.0000  4.6510   9
   3  -9  -7 23.4975  4.5334   9
   9  -3   7 31.1071  7.0769   8
   9  -3   7 18.9435  4.0437   2
   3  -9  -7 7.77174 4.81796   1
  -9  -3  -7 19.0389  5.3381   1
  -3  -9   7 27.6549  4.3745   2
  -3  -9   7 26.3027  7.1122   3
  -3   9  -7 24.9955  4.9813   9
   9   3  -7 17.7867  4.4299   9
   9   3  -7 24.8488  5.4984   1
  -9   3   7 25.6371  6.9763   7
  -3   9  -7 14.2045  5.0675   1
  -9  -3  -7 18.8392  4.6176   9
  -9  -4   7 14.4758  3.7662   2
   9  -4  -7 8.18104 4.58604   1
  -9   4  -7 7.52247 4.36767   9
  -4  -9  -7 13.9396  5.0554   1
   4  -9   7 2.70409 6.07430   8
   4  -9   7 9.78196 4.08831   2
  -9  -4   7 4.96150 5.07677   3
   9  -4  -7 12.7053  4.4684   9
  -4  -9  -7 12.5024  4.4880   9
  -9   4  -7 6.17466 5.16328   1
   4   9  -7 13.1882  4.5110   9
   4   9  -7 9.30908 5.12359   1
   9   4   7 7.61825 5.46218   6
   9  -4   7 11.6490  3.9612   2
  -9  -4  -7 21.6685  5.5806   1
  -4  -9   7 16.0666  4.3524   2
   9   4  -7 10.9200  4.7712   1
   9   4  -7 14.1555  4.6254   9
  -4   9  -7 16.2939  5.5273   1
   4  -9  -7 14.8567  4.5297   9
   9  -4   7 9.03323 6.42419   8
  -9   4   7 13.3081  7.2995   7
  -4   9  -7 9.78972 4.62998   9
  -4  -9   7 16.9740  7.1869   3
   4  -9  -7 14.7679  5.4051   1
  -9  -4  -7 9.21504 4.09699   9
   5  -9   7 1.32130 3.67963   2
  -9  -5   7 7.41290 5.28339   3
   9  -5  -7 -0.6176  4.6773   1
  -9  -5   7 2.06670 3.58356   2
   9   5   7 10.2071  6.0809   6
  -9  -5   7 10.8878  5.9788   5
  -5   9   7 11.3543  6.0785   7
  -5  -9  -7 7.62125 5.24357   1
   5   9  -7 10.5451  4.9852   1
   5   9  -7 6.75004 4.46649   9
   5  -9   7 5.79430 7.21678   8
  -5  -9  -7 11.5892  4.2655   9
  -9   5  -7 10.4053  4.3963   9
   9  -5  -7 3.06971 4.22620   9
  -9   5  -7 5.22717 5.00421   1
   9   5  -7 3.29867 5.11549   1
  -5   9  -7 10.2561  5.2283   1
  -5  -9   7 10.7185  6.9005   3
   9  -5   7 -1.9625  3.6893   2
   5  -9  -7 15.2491  5.4771   1
  -9  -5  -7 11.0705  4.9577   1
   9  -5   7 14.5707  7.1967   8
  -5   9  -7 9.13840 4.39347   9
   5  -9  -7 4.23500 4.25643   9
  -9   5   7 1.81086 6.76883   7
   9   5  -7 4.25726 4.29802   9
  -5  -9   7 6.20135 3.90044   2
  -9  -5  -7 6.75112 4.36310   9
  -6  -9  -7 165.720   9.145   9
   6   9  -7 149.350  10.037   1
   6  -9   7 149.619   8.070   2
  -9   6  -7 154.280  10.520   1
  -6   9   7 141.523  12.088   7
  -9  -6   7 149.100  10.575   3
   9  -6  -7 159.647  10.046   1
  -9  -6   7 160.067   7.991   2
   6   9  -7 154.459   9.024   9
   9   6   7 147.423  10.820   6
  -9   6  -7 150.831   8.775   9
  -6  -9  -7 137.796   9.904   1
   9  -6  -7 155.211   8.973   9
   6  -9   7 141.953  14.144   8
   9  -6   7 149.652   8.113   2
   9   6  -7 150.468  10.166   1
   9  -6   7 171.221  14.504   8
  -6  -9   7 143.196  12.490   3
   9   6  -7 168.862   9.244   9
  -6   9  -7 151.489  10.038   1
  -9   6   7 179.987  15.827   7
   6   9   7 170.557  11.537   6
  -6  -9   7 147.784   8.005   2
   9   6  -7 160.579  10.420   1
   6  -9  -7 154.747  10.072   1
   6  -9  -7 154.604   8.977   9
  -6   9  -7 155.849   9.251   9
  -9  -6  -7 159.024   9.098   9
  -9  -6  -7 140.940   9.540   1
   9  -7  -7 33.5795  5.9457   9
   7   9  -7 34.8899  6.2184   9
  -9  -7   7 37.3462  5.5544   2
  -7  -9  -7 40.1940  7.0337   1
   7  -9   7 36.9645  5.6574   2
  -9   7  -7 31.3870  5.7292   9
  -7  -9  -7 25.6031  5.8271   9
  -9  -7   7 23.5421  6.9913   3
   7  -9   7 28.1818 10.2897   8
   9  -7  -7 30.7897  6.2797   1
   7   9  -7 32.6189  6.8435   1
  -7   9   7 27.4776  8.3771   7
   9   7   7 39.8715  7.8055   6
  -9   7  -7 26.1503  6.5745   1
   7  -9  -7 35.2092  6.7820   1
  -7  -9   7 42.7272  8.6427   3
   7  -9  -7 33.3929  6.1867   9
   9   7  -7 30.1069  6.1943   9
  -9  -7  -7 33.9361  6.1562   9
  -7   9  -7 10.9695  5.9087   1
   9  -7   7 29.2186  5.3892   2
  -7  -9   7 31.4419  5.3996   2
   7   9   7 18.8667  7.0617   6
  -9   7   7 20.7767  9.5518   7
  -7   9  -7 30.9805  5.6809   9
   9   7  -7 32.2236  7.0391   1
  -9  -7  -7 31.7311  6.4387   1
   9  -7   7 32.8033  9.7996   8
   9  -8  -7 7.70923 5.11205   9
   8   9  -7 0.46718 4.88027   9
   9   8   7 0.79491 6.22423   6
  -8  -9  -7 0.57638 5.61646   1
   8  -9   7 7.29841 4.66899   2
  -9  -8   7 5.75232 4.71842   2
  -8   9   7 1.17365 7.32191   7
   9  -8  -7 2.13657 5.54687   1
  -9   8  -7 -1.6727  5.6609   1
  -9  -8   7 7.03471 6.47144   3
  -9   8  -7 1.19203 4.82408   9
   8   9  -7 5.62543 5.81551   1
  -8  -9  -7 7.93117 4.90570   9
  -8  -9   7 -1.2846  4.3040   2
  -8   9  -7 3.60508 4.81042   9
  -9  -8  -7 6.63722 4.89616   9
   9   8  -7 0.14430 5.75095   1
   8  -9  -7 3.44802 4.86012   9
   9  -8   7 0.67609 4.55028   2
  -8   9  -7 -1.8235  5.8688   1
   8  -9  -7 -1.3312  5.3689   1
  -9   8   7 5.48997 8.56703   7
  -8  -9   7 2.31369 6.71990   3
  -9  -8  -7 13.5656  5.7977   1
   8   9   7 -2.2472  5.8845   6
   9   8  -7 7.17261 5.07445   9
  -9   9   7 -2.4326  7.6039   7
   9  -9   7 6.34624 5.13005   2
   9  -9  -7 -0.2165  5.5757   1
  -9  -9   7 6.65081 6.86466   3
  -9  -9  -7 -3.3073  5.3225   1
  -9   9  -7 -3.2070  4.7035   9
  -9   9  -7 13.0232  6.6761   1
   9  -9  -7 2.00936 4.89480   9
  -9  -9  -7 2.70438 5.15021   9
   9   9   7 1.08595 6.30912   6
   9   9  -7 4.98037 5.24838   9
  -9  -9   7 0.86850 4.61932   2
   9   9  -7 3.82005 5.59437   1
 -10   0  -7 65.7866  6.6837   9
 -10   0  -7 57.7298  7.0727   1
   0 -10   7 72.3696  9.8349   3
   0  10  -7 78.0347  8.0043   1
   0 -10  -7 65.5579  6.2475   9
 -10   0   7 78.3415  5.4591   2
   0 -10  -7 65.8076  7.2697   1
   0 -10   7 75.6943  6.0985   2
  10   0  -7 64.1007  7.0540   1
  10   0  -7 77.5550  7.0115   9
  10   0   7 80.7098  5.6706   2
   0  10  -7 78.1737  6.9080   9
 -10   0   7 83.2129  9.3540   7
  10   0   7 77.0765  8.6935   8
   1  10  -7 6.10615 4.94630   1
 -10  -1   7 21.2831  4.0440   2
  -1 -10  -7 14.6528  5.3064   1
   1 -10   7 21.3306  4.7080   2
   1  10  -7 24.9546  5.0276   9
 -10   1  -7 24.0642  5.1204   9
   1 -10   7 19.6976  7.4621   3
  10  -1  -7 18.7190  5.1982   1
 -10   1  -7 11.0573  5.2653   1
  10   1   7 19.4270  4.0576   2
   1  10  -7 18.3946  4.7582   9
  -1 -10  -7 24.1892  4.7562   9
 -10  -1   7 16.7176  6.3564   7
  10  -1  -7 8.65021 4.64167   9
 -10   1   7 8.94738 6.46874   7
   1 -10  -7 14.4912  5.4142   1
 -10  -1  -7 27.5822  5.2857   9
  10   1  -7 20.2557  5.7332   1
  10  -1   7 12.5312  3.9579   2
  10  -1   7 23.2062  6.5575   8
 -10   1   7 22.1091  3.9663   2
 -10  -1  -7 17.7459  5.1975   1
  -1 -10   7 18.2397  4.3610   2
  10   1  -7 16.7140  4.6904   9
  -1  10  -7 12.3751  5.2922   1
  -1  10  -7 25.2497  5.1160   9
  -1 -10   7 15.2250  7.6247   3
   1 -10  -7 23.7099  4.8272   9
 -10   2  -7 27.4923  5.1098   9
  -2 -10  -7 28.0177  5.8817   1
   2 -10   7 23.6137  4.7568   2
 -10  -2   7 25.2022  4.4572   2
  10  -2  -7 24.7302  5.0850   9
   2  10  -7 32.6469  6.2239   1
   2 -10   7 26.4982  7.3352   3
 -10   2  -7 22.4839  5.8251   1
 -10  -2   7 29.7121  6.9263   7
  10   2   7 24.7590  4.4193   2
  -2 -10  -7 30.9376  5.2141   9
  10  -2  -7 30.1652  6.0043   1
   2  10  -7 24.3390  5.4853   9
  10  -2   7 28.2966  7.0903   8
  -2 -10   7 27.8951  4.7380   2
 -10  -2  -7 23.7707  5.5725   1
 -10  -2  -7 28.7605  4.9974   9
  10   2  -7 19.6461  5.4277   1
   2 -10  -7 20.9465  5.6043   1
   2 -10  -7 31.5773  5.3863   9
  -2 -10   7 22.9789  8.3224   3
  -2  10  -7 23.2772  5.1654   9
  10   2  -7 22.3567  5.0820   9
  -2  10  -7 29.6060  6.2323   1
 -10   2   7 24.2983  4.0190   2
  10  -2   7 23.5725  4.4120   2
 -10   2   7 25.8726  7.6272   7
   3 -10   7 12.8621  4.3679   2
   3 -10   7 7.80973 6.10550   8
  -3 -10  -7 9.28717 4.69914   9
  10  -3  -7 9.87210 5.32960   1
   3  10  -7 1.12449 4.26566   9
  10  -3  -7 4.98990 4.32802   9
 -10  -3   7 14.9545  5.8434   7
  -3 -10  -7 13.2560  5.3100   1
   3 -10   7 15.5789  4.4838   2
 -10  -3   7 11.4635  4.0329   2
  10   3   7 4.32028 3.76134   2
 -10   3  -7 -0.4654  3.8787   9
   3  10  -7 3.90228 5.28002   1
 -10   3  -7 13.7406  5.5520   1
  10   3  -7 11.4853  4.9364   9
  -3 -10   7 26.4602  8.4415   3
  -3  10  -7 3.36471 4.95080   1
  -3 -10   7 12.6605  4.3119   2
   3 -10  -7 1.05376 4.65254   1
  -3  10  -7 5.65609 4.46369   9
  10  -3   7 2.28864 6.21416   8
  10  -3   7 -0.6281  3.9042   2
 -10   3   7 4.58552 6.96147   7
 -10   3   7 10.3532  3.7293   2
 -10  -3  -7 6.69457 4.65351   9
 -10  -3  -7 4.34591 4.98738   1
   3 -10  -7 7.43951 4.57213   9
  10   3  -7 2.56700 4.63803   1
  -4 -10  -7 56.6102  7.3867   1
  10  -4  -7 69.8663  7.0576   9
 -10   4  -7 72.1035  7.1340   9
 -10   4  -7 59.2033  7.8304   1
  -4 -10  -7 62.2812  6.6627   9
  10   4   7 64.9889  5.7148   2
   4  10  -7 73.8752  7.8389   1
  10  -4  -7 66.8127  7.6279   1
   4  10  -7 69.9998  7.0120   9
   4 -10   7 59.6456  9.3024   8
 -10  -4   7 74.4514  6.1014   2
   4 -10   7 63.8636  6.2205   2
  10   4   7 83.1175  8.9658   6
  -4 -10   7 68.2871 10.6456   3
  -4  10  -7 74.4206  7.1188   9
  10  -4   7 69.4456  6.3345   2
  10   4  -7 69.1831  7.0462   9
  10  -4   7 72.5865  9.5412   8
  10   4  -7 56.6040  7.3397   1
 -10  -4  -7 63.5186  6.6471   9
 -10   4   7 72.2518 11.2590   7
  -4 -10   7 62.9413  6.1016   2
 -10  -4  -7 62.7284  7.6237   1
  -4  10  -7 77.9920  8.2019   1
   4 -10  -7 62.8982  7.4385   1
 -10   4   7 67.5322  5.3545   2
   4 -10  -7 64.0235  6.8268   9
 -10   5  -7 126.372   9.497   1
  -5 -10  -7 153.899   8.890   9
  -5 -10  -7 117.699   9.690   1
  10   5   7 130.285  11.232   6
  10  -5  -7 120.111   8.380   9
   5 -10   7 142.494   8.401   2
 -10  -5   7 146.167  10.037   3
 -10   5  -7 122.183   8.317   9
   5  10  -7 131.036   9.569   1
 -10  -5   7 109.104   7.301   2
   5  10  -7 124.960   8.499   9
  10  -5  -7 144.464   9.582   1
  10   5   7 137.837   7.399   2
   5 -10   7 130.428  12.941   8
  -5 -10   7 119.874   7.843   2
  -5  10  -7 127.444   9.708   1
  10  -5   7 132.082   8.058   2
  10   5  -7 129.843   9.845   1
  -5  10  -7 135.962   8.720   9
   5 -10  -7 122.083   8.303   9
  10   5  -7 114.058   8.329   9
 -10   5   7 103.610  13.521   7
  -5 -10   7 120.131  12.649   3
 -10  -5  -7 128.256   9.750   1
   5 -10  -7 116.084   9.720   1
 -10  -5  -7 137.455   8.572   9
  10  -5   7 136.123  12.847   8
 -10   5   7 129.484   6.947   2
   6 -10   7 6.88893 8.40489   8
 -10  -6   7 0.27668 4.27552   2
  10   6   7 6.22959 4.40226   2
  -6 -10  -7 14.8759  5.4170   9
   6  10  -7 6.90755 5.87851   1
 -10   6  -7 16.1767  5.1912   9
 -10  -6   7 8.40546 5.99615   3
  10  -6  -7 14.0366  5.9189   1
  10  -6  -7 12.1623  5.0180   9
 -10   6  -7 5.36390 5.89962   1
   6  10  -7 9.42897 5.08015   9
  -6 -10  -7 17.8876  5.9940   1
  10   6   7 13.2809  6.3416   6
   6 -10   7 4.06149 4.38845   2
 -10  -6  -7 10.3628  5.2219   9
  10   6  -7 17.6739  6.2508   1
   6 -10  -7 10.9066  4.8929   9
   6 -10  -7 5.66529 5.42470   1
  -6  10  -7 9.90234 6.12905   1
  -6 -10   7 15.5187  4.9216   2
  10  -6   7 7.03725 4.54439   2
 -10  -6  -7 3.28292 5.53666   1
 -10   6   7 9.03285 4.10459   2
  -6  10  -7 6.71998 4.93159   9
  10   6  -7 9.20009 5.28874   9
 -10   6   7 22.2511  9.1497   7
  -6 -10   7 16.3440  7.6327   3
  10   6  -7 13.1518  5.7274   1
   7 -10   7 23.5678  5.5160   2
   7  10  -7 16.7580  6.1123   1
  10  -7  -7 30.7216  6.2575   9
  -7 -10  -7 23.3754  6.5975   1
  10  -7  -7 19.6045  6.6465   1
 -10   7  -7 14.4861  6.3167   1
 -10  -7   7 14.6135  4.9223   2
 -10   7  -7 26.7333  5.9496   9
  -7 -10  -7 21.7203  5.6770   9
   7  10  -7 8.96645 5.57586   9
  10   7   7 30.6232  7.6697   6
  -7  10   7 24.8102  8.0056   7
 -10  -7   7 19.0828  6.9925   3
  -7  10  -7 16.4207  5.5496   9
  -7  10  -7 22.9914  7.0076   1
 -10   7   7 13.7036 10.2314   7
  -7 -10   7 16.1191  7.8323   3
   7  10   7 12.8532  6.8604   6
  10   7  -7 13.3455  6.4712   1
 -10  -7  -7 22.5832  5.5511   9
 -10  -7  -7 12.2548  6.2493   1
  10   7  -7 9.91695 5.25941   9
   7 -10  -7 13.7864  5.3313   9
  10  -7   7 22.9125  5.4882   2
  -7 -10   7 24.2914  5.3104   2
   7 -10  -7 6.23747 5.62340   1
  -8 -10  -7 67.4555  7.7400   9
   8 -10   7 51.1499  6.6708   2
 -10   8  -7 66.6761  8.7552   1
  -8  10   7 71.6411 10.9920   7
 -10   8  -7 56.8098  7.2110   9
  10  -8  -7 69.9219  8.7453   1
   8  10  -7 64.1440  7.8576   9
 -10  -8   7 53.2226  6.5147   2
 -10  -8   7 49.6873  8.7734   3
  -8 -10  -7 62.5841  8.7657   1
  10  -8  -7 64.2991  7.7564   9
   8  10  -7 58.6763  8.3384   1
  10   8   7 50.8077  8.9254   6
  10   8  -7 64.8824  7.6491   9
  -8  10  -7 56.1281  8.2330   1
   8  10   7 54.7905  9.5470   6
  -8 -10   7 57.9845  7.0234   2
 -10  -8  -7 51.4494  8.3343   1
  10   8  -7 51.8208  8.2567   1
   8 -10  -7 62.0811  7.4691   9
  -8  10  -7 48.4143  6.9785   9
  -8 -10   7 52.2880  9.4803   3
 -10   8   7 57.2632 12.4515   7
 -10  -8  -7 68.0162  7.8950   9
   8 -10  -7 53.9104  7.9199   1
  10  -8   7 55.4933  6.8494   2
   0  11  -7 2.51944 4.39215   9
 -11   0  -7 -4.7654  4.8989   1
 -11   0   7 4.16820 5.79965   7
   0 -11  -7 7.07572 5.06137   1
  11   0   7 0.98696 4.00821   2
 -11   0   7 3.12462 3.90771   2
  11   0  -7 -3.3449  4.5134   1
   0 -11   7 5.96641 7.74243   3
   0 -11   7 5.92854 4.37931   2
  11   0  -7 -2.5182  4.1373   9
   0  11  -7 -0.1382  4.4859   9
   0  11  -7 0.97542 5.01095   1
 -11   0  -7 2.12703 4.60338   9
   0 -11  -7 3.04445 4.45151   9
   1 -11   7 8.92239 4.48706   2
 -11  -1   7 -3.8059  3.8388   2
   1  11  -7 2.48515 4.62115   9
 -11   1  -7 -3.5532  5.1678   1
   1  11  -7 -6.6176  4.7431   1
  11  -1  -7 -0.7292  4.3378   9
 -11  -1   7 1.82355 6.08269   7
  11  -1  -7 -2.4040  5.2154   1
   1 -11   7 -4.7192  6.6423   3
  11   1   7 1.81393 4.17808   2
  -1 -11  -7 10.7603  4.8960   9
 -11   1  -7 2.92248 4.72289   9
  -1 -11  -7 3.51514 5.25730   1
  11   1  -7 4.33084 5.19845   1
  -1 -11   7 0.72108 8.24978   3
   1 -11  -7 11.1778  5.5975   1
  11  -1   7 8.21095 5.98824   8
  11   1  -7 13.8316  5.0760   9
 -11   1   7 3.09751 3.91365   2
 -11  -1  -7 5.00723 4.62326   9
  -1  11  -7 -1.0243  4.1546   9
  -1  11  -7 -1.8994  5.1861   1
 -11   1   7 -9.6631  6.0476   7
  11  -1   7 -0.8330  4.1179   2
   1 -11  -7 5.41084 4.47475   9
 -11  -1  -7 3.90642 5.28044   1
  -1 -11   7 -0.3855  4.3050   2
  11   2   7 5.91091 4.17884   2
  11  -2  -7 1.68775 4.65036   9
 -11   2  -7 11.2838  5.0711   9
 -11  -2   7 8.59931 4.30115   2
 -11  -2   7 0.24504 5.42380   7
 -11   2  -7 6.35783 5.73819   1
   2 -11   7 1.31569 4.30829   2
   2  11  -7 14.6734  6.0044   1
   2  11  -7 5.79351 4.83771   9
  11  -2  -7 2.55815 5.29278   1
   2 -11   7 -14.538   6.246   3
  -2 -11  -7 1.46928 4.82304   1
  -2 -11  -7 2.94138 4.44178   9
   2 -11  -7 3.42932 4.52191   9
  -2  11  -7 8.21127 5.58712   1
 -11   2   7 -1.9696  6.5350   7
 -11  -2  -7 12.4773  5.4493   1
  -2 -11   7 2.50603 8.49059   3
  -2 -11   7 6.00657 4.41985   2
  -2  11  -7 -1.7288  4.3591   9
  11  -2   7 4.22086 4.31984   2
  11  -2   7 8.77702 6.39866   8
  11   2  -7 9.78080 5.53745   1
 -11  -2  -7 1.61276 4.36867   9
 -11   2   7 11.9279  4.2125   2
   2 -11  -7 4.49357 5.13589   1
  11   2  -7 -4.7119  4.1551   9
 -11   3  -7 0.42091 4.80704   9
   3 -11   7 6.37027 4.48202   2
  -3 -11  -7 8.65526 5.18179   1
  11  -3  -7 0.70682 4.43769   9
   3 -11   7 10.1399  4.6720   2
  11  -3  -7 7.90508 5.64577   1
 -11   3  -7 7.65744 5.94044   1
  -3 -11  -7 2.39705 4.68414   9
   3  11  -7 7.02386 5.61384   1
   3  11  -7 6.65003 4.83411   9
  11   3   7 2.02145 4.16525   2
 -11  -3   7 8.94014 4.53813   2
  -3 -11   7 -1.6741  8.2092   3
   3 -11  -7 9.20247 5.21296   1
  -3 -11   7 12.3665  4.7920   2
  11  -3   7 -1.7831  6.3047   8
  11   3  -7 7.02884 5.48157   1
 -11  -3  -7 0.79240 5.46573   1
 -11   3   7 -1.0948  3.8395   2
  11   3  -7 3.45506 4.73382   9
 -11   3   7 -4.5059  6.7007   7
  -3  11  -7 6.25428 4.83951   9
  -3  11  -7 0.58718 5.45633   1
 -11  -3  -7 5.57691 4.62800   9
  11  -3   7 4.87887 4.52481   2
   3 -11  -7 0.52409 4.66861   9
   4 -11   7 8.76722 7.15306   8
  11  -4  -7 8.55116 5.97812   1
 -11   4  -7 0.53448 5.41444   1
  11   4   7 9.33436 4.46983   2
   4 -11   7 3.59398 4.57422   2
   4 -11   7 8.33434 4.71997   2
  11   4   7 7.04354 6.28172   6
   4  11  -7 7.01965 4.81727   9
  -4 -11  -7 7.81788 5.73602   1
  -4 -11  -7 6.50866 4.85051   9
   4  11  -7 6.50997 6.03728   1
 -11  -4   7 3.10874 4.17868   2
 -11   4  -7 16.1995  5.1856   9
  11  -4  -7 13.7643  5.2945   9
  11  -4   7 -1.3632  6.3118   8
  11  -4   7 11.7961  4.8830   2
  -4 -11   7 10.1865  8.7980   3
  11   4  -7 4.45246 5.07775   1
  -4 -11   7 11.1726  4.8725   2
 -11  -4  -7 17.5087  5.5569   9
 -11   4   7 7.06448 4.24599   2
   4 -11  -7 11.6036  5.8469   1
  -4  11  -7 5.24650 4.83074   9
   4 -11  -7 8.81332 5.18693   9
 -11   4   7 15.5894  8.2870   7
  11   4  -7 -0.8421  4.5241   9
  -4  11  -7 6.43037 5.70579   1
 -11  -4  -7 2.58597 5.69674   1
  11  -5  -7 6.25269 5.13232   9
   5  11  -7 7.24365 5.57658   1
   5 -11   7 -14.343   6.606   8
  -5 -11  -7 -6.5619  4.6123   9
 -11   5  -7 6.58908 6.14891   1
  -5 -11  -7 0.63958 5.34455   1
   5 -11   7 -2.0560  4.6415   2
 -11  -5   7 7.24249 4.47927   2
  11   5   7 3.07886 6.16471   6
  11   5   7 6.06173 4.76978   2
 -11   5  -7 7.35270 4.92013   9
  11  -5  -7 1.82692 5.67098   1
   5  11  -7 -1.0152  4.6011   9
 -11  -5  -7 7.69593 5.13198   9
  11   5  -7 -5.8866  4.5261   9
  11  -5   7 -6.5739  4.3740   2
  -5  11  -7 5.51556 4.86163   9
  -5 -11   7 6.97097 8.10899   3
   5 -11  -7 7.21146 4.95370   9
  11   5  -7 -1.9024  5.6455   1
 -11   5   7 -1.3873  4.2121   2
 -11   5   7 9.90529 9.07597   7
   5 -11  -7 2.97271 5.93905   1
  -5  11  -7 -0.1729  5.7626   1
 -11  -5  -7 -11.548   5.041   1
  -5 -11   7 6.60282 4.53380   2
  11   6   7 5.85585 4.87928   2
  -6 -11  -7 4.12063 4.96082   9
  11   6   7 -0.7165  6.1540   6
 -11   6  -7 1.63951 5.88889   1
  11  -6  -7 2.69417 5.19648   1
   6 -11   7 11.9658  5.2568   2
 -11  -6   7 8.42418 4.87744   2
   6  11  -7 6.09980 6.07522   1
  11  -6  -7 9.94629 5.22116   9
   6  11  -7 8.39859 5.03923   9
 -11   6  -7 3.67216 4.83630   9
  -6 -11  -7 5.00341 5.60768   1
  11   6  -7 10.9118  5.9493   1
 -11  -6  -7 2.64948 4.88734   9
  11   6  -7 5.50761 5.24685   9
   6 -11  -7 0.85595 5.89635   1
 -11   6   7 -3.1628  8.0300   7
  11  -6   7 2.15178 5.03847   2
  11   6  -7 0.68503 5.64653   1
  -6  11  -7 -3.1534  5.5176   1
  -6 -11   7 0.48540 4.69238   2
 -11  -6  -7 5.66882 5.69465   1
   6 -11  -7 -2.7915  4.4428   9
  -6  11  -7 9.79556 5.05488   9
 -11   6   7 11.3160  4.6015   2
  -6 -11   7 8.88033 7.97865   3
   7  11  -7 1.69299 5.04191   9
   7 -11   7 6.32139 5.02845   2
 -11   7  -7 4.36259 6.06394   1
  11  -7  -7 4.37498 5.79448   1
 -11   7  -7 5.94593 5.09755   9
   7  11  -7 2.13859 6.04483   1
  -7 -11  -7 -8.6977  4.3511   9
  11  -7  -7 2.55138 5.32455   9
  11   7   7 -0.8360  6.3114   6
 -11  -7   7 7.15780 4.98080   2
  -7 -11  -7 2.32445 6.00206   1
 -11  -7  -7 -1.4103  4.8753   9
  11  -7   7 -5.6258  4.9506   2
  -7 -11   7 3.57545 5.09444   2
 -11  -7  -7 1.45750 5.88859   1
  11   7  -7 -6.5529  4.5853   9
  -7  11  -7 -6.4858  4.5881   9
   7 -11  -7 8.50796 5.37599   9
  -7 -11   7 3.11099 7.98229   3
  11   7  -7 -1.2978  5.6506   1
   7 -11  -7 -3.3735  5.9685   1
 -11   7   7 14.6757 11.7977   7
  -7  11  -7 0.53841 6.44159   1
   0 -12   7 164.973   9.131   2
   0  12  -7 163.606  11.171   1
  12   0  -7 159.408  11.100   1
   0 -12  -7 168.995   9.858   9
 -12   0   7 171.039   8.542   2
   0  12  -7 138.583   9.307   9
  12   0   7 154.764   8.739   2
   0 -12   7 167.932  15.220   3
  12   0  -7 139.512   9.676   9
 -12   0   7 174.014  12.436   7
 -12   0  -7 152.914  10.645   1
 -12   0  -7 143.582   9.343   9
   0 -12  -7 147.618  10.797   1
  12  -1  -7 4.08860 5.43756   1
 -12  -1   7 0.91194 6.11304   7
 -12   1  -7 12.0012  5.0806   9
  12  -1  -7 7.39048 4.77143   9
   1 -12   7 13.7152  4.9654   2
  -1 -12  -7 12.0837  6.3077   1
   1  12  -7 9.35805 6.40559   1
 -12  -1   7 5.70016 4.48995   2
   1 -12   7 8.80501 8.12133   3
  -1 -12  -7 12.5503  5.4585   9
  12   1   7 7.36771 4.72813   2
 -12   1  -7 12.4990  6.0271   1
   1  12  -7 8.21045 5.11116   9
  -1  12  -7 8.90704 5.25554   9
  12   1  -7 3.28241 5.40431   1
  12   1  -7 2.10404 4.67063   9
  -1 -12   7 -1.4626  8.9301   3
 -12   1   7 8.51923 7.03621   7
  -1 -12   7 11.2746  4.7627   2
  -1  12  -7 4.41935 5.70569   1
  12  -1   7 7.07890 4.67330   2
 -12  -1  -7 3.87924 5.76463   1
  -1  12  -7 12.9472  5.2097   9
   1 -12  -7 5.04377 5.25665   9
 -12  -1  -7 13.7831  5.3956   9
   1 -12  -7 8.93713 5.95522   1
 -12   1   7 3.41103 4.42578   2
  -2 -12  -7 -2.5478  5.7307   1
 -12   2  -7 0.62332 5.10003   9
 -12  -2   7 19.9306  5.0523   2
   2  12  -7 10.7467  5.3739   9
 -12   2  -7 1.99750 5.69951   1
 -12  -2   7 7.68147 6.52307   7
  12   2   7 20.3080  5.1842   2
   2  12  -7 7.20935 6.16615   1
   2 -12   7 11.2712  7.5908   3
  -2 -12  -7 4.42448 4.90505   9
   2 -12   7 8.45732 4.98248   2
  12  -2  -7 -2.6155  4.6204   9
  12  -2  -7 11.4793  5.8314   1
  12   2  -7 16.4967  6.1654   1
  12  -2   7 1.73535 6.58020   8
  -2  12  -7 7.45143 6.15409   1
  -2  12  -7 1.37305 4.72779   9
  -2  12  -7 0.89098 4.81836   9
 -12  -2  -7 -2.4387  5.1876   1
  12  -2   7 9.62867 4.91956   2
 -12   2   7 14.1291  7.8172   7
  -2 -12   7 4.89525 4.77869   2
   2 -12  -7 18.4640  5.5428   9
   2 -12  -7 11.3129  5.7430   1
 -12   2   7 13.2952  4.7429   2
  12   2  -7 8.54592 5.18916   9
  -2 -12   7 12.6734 10.0344   3
 -12  -2  -7 3.02269 4.91573   9
  12  -3  -7 79.6273  8.8560   1
   3 -12   7 95.2991  7.7453   2
  -3 -12  -7 86.2777  8.3412   9
   3  12  -7 95.4407  9.7007   1
   3  12  -7 85.8630  8.2133   9
 -12  -3   7 87.2097  7.2698   2
 -12   3  -7 81.1696  9.1831   1
  -3 -12  -7 66.9912  8.7184   1
   3 -12   7 95.7922  7.8074   2
 -12   3  -7 75.2961  7.9373   9
  12   3   7 90.2617  7.5002   2
  12  -3  -7 65.9853  7.5376   9
  -3 -12   7 82.6616  7.4582   2
  12   3  -7 64.7787  7.4992   9
  -3  12  -7 86.2817  8.1847   9
 -12  -3  -7 80.9762  8.8574   1
 -12   3   7 86.8163 11.9934   7
 -12  -3  -7 61.7663  7.3538   9
  12  -3   7 81.3646  7.3731   2
  -3 -12   7 66.3878 12.8177   3
   3 -12  -7 77.4672  9.0168   1
   3 -12  -7 87.9161  8.2939   9
  -3  12  -7 76.2949  8.9341   1
  12   3  -7 81.3092  8.9640   1
 -12   3   7 93.2507  7.1558   2
   4 -12   7 7.53957 5.16505   2
  -4 -12  -7 4.72726 5.71387   1
  -4 -12  -7 5.07460 5.37536   9
 -12   4  -7 15.2060  5.4547   9
  12  -4  -7 -3.0510  4.9138   9
 -12   4  -7 -5.7780  5.8746   1
   4  12  -7 10.5939  6.0663   1
  12   4   7 12.8631  5.0976   2
   4 -12   7 13.5567  5.3839   2
 -12  -4   7 15.1306  5.0911   2
  12  -4  -7 15.1501  6.5066   1
  12   4   7 6.62659 7.00922   6
   4  12  -7 4.69829 5.10091   9
  12   4  -7 10.4240  5.8590   1
 -12   4   7 5.10320 4.53224   2
   4 -12  -7 3.87508 4.89491   9
  -4 -12   7 -5.8767  9.1757   3
  12   4  -7 8.52617 5.32360   9
  -4 -12   7 7.49175 4.94749   2
 -12  -4  -7 5.01429 5.23550   9
 -12  -4  -7 11.2115  6.3448   1
   4 -12  -7 4.68682 6.08821   1
  -4  12  -7 -1.4713  6.1154   1
 -12   4   7 2.86664 8.04891   7
  -4  12  -7 9.78109 5.31584   9
  12  -4   7 6.17424 5.24062   2
  12   5   7 24.7654  5.6661   2
   5 -12   7 21.2913  5.7064   2
  12   5   7 21.9546  7.9913   6
  -5 -12  -7 17.9762  5.7301   9
  12  -5  -7 10.1076  6.6013   1
  12  -5  -7 13.8202  5.6030   9
 -12   5  -7 21.4082  7.2859   1
 -12   5  -7 27.1344  6.0903   9
 -12  -5   7 18.3517  5.3448   2
   5  12  -7 20.5833  6.0525   9
  -5 -12  -7 16.4734  6.6616   1
   5  12  -7 15.1552  7.1307   1
 -12   5   7 23.3246  5.2611   2
 -12  -5  -7 20.5846  6.8935   1
   5 -12  -7 17.1691  5.9419   9
  12  -5   7 11.2689  5.2365   2
  -5  12  -7 12.3972  5.6086   9
  12   5  -7 15.9996  5.6762   9
  -5  12  -7 16.7370  7.0674   1
 -12   5   7 16.5710 10.5368   7
   5 -12  -7 14.0216  6.9224   1
  12   5  -7 15.6555  6.5553   1
  -5 -12   7 19.4843  5.4851   2
  -5 -12   7 17.6290  9.5462   3
 -12  -5  -7 11.5735  5.5309   9
 -13   0  -7 4.42538 5.95105   1
 -13   0   7 14.8432  7.3503   7
   0 -13   7 -2.0709  4.7625   2
   0  13  -7 -3.8819  5.9781   1
  13   0   7 1.60149 5.00038   2
   0 -13   7 -3.2735  8.6416   3
   0 -13  -7 -3.0306  5.2455   1
  13   0  -7 8.59495 6.45727   1
  13   0  -7 -5.8191  4.5315   9
   0  13  -7 -0.5956  5.1237   9
 -13   0   7 -1.0241  4.4794   2
   0 -13  -7 6.52858 5.13907   9
 -13   0  -7 4.71353 5.18687   9
 -13  -1   7 52.0516  6.6044   2
  13  -1  -7 51.8645  8.2923   1
   1 -13   7 62.6933  7.1762   2
  -1 -13  -7 53.7323  8.0653   1
   1  13  -7 64.6071  9.1376   1
 -13   1  -7 68.2191  7.7295   9
 -13  -1   7 44.0715  8.9865   7
   1  13  -7 48.8366  7.2698   9
   1 -13   7 52.4135 10.8812   3
  13   1   7 57.5729  7.0328   2
  13  -1  -7 53.2852  7.7382   9
 -13   1  -7 56.0230  8.7007   1
  -1 -13  -7 42.3853  7.1786   9
  13  -1   7 56.4071  6.8448   2
  -1  13  -7 62.6586  8.8361   1
   1 -13  -7 42.8250  7.8910   1
 -13  -1  -7 57.9509  7.5209   9
  -1 -13   7 45.3760 12.1044   3
 -13   1   7 72.2940  6.8414   2
 -13  -1  -7 68.7422  8.7926   1
   1 -13  -7 60.1287  7.3465   9
  -1  13  -7 40.4919  6.9493   9
  13   1  -7 50.8950  8.4048   1
  13   1  -7 58.7513  7.4197   9
 -13   1   7 55.1052  9.9037   7
  -1 -13   7 62.6415  7.2524   2
 -13  -2   7 26.2513  5.5648   2
  13  -2  -7 21.2269  6.0336   9
 -13   2  -7 8.79666 5.37951   9
   2 -13   7 8.25073 5.48330   2
   2  13  -7 11.8942  7.0228   1
  13  -2  -7 14.7498  6.4893   1
 -13   2  -7 18.7333  6.6845   1
  -2 -13  -7 35.1553  7.4151   1
  -2 -13  -7 11.4379  5.6155   9
  13   2   7 10.8805  5.3169   2
   2  13  -7 13.1655  5.5897   9
  -2  13  -7 16.4525  5.7665   9
  -2  13  -7 7.49625 6.50247   1
 -13  -2  -7 13.8772  5.6782   9
  13   2  -7 20.8150  6.7848   1
 -13   2   7 16.1591  5.3063   2
 -13  -2  -7 20.7110  6.7248   1
   2 -13  -7 14.0132  5.7741   9
  -2 -13   7  7.2611 11.1387   3
  13   2  -7 16.8706  5.6312   9
  -2  13  -7 22.4117  5.9477   9
 -13   2   7 9.43750 7.93400   7
  13  -2   7 25.0312  5.8723   2
  -2 -13   7 19.0920  5.6100   2
   2 -13  -7 -4.9856  5.7324   1
   0   0   8 4596.90   86.83   3
   0   0   8 4504.88   87.67   7
   0   0   8 4532.44   87.74   5
   0   0   8 4580.87   89.21   8
   0  -1   8 2.47378 3.46701   7
   1   0   8 -2.2355  3.3857   3
   1   0   8 5.53082 4.06849   5
   0  -1   8 -0.1516  3.1176   3
   1   0   8 -6.4090  3.4550   8
   0  -1   8 -1.2935  3.5555   5
  -1   0   8 1.36544 3.50638   8
   1   0   8 -0.1445  3.2329   7
  -1   0   8 -0.0032  3.5002   3
  -1   0   8 -0.4143  3.6259   7
   0  -1   8 8.47760 3.70591   8
   0   1   8 2.05688 3.33081   3
   0   1   8 3.71803 3.90310   5
   0   1   8 2.93390 3.90612   8
  -1   0   8 -1.8768  3.2661   5
   0   1   8 0.97912 3.68894   7
  -1   1   8 548.209  16.847   8
  -1  -1   8 565.291  16.410   3
  -1   1   8 533.561  16.034   3
   1   1   8 547.312  16.940   8
  -1  -1   8 549.424  16.711   8
   1  -1   8 565.834  16.176   3
   1  -1   8 560.927  16.691   7
   1  -1   8 569.455  17.014   8
  -1  -1   8 551.864  16.683   5
  -1  -1   8 566.984  16.644   7
   1   1   8 562.505  16.273   3
  -1   1   8 561.867  16.689   7
   1   1   8 540.150  16.306   7
  -1   1   8 573.155  16.581   5
   1   1   8 561.698  16.544   5
   1   1  -8 559.597  11.011   1
   1  -1   8 577.747  16.677   5
  -1   1  -8 546.888  11.013   1
   0  -2   8 3188.96   63.71   7
   2   0  -8 3246.51   57.61   1
   0  -2   8 3084.31   62.70   3
   2   0   8 3130.30   63.58   5
   0   2  -8 3247.56   58.10   1
   2   0   8 3167.37   63.62   7
  -2   0   8 3139.28   63.81   5
   0   2   8 3161.78   63.38   7
  -2   0   8 3177.33   64.59   8
   0  -2   8 3146.24   63.73   5
   2   0   8 3123.87   62.52   3
   0   2   8 3204.51   63.37   5
   0  -2   8 3179.76   64.48   8
   0   2   8 3242.84   65.04   8
   2   0   8 3183.77   64.79   8
  -2   0   8 3181.35   63.83   7
  -2   0  -8 3220.98   57.59   1
   0   2   8 3107.32   62.99   3
  -2   0   8 3174.88   63.04   3
   2   1   8 197.230   9.193   5
   2  -1  -8 199.842   5.100   1
  -2  -1   8 193.982   9.584   5
   1   2  -8 199.665   5.708   1
   1  -2   8 194.655   9.479   8
  -1   2   8 204.951   9.643   5
  -2   1  -8 191.019   5.458   1
   2   1   8 195.115   9.306   7
   1  -2   8 194.979   9.593   5
  -2  -1   8 195.338   9.023   3
   1  -2   8 196.689   9.227   3
  -1   2   8 184.029   9.248   7
  -1  -2  -8 196.569   4.782   1
  -2  -1   8 198.415   9.511   8
   1  -2   8 199.336   9.324   7
   2   1   8 196.281   9.168   3
  -1   2   8 191.333   9.234   3
  -1   2   8 182.268   9.802   8
  -2  -1   8 192.500   9.524   7
   2   1   8 201.978   9.793   8
  -2  -1  -8 198.788   5.072   1
  -1  -2   8 171.314   8.834   8
  -1  -2   8 187.694   9.235   3
   1   2   8 186.637   9.261   5
   2  -1   8 188.759   9.505   7
   2  -1   8 187.585   9.546   5
  -2   1   8 201.424   9.694   7
  -2   1   8 210.209   9.937   5
   2  -1   8 181.307   8.726   3
   2   1  -8 200.341   5.484   1
  -1  -2   8 208.087   9.683   5
   2  -1   8 186.827   9.771   8
   1   2   8 186.132   8.825   3
  -1   2  -8 196.758   5.653   1
   1   2   8 199.963   9.321   7
   1   2   8 214.564  10.057   8
   1  -2  -8 204.122   4.859   1
  -2   1   8 213.625  10.106   8
  -2   1   8 181.676   9.152   3
  -1  -2   8 186.060   9.363   7
  -2   2  -8 2527.49   47.49   1
  -2  -2  -8 2547.50   47.54   4
   2  -2   8 2519.36   51.24   3
   2  -2   8 2509.91   53.62   8
   2   2   8 2505.63   53.22   8
  -2  -2   8 2522.24   52.50   7
   2   2   8 2513.05   51.98   7
   2  -2  -8 2546.31   46.80   1
   2   2  -8 2559.00   47.46   1
   2   2   8 2577.15   52.02   3
   2  -2  -8 2571.86   47.56   4
  -2  -2   8 2473.88   51.96   3
   2  -2   8 2570.60   52.91   5
  -2   2   8 2473.98   53.40   8
  -2   2   8 2511.94   51.91   3
  -2  -2  -8 2595.08   46.78   1
  -2  -2   8 2510.61   52.65   8
   2   2   8 2552.32   52.25   5
  -2   2   8 2593.08   52.80   5
  -2  -2   8 2558.06   52.69   5
  -2   2   8 2537.05   52.77   7
   3   0   8 1.41491 3.81177   3
  -3   0   8 -1.3341  4.0132   8
  -3   0   8 -1.0545  3.7762   7
  -3   0  -8 -0.0167  2.0768   1
   0   3   8 5.60115 3.95963   7
   0  -3   8 3.12489 4.06415   8
   0   3   8 6.47823 4.19000   3
   3   0  -8 -1.7114  2.0045   1
   0  -3   8 -2.1125  3.3796   5
   0  -3  -8 1.20345 1.36095   4
   0   3  -8 -1.1831  2.3177   1
   0   3   8 -2.6477  3.3706   8
   0  -3  -8 -1.3143  1.2731   4
   3   0  -8 -0.2005  1.8106   4
   0  -3   8 0.01025 3.63333   3
   3   0   8 2.32716 3.89968   5
  -3   0   8 3.41263 3.77241   3
  -3   0   8 1.23764 4.06995   5
   0  -3  -8 1.08150 1.91368   1
   0   3   8 -0.6278  3.6799   5
   0  -3   8 -3.1638  3.6481   7
   3   0   8 -1.6357  3.9353   8
   3   1   8 624.348  18.052   5
   1   3  -8 602.312  13.791   1
   3  -1  -8 612.591  13.320   1
   3   1   8 618.337  18.273   8
  -1   3   8 625.663  18.575   8
   3   1   8 598.182  17.740   7
  -1   3   8 630.187  17.897   7
  -3  -1   8 598.664  17.870   8
  -3  -1   8 600.123  17.477   3
   1  -3   8 600.622  17.877   7
   1  -3   8 611.321  18.317   8
  -3  -1   8 595.394  17.724   7
  -1   3   8 612.899  17.697   3
   3   1   8 624.383  17.240   3
   3  -1  -8 612.897  13.322   4
  -3   1  -8 615.016  13.599   1
   1  -3   8 607.225  17.962   5
  -1  -3  -8 599.345  12.730   4
  -3  -1   8 603.838  17.981   5
   1  -3   8 625.878  17.570   3
  -1  -3  -8 618.308  13.016   1
  -1   3   8 635.681  17.851   5
  -3   1   8 620.452  18.517   8
  -1  -3   8 612.409  17.749   5
  -3   1   8 616.226  17.440   3
  -3  -1  -8 595.135  13.246   4
   1   3   8 623.366  17.302   7
   3  -1   8 610.762  18.509   8
   3   1  -8 612.397  13.741   4
  -1   3  -8 605.457  13.802   1
  -1  -3   8 627.781  17.780   3
  -1  -3   8 617.076  17.828   8
   3  -1   8 608.161  16.991   3
   1   3   8 595.134  17.314   5
   3  -1   8 621.056  17.992   5
  -3  -1  -8 615.429  13.266   1
   1   3   8 610.192  18.342   8
  -3   1   8 620.930  18.277   7
   1  -3  -8 626.072  13.028   1
   1  -3  -8 609.471  12.772   4
  -3   1   8 583.185  18.058   5
   1  -3  -8 621.356  12.786   4
   1   3   8 595.265  17.489   3
   3   1  -8 604.453  13.481   1
  -1  -3   8 612.616  17.659   7
  -3  -2   8 -1.2524  3.7503   8
  -2   3   8 4.38155 3.79546   5
  -3   2  -8 -1.5477  2.4225   1
  -2   3   8 0.42743 3.70342   3
   2  -3   8 2.20263 4.12788   8
  -2   3   8 2.39687 3.91422   8
  -3  -2   8 -1.6739  3.4062   7
   3   2   8 0.08051 3.70555   3
   2  -3   8 0.87468 4.06944   5
   2   3  -8 -2.8621  2.5193   1
   2   3  -8 1.28640 2.69597   1
   2  -3   8 -5.4061  3.3182   3
   3   2   8 -0.2469  3.8477   8
   3   2   8 -0.2172  3.4185   5
   3  -2  -8 -0.0045  2.3018   1
  -2  -3  -8 0.84947 1.74493   4
  -2  -3  -8 -2.3211  2.0580   1
  -3  -2   8 -1.8483  4.0699   5
  -3  -2   8 -1.7304  3.8990   3
   3   2   8 6.04464 4.10254   7
   3  -2  -8 3.06333 1.93282   4
  -2   3   8 -0.9303  3.8330   7
  -2  -3   8 2.06858 3.46168   7
  -3   2   8 -2.3253  3.7912   3
   2   3   8 -2.2240  3.4013   7
   3  -2   8 -0.0051  3.4650   3
   2   3   8 -0.6209  4.0362   8
   2  -3  -8 -0.8470  1.8265   4
   2   3   8 4.26309 4.12144   3
  -3   2   8 -0.0987  4.0465   7
  -2  -3   8 0.38071 3.84168   8
  -3  -2  -8 -1.0592  2.2339   1
   2   3   8 -5.7106  3.4038   5
  -2  -3   8 4.19828 4.11610   3
   2  -3  -8 -0.3483  2.2089   1
  -3   2   8 -0.6019  4.1313   8
  -3  -2  -8 2.07418 1.84023   4
   3  -2   8 1.83936 4.32755   8
  -2  -3   8 8.18040 4.29616   5
  -2   3  -8 3.28790 2.43954   1
   3   2  -8 7.20253 2.45675   1
  -3   2   8 -2.5831  4.0914   5
  -3   3   8 298.976  12.196   5
  -3  -3   8 319.755  12.360   5
   3  -3   8 299.974  12.818   8
   3  -3   8 311.613  11.570   3
   3   3   8 311.574  12.067   3
  -3  -3   8 340.120  12.278   7
  -3   3  -8 317.549   9.380   1
   3  -3  -8 325.778   8.661   4
   3   3   8 311.667  11.920   5
  -3  -3  -8 307.816   8.727   1
  -3   3   8 286.658  11.574   3
  -3  -3  -8 307.549   8.585   4
  -3  -3   8 313.535  12.036   3
   3  -3  -8 310.343   8.727   1
   3   3  -8 312.670   9.315   1
  -3  -3   8 280.382  11.448   8
  -3   3   8 302.519  12.454   7
   3   3   8 332.698  11.943   7
   3   3   8 314.478  12.062   8
  -4   0   8 1245.24   30.56   8
   0   4   8 1281.81   29.52   7
   0   4   8 1258.20   30.79   8
   0  -4  -8 1232.09   25.61   4
   0  -4  -8 1292.77   25.36   1
  -4   0   8 1268.25   29.61   3
  -4   0   8 1270.96   30.64   5
   0  -4   8 1291.98   29.92   3
   0   4   8 1258.20   30.12   3
  -4   0  -8 1220.36   25.67   1
   0  -4   8 1322.95   30.41   7
  -4   0   8 1244.54   30.33   7
   0  -4  -8 1241.98   25.58   4
   4   0  -8 1277.56   25.79   1
   0  -4   8 1251.91   29.92   5
   0   4   8 1270.70   29.39   5
   0  -4   8 1271.75   30.45   8
  -4   0  -8 1274.33   26.29   4
   4   0   8 1233.36   30.68   8
   0   4  -8 1280.75   26.20   1
   4   0  -8 1272.27   26.31   4
   4   0   8 1256.72   28.80   3
  -1   4   8 84.8010  7.1371   7
  -4  -1   8 99.5272  7.4222   3
  -4  -1   8 90.8738  7.4642   8
  -4   1  -8 77.6414  4.8182   1
  -1   4   8 86.7492  7.8465   8
  -1   4   8 96.9569  7.1627   5
  -4  -1   8 94.1715  8.0315   5
   4  -1  -8 82.0680  4.4584   4
   1  -4   8 83.6835  7.4433   5
  -1   4   8 83.2222  7.4885   3
   4  -1  -8 83.6252  4.8298   1
   1  -4   8 79.7900  7.2464   3
   1   4  -8 90.5190  5.0438   1
  -1  -4  -8 86.4292  4.5689   1
   4   1   8 91.3079  7.0722   3
  -1  -4  -8 85.4406  4.1742   4
   4   1   8 67.7407  6.9849   8
  -4  -1   8 99.1026  8.1807   7
   1  -4   8 97.0197  7.9605   8
  -4  -1  -8 81.7629  4.3928   4
  -1  -4   8 83.8922  7.2762   8
   4  -1   8 92.5786  6.5566   3
   1   4   8 78.0770  7.3323   3
  -4   1   8 102.113   7.510   7
   1  -4  -8 83.6513  4.1372   4
   4   1  -8 85.8343  4.5875   4
   1   4   8 94.4595  7.8866   8
   1  -4  -8 77.9446  4.0300   4
  -1  -4   8 88.9593  7.5485   3
  -4   1   8 85.6724  7.7848   5
  -1   4  -8 91.2434  5.2620   1
   4   1  -8 95.7879  4.9721   1
   1   4   8 79.6394  6.9143   5
  -4   1   8 89.3410  7.3206   3
  -4   1   8 82.3903  7.8117   8
  -4  -1  -8 85.7362  4.8865   1
   1   4   8 88.4588  7.2167   7
   1  -4  -8 85.9326  4.6314   1
  -1  -4   8 78.3855  7.3229   5
   4  -1   8 91.5323  7.9642   8
  -1  -4   8 79.7245  7.1219   7
  -4  -2   8 1740.39   39.27   3
   4   2   8 1749.85   38.69   3
  -2  -4  -8 1820.77   35.12   1
   2  -4   8 1759.99   40.59   8
   2  -4   8 1805.61   39.83   5
  -4  -2   8 1790.19   39.73   7
   4  -2  -8 1802.17   35.30   1
   4  -2  -8 1799.98   36.08   4
   4   2   8 1734.88   39.84   8
  -4  -2   8 1805.05   40.15   5
  -2   4   8 1828.15   39.50   5
  -2   4   8 1747.53   39.53   7
   2   4  -8 1786.96   35.83   1
  -2   4   8 1773.76   39.56   3
  -4  -2   8 1787.77   39.56   8
   2  -4   8 1818.07   38.79   3
  -2  -4  -8 1791.25   35.81   4
  -4   2  -8 1784.10   35.76   1
   4  -2   8 1785.60   40.91   8
  -4   2   8 1793.12   39.08   3
   2   4   8 1851.59   40.51   8
   2   4   8 1807.61   39.74   3
  -4  -2  -8 1782.23   36.00   4
   2  -4  -8 1817.08   35.76   4
  -4   2   8 1799.42   40.43   7
  -2  -4   8 1761.61   39.30   5
   4  -2   8 1808.39   37.90   3
   4   2  -8 1773.35   35.50   1
  -2  -4   8 1757.50   39.64   3
  -4  -2  -8 1811.76   35.39   1
   2   4   8 1779.74   38.58   7
   4   2  -8 1829.26   36.72   4
  -2   4  -8 1747.50   35.81   1
   2   4   8 1822.07   38.82   5
  -2  -4   8 1783.63   39.36   7
  -4   2   8 1838.36   40.52   5
   2  -4  -8 1773.95   35.08   1
  -2  -4   8 1796.19   39.32   8
   3  -4   8 132.846   9.151   8
  -3  -4  -8 132.258   5.889   4
   4  -3  -8 140.216   5.897   4
  -4  -3   8 138.897   8.487   7
   3   4  -8 132.309   6.513   1
  -3  -4  -8 135.530   6.206   1
  -4   3  -8 128.303   6.377   1
  -4  -3   8 129.413   8.639   5
   3  -4   8 130.922   7.855   3
  -3   4   8 131.264   8.761   7
  -4  -3   8 132.776   8.053   8
   4  -3  -8 144.044   6.159   1
   4   3   8 136.296   8.619   8
   3   4  -8 136.868   6.557   1
  -3   4   8 123.431   8.481   3
   4   3   8 151.444   8.680   3
  -3   4   8 152.001   8.828   5
  -4  -3   8 143.504   8.814   3
   4  -3   8 122.967   9.033   8
   3   4   8 147.613   8.247   5
  -4   3   8 130.093   8.265   3
  -3   4  -8 138.690   6.732   1
  -3  -4   8 128.164   8.105   7
  -3  -4   8 150.774   8.164   8
   3  -4  -8 129.913   5.805   4
  -3  -4   8 144.644   8.594   5
  -4  -3  -8 132.380   6.055   1
   3  -4  -8 137.497   6.233   1
   4   3  -8 141.398   6.583   1
   3   4   8 139.350   8.187   7
  -4  -3  -8 130.913   5.927   4
   4  -3   8 135.603   7.606   3
  -4   3   8 144.508   9.261   5
  -4   3   8 119.042   8.931   7
   3   4   8 129.628   8.563   8
  -3  -4   8 138.688   8.879   3
   3   4   8 123.209   8.572   3
   4  -4   8 4557.40   93.11   8
   4   4  -8 4569.06   87.42   1
   4  -4  -8 4693.59   89.18   4
  -4   4   8 4569.84   91.08   5
  -4  -4   8 4677.55   90.35   7
  -4  -4   8 4556.08   90.35   3
  -4   4   8 4686.48   90.02   3
   4   4   8 4713.43   90.24   3
  -4   4   8 4704.20   91.91   7
  -4  -4   8 4631.46   90.57   5
   4  -4  -8 4711.56   86.86   1
  -4  -4  -8 4668.80   86.88   1
   4  -4   8 4648.45   88.31   3
   4   4   8 4766.75   91.81   8
   4   4  -8 4675.93   87.61   1
  -4  -4  -8 4593.79   89.01   4
  -4  -4   8 4627.80   90.34   8
  -4   4  -8 4620.93   87.47   1
   0   5   8 2.13096 4.57127   8
   0  -5   8 -4.0864  3.8916   5
   0   5   8 2.49777 3.76264   7
  -5   0  -8 0.52714 2.64270   4
   5   0   8 3.80788 3.89044   3
   0  -5   8 -1.1598  3.8750   8
   0  -5   8 4.51773 4.37646   3
   5   0  -8 -2.7106  2.5435   4
   5   0  -8 -1.5776  2.8468   1
   0   5   8 2.91706 4.04478   3
   0  -5  -8 -2.0494  2.3188   4
  -5   0   8 4.66924 4.43954   7
   0   5   8 -2.3940  3.6785   5
   0  -5  -8 -3.8615  2.6407   1
  -5   0   8 -1.6639  4.2895   5
   0   5  -8 1.12066 3.06493   1
  -5   0  -8 1.30854 2.85878   1
  -5   0   8 3.32477 4.06300   3
   5   0   8 2.09277 4.41517   8
   5  -1  -8 426.099  11.682   1
  -1  -5  -8 419.410  11.440   4
  -1   5   8 420.618  14.336   7
  -5  -1   8 430.688  14.953   8
   5  -1  -8 442.834  11.933   4
  -5   1  -8 449.213  12.097   1
  -5  -1   8 438.586  14.576   3
   1  -5   8 454.415  15.041   3
   1  -5   8 411.782  14.398   5
  -5  -1   8 447.288  15.674   5
  -1   5   8 409.590  14.844   3
  -1   5   8 413.642  14.151   5
  -1  -5  -8 429.128  11.455   1
   1   5  -8 421.402  11.961   1
   1  -5   8 429.165  15.020   8
  -5  -1   8 435.145  15.179   7
   5   1   8 433.215  13.791   3
   5   1   8 430.179  14.984   8
  -5   1  -8 429.906  12.047   4
  -5   1   8 417.064  15.468   7
   1   5   8 413.146  15.227   8
   5  -1   8 415.705  13.218   3
  -5  -1  -8 421.443  11.780   4
   1   5   8 451.174  15.493   3
  -5   1   8 432.891  15.728   5
  -1  -5   8 432.836  14.584   5
   1   5   8 439.735  13.982   5
  -1   5  -8 424.166  12.127   1
   1  -5  -8 429.934  11.414   4
   1  -5  -8 404.785  11.142   4
   5  -1   8 405.742  15.189   8
  -1  -5   8 459.185  15.111   3
  -5   1   8 406.824  14.161   3
  -5  -1  -8 415.615  11.602   1
   1  -5  -8 416.392  11.437   1
   5   1  -8 428.007  12.086   4
   5   1  -8 448.812  11.762   1
   1   5   8 428.631  13.910   7
  -1  -5   8 419.178  14.482   8
  -1  -5   8 418.690  14.564   7
  -2   5   8 44.7573  5.9315   5
   2  -5   8 43.2761  6.4386   8
  -2   5   8 32.5392  5.3703   7
   5  -2  -8 36.5215  4.1511   1
  -5  -2   8 43.8716  6.2624   7
   2   5  -8 35.4704  4.5399   1
   2  -5   8 51.3169  6.1849   3
   5  -2  -8 43.5693  4.2125   4
  -5   2  -8 33.6009  4.4222   1
  -2  -5  -8 37.5039  4.2838   1
  -5  -2   8 49.7182  6.2073   8
  -5  -2   8 51.7615  6.3711   3
  -5  -2   8 42.3576  6.0153   5
   5   2   8 45.0419  6.0024   3
   5   2   8 54.1693  6.6233   8
  -2  -5  -8 35.5620  3.8653   4
  -2   5   8 48.8354  6.5843   3
   5  -2   8 41.8325  6.6112   8
   5   2  -8 36.7911  4.3556   4
  -2  -5   8 42.7594  5.7937   8
  -2  -5   8 39.9057  6.2877   3
  -5  -2  -8 36.9534  4.0455   4
  -2   5  -8 41.2364  4.5914   1
  -2  -5   8 51.1718  6.2020   5
   2   5   8 43.7278  6.5689   3
   2   5   8 47.1356  5.6138   5
   5   2  -8 33.7147  4.2601   1
  -2  -5   8 44.3422  6.0096   7
  -5   2   8 52.1876  7.0789   5
   2  -5  -8 35.5715  3.8619   4
  -5   2   8 43.6992  6.4717   7
   2   5   8 35.6764  5.8918   8
  -5   2   8 46.6614  5.9591   3
   2  -5  -8 40.5333  4.3187   1
   2   5   8 44.5076  5.5139   7
  -5  -2  -8 36.1810  4.2812   1
  -5   3  -8 348.947  11.099   1
   5   3   8 351.585  13.070   3
  -3   5   8 355.607  13.858   7
   3  -5   8 343.486  12.764   3
  -3   5   8 352.190  13.338   5
   5   3   8 365.832  13.536   8
   5  -3  -8 365.289  10.969   1
  -3  -5  -8 356.369  10.833   4
   3   5  -8 355.309  11.264   1
   3  -5   8 341.186  14.314   8
  -5  -3   8 352.178  13.072   8
  -5  -3   8 356.517  13.902   5
  -3   5   8 358.159  13.734   3
  -5  -3   8 361.740  13.583   3
  -5  -3   8 366.879  13.559   7
  -3  -5  -8 349.834  10.719   1
   5  -3  -8 347.986  10.810   4
   5   3  -8 365.932  11.323   1
  -5  -3  -8 330.536  10.573   1
  -5   3   8 365.358  13.338   3
  -5  -3  -8 362.100  10.990   4
  -3  -5   8 376.024  13.360   7
  -3  -5   8 353.699  13.234   5
  -5   3   8 355.034  14.578   7
   3   5   8 360.835  12.590   5
   3   5   8 380.944  12.789   7
  -3  -5   8 348.289  13.908   3
  -3  -5   8 348.069  12.596   8
   5   3  -8 363.589  11.385   4
   3  -5  -8 339.253  10.549   4
  -5   3   8 363.216  14.408   5
   5  -3   8 335.723  14.039   8
  -3   5  -8 344.001  11.235   1
   3   5   8 386.202  14.319   3
   3  -5  -8 356.415  10.711   1
   3   5   8 361.940  13.715   8
   4  -5   8 203.581   9.895   3
   4  -5   8 211.192  11.333   8
   5  -4  -8 224.951   8.618   4
  -4  -5  -8 198.151   8.387   1
  -4  -5  -8 222.491   8.507   4
   5   4   8 210.109  10.318   8
  -5  -4   8 210.305  10.661   5
  -4   5   8 200.795  11.220   7
   5  -4  -8 206.216   8.401   1
  -5  -4   8 229.289  11.229   3
  -4   5   8 202.348  10.561   3
  -5  -4   8 224.112  10.544   7
  -4   5   8 215.825  11.075   5
  -5   4  -8 217.703   8.863   1
   5   4   8 226.008  11.353   3
   4   5  -8 206.173   8.958   1
  -5   4   8 222.351  11.390   7
  -4   5  -8 206.680   8.993   1
   4  -5  -8 231.104   8.853   1
   4   5   8 198.883  10.554   8
   5   4  -8 211.843   8.937   1
  -4  -5   8 205.266  11.046   3
  -5   4   8 206.171  11.263   5
  -4  -5   8 207.959  10.148   7
  -5   4   8 222.646  10.637   3
   4   5   8 186.197  10.817   3
  -4  -5   8 215.980  10.475   5
  -5  -4  -8 204.213   8.480   1
   5  -4   8 190.553  11.345   8
  -5  -4  -8 183.849   8.240   4
   4  -5  -8 221.183   8.385   4
   5   5  -8 602.053  16.696   1
  -5   5   8 640.913  19.973   5
   5  -5  -8 627.553  16.543   1
   5   5  -8 634.080  15.572   9
   5   5   8 643.504  18.880   8
  -5  -5  -8 577.402  16.308   1
   5  -5   8 593.242  20.409   8
  -5  -5  -8 603.308  16.575   4
  -5  -5   8 623.303  18.842   5
  -5   5   8 579.319  19.963   7
  -5  -5   8 593.275  19.369   3
  -5   5  -8 628.791  15.321   9
  -5   5   8 619.453  18.899   3
  -5  -5   8 587.943  18.143   7
   5   5  -8 604.407  16.790   1
  -5   5  -8 595.437  16.734   1
  -6   0   8 2672.47   57.04   7
   0   6   8 2663.08   54.76   7
   6   0  -8 2694.77   53.99   4
   0   6   8 2695.36   56.47   3
   0  -6  -8 2598.24   53.26   4
   0  -6  -8 2739.37   52.27   1
  -6   0  -8 2781.66   52.75   1
  -6   0  -8 2652.47   53.86   4
   6   0   8 2675.62   57.04   8
   0   6  -8 2743.23   53.11   1
   0  -6   8 2691.09   55.63   5
  -6   0   8 2593.72   57.04   5
   6   0  -8 2703.00   52.48   1
   0  -6   8 2595.28   55.86   3
   0   6   8 2723.95   54.49   5
   0  -6   8 2595.99   56.09   8
  -6   0   8 2655.17   54.94   3
  -1   6   8 -5.0564  3.8113   3
  -6  -1   8 2.18788 4.16476   3
  -1   6   8 5.57025 4.32492   7
  -6   1  -8 6.47681 3.36734   4
  -1  -6  -8 2.13405 3.50604   1
  -6  -1   8 1.81392 4.52952   5
   1  -6   8 -5.8709  4.1427   3
   1   6  -8 -1.0962  3.4999   1
   6  -1  -8 8.23299 3.49133   1
  -1   6   8 6.44791 4.48913   5
  -6  -1   8 2.98282 4.76586   7
   6   1   8 2.48991 4.54542   8
  -6   1  -8 4.13283 3.55121   1
  -1  -6  -8 4.67940 2.97553   4
   1  -6   8 6.97697 4.87673   8
   6  -1  -8 6.80085 3.41437   4
   1   6   8 6.09625 4.97789   8
   1   6   8 5.56750 4.45562   7
  -6   1   8 -0.5257  4.3925   7
   1   6   8 3.25266 4.48651   3
   1  -6  -8 8.91423 3.18902   4
   6   1  -8 5.82791 3.42367   4
  -6   1   8 3.54822 4.25373   3
  -1  -6   8 2.07060 4.37230   8
   6  -1   8 3.20039 4.77091   8
  -1  -6   8 5.36856 4.31552   5
  -1   6  -8 3.70161 3.71307   1
   6   1  -8 -1.9604  3.4738   1
  -1  -6   8 1.79125 4.69750   3
   1  -6  -8 1.11571 2.87324   4
  -6  -1  -8 -1.2005  3.1796   4
  -6  -1  -8 7.56259 3.50746   1
   1  -6  -8 -1.6725  3.3343   1
  -6  -2   8 1683.72   38.37   3
  -2   6   8 1710.97   38.65   7
  -6  -2   8 1662.91   39.60   5
   2   6  -8 1727.59   36.18   1
   2  -6   8 1726.17   40.06   8
   6   2   8 1734.41   39.19   8
  -6  -2   8 1740.01   39.26   7
   6   2   8 1679.91   37.42   3
  -2  -6  -8 1682.95   35.32   1
  -2   6   8 1783.87   38.43   5
  -2  -6  -8 1743.63   36.23   4
  -6   2  -8 1652.21   35.82   1
   6  -2  -8 1753.53   36.54   4
   2  -6   8 1695.30   38.18   3
  -2   6   8 1687.83   39.27   3
   6  -2  -8 1738.12   35.67   1
   2  -6  -8 1693.57   35.36   1
  -6  -2  -8 1754.51   36.48   4
   6  -2   8 1628.60   39.89   8
  -6   2   8 1680.76   40.26   7
  -2  -6   8 1675.61   38.07   8
  -6  -2  -8 1699.13   35.67   1
  -2   6  -8 1742.57   36.21   1
  -2  -6   8 1684.70   39.44   3
  -6   2   8 1691.98   37.88   3
  -2  -6   8 1740.31   38.53   7
  -2  -6   8 1707.99   38.17   5
   2   6   8 1732.97   39.60   8
   6   2  -8 1702.68   35.66   1
   2  -6  -8 1714.91   36.06   4
   2   6   8 1714.30   39.91   3
   6   2  -8 1713.62   36.84   4
   6  -3  -8 483.990  13.749   1
   6  -3  -8 496.110  13.979   4
  -3  -6  -8 456.144  13.804   4
   3   6  -8 467.811  14.267   1
   3  -6   8 480.451  17.149   8
  -6  -3   8 489.391  16.328   3
  -6  -3   8 481.284  16.493   5
  -3   6   8 467.741  16.544   3
  -3   6   8 488.994  16.017   5
  -3  -6  -8 480.488  13.701   1
   3  -6   8 490.741  15.680   3
  -3   6   8 478.651  16.507   7
  -6  -3   8 459.995  16.001   7
   6   3   8 469.156  15.898   3
   6   3   8 478.484  16.045   8
  -6   3  -8 463.568  13.990   1
  -6  -3  -8 482.964  13.784   1
  -6   3   8 478.423  15.708   3
  -3  -6   8 465.426  15.576   7
   3  -6  -8 467.294  13.731   1
  -6  -3  -8 506.394  14.049   4
  -6   3   8 467.434  17.525   7
  -3   6  -8 493.403  14.486   1
   3  -6  -8 477.814  13.814   4
  -3  -6   8 466.844  16.952   3
   3   6   8 491.270  16.704   8
   6   3  -8 450.273  13.793   1
  -3  -6   8 463.443  15.417   5
   6  -3   8 488.331  17.382   8
   4   6  -8 2645.33   51.17   9
  -6  -4   8 2677.91   55.99   3
   6   4   8 2678.68   55.86   8
  -4  -6  -8 2669.58   52.67   1
   4  -6   8 2588.26   58.24   8
  -4   6   8 2593.86   56.55   7
   6  -4  -8 2644.95   52.74   1
  -6  -4   8 2647.24   55.37   7
  -6  -4   8 2632.53   55.94   5
   4   6  -8 2637.10   53.22   1
  -4   6   8 2619.11   55.77   3
  -6   4  -8 2589.09   50.80   9
  -4   6   8 2708.85   56.11   5
  -6   4  -8 2658.07   53.29   1
  -4  -6  -8 2674.93   54.20   4
  -6   4   8 2529.35   57.49   7
   6   4  -8 2549.08   53.04   1
  -4   6  -8 2564.51   53.09   1
  -4  -6   8 2729.47   55.38   5
  -6  -4  -8 2646.68   54.16   4
  -4  -6   8 2619.22   56.55   3
  -6   4   8 2678.08   54.95   3
  -4  -6   8 2625.21   54.73   7
   6  -4   8 2571.51   58.29   8
   6   4  -8 2597.26   51.08   9
  -4   6  -8 2619.78   51.04   9
  -6  -4  -8 2691.33   52.75   1
   4  -6  -8 2641.09   52.73   1
   4   6   8 2660.64   55.99   8
  -5  -6  -8 25.9589  4.7786   1
   5   6  -8 29.0447  4.6637   9
  -6   5  -8 27.7246  5.1655   1
  -5   6   8 24.8564  6.5406   7
  -6  -5   8 23.4776  5.6316   7
   5   6  -8 30.7265  5.1307   1
  -5   6   8 29.3946  6.0666   3
  -6  -5   8 21.5026  5.7075   5
   6   5   8 19.8498  5.4255   8
  -5  -6  -8 33.8447  4.9948   4
   5  -6   8 17.6678  6.2699   8
  -6  -5   8 25.9027  6.2756   3
  -5   6   8 26.7459  6.1713   5
   6  -5  -8 28.0533  5.1340   1
  -6   5  -8 23.0435  4.0831   9
   5  -6  -8 33.5754  5.2172   1
   6   5  -8 23.6311  5.2599   1
  -5   6  -8 17.3478  4.7503   1
  -5  -6   8 30.0209  6.2603   5
  -6  -5  -8 18.2754  4.8917   1
  -6   5   8 38.0450  6.3035   3
  -6   5   8 28.8520  6.9413   7
   6  -5   8 19.9548  6.8596   8
   5   6   8 27.0770  6.0031   8
   6   5  -8 18.6771  5.0798   1
  -5  -6   8 22.8190  6.3131   3
  -5   6  -8 17.8297  4.0866   9
  -5  -6   8 18.9582  5.4090   7
   6   5  -8 34.5268  4.7306   9
  -6  -5  -8 28.1836  5.1087   4
   5   6   8 32.4435  6.2124   6
  -6  -6  -8 656.043  16.942   9
   6  -6  -8 647.108  17.003   9
  -6  -6   8 656.007  19.818   5
  -6  -6   8 618.491  20.815   3
  -6   6   8 699.761  20.825   3
   6   6  -8 637.072  18.774   1
   6   6   8 683.797  21.040   6
  -6   6  -8 650.936  17.235   9
  -6  -6  -8 669.495  18.628   1
  -6   6  -8 654.364  18.943   1
  -6  -6  -8 652.205  18.782   4
  -6   6   8 665.880  22.294   7
   6   6  -8 671.916  17.545   9
   6  -6  -8 617.666  17.983   1
   6  -6   8 652.978  23.063   8
   0   7   8 4.32974 4.83966   3
   0  -7   8 0.91442 4.61743   5
   0  -7   8 -1.2972  4.3574   8
   0  -7  -8 -5.6192  3.0097   4
   0  -7  -8 -3.3626  3.5415   1
   0   7  -8 3.32780 3.84203   1
  -7   0  -8 2.59054 3.43355   4
   7   0   8 -1.4216  4.5332   8
  -7   0   8 -6.6237  4.6845   7
  -7   0  -8 5.71613 3.80041   1
   0  -7   8 -0.6731  4.9103   3
   0   7  -8 2.98454 3.27985   9
   7   0  -8 -1.7910  3.3408   1
  -7   0   8 -1.3063  4.1825   3
   1   7  -8 410.716  11.945   9
   1  -7   8 385.453  15.070   8
  -1  -7  -8 409.850  12.799   1
   1   7  -8 433.874  13.283   1
  -7   1  -8 388.964  13.049   4
  -1   7   8 426.847  16.356   3
  -7  -1   8 401.316  15.266   7
  -1   7   8 431.501  14.800   7
  -1  -7  -8 424.702  12.846   4
   7   1   8 392.036  15.062   8
   7  -1  -8 403.535  12.710   1
  -7  -1   8 418.724  14.635   3
  -7   1  -8 404.367  13.041   1
   1  -7   8 449.676  16.147   3
  -7   1   8 415.544  14.580   3
  -1  -7   8 399.401  15.921   3
   7   1  -8 405.562  12.703   1
  -7  -1  -8 422.876  13.210   4
  -1   7  -8 418.653  13.250   1
  -7  -1  -8 414.813  13.078   1
  -1   7  -8 426.897  11.989   9
  -1  -7   8 400.173  14.682   8
   1  -7  -8 424.917  12.700   4
   1  -7  -8 433.232  13.018   4
  -7   1   8 391.327  15.682   7
  -1  -7   8 393.161  14.320   5
   7  -1   8 378.647  15.427   8
   1  -7  -8 410.657  12.762   1
   2   7  -8 176.320   8.718   1
  -2  -7  -8 174.975   8.279   4
  -2   7   8 181.070  10.991   3
  -7  -2   8 182.270   9.963   3
   7   2   8 182.930  10.266   8
  -7  -2   8 158.724  10.634   5
  -7   2  -8 180.260   8.804   1
   2  -7   8 173.099  10.032   3
   2  -7   8 168.958  10.497   8
   7  -2  -8 174.968   8.396   1
  -2   7   8 156.411   9.489   7
  -7   2  -8 180.805   8.752   4
  -2  -7  -8 155.444   8.071   1
   2   7  -8 167.803   7.424   9
  -7  -2   8 158.858   9.597   7
   2  -7  -8 157.958   8.180   1
   7  -2   8 171.625  10.448   8
  -2   7  -8 182.810   9.159   1
  -7   2   8 158.790  10.922   7
  -7  -2  -8 163.014   8.321   4
  -7   2   8 177.496   9.921   3
  -2  -7   8 198.240  10.278   5
  -2  -7   8 179.136  11.134   3
  -2   7  -8 180.359   7.626   9
  -7  -2  -8 166.105   8.129   1
   7   2  -8 168.992   8.127   1
   7  -3  -8 564.872  15.933   1
  -3   7   8 541.682  18.085   7
  -7  -3   8 568.931  17.868   3
  -7  -3   8 538.186  17.888   7
  -7   3  -8 526.480  15.957   1
  -7   3  -8 538.211  14.360   9
  -3  -7  -8 550.548  15.748   1
  -3  -7  -8 552.794  15.931   4
   3   7  -8 521.905  16.012   1
  -3   7   8 569.436  18.843   3
   7   3   8 561.675  17.973   8
   3   7  -8 573.130  14.881   9
   3   7  -8 573.015  14.889   9
  -7  -3   8 527.851  18.449   5
   3  -7   8 532.029  17.547   3
   3  -7   8 553.129  19.352   8
  -3   7   8 554.126  17.425   5
  -3   7  -8 544.687  16.293   1
  -7  -3  -8 529.890  15.838   4
   7  -3   8 531.235  19.320   8
  -3  -7   8 540.377  19.186   3
   3  -7  -8 530.538  15.681   1
   7   3  -8 527.332  15.866   1
  -7   3   8 558.366  17.264   3
   3   7   8 553.816  18.366   8
  -7  -3  -8 565.664  15.927   1
  -3  -7   8 582.135  17.725   7
   7   3  -8 548.097  14.797   9
  -3  -7   8 580.086  17.559   5
  -3   7  -8 540.081  14.827   9
  -7   3   8 523.176  19.607   7
   4  -7   8 26.4718  7.0477   8
  -7   4  -8 29.0260  5.6872   1
  -7  -4   8 27.3078  5.8144   7
  -4   7   8 23.9190  6.2399   3
   4   7  -8 22.8071  5.3479   1
  -7  -4   8 21.6703  6.0229   5
  -7   4  -8 24.1885  4.4086   9
  -4   7   8 29.9166  6.1001   5
  -4  -7  -8 25.4574  5.0739   1
   7   4   8 22.0711  5.5607   8
  -4  -7  -8 19.8818  4.6637   4
  -7  -4   8 23.7452  6.1739   3
   7  -4  -8 21.7717  5.0491   1
   4   7  -8 26.3264  4.5914   9
  -4   7   8 13.4602  5.7665   7
  -7  -4  -8 23.2786  4.7527   4
   7   4  -8 12.3869  4.2612   9
   7  -4   8 13.4709  6.2687   8
  -4   7  -8 26.7369  5.5005   1
   4   7   8 31.9580  5.9547   8
  -7   4   8 4.90172 5.66564   7
   7   4  -8 27.3353  5.0429   1
  -7  -4  -8 18.2222  4.9771   1
  -7   4   8 24.0736  5.7676   3
  -4  -7   8 15.4253  5.0308   5
  -4   7  -8 18.5907  4.4310   9
  -4  -7   8 26.5910  6.8250   3
   4  -7  -8 16.4318  4.9225   1
  -7  -5   8 464.419  16.392   5
  -7  -5   8 443.719  16.521   3
  -5  -7  -8 459.491  12.940   9
  -7  -5   8 441.830  15.627   7
   5   7  -8 449.355  13.650   9
  -7   5  -8 431.274  14.641   1
  -5  -7  -8 455.969  14.811   4
   5   7  -8 406.993  14.429   1
   7  -5  -8 423.089  14.040   1
  -5   7   8 456.326  16.655   3
  -5   7   8 432.556  17.081   7
   7  -5  -8 438.803  13.128   9
  -5   7   8 420.006  16.093   5
  -7   5  -8 433.654  13.311   9
   5  -7   8 422.972  18.237   8
  -5  -7  -8 438.176  14.431   1
   7   5  -8 429.778  13.446   9
  -5   7  -8 431.885  13.330   9
  -5   7  -8 414.818  14.653   1
  -7  -5  -8 422.594  13.013   9
  -5  -7   8 414.838  17.067   3
  -7  -5  -8 449.134  14.739   4
   5  -7  -8 412.263  12.823   9
  -7  -5  -8 410.924  14.251   1
   7   5  -8 419.376  14.549   1
  -7   5   8 448.607  18.584   7
   7  -5   8 426.543  18.241   8
  -7   5   8 442.623  15.885   3
   5  -7  -8 421.855  14.071   1
   7   5  -8 407.162  14.486   1
  -6  -7  -8 -3.3612  4.3508   1
  -7  -6   8 2.74229 5.55950   3
  -7   6  -8 3.59758 3.98593   9
  -6  -7  -8 4.52836 4.05663   9
  -7   6  -8 -2.0060  4.6693   1
  -7  -6   8 -1.1193  5.2766   5
   7   6   8 -5.2965  4.9690   6
   7  -6  -8 5.57849 4.07536   9
  -6   7   8 -3.2867  5.5406   3
   6   7  -8 0.63172 3.77511   9
  -6   7   8 -1.4343  5.8701   7
   7  -6  -8 0.38805 4.66470   1
   6   7  -8 0.09542 4.41934   1
   6  -7   8 3.18598 6.61498   8
   6   7   8 -1.2454  5.1145   6
   6  -7  -8 5.61387 4.02924   9
  -6  -7   8 -5.6434  5.1583   3
   7  -6   8 -3.7726  5.5518   8
  -7  -6  -8 -0.4515  3.7652   9
   6  -7  -8 1.19389 4.73067   1
   7   6  -8 1.67367 4.02775   9
  -7   6   8 0.88796 5.06987   3
  -7  -6  -8 -1.1886  4.4569   1
   7   6  -8 6.28690 4.75978   1
  -7   6   8 -12.660   5.813   7
  -6   7  -8 3.18864 4.76728   1
  -6   7  -8 0.36594 3.65619   9
   7   7  -8 28.6263  5.8207   1
  -7  -7  -8 21.3368  5.7196   1
  -7   7   8 17.1890  7.5625   7
   7  -7  -8 31.9949  5.3774   9
   7   7  -8 23.7039  5.4237   9
   7   7   8 44.8778  7.6892   6
  -7  -7   8 24.0463  6.9753   3
  -7   7  -8 29.2605  5.2794   9
  -7   7  -8 22.8883  6.1513   1
   7  -7  -8 16.2328  5.4446   1
  -7  -7  -8 29.7015  5.3000   9
   7  -7   8 23.1054  7.7429   8
   0  -8  -8 3000.58   60.98   4
  -8   0   8 2947.53   60.87   3
   0   8  -8 3020.50   58.20   9
  -8   0   8 2951.55   63.74   7
   8   0   8 3034.58   63.78   8
   8   0  -8 2958.15   57.73   9
   8   0  -8 2965.24   59.70   1
  -8   0  -8 2989.49   57.64   9
   0  -8  -8 2915.24   59.55   1
  -8   0  -8 2958.98   61.53   4
   0   8  -8 3005.42   60.43   1
   0  -8   8 3046.42   63.91   3
  -8   0  -8 2970.34   59.94   1
  -1  -8  -8 45.0081  5.6360   1
   1  -8   8 56.2611  7.9351   3
   1   8  -8 57.9587  5.8561   9
  -8  -1   8 52.6626  7.5137   7
  -1  -8  -8 46.2156  5.6853   4
   8  -1  -8 61.3290  6.1257   1
  -8   1  -8 45.4706  5.9326   1
   8   1   8 59.6911  7.5632   8
  -8  -1   8 55.4732  6.8011   3
   8  -1  -8 52.4943  5.3468   9
  -8   1  -8 53.0252  5.4633   9
   1  -8   8 53.5256  7.5192   8
  -8   1  -8 67.7328  6.5766   4
   1   8  -8 48.2919  6.1897   1
  -8  -1  -8 52.2167  5.2357   9
  -8  -1  -8 44.6382  5.8390   1
  -1   8  -8 44.6354  5.2697   9
  -8   1   8 52.2859  7.9341   7
  -1  -8   8 64.8076  8.5392   3
   8   1  -8 62.4244  5.7480   9
   1  -8  -8 44.9863  5.6117   1
   8  -1   8 58.6066  7.7672   8
   1  -8  -8 45.0649  5.7109   4
  -8   1   8 51.9981  6.5724   3
   8   1  -8 51.2420  5.9182   1
  -8  -1  -8 47.9212  5.9491   4
  -1   8  -8 39.4581  6.0178   1
  -8  -2   8 1606.69   38.51   7
   2   8  -8 1554.27   36.05   1
   8   2   8 1650.76   38.50   8
   8  -2  -8 1603.83   35.77   1
   2  -8   8 1674.80   38.48   3
  -2  -8  -8 1647.80   35.76   1
  -8   2  -8 1612.66   34.07   9
  -2  -8  -8 1668.99   36.54   4
   2  -8   8 1642.60   39.43   8
  -8   2  -8 1571.89   35.96   1
   8  -2  -8 1627.07   34.03   9
   2   8  -8 1602.32   34.53   9
  -8   2  -8 1661.17   37.17   4
  -8  -2   8 1657.50   37.49   3
   2  -8  -8 1618.39   35.66   1
   8  -2   8 1548.37   39.54   8
  -8  -2  -8 1650.77   36.90   4
   8   2  -8 1621.05   34.37   9
  -2   8  -8 1647.65   36.39   1
  -8  -2  -8 1668.56   34.03   9
  -8   2   8 1548.59   40.15   7
  -8   2   8 1660.09   36.89   3
  -2  -8   8 1647.42   40.25   3
  -8  -2  -8 1604.23   35.75   1
  -2   8  -8 1641.46   34.51   9
   8   2  -8 1580.18   35.71   1
  -3  -8  -8 64.7934  6.4581   4
  -3   8   8 63.5775  8.0176   7
   3  -8   8 68.3448  8.0171   3
  -8   3  -8 59.0744  6.6074   1
   3   8  -8 72.4035  7.1729   1
   3  -8   8 74.0275  8.8821   8
   3   8  -8 82.7158  6.6557   9
  -8  -3   8 78.2571  8.1582   7
   8  -3  -8 73.5526  6.1081   9
  -8   3  -8 61.1249  5.8661   9
   8  -3  -8 65.1624  6.6261   1
  -3  -8  -8 57.0830  6.3541   1
   8   3   8 62.8981  7.7209   8
  -8  -3   8 49.4034  7.8894   5
  -8  -3   8 65.8278  7.4956   3
   3   8  -8 64.4291  6.1606   9
   8  -3   8 59.4711  8.4334   8
  -8  -3  -8 55.8779  6.5835   1
   3  -8  -8 66.5675  6.6830   1
   8   3  -8 54.9443  6.3260   1
  -3   8  -8 57.5178  5.9771   9
  -8   3   8 71.9626  7.5613   3
  -8   3   8 73.4129  9.2739   7
   8   3  -8 56.5064  5.9736   9
  -3   8  -8 69.2337  7.2208   1
  -8  -3  -8 69.3101  6.7626   4
  -8  -3  -8 69.6900  5.9694   9
  -3  -8   8 55.9194  8.6299   3
  -4  -8  -8 1904.56   41.33   4
  -4   8   8 1843.67   42.80   7
  -4  -8  -8 1852.58   38.06   9
   4  -8   8 1813.31   44.99   8
  -8   4  -8 1800.58   40.56   1
  -8   4  -8 1837.38   38.44   9
   4   8  -8 1867.49   40.57   1
  -8  -4   8 1878.46   43.06   5
   8  -4  -8 1818.34   40.01   1
  -4  -8  -8 1819.18   40.08   1
  -8  -4   8 1824.13   41.88   3
   8  -4  -8 1851.92   38.16   9
  -8  -4   8 1893.60   42.11   7
   4   8  -8 1793.66   38.86   9
  -4   8  -8 1752.27   40.40   1
   8   4  -8 1823.27   40.13   1
   4  -8  -8 1854.04   38.18   9
   8  -4   8 1759.71   44.91   8
  -8  -4  -8 1840.91   38.13   9
   4  -8  -8 1812.33   40.03   1
  -8  -4  -8 1865.50   40.25   1
  -4   8  -8 1768.90   38.47   9
  -8   4   8 1750.34   45.35   7
   8   4  -8 1852.24   38.92   9
  -4  -8   8 1751.35   44.00   3
   5   8  -8 45.9238  5.9070   9
  -5  -8  -8 40.7308  5.4201   9
  -5  -8  -8 38.5176  6.0857   1
   8  -5  -8 38.9457  5.5162   9
  -8  -5   8 40.3789  7.1510   3
  -8  -5   8 44.3050  7.1761   5
   5  -8   8 23.4825  7.3526   8
   5   8  -8 27.5580  5.9287   1
  -8   5  -8 30.5594  5.1672   9
  -8   5  -8 41.2516  6.3913   1
   8  -5  -8 41.5941  6.0862   1
  -5   8   8 36.8246  7.3892   7
  -5  -8   8 29.2172  7.6136   3
  -8   5   8 51.0650  9.3759   7
   5  -8  -8 24.3082  5.6947   1
   8  -5   8 43.8363  8.3769   8
   5  -8  -8 36.7337  5.4640   9
  -8  -5  -8 45.1619  5.6867   9
  -5   8  -8 34.5835  5.2887   9
  -5   8  -8 42.6184  6.5521   1
   8   5  -8 33.4360  5.6201   9
  -8  -5  -8 40.3291  6.2416   1
   8   5  -8 41.1528  6.3840   1
   8   5  -8 30.4039  5.8254   1
   8  -6  -8 1163.51   29.18   1
  -6  -8  -8 1179.55   27.43   9
  -8  -6   8 1183.60   31.58   3
  -6  -8  -8 1175.89   29.20   1
   6  -8   8 1187.33   35.56   8
   6   8  -8 1162.46   29.69   1
   6   8  -8 1184.26   28.24   9
  -8   6  -8 1191.55   29.86   1
  -6   8   8 1088.70   32.11   7
   8   6   8 1265.49   32.57   6
  -8   6  -8 1110.60   27.52   9
   8  -6  -8 1196.18   27.72   9
  -6  -8   8 1134.06   32.63   3
   8  -6   8 1202.75   35.29   8
  -6   8  -8 1166.98   29.58   1
  -6   8  -8 1169.39   27.97   9
   6  -8  -8 1114.86   28.90   1
  -8  -6  -8 1163.62   29.28   1
  -8   6   8 1140.92   34.69   7
   8   6  -8 1215.39   29.75   1
   6  -8  -8 1238.50   27.86   9
   6   8   8 1231.89   32.47   6
   8   6  -8 1176.26   29.50   1
   8   6  -8 1200.77   28.33   9
  -8  -6  -8 1138.90   27.20   9
  -8   7  -8 11.0764  5.8627   1
  -7   8   8 10.2911  7.0849   7
   7   8  -8 9.37831 5.42622   1
   8  -7  -8 9.92414 5.20915   1
  -7  -8  -8 4.49490 5.20485   1
   8   7   8 14.6579  6.6409   6
   8  -7  -8 11.9471  5.0929   9
  -8  -7   8 -0.4269  6.1501   3
   7   8  -8 11.5158  4.8116   9
  -8   7  -8 4.40349 4.39322   9
   7  -8   8 -1.4862  7.6544   8
  -7  -8  -8 13.0867  5.0363   9
  -7  -8   8 25.2471  7.4075   3
  -8  -7  -8 12.1431  4.9337   9
  -8  -7  -8 16.1253  5.6427   1
   8   7  -8 6.92040 5.02825   1
   8  -7   8 10.4750  8.1032   8
   7   8   8 21.6358  6.9502   6
  -8   7   8 8.08675 7.55683   7
  -7   8  -8 10.6331  4.8028   9
   7  -8  -8 7.81164 4.96156   9
  -7   8  -8 6.94265 5.21028   1
   8   7  -8 9.66378 5.17278   9
   7  -8  -8 9.92431 5.27383   1
  -8  -8  -8 1724.65   38.43   9
  -8   8  -8 1710.04   40.95   1
  -8   8   8 1695.36   45.80   7
   8   8  -8 1713.51   39.09   9
  -8   8  -8 1733.44   38.94   9
   8  -8  -8 1738.51   40.46   1
   8   8   8 1741.98   43.75   6
   8   8  -8 1730.94   40.83   1
  -8  -8  -8 1710.65   40.58   1
   8  -8  -8 1754.72   38.76   9
  -9   0  -8 0.91574 4.61634   1
   0   9  -8 1.97626 4.06492   9
   0  -9  -8 0.58376 4.33475   1
  -9   0   8 -7.6411  5.1837   7
   0   9  -8 2.98259 4.57456   1
   0  -9  -8 -3.3894  3.6889   9
   9   0  -8 5.10402 4.53311   1
   0  -9   8 2.46741 6.59133   3
   9   0   8 -4.6070  4.8430   8
   9   0  -8 -5.0433  3.4787   9
   0  -9  -8 -2.8343  3.9723   4
  -9   0  -8 -3.2818  3.6859   9
  -9   1  -8 188.965  10.036   1
  -1  -9  -8 204.644  10.173   1
  -1  -9  -8 223.881  10.415   4
  -1  -9  -8 204.700   9.189   9
   9  -1  -8 211.620   9.497   9
  -9  -1   8 234.067  12.675   7
   1   9  -8 195.775   9.363   9
  -9  -1   8 222.102  11.242   3
   9   1   8 215.092  11.780   8
   1  -9   8 200.263  12.419   3
  -9   1  -8 218.805   9.457   9
   9  -1  -8 217.165  10.206   1
   1   9  -8 216.695  10.503   1
   9   1  -8 207.648   9.297   9
   1  -9  -8 211.234   9.079   9
  -9   1   8 226.830  12.750   7
   1  -9  -8 226.813  10.364   1
  -9  -1  -8 206.280  10.279   1
  -9  -1  -8 207.679   9.148   9
   9  -1   8 216.401  12.323   8
   9   1  -8 226.466  10.619   1
   1  -9  -8 215.799  10.471   4
  -1  -9   8 211.846  13.441   3
  -1   9  -8 215.955   9.552   9
  -1   9  -8 220.635  10.528   1
   2   9  -8 7.76084 4.77670   1
   2   9  -8 1.04539 4.12666   9
   9  -2  -8 5.04759 4.54919   1
   2  -9   8 2.31140 5.40852   8
   2   9  -8 -5.2260  3.9480   9
   9  -2  -8 0.07144 3.83481   9
  -2  -9  -8 -2.5779  4.3267   4
  -2  -9  -8 -4.0799  3.7529   9
   9   2   8 6.72989 5.20148   8
  -9   2  -8 -1.1522  3.7405   9
  -2  -9  -8 -3.7101  4.3609   1
   2  -9   8 4.33920 5.85720   3
  -9   2  -8 -4.4121  4.4012   1
  -9  -2   8 0.74674 4.73762   3
  -9  -2   8 -3.6371  5.0262   7
   2  -9  -8 2.43353 4.69707   1
  -2   9  -8 2.03598 3.90225   9
  -9  -2  -8 -5.4198  3.7113   9
   9   2  -8 -2.0222  3.7922   9
   2  -9  -8 -0.9336  3.9675   9
  -2  -9   8 -2.4055  6.3545   3
   9   2  -8 7.20489 4.73538   1
  -9   2   8 -2.0893  6.1334   7
   9  -2   8 -1.3054  5.4511   8
  -9  -2  -8 6.33590 4.63128   1
  -2   9  -8 -3.7715  4.4335   1
   3  -9   8 482.400  18.754   8
   9  -3  -8 488.542  14.801   9
   3   9  -8 474.648  14.972   9
  -9   3  -8 447.240  15.837   1
  -9   3  -8 481.745  14.686   9
  -3  -9  -8 486.219  14.364   9
   3   9  -8 438.381  15.676   1
  -3  -9  -8 452.697  15.465   1
   9  -3  -8 464.478  15.838   1
  -9  -3   8 499.164  16.848   3
  -9  -3   8 482.971  17.403   7
  -9   3   8 457.072  19.707   7
  -3   9  -8 452.344  14.772   9
   3  -9  -8 459.667  15.554   1
  -3  -9   8 487.362  19.985   3
   9   3  -8 456.274  14.653   9
  -3   9  -8 465.101  16.222   1
   9  -3   8 463.131  18.792   8
  -9  -3  -8 464.751  14.289   9
   9   3  -8 465.047  15.737   1
   3  -9  -8 497.515  14.516   9
  -9  -3  -8 450.898  15.544   1
  -4  -9  -8 34.3546  6.2924   1
   4  -9   8 33.5963  8.0701   8
  -9  -4   8 27.7297  7.0056   5
   9  -4  -8 20.9196  5.0280   9
   4   9  -8 30.3649  6.1582   1
  -9   4  -8 29.3797  6.1042   1
  -4  -9  -8 37.4303  5.3980   9
   9  -4  -8 25.9853  5.8052   1
  -9   4  -8 28.0629  5.0256   9
   4   9  -8 19.4856  5.0125   9
  -9  -4   8 20.2937  5.9518   3
  -9  -4  -8 23.8123  4.9987   9
  -9   4   8 29.5997  8.6386   7
   9  -4   8 15.7005  7.3743   8
   9   4  -8 14.7517  5.4810   1
   4  -9  -8 27.0657  5.0742   9
  -4   9  -8 30.3470  5.4447   9
  -4  -9   8 29.1794  8.2046   3
  -9  -4  -8 30.0431  5.9326   1
   4  -9  -8 22.0864  5.6697   1
   9   4  -8 26.2874  5.1463   9
  -4   9  -8 26.5816  6.1388   1
  -5   9   8 549.195  19.883   7
   5   9  -8 532.900  16.721   9
  -9   5  -8 563.133  18.255   1
  -9  -5   8 571.690  19.874   5
   5  -9   8 523.529  21.559   8
   5   9  -8 546.205  17.857   1
  -5  -9  -8 565.982  16.391   9
   9  -5  -8 555.825  16.575   9
   9  -5  -8 536.077  17.644   1
  -9  -5   8 521.518  18.856   3
  -9   5  -8 547.887  16.592   9
  -5  -9  -8 563.492  17.870   1
   9   5  -8 507.416  16.563   9
  -5   9  -8 522.707  16.571   9
   5  -9  -8 538.893  16.299   9
   9  -5   8 530.289  21.732   8
  -5  -9   8 543.520  21.500   3
  -5   9  -8 530.579  18.170   1
   9   5  -8 550.508  17.965   1
   5  -9  -8 550.047  17.873   1
  -9  -5  -8 531.999  16.318   9
  -9   5   8 520.869  22.874   7
  -9  -5  -8 564.847  17.953   1
   6   9  -8 49.8793  6.7091   9
  -9  -6   8 45.1524  7.7953   3
   9  -6  -8 35.1355  6.5998   1
   9   6   8 28.3143  7.8234   6
  -6  -9  -8 40.4259  6.2602   9
   6  -9   8 45.3917 10.2215   8
   6   9  -8 33.0935  6.8976   1
  -9   6  -8 52.1606  6.4436   9
   9  -6  -8 49.3139  6.4342   9
  -6  -9  -8 45.3143  7.1284   1
  -6   9   8 59.3921  9.0691   7
  -9   6  -8 29.3969  6.5956   1
  -6   9  -8 51.7401  6.4221   9
  -9  -6  -8 39.8523  6.8547   1
   9   6  -8 48.4263  6.4743   9
  -6   9  -8 52.5501  7.2561   1
   9   6  -8 42.4294  7.0820   1
   9   6  -8 56.8873  7.5226   1
  -9  -6  -8 49.1095  6.1332   9
  -6  -9   8 45.8063  8.8758   3
   6  -9  -8 41.7025  6.9336   1
   6  -9  -8 50.4218  6.4959   9
  -9   6   8 29.7780  9.7116   7
   7   9  -8 229.309  11.237   9
   9   7   8 251.153  13.963   6
  -7  -9  -8 230.400  12.091   1
   7   9  -8 211.993  12.250   1
   9  -7  -8 227.733  11.042   9
  -7   9   8 261.671  15.215   7
  -7  -9  -8 234.649  11.151   9
  -9   7  -8 239.882  11.097   9
  -9  -7   8 237.355  13.650   3
   9  -7  -8 203.058  11.754   1
  -9   7  -8 232.503  12.731   1
   7  -9  -8 216.852  11.015   9
  -7   9  -8 209.293  11.992   1
  -7  -9   8 222.913  14.489   3
   9   7  -8 227.134  11.997   1
   7  -9  -8 240.386  12.489   1
  -9  -7  -8 225.423  10.958   9
  -7   9  -8 234.430  11.161   9
   7   9   8 236.401  13.947   6
  -9  -7  -8 211.433  11.790   1
   9   7  -8 246.749  11.502   9
  -9   7   8 230.606  16.533   7
  -8  -9  -8 4.35731 5.55747   1
   8   9  -8 8.59716 6.15394   1
  -8  -9  -8 5.11645 5.08943   9
  -8   9   8 -3.7295  7.3065   7
  -9   8  -8 -5.6726  5.7394   1
   8   9  -8 -10.261   4.553   9
  -9  -8   8 7.48786 6.87146   3
   9  -8  -8 -9.2639  4.7671   9
  -9   8  -8 -0.8505  4.9360   9
   9  -8  -8 -1.7181  5.3634   1
   9   8   8 5.84935 6.51326   6
  -8   9  -8 0.88587 4.93625   9
   8  -9  -8 0.30021 5.61133   1
  -8   9  -8 4.60550 5.80309   1
  -9  -8  -8 10.5173  6.1597   1
   8  -9  -8 0.73808 5.14396   9
  -9  -8  -8 -0.6764  4.8671   9
  -9   8   8 7.40934 8.86105   7
   9   8  -8 4.07359 5.21903   9
   9   8  -8 4.45832 5.93714   1
  -8  -9   8 11.7298  7.4889   3
   8   9   8 -7.8421  6.2829   6
   0  10  -8 1434.23   33.32   9
   0 -10  -8 1476.55   32.75   9
 -10   0   8 1509.63   38.31   7
   0 -10  -8 1509.75   34.63   1
  10   0  -8 1479.05   33.15   9
 -10   0  -8 1452.38   32.86   9
 -10   0  -8 1440.70   34.66   1
   0 -10   8 1450.02   38.96   3
   0  10  -8 1451.34   35.23   1
  10   0  -8 1456.60   34.53   1
  10   0   8 1510.45   37.29   8
 -10   1  -8 2.64620 4.34027   9
 -10   1  -8 3.02838 4.99473   1
   1  10  -8 9.11414 4.87682   9
   1 -10   8 8.58296 6.53121   3
 -10  -1   8 6.34876 6.06200   7
  -1 -10  -8 5.67471 4.31623   9
  -1 -10  -8 9.24236 5.46367   1
   1  10  -8 6.46898 4.60190   9
   1  10  -8 10.5794  5.5787   1
  10  -1  -8 7.98271 5.00367   1
  10  -1  -8 10.2818  4.7396   9
 -10  -1  -8 11.1503  5.2168   1
   1 -10  -8 7.46881 4.49225   9
  10  -1   8 9.02993 6.24226   8
 -10   1   8 1.42940 6.55463   7
  -1  10  -8 12.9468  4.9884   9
  -1  10  -8 4.61298 5.37140   1
  10   1  -8 8.30969 5.07266   1
  10   1  -8 9.79285 4.79933   9
   1 -10  -8 10.0571  5.2781   1
  -1 -10   8 25.8245  8.4336   3
 -10  -1  -8 18.8866  4.9578   9
  10  -2  -8 1244.46   31.01   1
 -10  -2   8 1302.15   33.60   7
 -10   2  -8 1204.75   31.10   1
 -10   2  -8 1243.01   29.50   9
   2 -10   8 1319.66   34.15   3
  10  -2  -8 1271.19   29.50   9
  -2 -10  -8 1290.78   29.29   9
  -2 -10  -8 1265.56   30.99   1
   2  10  -8 1279.82   30.01   9
   2  10  -8 1309.27   31.68   1
  -2  10  -8 1222.50   31.33   1
  10   2  -8 1273.78   31.12   1
 -10  -2  -8 1249.31   29.41   9
   2 -10  -8 1330.38   29.60   9
  10   2  -8 1286.32   29.78   9
  10  -2   8 1204.65   34.04   8
 -10   2   8 1194.01   35.23   7
 -10  -2  -8 1262.10   31.14   1
   2 -10  -8 1264.75   31.01   1
  -2 -10   8 1319.84   37.10   3
  -2  10  -8 1262.97   29.91   9
  10  -3  -8 27.3563  6.1624   1
  -3 -10  -8 36.7943  5.8758   9
   3  10  -8 22.1291  5.7885   9
 -10   3  -8 23.6358  6.1752   1
  -3 -10  -8 25.7987  5.8899   1
   3 -10   8 16.0784  7.1643   8
  10  -3  -8 30.0132  5.5818   9
 -10   3  -8 23.7429  5.3993   9
   3  10  -8 28.3633  6.2631   1
 -10  -3   8 36.7172  7.1014   7
 -10  -3  -8 27.3201  5.3951   9
 -10  -3  -8 34.7014  6.2229   1
  10  -3   8 16.4627  7.0887   8
  10   3  -8 21.0772  5.3974   9
   3 -10  -8 26.6957  5.9983   1
 -10   3   8 24.2985  8.1976   7
  10   3  -8 23.1241  6.0422   1
  -3  10  -8 15.0422  5.0959   9
  -3 -10   8 34.0907  8.7052   3
  -3  10  -8 27.6112  6.4671   1
   4  10  -8 1082.24   28.22   1
 -10  -4   8 1094.53   30.36   5
   4 -10   8 1077.38   31.61   8
 -10   4  -8 1009.29   27.82   1
  10  -4  -8 1032.04   25.96   9
  -4 -10  -8 1045.59   27.46   1
   4  10  -8 1020.07   26.35   9
  10  -4  -8 1026.68   27.43   1
  -4 -10  -8 1024.89   25.52   9
 -10   4  -8 1080.64   26.26   9
 -10   4   8 1035.22   33.54   7
   4 -10  -8 1057.57   25.87   9
 -10  -4  -8 1055.05   27.61   1
  10   4  -8 1046.24   26.34   9
  -4 -10   8 997.568  32.424   3
  10   4  -8 1002.59   27.35   1
  -4  10  -8 1043.34   26.36   9
  10  -4   8 1046.27   31.84   8
 -10  -4  -8 1062.66   26.18   9
   4 -10  -8 1027.15   27.47   1
  -4  10  -8 1060.01   28.21   1
 -10   5  -8 102.056   9.406   1
  10  -5  -8 111.522   8.298   9
 -10   5  -8 109.020   8.562   9
  10  -5  -8 123.648   8.995   1
 -10  -5   8 120.890  10.616   3
   5  10  -8 122.440   8.874   9
   5 -10   8 114.855  12.425   8
 -10  -5   8 116.047  10.906   5
  -5 -10  -8 115.614   8.447   9
   5  10  -8 114.635   9.684   1
  -5 -10  -8 104.517   9.406   1
  -5 -10   8 123.197  12.511   3
  -5  10  -8 98.5107  9.6031   1
 -10  -5  -8 109.274   9.366   1
  10   5  -8 122.499   9.867   1
   5 -10  -8 113.204   9.602   1
 -10   5   8 82.9476 12.4200   7
  10   5  -8 112.088   8.374   9
   5 -10  -8 128.468   8.690   9
 -10  -5  -8 105.781   8.346   9
  -5  10  -8 119.334   8.441   9
 -10   6  -8 1374.81   32.64   9
   6  10  -8 1335.90   32.66   9
  -6 -10  -8 1355.19   34.19   1
  -6 -10  -8 1362.47   32.14   9
 -10  -6   8 1404.16   35.51   3
   6  10  -8 1366.88   34.41   1
 -10   6  -8 1386.10   34.71   1
  10  -6  -8 1357.08   32.35   9
  10  -6  -8 1361.84   34.03   1
   6 -10  -8 1347.67   32.35   9
  -6 -10   8 1343.80   39.03   3
  -6  10  -8 1373.46   32.77   9
  10   6  -8 1372.34   34.58   1
  10   6  -8 1356.12   34.42   1
  -6  10  -8 1338.92   34.67   1
 -10   6   8 1341.23   41.78   7
 -10  -6  -8 1414.98   34.50   1
   6 -10  -8 1310.44   33.91   1
  10   6  -8 1382.88   32.92   9
 -10  -6  -8 1363.02   32.26   9
   7  10  -8 31.7978  6.6252   9
   7  10  -8 29.3005  6.9487   1
 -10   7  -8 14.2495  6.5257   1
  -7  10   8 40.7419  9.6100   7
 -10   7  -8 21.9908  6.1897   9
  10   7   8 27.2690  7.9422   6
 -10  -7   8 35.8757  7.9778   3
  -7 -10  -8 32.9446  6.4885   9
  10  -7  -8 29.2532  7.1205   1
  10  -7  -8 40.9735  6.8636   9
  -7 -10  -8 30.2717  7.0546   1
   7 -10  -8 39.1698  6.7358   9
  -7  10  -8 33.8403  7.6629   1
  -7 -10   8 35.8345  9.2561   3
   7 -10  -8 30.6254  7.2488   1
 -10  -7  -8 36.5675  6.3821   9
  -7  10  -8 19.8728  5.8956   9
 -10   7   8 7.02212 9.76984   7
  10   7  -8 35.6555  7.4005   1
 -10  -7  -8 39.3094  7.4975   1
  10   7  -8 13.7480  5.8387   9
   0  11  -8 -1.0051  4.3758   9
 -11   0  -8 6.10090 4.95192   9
 -11   0   8 0.76198 6.28575   7
   0  11  -8 2.17245 4.67785   9
   0 -11  -8 6.42271 5.21521   1
  11   0  -8 2.01963 4.77787   9
   0 -11  -8 -3.3033  4.4334   9
   0 -11   8 -9.9450  7.5812   3
 -11   0  -8 -2.9545  5.2453   1
   0  11  -8 7.86978 5.84782   1
  11   0  -8 1.56850 5.20436   1
  -1 -11  -8 394.171  15.157   1
  11  -1  -8 380.555  13.822   9
   1  11  -8 371.720  14.023   9
  11  -1  -8 380.611  15.063   1
   1  11  -8 352.310  15.262   1
  -1 -11  -8 390.407  13.885   9
   1 -11   8 366.001  17.843   3
 -11   1  -8 371.594  15.308   1
   1  11  -8 375.198  14.038   9
 -11  -1   8 368.197  16.779   7
 -11   1  -8 408.277  14.382   9
 -11   1   8 377.805  17.917   7
  -1 -11   8 358.620  19.460   3
  11   1  -8 373.726  14.140   9
  11  -1   8 383.668  17.184   8
  -1  11  -8 337.694  13.645   9
  -1  11  -8 374.135  15.541   1
  11   1  -8 379.765  15.036   1
   1 -11  -8 387.476  15.173   1
 -11  -1  -8 401.294  13.928   9
   1 -11  -8 391.892  13.875   9
 -11  -1  -8 378.870  15.079   1
 -11   2  -8 8.23801 5.66517   1
  -2 -11  -8 -2.2720  4.5987   9
   2  11  -8 0.23450 5.04796   9
   2  11  -8 4.84733 5.62972   1
  11  -2  -8 -4.0038  5.2830   1
  -2 -11  -8 1.70230 5.18126   1
   2 -11   8 1.37645 6.63399   3
  11  -2  -8 0.15075 4.81972   9
 -11   2  -8 -4.4215  4.5968   9
 -11  -2   8 8.14364 6.38136   7
  -2  11  -8 1.51989 5.35247   1
  11  -2   8 2.13829 6.64523   8
 -11  -2  -8 8.07261 4.81757   9
  11   2  -8 2.07672 5.44186   1
   2 -11  -8 4.59247 4.89378   9
  -2 -11   8 11.2491  8.9128   3
  -2  11  -8 6.62473 4.87034   9
  11   2  -8 3.69279 4.76108   9
   2 -11  -8 0.25061 5.10944   1
 -11   2   8 7.34946 7.52137   7
 -11  -2  -8 -2.2003  5.2458   1
   3  11  -8 191.706  10.494   9
 -11   3  -8 184.404  10.220   9
 -11   3  -8 193.465  11.610   1
  -3 -11  -8 174.042  10.814   1
  -3 -11  -8 185.252  10.129   9
   3  11  -8 208.880  11.955   1
  11  -3  -8 181.813   9.972   9
  11  -3  -8 162.387  10.672   1
 -11  -3  -8 175.709  11.103   1
  -3 -11   8 179.742  16.238   3
   3 -11  -8 174.735   9.877   9
 -11  -3  -8 188.841  10.203   9
  -3  11  -8 175.051  10.240   9
  -3  11  -8 154.582  10.816   1
   3 -11  -8 178.129  11.162   1
  11   3  -8 161.040  10.823   1
  11   3  -8 197.700  10.276   9
 -11   3   8 153.816  14.642   7
 -11   4  -8 47.3354  6.5617   9
  -4 -11  -8 43.3796  6.6166   9
  11  -4  -8 42.5040  7.0734   1
 -11   4  -8 44.8811  7.4507   1
  11  -4  -8 48.7500  6.9522   9
   4  11  -8 34.7274  7.2110   1
  -4 -11  -8 49.4290  7.5127   1
   4  11  -8 39.3269  6.3884   9
   4 -11  -8 44.5493  7.4739   1
 -11   4   8 34.3954 10.0479   7
 -11  -4  -8 34.1843  6.9694   1
   4 -11  -8 52.0465  6.9561   9
  11   4  -8 35.9951  6.6205   9
  -4  11  -8 50.3292  7.9769   1
  11   4  -8 34.4478  7.1562   1
  -4 -11   8 47.5241 10.8880   3
  -4  11  -8 45.9759  6.5310   9
 -11  -4  -8 54.6261  7.0695   9
  -5 -11  -8 121.550   8.796   9
 -11   5  -8 135.940   9.596   9
  11  -5  -8 140.776   9.546   9
  11  -5  -8 119.612  10.171   1
 -11   5  -8 117.795  10.544   1
   5  11  -8 104.539   9.105   9
  -5 -11  -8 122.995  10.427   1
   5  11  -8 119.329  10.527   1
  -5  11  -8 121.095  10.779   1
  -5  11  -8 131.516   9.483   9
  11   5  -8 121.074  10.388   1
  -5 -11   8 154.223  15.201   3
   5 -11  -8 115.518   8.719   9
  11   5  -8 120.989   9.715   9
 -11   5   8 118.560  14.771   7
   5 -11  -8 98.2759  9.8037   1
 -11  -5  -8 124.876  10.475   1
 -11  -5  -8 109.085   8.887   9
   6  11  -8 12.0496  6.3728   1
  -6 -11  -8 3.84483 5.34948   9
  -6 -11  -8 16.9658  6.6529   1
 -11   6  -8 13.4358  6.2629   1
  11  -6  -8 8.17601 5.33395   9
 -11   6  -8 8.95627 5.56861   9
  11  -6  -8 14.4343  6.4949   1
  11   6  -8 -0.2421  5.5586   1
 -11  -6  -8 9.45010 6.61477   1
   6 -11  -8 6.26341 6.15521   1
  11   6  -8 13.4493  6.2075   1
  11   6  -8 8.35723 5.50823   9
  -6  11  -8 10.5253  6.4505   1
  -6 -11   8 15.7110  8.8348   3
 -11  -6  -8 5.20427 5.24174   9
   6 -11  -8 4.47036 5.41369   9
   0 -12  -8 720.510  22.316   1
 -12   0  -8 696.503  22.123   1
   0  12  -8 673.571  20.920   9
   0 -12  -8 699.142  20.523   9
   0  12  -8 659.933  20.626   9
 -12   0  -8 689.040  20.478   9
  12   0  -8 681.632  20.418   9
   0  12  -8 690.976  22.531   1
  12   0  -8 710.970  22.368   1
 -12   0   8 706.551  24.644   7
   0 -12   8 735.745  27.282   3
   1  12  -8 -3.3532  5.9188   1
   1  12  -8 10.4281  5.7705   9
  12  -1  -8 0.02406 5.65804   1
  -1 -12  -8 -9.2644  4.3130   9
   1 -12   8 -0.4774  8.0702   3
 -12  -1   8 4.01511 6.38833   7
  12  -1  -8 6.66694 5.49137   9
 -12   1  -8 -4.4802  5.0344   9
 -12   1  -8 -0.3243  5.8110   1
  -1 -12  -8 5.64843 5.76999   1
  12   1  -8 1.75954 5.18482   9
   1 -12  -8 -1.2645  5.5200   1
   1 -12  -8 4.71914 5.07452   9
 -12  -1  -8 8.11609 6.15542   1
  -1  12  -8 -0.2787  4.9726   9
  -1  12  -8 12.3997  6.2504   1
  -1  12  -8 1.58051 4.94150   9
 -12   1   8 -9.7982  6.4697   7
 -12  -1  -8 2.38488 4.89298   9
  -1 -12   8 -9.9687  8.1750   3
  12   1  -8 -8.4124  5.3304   1
  12  -2  -8 1381.60   35.59   1
  -2 -12  -8 1461.82   34.03   9
   2  12  -8 1449.48   34.68   9
 -12  -2   8 1462.82   37.85   7
 -12   2  -8 1451.39   34.15   9
   2  12  -8 1403.11   36.24   1
  12  -2  -8 1460.06   34.33   9
  -2 -12  -8 1365.00   35.37   1
 -12   2  -8 1421.70   36.24   1
   2 -12  -8 1420.86   35.84   1
  12   2  -8 1416.80   35.92   1
 -12  -2  -8 1416.06   34.19   9
 -12   2   8 1459.08   40.53   7
  -2  12  -8 1415.62   34.34   9
  12   2  -8 1427.50   34.25   9
  -2 -12   8 1430.53   44.29   3
   2 -12  -8 1406.36   33.74   9
 -12  -2  -8 1404.48   35.95   1
  -2  12  -8 1427.62   36.74   1
   3  12  -8 23.4234  6.7758   1
  12  -3  -8 29.0946  7.0894   1
  -3 -12  -8 20.3101  5.7765   9
 -12   3  -8 26.7477  5.9924   9
   3  12  -8 21.9199  6.0334   9
  12  -3  -8 22.6631  6.3179   9
 -12   3  -8 32.7044  7.6098   1
  -3 -12  -8 22.3765  6.7608   1
  12   3  -8 24.7338  7.0681   1
 -12  -3  -8 23.7368  7.0106   1
   3 -12  -8 16.2616  6.2518   1
   3 -12  -8 21.6016  6.2504   9
 -12  -3  -8 24.6340  6.5106   9
  -3 -12   8 37.2744 11.3082   3
 -12   3   8 35.4727 10.0173   7
  -3  12  -8 15.5349  6.5409   1
  -3  12  -8 21.2041  6.1195   9
  12   3  -8 24.0250  6.3798   9
   0   0   9 4.18164 3.99391   8
   0   0   9 0.89762 4.01779   3
   0   0   9 2.46291 4.17615   7
   0   0   9 1.15000 4.30573   5
   0  -1   9 5.33411 4.32559   3
   1   0   9 -3.1838  4.0916   5
   0  -1   9 -0.0824  4.2291   5
   1   0   9 -2.4208  3.7014   8
   1   0   9 1.50873 4.11370   3
   0  -1   9 2.23991 3.71413   7
  -1   0   9 2.08167 3.96955   3
   0   1   9 -0.6626  3.7563   8
   0   1   9 -0.7096  4.1647   5
   0   1   9 8.71797 4.46322   7
  -1   0   9 5.14029 4.00971   7
   0   1   9 0.61843 4.06532   3
  -1   0   9 -1.2160  4.2248   5
  -1   0   9 6.58846 4.43152   8
   1   0   9 5.00914 4.23702   7
   0  -1   9 -0.7673  3.6986   8
   1   1   9 0.35903 3.94935   3
  -1  -1   9 -1.1551  3.9529   3
  -1  -1   9 6.55919 4.52552   8
   1  -1   9 1.09660 4.10292   7
   1   1  -9 -0.5818  1.5577   1
  -1   1   9 4.80963 4.27409   8
   1   1   9 2.20154 3.82809   8
  -1   1   9 -7.2762  4.0254   5
  -1   1   9 -3.3904  3.8373   3
  -1   1  -9 -1.1462  1.6061   1
   1  -1   9 7.94488 4.57923   5
   1  -1   9 2.98439 4.10585   3
   1   1   9 3.31156 3.71133   7
  -1   1   9 -2.6729  3.6356   7
  -1  -1   9 4.54953 4.07788   5
  -1  -1   9 2.06113 4.18282   7
   1   1   9 -0.1264  3.8071   5
   1  -1   9 -6.0931  3.9484   8
   2   0   9 106.952   7.789   3
  -2   0  -9 109.126   3.937   1
  -2   0   9 107.518   7.988   3
   2   0   9 96.3386  8.2179   7
   0   2   9 125.278   8.368   3
   0  -2   9 92.8758  8.2605   5
   0   2  -9 113.258   4.342   1
   0   2   9 110.848   8.490   8
   0   2   9 115.710   8.212   7
   0   2   9 110.745   8.127   5
   0  -2   9 119.802   7.778   3
  -2   0   9 90.3946  7.9782   5
   2   0   9 102.668   8.480   5
   2   0   9 107.614   8.208   8
  -2   0   9 114.526   8.466   8
  -2   0   9 109.816   7.815   7
   0  -2   9 99.5826  8.3144   8
   0  -2   9 114.398   7.765   7
   2   0  -9 108.909   3.891   1
  -2  -1   9 245.062  11.349   5
   2   1   9 261.766  11.334   7
   2  -1  -9 238.682   6.036   1
  -1   2   9 228.887  10.588   3
  -1   2   9 226.607  11.034   8
   2   1   9 247.414  11.170   5
  -2  -1   9 229.534  11.062   7
  -2  -1   9 236.143  11.129   8
   1  -2   9 234.815  11.238   5
  -1   2   9 228.688  10.975   5
   1  -2   9 235.177  10.876   7
   2   1   9 243.756  10.892   3
  -1   2   9 240.517  11.182   7
   1   2  -9 239.323   6.681   1
   2   1   9 240.119  11.400   8
   1  -2   9 235.366  10.657   3
   1  -2   9 243.504  11.549   8
  -2  -1   9 251.575  11.136   3
  -2   1  -9 237.406   6.513   1
   1   2  -9 234.978   6.648   1
  -2  -1  -9 233.590   5.993   1
   2  -1   9 233.148  11.471   8
   1   2   9 243.898  11.050   5
   2   1  -9 243.361   6.442   1
   2  -1   9 263.364  11.394   5
  -1  -2   9 238.775  11.197   8
  -1  -2   9 232.316  11.121   5
   1   2   9 256.130  11.134   7
   1   2   9 221.191  10.849   8
   2  -1   9 235.352  10.544   3
  -1   2  -9 242.113   6.684   1
  -2   1   9 242.965  11.211   8
  -2   1   9 224.419  10.865   3
   2  -1   9 239.785  11.014   7
   1   2   9 231.297  10.898   3
  -2   1   9 220.442  10.970   7
  -1  -2   9 216.323  10.393   3
  -1  -2   9 248.764  11.273   7
  -2   1   9 224.808  11.074   5
  -2  -2   9 6.58342 4.73001   5
  -2  -2  -9 -3.6161  1.9996   1
   2  -2   9 -0.5605  4.3937   5
   2   2  -9 -1.4298  2.3121   1
  -2   2   9 -2.1663  4.0995   3
   2   2   9 -3.8908  4.1172   3
  -2   2  -9 1.53234 2.38284   1
   2   2   9 1.94135 4.27781   5
   2   2   9 0.10627 4.33562   8
  -2  -2   9 5.81603 4.35023   8
  -2  -2   9 -1.2794  4.1438   7
   2  -2   9 3.19322 4.07488   3
   2   2   9 1.63185 4.16094   7
  -2   2   9 -1.7318  4.3826   5
   2  -2   9 -1.4267  4.0175   8
  -2   2   9 5.73506 4.64402   7
   2  -2  -9 -2.5717  2.0346   1
  -2  -2   9 -3.4720  3.8547   3
  -2   2   9 6.27855 4.70932   8
   0  -3   9 7.94406 4.67338   8
   0  -3  -9 1.66515 2.14169   1
   3   0   9 0.99746 4.00169   8
   0  -3   9 0.27224 3.95458   5
   0   3   9 -5.5886  3.7979   7
   0  -3   9 -5.6971  4.1995   7
   3   0   9 -5.2236  3.7675   3
  -3   0  -9 4.34184 2.35391   1
   3   0   9 2.72152 4.50530   5
  -3   0   9 1.05488 4.27743   3
  -3   0   9 -2.2940  4.5797   5
   0  -3   9 -2.9315  4.1008   3
   3   0  -9 1.04741 2.26618   1
  -3   0   9 0.83803 4.26088   7
   0   3   9 5.09691 4.48426   3
   0   3   9 -2.5697  4.0129   5
  -3   0   9 0.10690 4.26109   8
   0   3  -9 -0.4041  2.4045   1
   0   3   9 3.22665 4.60849   8
  -1  -3  -9 12.6831  2.4950   1
   3   1   9 4.65162 4.61237   8
   3   1   9 2.60494 4.34937   7
  -3  -1   9 12.5583  4.6752   3
   1  -3   9 17.3542  5.0378   3
  -1   3   9 10.6991  5.0813   8
   3   1   9 11.0674  4.9606   5
   3   1   9 12.7154  4.4954   3
   1  -3   9 15.1893  4.8316   7
   1   3  -9 8.89528 2.92141   1
   1  -3   9 7.95506 4.82588   5
   3  -1  -9 11.9676  2.6355   1
  -1   3   9 2.58266 4.40828   3
  -3  -1   9 14.5412  5.0608   8
  -3  -1   9 13.3484  5.2690   5
   3  -1  -9 11.2992  1.7521   4
  -3  -1   9 9.16729 4.68914   7
  -3   1  -9 11.7209  2.7511   1
   1  -3   9 9.85937 5.05095   8
  -1   3   9 10.3291  4.9022   5
  -1   3   9 7.58280 4.61435   7
  -1   3  -9 17.9733  3.1354   1
  -3   1   9 9.90937 4.89180   3
  -3   1   9 12.6097  4.7153   5
   3   1  -9 14.2516  2.7461   1
  -3   1   9 10.1312  5.1402   8
  -1  -3   9 7.42944 4.80407   5
   1   3   9 10.9226  5.1706   8
   1  -3  -9 11.9561  2.4634   1
   1   3   9 13.9914  4.7436   7
   3  -1   9 8.35075 4.98046   8
   3  -1   9 5.13214 4.75474   5
  -1  -3   9 6.87828 4.71921   3
  -1  -3   9 9.50485 4.52112   8
   1   3   9 8.38828 4.64843   5
  -3   1   9 15.0883  4.6216   7
   3  -1   9 13.6948  4.6656   3
  -1  -3   9 13.2980  4.9955   7
  -3  -1  -9 6.57582 2.54162   1
   1   3   9 10.9587  4.8933   3
   3  -2  -9 6.88549 2.58731   1
  -2   3   9 2.72904 4.59791   7
  -3   2  -9 2.19105 2.77084   1
  -3  -2   9 0.76173 4.57362   8
  -3  -2   9 8.75733 4.57534   3
   3   2   9 4.04129 4.26136   8
  -2   3   9 6.67529 4.40117   3
   2  -3   9 10.7712  5.1259   8
   2  -3   9 7.33116 4.36338   3
   3   2   9 2.38430 3.93474   7
  -3  -2   9 2.56854 4.60311   7
  -2  -3  -9 2.07333 1.51697   4
   2   3  -9 5.49545 2.82075   1
   2  -3   9 6.87506 4.70503   5
  -2  -3  -9 3.74242 2.52436   1
  -2   3   9 6.84855 4.92743   5
  -3  -2   9 -0.8483  4.4937   5
  -2   3   9 0.30941 4.28362   8
   3   2   9 -3.4479  4.0279   3
   3   2   9 1.95223 4.57043   5
   2   3  -9 4.85032 2.81931   1
   3  -2  -9 5.61310 1.82712   4
   3   2  -9 3.34569 2.72622   1
  -2  -3   9 4.34235 4.42177   8
  -2  -3   9 5.72407 4.72819   5
   2  -3  -9 5.60891 1.59737   4
   2   3   9 2.74038 4.71077   8
   3  -2   9 11.1905  5.0155   8
   2   3   9 1.82705 4.38481   5
  -3   2   9 14.0332  4.9497   8
   2   3   9 3.25408 4.64272   3
  -3   2   9 1.24891 4.24478   3
  -2  -3   9 0.90020 3.98234   3
  -3   2   9 7.17531 4.87294   5
  -2   3  -9 0.85935 2.82113   1
  -3  -2  -9 7.80373 2.62359   1
   2   3   9 2.23332 4.19631   7
   2  -3  -9 7.51183 2.64471   1
   3  -2   9 1.06356 4.34987   3
  -3   2   9 3.88886 4.72217   7
  -2  -3   9 9.32321 4.72330   7
   2  -3  -9 3.95583 1.49262   4
  -3  -2  -9 3.03196 1.69455   4
   3   3   9 1.85632 4.48552   5
   3   3  -9 -1.3711  2.9046   1
  -3   3   9 7.57482 4.88430   7
  -3   3   9 2.47955 4.71479   5
  -3  -3   9 -5.2340  3.7044   3
   3  -3  -9 -1.2549  2.0293   4
  -3   3  -9 0.05271 2.94502   1
  -3  -3  -9 -0.2201  2.0100   4
   3  -3   9 -9.5795  3.6021   3
   3   3   9 10.2355  4.5089   7
  -3  -3  -9 1.74931 2.80221   1
   3   3   9 0.37959 4.58553   3
  -3  -3   9 2.84663 4.35929   8
   3  -3  -9 -2.2274  2.6196   1
  -3   3   9 -6.8604  3.9922   3
   3   3   9 1.21034 4.47665   8
   3  -3   9 4.63736 4.87732   8
  -3  -3   9 -1.0414  4.4972   5
  -3  -3   9 -1.5007  4.3985   7
   0   4   9 33.7067  5.8858   7
   0  -4  -9 43.5860  3.7669   1
   0   4   9 49.5531  6.4414   5
   0   4  -9 46.9327  4.2819   1
   0   4   9 37.7916  6.4133   3
  -4   0   9 44.9964  6.3632   7
   0  -4   9 41.1565  6.2499   3
   4   0   9 56.6546  6.3113   3
  -4   0   9 50.7322  6.9315   5
  -4   0  -9 41.5628  3.9335   1
   0  -4   9 48.9912  6.7587   5
   0  -4   9 40.9597  6.2219   8
   0  -4   9 44.0079  6.1880   7
   4   0  -9 42.3242  3.4157   4
   0   4   9 42.8896  6.5282   8
  -4   0   9 46.6459  6.3756   3
   0  -4  -9 36.2637  2.8101   4
   4   0   9 51.9851  7.0097   8
   0  -4  -9 36.4199  2.7264   4
  -4   0   9 35.4527  6.4497   8
   4   0  -9 43.2595  3.9213   1
  -1   4   9 112.343   8.324   5
   4  -1  -9 123.630   5.007   4
   1  -4   9 137.865   9.253   8
  -4   1  -9 124.015   5.876   1
  -1   4   9 109.797   8.929   3
  -1   4   9 124.945   8.848   8
   4  -1  -9 123.461   5.673   1
   1  -4   9 108.266   8.793   3
  -4  -1   9 116.767   8.508   3
  -1   4   9 121.211   8.486   7
  -1  -4  -9 118.486   4.329   4
  -1  -4  -9 126.604   5.369   1
   4   1   9 112.557   8.311   3
   1   4  -9 121.426   5.951   1
   1  -4   9 119.279   8.838   5
   4   1   9 126.708   8.934   8
  -4  -1   9 107.407   8.942   7
  -4  -1   9 120.417   8.608   8
  -4  -1   9 116.446   9.503   5
   1  -4  -9 112.258   5.320   1
  -4   1   9 115.409   9.339   7
  -4  -1  -9 132.343   5.657   1
  -1   4  -9 114.533   5.955   1
  -4  -1  -9 120.518   4.999   4
  -4   1   9 121.450   9.687   5
  -1  -4   9 124.224   8.799   3
  -1  -4   9 116.088   8.186   5
   1   4   9 105.561   8.464   5
   1   4   9 131.890   8.394   7
   1  -4  -9 118.568   4.327   4
   4   1  -9 115.697   5.553   1
  -4   1   9 134.409   9.466   8
   4  -1   9 124.466   9.226   8
   4   1  -9 127.626   5.376   4
   1   4   9 115.643   8.888   8
   4  -1   9 113.100   8.190   3
   1   4   9 113.027   8.245   3
  -4   1   9 108.987   7.795   3
  -1  -4   9 120.256   8.499   8
  -1  -4   9 117.218   9.197   7
   1  -4  -9 117.834   4.347   4
   4   2   9 64.7490  7.2831   8
  -4   2  -9 64.3411  5.0213   1
  -2  -4  -9 60.1946  3.6618   4
  -2   4   9 60.5997  7.1535   5
   4   2   9 62.8879  7.0479   3
  -2  -4  -9 65.9884  4.5838   1
  -4  -2   9 71.4443  7.5619   3
   2  -4   9 63.3207  7.0021   3
   2  -4   9 58.2030  7.3123   5
  -2   4   9 53.3568  7.4426   8
  -4  -2   9 83.2827  7.7738   8
   2   4  -9 66.7396  5.0598   1
  -4  -2   9 66.4263  7.7847   5
  -2   4   9 58.4905  7.3184   3
   4  -2  -9 67.1052  4.8228   1
   4  -2  -9 56.1039  3.9688   4
  -2   4   9 67.6536  7.4841   7
   2  -4   9 69.3412  7.4959   8
  -4  -2   9 60.2160  6.8735   7
  -4   2   9 73.4542  7.9577   7
  -4   2   9 77.6947  8.1684   5
   2   4   9 63.1356  6.7777   7
   2   4   9 72.6711  7.4464   5
  -2   4  -9 64.5806  5.1227   1
   4  -2   9 73.4570  6.8553   3
   4   2  -9 70.9670  4.9777   1
  -2  -4   9 76.1848  7.5762   5
  -4  -2  -9 59.3756  4.0743   4
  -4  -2  -9 74.0842  4.9721   1
  -2  -4   9 63.9241  7.2520   7
   4  -2   9 65.8238  7.6635   8
   2   4   9 73.0803  7.7230   3
  -4   2   9 66.5189  7.0820   3
  -2  -4   9 63.8336  6.9809   8
  -2  -4   9 70.2945  7.6168   3
   2  -4  -9 73.3476  4.8243   1
   2  -4  -9 68.5460  3.8326   4
   2   4   9 63.7018  7.1831   8
   4  -3  -9 291.781   8.951   1
   3   4  -9 257.654   9.219   1
  -3  -4  -9 261.097   8.754   1
   4   3   9 279.876  12.124   3
  -4  -3   9 275.832  12.612   5
  -3   4   9 259.307  12.104   3
  -4  -3   9 257.236  11.690   3
  -3   4   9 285.667  12.514   5
  -4  -3   9 241.201  11.390   8
   3  -4   9 234.229  12.347   8
  -4   3  -9 274.622   9.306   1
   4   3   9 263.114  12.116   8
   3  -4   9 285.141  11.612   3
  -3   4   9 231.938  11.545   7
  -4  -3   9 274.363  12.274   7
  -3  -4  -9 262.975   8.160   4
   4  -3  -9 271.633   8.258   4
  -3  -4   9 256.335  11.466   8
   3   4   9 287.451  12.474   3
  -4   3   9 270.136  12.786   7
   4  -3   9 271.178  12.966   8
  -4   3   9 255.365  12.438   5
   4   3  -9 271.010   9.086   1
  -3   4  -9 266.892   9.421   1
   3   4   9 246.360  12.162   8
  -3  -4   9 263.682  12.269   3
  -4   3   9 306.390  12.587   3
  -3  -4   9 263.899  12.204   5
   3  -4  -9 270.129   8.156   4
   3   4   9 252.479  11.275   7
   3  -4  -9 267.963   8.672   1
   3   4   9 245.485  11.347   5
  -3  -4   9 286.219  12.283   7
  -4  -3  -9 279.834   8.840   1
   4  -3   9 263.382  11.341   3
  -4  -3  -9 254.832   8.127   4
  -4   4  -9 0.35412 3.42710   1
  -4   4   9 1.04336 4.41488   7
   4  -4  -9 -2.3608  2.6606   4
   4   4   9 -0.8491  4.5510   8
  -4   4   9 3.76390 5.03968   5
   4   4  -9 2.19696 3.55975   1
   4   4  -9 -2.6628  3.5815   1
  -4  -4  -9 2.03184 2.72198   4
   4  -4   9 0.83084 4.48121   8
   4  -4   9 3.69402 4.31045   3
  -4  -4   9 4.13791 4.91948   5
  -4   4   9 -1.2274  3.8954   3
   4   4   9 -4.8544  4.7263   3
  -4  -4   9 0.57867 4.53153   7
  -4  -4   9 -4.9671  4.5073   3
   4  -4  -9 -2.3341  3.1446   1
  -4  -4  -9 -2.7207  3.1384   1
   5   0  -9 2.21928 3.02781   1
  -5   0  -9 3.55262 3.16404   1
  -5   0   9 4.89059 5.02393   5
   0   5   9 1.88230 4.81449   8
   5   0   9 0.42908 4.44654   3
   0   5   9 -0.5081  4.1748   5
   0   5  -9 -0.8670  3.4474   1
   0  -5   9 2.99065 4.79836   8
   0   5   9 -5.6973  3.9043   7
  -5   0  -9 1.07590 2.68240   4
   5   0   9 1.80018 4.72997   8
   0   5   9 -0.2385  4.1690   3
   0  -5   9 3.90352 4.89446   3
  -5   0   9 0.69334 4.39050   3
   0  -5  -9 -0.1044  2.4194   4
  -5   0   9 2.71687 4.42142   7
   0  -5  -9 3.50357 3.02115   1
   5   0  -9 -5.0057  2.5723   4
   0  -5   9 0.91985 4.37752   5
   0  -5  -9 -0.1630  2.3505   4
  -1   5   9 9.01114 4.88221   7
   5   1   9 15.8439  5.1326   3
   1  -5   9 11.0034  5.2025   5
  -5  -1   9 2.19337 4.98357   5
  -5  -1   9 7.69191 5.24434   7
  -5  -1   9 6.00067 4.97146   8
   1  -5   9 1.01701 4.63293   3
   5  -1  -9 5.15038 3.20520   1
  -1  -5  -9 2.81783 3.11631   1
   5   1   9 3.98635 4.31541   8
  -1   5   9 5.05915 4.95687   3
  -1  -5  -9 7.43387 2.68080   4
  -1   5   9 -1.6983  4.2982   5
   1   5  -9 6.19451 3.63069   1
   1  -5   9 -7.2333  4.3258   8
  -5  -1   9 6.12189 4.71931   3
  -5   1  -9 7.87972 3.56367   1
   5  -1  -9 4.49948 2.87556   4
  -5  -1  -9 5.34416 3.30347   1
   5  -1   9 -0.0602  4.1294   3
  -1  -5   9 8.83222 4.88773   7
   5   1  -9 7.06927 3.06302   4
  -5   1   9 -1.2384  4.3774   3
   1   5   9 3.63530 5.01997   8
   1  -5  -9 5.73620 2.58453   4
  -5   1   9 -0.6537  4.2944   7
   5  -1   9 5.00245 5.09593   8
  -1  -5   9 -0.3133  4.8546   3
  -1  -5   9 8.25762 4.91177   5
  -1  -5   9 4.19373 4.64469   8
   1  -5  -9 3.37026 2.45634   4
   1   5   9 6.69806 4.60465   3
   1  -5  -9 5.37289 3.32390   1
  -5   1   9 4.49727 4.76695   5
   1   5   9 14.0820  5.1708   5
   5   1  -9 2.97509 3.25257   1
  -1   5  -9 5.49679 3.50319   1
   1   5   9 3.41931 4.33756   7
  -5  -1  -9 7.53449 3.04543   4
  -5  -2   9 142.372   8.987   7
   5  -2  -9 117.431   5.873   4
   5   2   9 133.256   9.249   8
  -5  -2   9 130.620   9.694   5
  -2   5   9 145.031   9.247   5
  -2  -5  -9 116.911   6.215   1
   2  -5   9 128.931   9.462   8
  -2   5   9 109.506   8.186   7
   5  -2  -9 136.744   6.561   1
   2  -5   9 121.915   8.663   3
  -5  -2   9 123.071   8.851   8
   2   5  -9 128.882   6.980   1
  -5  -2   9 115.984   9.274   3
  -2   5   9 114.794   9.465   3
  -5   2  -9 121.503   6.731   1
  -2  -5  -9 126.463   5.772   4
   5   2   9 149.688   9.392   3
   2   5   9 121.518   9.766   3
  -2  -5   9 113.450   9.127   5
  -2  -5   9 107.332   8.870   7
   2   5   9 132.038   8.692   5
  -5  -2  -9 126.594   5.965   4
   5   2  -9 120.219   6.564   1
   5  -2   9 111.494   9.546   8
  -2  -5   9 142.821   9.241   8
   5   2  -9 118.003   6.294   4
   2  -5  -9 125.819   5.659   4
   2  -5  -9 122.789   6.308   1
  -2   5  -9 116.493   6.809   1
  -5   2   9 140.824  10.099   5
  -5   2   9 122.555   9.020   7
   2   5   9 124.722   8.281   7
  -2  -5   9 118.362   9.580   3
  -5   2   9 127.823   8.966   3
  -5  -2  -9 114.672   6.313   1
   2   5   9 127.309   9.178   8
   3  -5   9 8.28371 4.76450   3
  -5  -3   9 13.2261  5.1425   3
  -3  -5  -9 11.9449  3.6196   1
   5   3   9 0.21487 4.97507   3
   5   3   9 4.94872 4.77747   8
  -3  -5  -9 6.37317 3.29326   4
   5  -3  -9 9.88992 3.30797   4
  -3   5   9 12.5041  5.3930   5
   5  -3  -9 6.16982 3.52706   1
  -5  -3   9 4.27479 4.93648   7
  -3   5   9 3.31256 4.97593   3
  -5   3  -9 7.36817 3.98082   1
   3   5  -9 3.78438 3.69152   1
  -3   5   9 -1.9780  4.7739   7
  -5  -3   9 14.3568  5.5974   5
   3  -5   9 -1.3009  5.1431   8
   3   5   9 9.51015 4.73284   5
  -3  -5   9 18.0486  5.8537   3
  -5   3   9 2.63061 4.64328   3
  -5  -3  -9 4.24949 3.56119   1
   5   3  -9 2.97092 3.56918   1
  -3  -5   9 13.3497  5.0735   7
  -5   3   9 11.1597  5.4789   7
   3   5   9 6.75814 5.65559   3
  -3   5  -9 8.30161 3.85255   1
   3  -5  -9 1.68943 3.58960   1
   5  -3   9 8.88231 5.51832   8
   3  -5  -9 7.35906 3.02727   4
  -5  -3  -9 12.3660  3.3242   4
  -5   3   9 1.09191 5.44838   5
   3   5   9 7.48352 5.08689   8
  -3  -5   9 -1.2809  4.6350   5
  -5  -4   9 23.0419  5.9991   3
  -4   5   9 48.2886  7.0004   3
  -4  -5  -9 22.5236  4.4299   1
   5  -4  -9 25.4457  4.4482   1
   5   4   9 27.4306  5.9893   8
   5   4   9 16.6158  5.8962   3
  -5  -4   9 25.0499  5.9660   7
  -5  -4   9 28.0144  6.2401   5
   4  -5   9 32.2647  6.9681   8
  -5   4  -9 31.7489  5.0931   1
  -4   5   9 26.2221  6.4805   7
   5  -4  -9 27.6430  4.2490   4
   4   5  -9 24.0492  4.7271   1
  -4  -5  -9 24.7517  4.1116   4
  -4   5   9 25.8938  6.2959   5
   5   4  -9 25.1588  4.7206   1
  -5   4   9 34.2607  7.0830   7
  -5  -4  -9 31.0586  4.5422   1
  -4  -5   9 33.5824  6.2802   5
  -5   4   9 25.5058  6.0806   3
  -5   4   9 30.4290  6.8294   5
  -4  -5   9 24.4854  5.8022   3
  -4   5  -9 19.3956  4.6101   1
   4   5   9 31.6034  6.3091   8
   4   5   9 47.7695  7.5226   3
   4  -5  -9 32.5180  4.6307   1
   5   4  -9 33.7389  4.9629   1
  -4  -5   9 21.4874  5.6762   7
  -5  -4  -9 29.4829  4.2384   4
   5  -4   9 14.7750  5.5045   8
   4  -5  -9 29.8384  4.2589   4
   5  -5  -9 -0.5204  3.4785   4
  -5   5  -9 -2.9488  3.9664   1
  -5   5   9 -1.6718  5.2953   5
  -5  -5   9 -5.7344  4.3348   7
  -5  -5  -9 0.25195 3.26821   4
  -5  -5   9 -1.4629  5.0405   5
  -5  -5  -9 0.91098 3.89682   1
  -5  -5   9 7.30574 5.58823   3
  -5   5   9 -3.9060  5.0942   7
   5  -5  -9 -1.2337  3.9110   1
   5   5  -9 1.43019 3.79795   1
  -5   5   9 3.52057 5.08891   3
   5   5   9 -4.8158  4.6235   8
   5  -5   9 -3.6853  4.6057   8
   0  -6  -9 253.804   8.908   4
   0   6   9 282.385  13.285   3
   6   0   9 254.216  12.305   8
   0  -6  -9 268.863   9.383   1
  -6   0   9 285.390  13.400   7
   0  -6   9 277.626  12.537   5
   6   0  -9 259.529   9.518   4
   0   6   9 270.933  11.842   7
   0  -6   9 273.557  12.936   3
   6   0  -9 284.161   9.878   1
   0   6   9 283.278  12.007   5
  -6   0   9 270.699  12.156   3
   0   6  -9 281.952  10.120   1
  -6   0  -9 280.174  10.045   1
  -6   0   9 264.581  12.930   5
  -6   0  -9 269.057   9.665   4
   0  -6   9 259.564  12.279   8
   0  -6  -9 269.023   9.017   4
   1  -6   9 62.3563  7.8148   8
  -6   1  -9 72.4584  5.8547   1
  -1   6   9 69.7476  7.4477   7
   6  -1  -9 61.3271  5.3021   4
   1  -6   9 83.2038  8.3797   3
   1   6  -9 60.3663  5.7205   1
  -1  -6  -9 71.2129  5.1932   4
   6   1   9 72.9494  8.0601   8
  -1   6   9 67.9571  8.1170   3
  -6  -1   9 61.6259  7.3901   3
  -6  -1   9 71.7798  7.8793   7
   6  -1  -9 77.2925  5.9606   1
  -1  -6  -9 59.9874  5.5445   1
  -1   6   9 61.8512  7.2048   5
  -6  -1   9 72.0503  8.5950   5
  -1  -6   9 71.9219  8.2076   3
  -1   6  -9 68.4494  6.0805   1
   1   6   9 66.5905  8.2947   3
   1  -6  -9 63.7645  4.9568   4
  -6   1   9 78.2233  7.8090   3
   1   6   9 62.1846  7.1533   7
   1  -6  -9 70.2265  5.6939   1
   1   6   9 78.9694  8.4912   8
  -6  -1  -9 60.0232  5.2505   4
   6   1  -9 73.6296  5.6760   4
  -6   1   9 67.9258  8.5600   5
  -6   1   9 70.3126  7.9382   7
  -6  -1  -9 66.0485  5.7802   1
  -1  -6   9 66.6354  7.6162   5
   1  -6  -9 61.2014  4.9275   4
   6   1  -9 55.8163  5.4475   1
   6  -1   9 72.0843  8.1389   8
  -1  -6   9 61.0112  7.4202   8
  -2  -6  -9 73.8653  6.0679   1
  -2   6   9 97.0855  9.1106   3
  -6  -2   9 74.8333  8.2714   7
  -6  -2   9 69.6124  7.7444   3
  -2   6   9 81.7028  8.3067   7
   2   6  -9 71.3605  6.3106   1
  -6   2  -9 81.4518  6.4142   1
   6  -2  -9 80.8939  5.7662   4
  -2  -6  -9 72.5758  5.6069   4
  -6  -2   9 78.1568  8.5585   5
   6  -2  -9 89.7481  6.3063   1
   6   2   9 83.4383  8.3064   8
   2  -6   9 89.7814  8.2016   3
  -2   6   9 95.6932  8.5906   5
   2  -6   9 88.2074  8.8077   8
   2  -6  -9 79.4077  6.0760   1
   2   6   9 99.2131  9.4165   3
  -6   2   9 93.0946  9.4616   5
   6  -2   9 71.0737  8.4305   8
  -6  -2  -9 76.5858  6.1502   1
   6   2  -9 73.0875  6.1819   1
  -6   2   9 64.6180  7.9408   7
   2   6   9 76.0604  8.4214   8
  -2  -6   9 89.6279  8.9668   3
  -6   2   9 72.6869  7.6746   3
   2  -6  -9 80.2453  5.4958   4
  -2   6  -9 63.9352  6.1492   1
  -6  -2  -9 89.2232  6.0907   4
   6   2  -9 69.5068  5.9366   4
  -2  -6   9 80.4372  8.1172   5
  -2  -6   9 84.4086  8.1976   7
  -3   6   9 73.1144  8.2011   7
   6   3   9 74.0698  7.8583   3
  -6  -3   9 65.8347  8.1938   5
   6  -3  -9 64.3024  5.9043   1
  -6   3  -9 62.2326  6.1363   1
  -3  -6  -9 66.7715  5.6101   4
   3  -6   9 73.4513  8.4024   8
   6  -3  -9 65.4682  5.6586   4
  -3   6   9 76.4781  7.8871   5
  -6  -3   9 76.7302  8.1827   3
  -6  -3   9 77.0000  8.1470   7
   3   6  -9 66.1786  6.2894   1
   6   3   9 63.6107  7.6094   8
  -3  -6  -9 65.3945  5.9435   1
   3  -6   9 73.6407  7.8154   3
  -3   6   9 70.0283  8.3170   3
  -3  -6   9 57.7405  7.9820   3
  -3  -6   9 60.8838  7.3104   7
  -6   3   9 62.4081  8.5930   7
   3  -6  -9 72.7432  6.1567   1
   6   3  -9 69.0642  6.2511   1
  -6  -3  -9 63.3929  5.5851   4
  -3   6  -9 47.7994  5.8851   1
  -6   3   9 72.8496  7.7083   3
   3   6   9 64.7142  8.0080   3
   3  -6  -9 64.7526  5.3362   4
   6  -3   9 79.4029  8.8360   8
  -6  -3  -9 61.9559  5.7970   1
   3   6   9 61.4314  7.6898   8
  -6   3   9 48.8046  7.5387   5
  -3  -6   9 63.6036  7.4247   5
  -4   6   9 12.4667  6.0929   5
   4  -6   9 -0.6170  5.8488   8
  -6  -4   9 9.22686 5.61897   3
   6   4   9 9.77519 5.74066   3
  -4   6   9 -3.2758  4.9892   7
  -6  -4   9 -1.1193  4.7531   7
   6   4   9 1.26215 5.11834   8
   6  -4  -9 3.71851 3.97436   1
  -6   4  -9 13.5592  4.6724   1
  -4   6   9 7.10193 5.37761   3
  -4  -6  -9 10.8842  4.4544   1
  -6  -4   9 -0.7119  4.9920   5
  -4  -6  -9 7.45588 3.84819   4
   4   6  -9 7.86664 4.24159   1
  -6   4   9 12.8716  5.5210   3
  -4  -6   9 6.71205 5.25340   5
  -6  -4  -9 12.9260  4.4293   1
  -6   4   9 -2.4978  5.6361   5
  -4  -6   9 13.9841  5.2918   7
   4   6   9 10.1751  5.7466   8
   4  -6  -9 7.14527 3.68573   4
  -4  -6   9 5.22867 5.66187   3
  -4   6  -9 3.56520 4.07134   1
  -6  -4  -9 9.93062 3.79771   4
   4  -6  -9 8.14081 4.19144   1
   6  -4   9 4.29398 5.79591   8
  -6   4   9 11.6648  6.2802   7
   6   4  -9 11.2167  4.4640   1
   5  -6   9 32.2019  7.7385   8
  -5   6   9 46.8335  7.6113   5
  -5  -6  -9 50.5882  5.6225   4
  -6  -5   9 56.5620  7.7402   5
   6  -5  -9 53.2992  5.9993   1
   5   6  -9 47.9246  6.2581   1
  -5  -6  -9 45.2825  5.8466   1
   6   5   9 46.8782  7.1294   8
  -5   6   9 48.0491  7.4382   3
  -5   6   9 50.4610  7.7073   7
  -6  -5   9 45.7669  7.1434   7
  -6   5  -9 44.2243  6.2267   1
  -6  -5   9 47.8295  7.8062   3
   6  -5   9 45.7847  8.0508   8
   5  -6  -9 42.8251  5.6725   1
  -5  -6   9 47.8005  7.1435   5
  -6   5   9 63.8359  7.9130   3
   6   5  -9 45.9252  5.8775   1
   5   6   9 55.3618  7.4668   8
  -6  -5  -9 52.6810  6.1259   1
  -5  -6   9 38.8335  7.5544   3
  -5  -6   9 50.1461  6.9674   7
  -6  -5  -9 39.1138  5.4499   4
  -6   5   9 57.8219  8.3694   5
   6   5  -9 39.9456  5.6515   1
  -6   5   9 40.1109  7.9933   7
  -5   6  -9 36.7315  5.6956   1
  -6  -6  -9 1.79288 4.18886   4
  -6   6   9 3.77176 6.34005   5
  -6   6   9 -1.9615  5.0533   3
   6  -6  -9 -0.1159  4.2603   1
  -6   6  -9 -1.5735  3.7201   9
  -6  -6  -9 -3.4700  4.2793   1
   6   6  -9 -0.5673  4.1986   9
  -6   6  -9 -4.7030  4.7035   1
  -6   6   9 0.92041 6.27979   7
   6  -6   9 -2.3147  5.3067   8
  -6  -6   9 4.15503 5.85075   3
  -6  -6   9 3.56250 5.69096   5
   6   6  -9 1.23731 4.23997   1
  -7   0  -9 -0.4196  3.5984   4
   0  -7  -9 1.78925 3.26828   4
   0  -7   9 -4.9837  5.2032   3
   0  -7  -9 -1.4006  3.8549   1
  -7   0   9 2.28989 4.99239   3
  -7   0   9 6.31862 5.47488   5
   7   0   9 -2.5220  4.9812   8
   0  -7   9 2.10037 5.19937   8
   7   0  -9 4.53717 4.04533   1
   0  -7   9 9.79599 5.27873   5
   0   7   9 6.87600 5.41168   3
   0   7  -9 -2.5864  3.9277   1
  -7   0  -9 -2.9714  3.8013   1
  -7   0   9 3.26114 5.00351   7
  -1   7   9 0.08173 5.40955   3
  -1  -7  -9 4.59686 3.89257   1
   7   1   9 -1.1662  4.9244   8
  -1  -7  -9 -1.2058  3.2640   4
  -7   1  -9 4.31239 4.34901   1
   1  -7   9 2.94354 5.14123   8
  -1   7   9 2.45330 5.07661   7
  -7  -1   9 3.76014 5.77061   5
  -7   1  -9 6.69873 3.87708   4
   1   7  -9 -3.5811  4.0507   1
   7  -1  -9 -0.9946  3.9773   1
  -7  -1   9 1.76986 5.29321   7
  -7  -1   9 5.56213 5.01040   3
   1  -7   9 7.14420 5.55106   3
   7   1  -9 1.11230 3.97107   1
   1  -7  -9 4.82805 3.57289   4
  -7   1   9 9.71462 6.13698   5
  -7  -1  -9 6.34117 3.72143   4
   1   7   9 -0.2354  5.6372   3
  -7   1   9 0.78616 4.68426   3
   1  -7  -9 6.08616 3.94108   1
   7  -1   9 -3.2696  4.5838   8
  -7  -1  -9 6.61709 4.14902   1
  -1  -7   9 -3.0378  4.8245   5
  -1  -7   9 0.96262 5.43106   3
   1  -7  -9 1.83293 3.47717   4
  -1   7  -9 10.3796  4.5523   1
  -7   1   9 8.79204 5.91413   7
  -7   2  -9 150.070   8.387   1
   2  -7   9 174.124  10.940   3
   2  -7   9 163.282  10.841   8
   7   2   9 150.658  10.294   8
  -2  -7  -9 155.086   8.137   1
   2   7  -9 172.013   8.898   1
  -2   7   9 150.526  10.823   3
  -7  -2   9 167.656  10.138   3
  -7  -2   9 163.222  10.557   7
   7  -2  -9 159.755   8.273   1
  -7  -2   9 141.421  10.778   5
  -2   7   9 162.919  10.211   7
  -2  -7  -9 151.990   7.707   4
  -7  -2  -9 155.190   8.477   1
  -7  -2  -9 154.552   8.085   4
  -2  -7   9 181.871  10.775   5
  -7   2   9 149.263  11.237   7
   2  -7  -9 149.894   7.620   4
   2  -7  -9 155.275   8.100   1
  -7   2   9 145.690   9.468   3
  -7   2   9 157.347  11.714   5
   7   2  -9 152.845   8.124   1
  -2   7  -9 157.363   8.437   1
  -2  -7   9 160.931  11.246   3
   7  -2   9 136.984  11.105   8
   7   3   9 9.32055 5.24459   8
  -7  -3   9 14.9626  5.7186   7
   7  -3  -9 15.3437  4.6350   1
   3  -7   9 5.61192 5.84739   8
   3  -7   9 11.4928  5.6592   3
  -7  -3   9 3.50465 5.65965   3
  -3   7   9 11.7217  6.1634   3
  -7   3  -9 13.6538  4.9895   1
  -3  -7  -9 16.8058  4.8107   1
  -3   7   9 8.01155 5.35006   7
  -3  -7  -9 11.7304  4.3137   4
  -7  -3   9 10.3293  6.0026   5
   3   7  -9 6.66391 4.25799   1
  -3  -7   9 1.32498 4.99812   7
  -3  -7   9 14.9078  6.0275   5
  -3   7  -9 7.89733 4.39490   1
   3  -7  -9 12.8554  4.5606   1
  -7   3   9 3.06534 6.10519   7
   3   7   9 3.38368 5.62597   8
  -3  -7   9 8.10499 6.10497   3
  -7  -3  -9 15.7002  4.7796   1
   7   3  -9 2.16212 4.34036   1
   7  -3   9 15.1799  6.2607   8
  -7  -3  -9 12.5244  4.0666   4
  -7   3   9 11.1589  5.3168   3
  -7  -4   9 76.1599  8.5751   3
  -4   7   9 72.9973  8.9110   3
   4   7  -9 81.3673  7.4970   1
  -7   4  -9 87.7041  7.4276   1
  -4  -7  -9 74.7005  6.6168   4
  -4   7   9 92.9166  9.0425   5
   7   4   9 84.4678  8.4621   8
  -7  -4   9 70.4268  8.1415   7
  -7  -4   9 84.4598  9.2032   5
   4  -7   9 74.6485  9.0971   8
   4   7  -9 71.5800  6.3431   9
  -4   7   9 78.3107  8.8148   7
   7  -4  -9 78.7983  6.8353   1
  -4  -7  -9 73.8501  6.8814   1
   7  -4   9 54.0920  8.5685   8
  -4   7  -9 74.7577  7.2102   1
   4  -7  -9 75.5652  6.9111   1
  -7   4   9 80.9902  9.5501   7
  -7  -4  -9 66.5329  6.3564   4
  -4  -7   9 78.5852  9.0378   3
   4   7   9 84.9570  8.9353   8
  -7   4   9 90.3255  8.7492   3
  -7  -4  -9 73.6745  6.9271   1
   7   4  -9 69.4679  6.9460   1
  -4  -7   9 69.6854  7.8977   5
  -4   7  -9 76.2559  6.4825   9
  -7  -5   9 29.9352  6.4116   7
   7  -5  -9 26.9204  5.7015   1
   5  -7   9 32.3650  8.1559   8
  -5  -7  -9 31.9039  5.7104   1
  -7  -5   9 37.5802  7.1998   5
  -5  -7  -9 33.5778  5.6386   4
  -7   5  -9 24.2003  5.8673   1
  -7   5  -9 30.3852  5.0696   9
  -5   7   9 23.1998  6.7257   3
  -5   7   9 35.2718  7.4018   7
  -5   7   9 23.2419  7.0946   5
   5   7  -9 26.7150  5.7046   1
   5   7  -9 27.0131  5.0055   9
  -7  -5   9 31.7415  6.8683   3
  -7   5   9 15.9057  6.1133   3
   7  -5   9 25.1706  7.7425   8
   7   5  -9 15.0430  4.8431   9
  -5  -7   9 27.0796  7.2238   3
  -5   7  -9 20.1842  4.7843   9
   7   5  -9 28.2831  5.7060   1
  -7   5   9 20.6089  7.0077   7
  -5   7  -9 21.0552  5.5269   1
  -7  -5  -9 25.8538  5.3351   4
   5  -7  -9 28.1266  5.5891   1
  -7  -5  -9 36.6773  5.9975   1
   7   5  -9 24.5356  5.7327   1
  -7   6  -9 -2.9675  4.6345   1
   6   7  -9 -5.8949  3.9784   9
  -6   7   9 6.30289 6.61905   7
   6   7  -9 -5.1944  4.5303   1
  -6  -7  -9 2.43492 4.87245   1
  -6   7   9 4.41633 6.03238   5
  -7   6  -9 4.33989 4.42603   9
  -6   7   9 2.81588 5.80203   3
   7  -6  -9 -1.0960  4.3398   1
  -7  -6   9 -9.0680  5.2190   3
   6  -7   9 -8.3796  6.5065   8
  -7  -6   9 -6.4348  5.3970   5
  -6   7  -9 -3.0495  4.7622   1
   7   6  -9 0.55907 4.41224   9
  -6   7  -9 0.10085 3.95423   9
   7   6  -9 1.44695 4.71269   1
   7  -6   9 5.11163 5.99834   8
   6  -7  -9 10.6895  5.0303   1
  -7  -6  -9 -1.4221  4.7565   1
  -7   6   9 0.52607 6.43636   7
  -7   6   9 -1.0527  5.8063   3
  -6  -7   9 2.76585 6.26694   3
  -7   7   9 -1.6154  6.5221   7
  -7  -7  -9 -1.6917  4.6995   1
   7   7  -9 2.17054 4.93437   1
   7   7  -9 6.53328 4.80171   9
   7  -7  -9 -2.0551  4.8319   1
  -7  -7  -9 3.00749 4.44026   9
  -7   7  -9 -3.2769  4.0913   9
   7  -7  -9 -0.9720  4.4912   9
  -7  -7   9 0.57873 6.32848   3
  -7   7   9 -1.1709  6.3139   5
  -7   7  -9 -1.2428  4.9957   1
  -7   7   9 -5.2449  5.7665   3
   0  -8  -9 209.999   9.257   4
   0  -8  -9 214.884   9.801   1
  -8   0   9 218.451  12.785   7
   0   8  -9 216.925  10.313   1
   8   0   9 215.704  12.323   8
  -8   0   9 214.183  13.258   5
   8   0  -9 208.992   9.629   1
   0  -8   9 227.560  12.958   3
  -8   0  -9 211.981  10.035   1
  -8   0   9 221.011  11.243   3
   0   8  -9 217.485   9.279   9
  -8   0  -9 223.254  10.074   4
  -1  -8  -9 -3.4371  4.1211   1
  -8  -1   9 -4.2344  5.1492   7
  -1  -8  -9 -7.7363  3.3394   4
   8  -1  -9 2.30901 4.41408   1
   8   1   9 4.71158 5.49642   8
   1   8  -9 2.81852 4.72162   1
   1  -8   9 6.98282 6.39272   3
   1  -8   9 -2.6075  5.1611   8
   1   8  -9 -2.9713  3.8467   9
  -8   1  -9 -5.6057  3.8709   4
  -8  -1   9 -0.4281  6.0649   5
  -8  -1   9 4.57745 5.03237   3
  -8   1  -9 5.58589 4.30992   1
   8  -1   9 5.88917 5.74915   8
  -1   8  -9 -1.5415  3.8390   9
  -1   8  -9 2.12047 4.47032   1
  -8  -1  -9 -3.0356  3.6915   4
  -1  -8   9 11.6143  6.3148   3
  -8   1   9 5.70927 5.54962   7
   8   1  -9 2.41126 4.50997   1
  -8   1   9 -2.9582  4.8011   3
  -8  -1  -9 9.69668 4.77498   1
   1  -8  -9 3.00728 3.95693   4
   1  -8  -9 2.02372 4.28920   1
   2   8  -9 8.28523 4.97486   1
   2   8  -9 3.57300 4.22102   9
   8   2   9 5.92532 5.42392   8
  -8  -2   9 -0.7001  5.8953   5
   8  -2  -9 7.66923 4.71764   1
  -2  -8  -9 7.57973 4.07308   4
  -8  -2   9 5.09465 5.57668   7
  -8  -2   9 11.8474  5.5685   3
   2  -8   9 9.77981 6.06489   3
  -8   2  -9 8.24492 4.67368   1
   2  -8   9 -2.6452  5.4610   8
  -2  -8  -9 5.84677 4.71276   1
   2  -8  -9 20.2507  5.1647   1
  -8  -2  -9 7.32767 4.73120   1
  -2  -8   9 18.1601  6.8142   3
   2  -8  -9 11.1379  4.2665   4
  -8   2   9 9.58342 6.45283   7
  -8  -2  -9 7.96121 4.41401   4
  -2   8  -9 12.4573  4.2706   9
   8  -2   9 4.05098 5.34788   8
  -2   8  -9 3.49790 4.52429   1
   8   2  -9 9.20979 4.49996   1
  -8   2   9 15.2345  5.5996   3
  -8   3  -9 3.80876 4.95755   1
   3  -8   9 6.63997 5.69719   3
   8   3   9 7.98692 5.45591   8
   3  -8   9 15.1078  6.7219   8
  -3  -8  -9 3.13331 4.62851   1
  -3   8   9 2.83666 5.32134   7
   3   8  -9 8.74690 4.29166   9
  -8  -3   9 17.3138  6.1571   7
  -8   3  -9 6.12572 4.14148   9
  -8  -3   9 4.75726 5.33636   3
  -3   8   9 4.03327 5.95370   3
  -3  -8  -9 12.2638  4.5379   4
   8  -3  -9 10.7775  4.8869   1
  -8  -3   9 8.70692 6.23905   5
   3   8  -9 4.29518 4.15162   9
   3   8  -9 4.99158 4.63899   1
  -8   3   9 12.2497  5.8379   3
   8   3  -9 8.62298 4.77964   1
  -3   8  -9 11.5939  4.4239   9
   3  -8  -9 9.38958 4.94912   1
   8   3  -9 13.0007  4.5538   9
  -3  -8   9 -2.2396  6.1209   3
  -3   8  -9 4.80642 5.07739   1
  -8  -3  -9 11.1898  4.7536   4
  -8  -3  -9 10.3918  4.6262   1
  -8   3   9 1.72795 6.01562   7
   8  -3   9 -2.4682  5.7209   8
  -8  -4   9 4.40388 5.30656   3
  -8  -4   9 -0.9107  5.6528   7
   8  -4  -9 9.54694 4.99119   1
   4   8  -9 4.06086 4.49562   9
  -4   8   9 5.72864 6.00985   7
   4   8  -9 8.13389 5.28197   1
  -4  -8  -9 8.26981 4.81616   1
   4  -8   9 3.32249 6.40398   8
  -4   8   9 4.38301 6.12974   3
  -8   4  -9 10.5758  4.4239   9
  -8   4  -9 8.59279 5.21574   1
  -8  -4   9 6.44047 5.90584   5
  -4  -8   9 4.01259 6.40843   3
   8   4  -9 5.64092 4.43405   9
   4  -8  -9 4.18479 4.57422   1
  -8   4   9 4.17847 6.93685   7
  -8  -4  -9 6.80533 5.12569   1
  -4   8  -9 -2.4280  4.2789   9
  -4   8  -9 4.12887 4.94241   1
  -8  -4  -9 9.35486 4.61045   4
   8   4  -9 7.76115 4.94991   1
   8  -4   9 5.42643 6.61822   8
  -5  -8  -9 9.03694 5.14748   1
  -8   5  -9 14.0049  5.8472   1
  -5   8   9 8.58532 7.08816   3
   8  -5  -9 11.8335  5.0356   1
  -5   8   9 19.2587  6.9975   7
  -8   5  -9 12.5112  4.6663   9
   5   8  -9 11.7050  4.8670   9
  -8  -5   9 14.8369  6.9130   5
  -8  -5   9 12.1663  6.2581   3
   5  -8   9 4.00751 6.84094   8
   5   8  -9 10.2587  5.6043   1
   5  -8  -9 10.1361  5.3879   1
  -8  -5  -9 15.5468  5.5918   1
   8   5  -9 -1.1995  4.8383   1
  -5   8  -9 4.35702 4.44928   9
  -8   5   9 25.5491  8.3765   7
  -5   8  -9 10.6646  5.3394   1
   8  -5   9 21.5508  7.6747   8
   8   5  -9 13.5886  4.9652   9
   8   5  -9 7.49275 5.19660   1
  -5  -8   9 6.57149 6.74974   3
   6   8  -9 237.431  11.777   1
   8  -6  -9 229.937  11.284   1
  -6   8   9 241.627  14.327   7
  -8   6  -9 221.470  11.776   1
   6   8  -9 227.795  10.532   9
   8  -6  -9 235.111  10.616   9
  -6  -8  -9 207.178  11.049   1
  -8  -6   9 278.217  14.281   3
  -8   6  -9 242.592  10.715   9
  -6  -8  -9 240.401  10.699   9
   6  -8  -9 218.279  11.163   1
   8   6  -9 243.431  11.212   9
   6  -8  -9 239.034  10.802   9
  -8   6   9 240.634  15.586   7
  -8  -6  -9 237.778  10.399   9
  -6   8  -9 224.576  10.744   9
   8   6  -9 246.902  11.773   1
  -8  -6  -9 231.376  11.551   1
  -6  -8   9 246.654  14.641   3
  -6   8  -9 217.174  11.678   1
   8  -7  -9 11.8387  5.2910   9
  -7   8   9 35.5640  8.5987   7
   7   8  -9 9.89581 5.77121   1
  -8  -7   9 23.3602  7.5689   3
  -8   7  -9 26.4700  5.3455   9
   8  -7  -9 18.6372  5.9156   1
  -8   7  -9 24.4963  6.4275   1
  -7  -8  -9 23.6288  6.2931   1
   7   8  -9 15.4374  5.6097   9
  -7  -8  -9 26.3686  5.7824   9
   8   7  -9 21.9383  6.1085   1
   7  -8  -9 22.6117  5.6276   9
   7  -8  -9 17.6628  6.2002   1
  -8   7   9 18.0902  8.3660   7
  -8  -7  -9 18.1982  5.4261   9
  -7  -8   9 10.6019  7.2181   3
  -8  -7  -9 28.5410  6.2435   1
  -7   8  -9 18.5478  5.6747   9
  -7   8  -9 15.1050  6.0187   1
   8   7  -9 18.0549  5.8152   9
  -8   8  -9 -9.0598  5.1726   1
  -8   8  -9 3.43382 5.40231   9
   8  -8  -9 2.63135 4.88944   9
  -8  -8  -9 8.75143 5.53954   1
   8  -8  -9 0.98574 5.43711   1
   8   8  -9 5.78326 5.74531   1
  -8  -8  -9 8.00375 4.92114   9
  -8   8   9 -2.2541  7.4923   7
  -8  -8   9 -8.0732  6.1841   3
   8   8  -9 11.5539  5.8212   9
   9   0  -9 1.06607 4.20825   9
   0   9  -9 8.96751 4.52233   9
  -9   0  -9 -1.1245  3.8991   9
   0  -9  -9 -1.9081  4.8400   1
  -9   0  -9 -1.3571  4.5027   1
  -9   0   9 4.00264 6.17294   7
   9   0   9 3.10668 5.88768   8
   0  -9   9 1.45353 6.42818   3
  -9   0   9 3.36663 5.22354   3
   0   9  -9 4.51706 5.04204   1
   9   0  -9 -4.2448  4.5078   1
   1  -9   9 43.6910  8.4397   3
   9  -1  -9 35.6320  6.3431   1
   1   9  -9 45.3850  5.8950   9
   9  -1  -9 44.6980  5.8394   9
  -9  -1   9 37.4290  8.3524   5
  -9  -1   9 27.9826  7.0723   7
  -9   1  -9 42.2672  6.3354   1
   9   1   9 46.7657  7.7307   8
  -9  -1   9 41.6718  7.1228   3
  -9   1  -9 33.1689  5.5248   9
  -1  -9  -9 38.1962  6.2334   1
   1   9  -9 36.2446  6.2567   1
  -1   9  -9 41.1366  6.4083   1
   1  -9  -9 39.6631  6.1147   1
   9  -1   9 39.4455  7.7449   8
  -1  -9   9 28.4757  8.3717   3
   9   1  -9 43.0961  6.2110   1
  -9  -1  -9 34.7473  5.4410   9
  -9   1   9 45.3850  8.5077   7
   9   1  -9 37.1306  5.8161   9
  -9  -1  -9 38.1778  6.4050   1
  -1   9  -9 46.0784  5.8841   9
  -9  -2   9 0.90134 5.72819   7
  -9  -2   9 -2.8333  5.4398   3
   2  -9   9 3.63239 5.98255   8
   2   9  -9 -1.2648  4.2093   9
  -9  -2   9 4.97140 6.50037   5
   9   2   9 9.07514 5.99561   8
  -9   2  -9 -1.8930  4.5463   1
  -2  -9  -9 -0.0746  4.7422   1
   2   9  -9 -4.0066  4.0214   9
   2  -9   9 -0.8367  5.6486   3
   9  -2  -9 6.82686 4.78655   1
   2   9  -9 4.29824 4.99779   1
  -9   2  -9 -1.1216  3.8857   9
   9  -2  -9 2.61713 4.30259   9
   9  -2   9 0.42234 6.12696   8
  -9  -2  -9 3.49670 4.44764   9
  -2   9  -9 1.39638 4.19108   9
  -2  -9   9 5.90877 7.00306   3
  -9   2   9 -4.1328  5.6066   7
   9   2  -9 4.11700 4.57914   1
   9   2  -9 0.13877 4.09186   9
  -2   9  -9 2.97686 4.81235   1
  -9  -2  -9 1.02926 4.87124   1
   2  -9  -9 3.26893 4.87318   1
  -9   3  -9 19.8003  6.0730   1
   3   9  -9 15.0149  5.5899   1
   3   9  -9 14.8697  4.8965   9
   3  -9   9 18.5543  7.3133   8
  -9   3  -9 10.5267  4.5918   9
   9  -3  -9 14.1650  5.2752   1
  -9  -3   9 9.95416 6.12689   7
  -9  -3   9 18.2932  7.0659   5
  -3  -9  -9 22.5694  5.9060   1
  -9  -3   9 15.2955  6.2642   3
   9  -3  -9 15.9441  5.0542   9
  -3   9  -9 19.5978  5.0957   9
   9  -3   9 18.8581  7.1363   8
   9   3  -9 15.0832  4.9012   9
   9   3  -9 22.6794  5.6265   1
  -9  -3  -9 19.2424  5.5031   1
  -9   3   9 17.9505  7.0619   7
  -9  -3  -9 23.4962  5.0079   9
  -3  -9   9 7.68144 7.42390   3
  -3   9  -9 19.4624  5.7759   1
   3  -9  -9 13.7068  5.2669   1
  -9   4  -9 128.402   8.164   9
   4   9  -9 133.969   9.389   1
   9  -4  -9 128.566   8.893   1
  -4  -9  -9 118.439   9.309   1
   4   9  -9 124.087   8.547   9
  -9  -4   9 118.278  11.194   5
   9  -4  -9 128.246   8.462   9
  -9  -4   9 147.501  10.477   3
  -9   4  -9 117.959   9.552   1
   4  -9   9 127.835  12.351   8
   9   4  -9 112.098   9.137   1
  -4   9  -9 139.367   8.610   9
  -4  -9   9 107.482  11.940   3
  -4   9  -9 131.557   9.488   1
   4  -9  -9 130.234   9.108   1
  -9  -4  -9 135.064   8.344   9
  -9  -4  -9 144.862   9.714   1
   9   4  -9 122.723   8.215   9
  -9   4   9 142.484  13.233   7
  -9  -5   9 20.7672  6.9455   3
  -9   5  -9 20.9070  5.4626   9
  -5  -9  -9 18.4925  5.7833   1
   9  -5  -9 19.2182  5.4556   9
  -5  -9  -9 16.6888  5.1223   9
   5   9  -9 3.83890 4.86776   9
   9  -5  -9 29.0897  6.0501   1
  -9  -5   9 16.6365  7.3049   5
   5   9  -9 18.4310  5.8828   1
  -5   9   9 20.7189  7.1774   7
  -9   5  -9 28.4205  6.5360   1
  -5  -9   9 15.1831  7.8050   3
   9   5  -9 21.1634  6.0928   1
  -5   9  -9 24.5888  6.3511   1
   5  -9  -9 18.8057  5.3588   9
   5  -9  -9 16.9632  5.5821   1
   9   5  -9 11.5335  5.6359   1
  -5   9  -9 21.7288  5.5277   9
   9   5  -9 21.4367  5.7223   9
  -9   5   9 21.9167  9.0053   7
  -9  -5  -9 13.6056  5.8887   1
  -9  -5  -9 6.99191 4.94116   9
  -6  -9  -9 98.1093  9.0074   1
  -9   6  -9 85.7955  9.0161   1
   9  -6  -9 95.7583  8.1591   9
  -9   6  -9 87.2270  7.8814   9
  -6  -9  -9 98.6832  8.0677   9
   6   9  -9 102.157   8.432   9
   9  -6  -9 93.2217  9.0865   1
  -6   9   9 118.135  11.874   7
   6   9  -9 95.2435  9.0502   1
  -9  -6   9 103.274  10.696   3
  -6   9  -9 87.0117  8.9332   1
  -9  -6  -9 98.2198  9.1751   1
  -6  -9   9 86.6584 11.1815   3
  -9  -6  -9 98.2508  8.2850   9
  -6   9  -9 89.9558  8.1880   9
  -9   6   9 92.6767 12.7825   7
   6  -9  -9 100.637   8.296   9
   9   6  -9 63.4224  8.2023   1
   9   6  -9 87.6049  8.3754   9
   6  -9  -9 87.9800  8.5479   1
   9   6  -9 101.002   9.306   1
  -7   9   9 6.55103 7.48069   7
   7   9  -9 5.64219 5.81676   1
  -7  -9  -9 9.37008 5.07257   9
  -7  -9  -9 3.56964 5.77700   1
   7   9  -9 12.8896  5.8320   9
  -9   7  -9 14.0552  6.5369   1
  -9  -7   9 0.92981 6.87130   3
  -9   7  -9 10.3738  5.1449   9
   9  -7  -9 10.8330  5.7895   1
   9  -7  -9 13.3043  5.1642   9
   7  -9  -9 14.1114  6.1327   1
  -9  -7  -9 11.8512  5.3817   9
  -7   9  -9 13.8869  6.4079   1
   7  -9  -9 4.94335 5.11288   9
  -9   7   9 14.0914  9.2061   7
  -7   9  -9 8.38266 5.27982   9
   9   7  -9 5.52362 5.79244   1
  -9  -7  -9 1.47014 5.57215   1
  -7  -9   9 13.1365  7.7985   3
   9   7  -9 7.00535 5.63915   9
  10   0   9 142.322  11.640   8
   0 -10  -9 146.765   9.686   1
 -10   0  -9 120.830   9.759   1
 -10   0  -9 148.013   8.628   9
 -10   0   9 123.481  11.902   7
   0  10  -9 155.858   9.093   9
  10   0  -9 130.965   9.173   1
   0  10  -9 128.320   9.675   1
   0 -10   9 123.743  12.334   3
  10   0  -9 136.287   8.686   9
   1  10  -9 9.03202 5.39063   1
   1  10  -9 0.36862 4.38081   9
   1 -10   9 8.50793 7.14849   3
  10  -1  -9 -3.8411  4.3138   9
  10  -1  -9 9.43576 5.25652   1
 -10   1  -9 12.0543  4.7419   9
   1  10  -9 3.96474 4.56125   9
 -10  -1   9 6.04110 6.44848   7
 -10   1  -9 1.39678 5.45047   1
  -1 -10  -9 3.32740 4.98869   1
 -10   1   9 -4.7372  6.3512   7
  -1  10  -9 2.64038 4.85750   9
  10   1  -9 1.53948 5.06963   1
  10   1  -9 8.66237 4.67537   9
   1 -10  -9 7.03106 5.08170   1
  10  -1   9 -3.3908  6.4355   8
  -1 -10   9 -1.1775  7.3992   3
 -10  -1  -9 1.58009 4.98501   1
 -10  -1  -9 -1.8310  4.4320   9
  -1  10  -9 1.19647 5.17849   1
 -10  -2   9 -6.8145  5.7412   7
  -2 -10  -9 -0.9414  4.4610   9
  10  -2  -9 -2.1203  4.5834   1
   2  10  -9 -3.8956  5.0069   1
 -10  -2   9 2.29846 6.52520   5
 -10   2  -9 -4.0445  4.8063   1
   2  10  -9 -7.6667  4.3288   9
 -10   2  -9 8.55840 4.59133   9
   2 -10   9 -4.4541  6.3654   3
  -2 -10  -9 -0.4560  5.2581   1
  10  -2  -9 3.52829 4.68229   9
  10   2  -9 -1.6516  4.8270   1
 -10  -2  -9 4.96588 5.17997   1
  -2 -10   9 -0.2002  7.6505   3
  10   2  -9 0.12729 4.50628   9
  -2  10  -9 -3.8783  4.3423   9
   2 -10  -9 -0.8459  4.4931   9
  -2  10  -9 -2.4729  5.1935   1
 -10  -2  -9 1.42815 4.64776   9
 -10   2   9 3.52568 6.90164   7
   2 -10  -9 12.0864  5.5953   1
 -10   3  -9 129.363   9.760   1
   3 -10   9 142.521  12.821   8
 -10   3  -9 144.910   8.757   9
  -3 -10  -9 144.435   9.125   9
  10  -3  -9 150.238   8.966   9
 -10  -3   9 158.861  12.382   7
  -3 -10  -9 140.566   9.551   1
   3  10  -9 153.051   9.485   9
   3  10  -9 146.326  10.198   1
 -10  -3   9 152.536  12.979   5
  10  -3  -9 152.252   9.836   1
 -10  -3  -9 125.625   9.501   1
   3 -10  -9 129.722   9.465   1
  -3  10  -9 149.081   9.389   9
  10   3  -9 135.631   9.626   1
  10   3  -9 133.489   9.004   9
 -10  -3  -9 137.098   8.787   9
 -10   3   9 156.468  14.127   7
  -3  10  -9 136.269  10.200   1
   3 -10  -9 146.458   8.843   9
  -3 -10   9 142.961  13.821   3
  -4 -10  -9 106.930   8.386   9
 -10  -4   9 81.2512 10.2304   5
   4  10  -9 85.1173  8.9000   1
 -10   4  -9 81.6575  8.7281   1
  10  -4  -9 102.864   8.392   9
  10  -4  -9 88.8228  8.6683   1
 -10  -4   9 93.9302  9.8506   3
 -10   4  -9 76.1143  7.8000   9
   4  10  -9 92.6611  8.3045   9
  -4 -10  -9 84.4530  8.5171   1
  -4 -10   9 113.640  13.109   3
 -10   4   9 87.9066 12.0539   7
 -10  -4  -9 88.0427  8.8067   1
  -4  10  -9 100.981   8.344   9
 -10  -4  -9 101.216   8.435   9
   4 -10  -9 88.2245  8.7620   1
  10   4  -9 95.5540  8.1967   9
  -4  10  -9 85.9219  8.8670   1
  10   4  -9 95.2638  9.1481   1
   4 -10  -9 93.7462  7.9840   9
   5  10  -9 47.1884  7.4630   1
   5  10  -9 53.1721  7.4611   9
  10  -5  -9 53.3176  7.5535   1
 -10  -5   9 65.3621  9.2074   5
 -10   5  -9 69.5672  7.2692   9
  -5 -10  -9 55.9883  6.9562   9
  10  -5  -9 55.0548  6.8381   9
  -5 -10  -9 49.0746  7.3975   1
 -10   5  -9 36.1843  7.1725   1
 -10  -5   9 75.5079  9.4228   3
  10   5  -9 57.3023  7.9851   1
  -5 -10   9 62.6574 10.7663   3
 -10   5   9 62.9053 11.2628   7
   5 -10  -9 59.1510  7.6522   1
  10   5  -9 59.9286  8.0090   1
   5 -10  -9 51.1113  6.9113   9
  10   5  -9 52.2104  6.8122   9
 -10  -5  -9 49.9095  7.5760   1
  -5  10  -9 51.4311  7.8439   1
 -10  -5  -9 55.8715  6.7560   9
  -5  10  -9 47.4265  7.1074   9
 -10  -6   9 33.3161  8.2399   3
  10  -6  -9 26.7691  6.6047   1
   6 -10  -9 45.7500  7.7989   1
  -6 -10   9 45.4033  9.9098   3
   0 -11  -9 4.30679 4.79471   9
   0  11  -9 -6.1563  4.2862   9
 -11   0  -9 -2.6903  5.2319   1
   0  11  -9 0.58886 5.53262   1
   0 -11  -9 0.16306 5.28800   1
  11   0  -9 -3.2925  4.8097   9
  11   0  -9 -3.2874  5.2029   1
 -11   0   9 -1.6090  6.6702   7
 -11   0  -9 -3.7465  4.6348   9
   0 -11   9 11.7104  8.1789   3
   0  11  -9 -4.0747  4.2733   9
 -11   1  -9 22.6137  6.4270   1
  11  -1  -9 15.3824  6.0212   1
   1 -11   9 26.4232  8.9107   3
  -1 -11  -9 25.7993  5.8447   9
 -11  -1   9 32.8692  8.0749   7
   1  11  -9 29.2970  6.2226   9
  -1 -11  -9 21.9294  6.2876   1
   1  11  -9 10.1179  6.1460   1
 -11   1  -9 35.3051  6.2448   9
  11  -1  -9 25.5912  6.0888   9
   1  11  -9 22.8651  5.7764   9
 -11   1   9 24.3136  7.3968   7
   1 -11  -9 27.1017  6.4865   1
   1 -11  -9 23.7881  5.9267   9
 -11  -1  -9 19.2472  6.3436   1
  11   1  -9 27.1506  5.8108   9
  -1  11  -9 32.0658  6.2150   9
  -1 -11   9 27.6366  9.5716   3
  -1  11  -9 24.0502  6.6313   1
 -11  -1  -9 28.0982  5.6197   9
  11   1  -9 20.3220  6.1231   1
 -11   2  -9 16.2408  5.9038   1
   2 -11   9 13.4886  7.4670   3
 -11  -2   9 4.31784 6.26364   7
  11  -2  -9 10.6492  6.1363   1
 -11   2  -9 22.5561  5.6267   9
  11  -2  -9 2.72412 5.04097   9
  -2 -11  -9 7.24917 5.73719   1
   2  11  -9 7.19242 6.20778   1
  -2 -11  -9 12.2699  5.3634   9
   2  11  -9 15.8649  6.0099   9
 -11   2   9 6.56309 7.63324   7
   2 -11  -9 21.1429  5.6554   9
  11   2  -9 14.7410  5.2856   9
   2 -11  -9 7.45468 5.64574   1
 -11  -2  -9 6.62479 5.00416   9
 -11  -2  -9 11.0641  6.1502   1
  -2  11  -9 16.4590  6.3894   1
  11   2  -9 15.5152  5.9773   1
  -2 -11   9 21.0701  9.6870   3
  -2  11  -9 7.43591 4.96270   9
 -11   3  -9 3.14721 5.64851   1
  -3 -11  -9 5.27438 5.83973   1
  -3 -11  -9 -1.5465  4.8687   9
   3  11  -9 -0.9217  4.8988   9
  11  -3  -9 -4.3308  5.7984   1
  11  -3  -9 4.25596 5.33151   9
 -11   3  -9 -6.4073  4.6655   9
 -11  -3   9 1.92307 6.99093   5
   3  11  -9 5.34267 5.85324   1
  -3  11  -9 -2.9065  4.7528   9
  -3  11  -9 2.54033 5.71798   1
 -11  -3  -9 7.89825 5.34040   9
  -3 -11   9 8.48241 8.74382   3
 -11  -3  -9 4.65559 5.61935   1
   3 -11  -9 1.81913 5.00383   9
  11   3  -9 2.01987 5.45696   1
  11   3  -9 -1.1518  4.5827   9
 -11   3   9 0.92709 7.84244   7
   3 -11  -9 -2.7953  5.2313   1
   0   0  10 412.189  15.623   7
   0   0  10 433.299  16.132   8
   0   0  10 443.304  16.049   5
   0   0  10 451.900  15.879   3
   1   0  10 5.50876 4.85549   8
  -1   0  10 -2.0478  4.0427   7
   0   1  10 5.56645 4.70419   3
   1   0  10 7.79940 4.94244   3
   0  -1  10 4.06209 4.93713   5
   1   0  10 -0.9784  4.5327   7
  -1   0  10 7.03086 5.08120   8
   1   0  10 -1.6559  4.7123   5
   0  -1  10 -0.8261  4.5488   7
  -1   0  10 0.93088 4.84139   5
  -1   0  10 0.03219 4.53191   3
   0  -1  10 -0.0333  4.5201   8
   0   1  10 -7.2338  4.3357   8
   0  -1  10 4.16978 4.49763   3
   0   1  10 9.28798 5.01417   5
   0   1  10 -6.9036  4.3808   7
   1   1  10 375.490  14.419   3
  -1  -1  10 376.387  14.707   5
  -1  -1  10 358.211  14.662   8
   1   1  10 366.286  14.847   8
  -1   1  10 327.349  14.099   7
   1  -1  10 346.465  14.427   5
   1  -1  10 370.913  14.233   3
  -1  -1  10 357.092  14.279   3
   1   1  10 366.764  14.446   7
  -1   1  10 382.324  14.835   8
   1  -1  10 370.175  14.623   7
   1   1  10 373.030  14.542   5
  -1   1  10 382.481  14.240   3
  -1  -1  10 383.295  14.779   7
   1  -1  10 359.056  14.766   8
  -1   1  10 362.156  14.242   5
   0   2  10 1784.58   42.21   8
   2   0  10 1743.83   41.16   7
   0  -2  10 1726.83   41.18   7
   0  -2  10 1769.04   41.87   8
   0  -2  10 1762.15   41.27   5
  -2   0  10 1814.17   41.68   5
   2   0  10 1840.19   40.57   3
   2   0  10 1820.16   41.64   5
   0   2  10 1805.02   40.88   3
  -2   0  10 1832.27   41.80   7
   2   0  10 1782.34   42.13   8
   0   2  10 1824.17   41.44   7
   0  -2  10 1792.09   40.72   3
  -2   0  10 1810.23   42.12   8
   0   2  10 1832.01   41.26   5
  -2   0  10 1763.49   40.62   3
   0   2 -10 1793.58   34.15   1
   2   1  10 62.4515  7.3553   3
  -1   2  10 67.9409  7.7721   7
  -2   1 -10 70.3849  3.8919   1
   1  -2  10 57.1557  7.5006   8
   2   1  10 56.5162  7.3983   7
   2   1  10 64.2087  7.6383   5
  -1   2  10 63.2569  7.7143   5
   1  -2  10 56.2210  7.1836   3
  -2  -1  10 53.7373  7.2099   8
  -1   2  10 66.1244  7.8791   8
   1  -2  10 75.9148  7.8092   7
  -2  -1  10 72.7732  7.9476   3
  -1   2  10 71.6579  7.7906   3
   2   1  10 69.1607  7.8725   8
  -2  -1  10 71.8611  7.7309   7
   1  -2  10 66.8521  7.4315   5
  -2  -1  10 64.9957  7.6951   5
   1   2 -10 65.0596  4.0446   1
   2  -1  10 52.6617  7.3988   8
  -1  -2  10 78.0460  8.0109   8
  -2   1  10 73.8990  7.7471   7
  -1   2 -10 65.4536  3.9999   1
   2   1 -10 68.7679  3.8935   1
   1   2  10 68.1584  7.5592   3
  -2   1  10 70.4413  7.6644   3
   2  -1  10 61.8118  7.2568   3
  -1  -2  10 68.1920  7.9202   5
   1   2  10 70.9821  7.5518   5
  -2   1  10 66.1832  7.7750   8
   1   2  10 57.8670  7.1948   7
   2  -1  10 71.2118  7.9839   5
  -2   1  10 60.5908  7.5879   5
   2  -1  10 64.6649  7.6837   7
  -1  -2  10 62.9171  7.6073   7
  -1  -2  10 67.9908  7.5441   3
   1   2  10 74.2835  7.8100   8
  -2  -2  10 2566.36   56.80   8
   2   2  10 2602.01   57.43   8
  -2   2  10 2595.28   57.72   8
   2   2  10 2567.14   55.84   7
   2  -2  10 2642.69   56.86   5
   2  -2  10 2569.46   57.58   8
  -2   2 -10 2645.07   49.69   1
  -2   2  10 2623.96   56.47   5
   2   2  10 2662.26   56.30   5
   2  -2 -10 2659.56   48.86   1
  -2   2  10 2566.63   56.47   7
  -2   2  10 2633.63   56.04   3
  -2  -2  10 2675.90   56.82   5
  -2  -2  10 2615.43   56.59   7
   2   2  10 2785.54   56.20   3
  -2  -2 -10 2611.39   48.78   1
   2  -2  10 2662.90   55.24   3
   2   2 -10 2692.40   49.70   1
  -2  -2  10 2668.76   56.15   3
   0   3  10 -4.0261  4.5294   7
  -3   0 -10 0.34408 2.64717   1
   0   3  10 9.84814 5.03983   5
  -3   0  10 -6.0985  4.8369   5
   0   3  10 -1.5802  4.8318   3
   0   3 -10 -1.7534  2.6270   1
   3   0  10 0.55054 4.51148   3
   3   0 -10 -1.3109  2.4065   1
   0  -3  10 -2.5785  4.1103   7
   0  -3  10 -0.4730  4.7341   3
   3   0  10 7.42244 4.67109   8
  -3   0  10 2.97154 4.49656   7
   0  -3  10 1.26543 4.79922   8
  -3   0  10 -4.4707  4.6168   3
   3   0  10 0.23096 4.99145   5
   0  -3  10 0.67074 4.94908   5
   0   3  10 -5.6748  4.4944   8
  -3   0  10 -2.8202  4.8062   8
  -1   3  10 406.540  15.707   8
  -3  -1  10 355.947  14.939   7
   1   3 -10 387.465  10.243   1
   3  -1 -10 396.143   9.679   1
  -3  -1  10 393.815  15.140   5
   1  -3  10 392.263  14.774   3
  -1   3  10 395.583  15.143   7
  -1   3  10 405.511  15.158   5
   3   1  10 376.626  15.033   8
  -1   3  10 371.613  14.959   3
   1  -3  10 337.641  14.801   8
   3   1  10 358.755  14.776   5
  -3   1 -10 395.269   9.960   1
   1  -3  10 380.420  15.256   5
   3   1  10 362.042  14.150   3
  -3  -1  10 354.649  14.806   8
  -1  -3 -10 378.549   9.233   1
  -3  -1  10 392.039  14.974   3
  -3   1  10 355.071  15.094   5
   1  -3 -10 374.791   9.182   1
   3  -1  10 395.130  14.377   3
  -3   1  10 372.631  15.488   8
   1   3  10 362.138  14.760   3
  -3   1  10 362.731  14.664   3
   1   3  10 385.483  15.518   8
  -1  -3  10 384.138  14.913   3
   1   3  10 360.095  14.356   7
  -3  -1 -10 373.974   9.538   1
  -1  -3  10 403.437  15.319   8
  -1  -3  10 380.102  15.097   5
  -1  -3  10 389.753  15.108   7
  -3   1  10 374.985  15.171   7
  -1   3 -10 387.841  10.162   1
   3  -1  10 333.321  14.847   8
   3   1 -10 386.128   9.882   1
   1   3  10 356.660  14.417   5
   3   2  10 33.8405  6.3526   5
  -2   3  10 21.5287  5.7652   3
   3  -2 -10 27.0003  3.4012   1
  -3   2 -10 27.0539  3.7590   1
   2   3 -10 30.7396  3.7625   1
   3   2  10 35.8467  6.4588   3
  -2   3  10 34.5253  6.5676   5
   3   2  10 23.0803  5.9024   7
  -2   3  10 17.8533  6.3518   8
   2  -3  10 29.8184  6.4976   5
   2  -3  10 22.4235  5.9324   8
  -2  -3 -10 21.8125  3.1842   1
  -3  -2  10 23.6108  5.9332   3
  -3  -2  10 23.8969  5.6969   7
   3   2  10 9.70188 5.42040   8
   2  -3  10 28.3993  6.0783   3
  -3  -2  10 26.4080  6.3738   5
  -2   3  10 28.0127  6.2072   7
  -3  -2  10 21.6260  5.9376   8
  -2  -3  10 35.8876  6.1775   3
   2   3  10 28.6060  6.0322   7
   3  -2  10 23.5529  6.2366   8
   2   3  10 27.5543  6.4513   8
  -2   3 -10 28.0263  3.7156   1
  -2  -3  10 19.9143  5.8834   7
   2   3  10 20.4731  5.7684   5
   2   3  10 36.1109  6.7066   3
  -2  -3  10 27.2903  5.9585   5
   3   2 -10 28.4769  3.7318   1
   2  -3 -10 29.1443  3.3615   1
  -3   2  10 20.9645  5.7310   7
  -3   2  10 21.8031  5.5022   3
  -3   2  10 28.6864  6.6395   8
   3  -2  10 29.8304  6.1695   3
  -3  -2 -10 27.1454  3.3838   1
  -2  -3  10 31.8016  6.1706   8
  -3   2  10 26.2009  6.4562   5
  -3   3  10 598.876  19.605   5
   3  -3 -10 581.383  11.629   4
  -3   3  10 602.605  19.258   3
  -3  -3 -10 570.310  13.761   1
  -3   3  10 553.227  19.216   7
   3   3 -10 578.209  14.594   1
   3  -3 -10 569.186  13.768   1
  -3  -3  10 583.623  18.937   8
  -3  -3  10 573.334  19.335   5
   3   3  10 585.305  19.362   8
  -3   3 -10 570.473  14.492   1
   3  -3  10 563.268  19.917   8
   3   3  10 567.362  18.832   3
  -3  -3  10 545.830  18.937   7
   3   3  10 580.860  18.744   7
  -3  -3  10 556.878  18.957   3
   3   3  10 596.371  18.945   5
   3   3 -10 586.384  14.621   1
   3  -3  10 600.119  18.430   3
   0  -4  10 2666.80   56.07   3
  -4   0  10 2587.12   57.14   5
  -4   0  10 2615.63   57.06   7
   0   4  10 2587.14   56.22   3
   0   4  10 2578.74   55.59   5
   0  -4  10 2544.22   56.69   8
   0  -4 -10 2693.03   49.48   1
   0  -4  10 2603.00   56.47   5
   0   4  10 2630.75   56.05   7
   0   4 -10 2651.36   50.65   1
   4   0  10 2526.33   57.17   8
   4   0 -10 2696.42   50.02   1
   4   0  10 2724.60   55.14   3
   0   4  10 2575.20   57.71   8
   0  -4  10 2564.32   56.52   7
  -4   0  10 2542.59   55.56   3
  -4   0  10 2623.79   57.38   8
  -4  -1  10 1.15368 5.08892   7
  -1   4  10 12.0832  5.2808   7
   1  -4  10 4.98910 4.81647   8
  -4  -1  10 12.0564  5.5706   8
  -1   4  10 6.84613 5.59000   8
   4  -1 -10 4.16976 2.86014   1
   4   1  10 6.28870 5.21676   8
  -1   4  10 7.64437 5.15474   5
  -1  -4 -10 3.08400 2.94811   1
   1   4 -10 1.25957 3.22253   1
   1  -4  10 10.1017  5.3809   3
  -4  -1  10 1.73399 5.00742   3
  -1   4  10 4.11037 5.03878   3
   1  -4  10 6.66901 5.30024   5
   4   1  10 0.10398 4.75263   3
  -4  -1  10 4.02400 5.46349   5
  -4   1 -10 0.37817 3.16808   1
   4  -1 -10 4.53648 1.92101   4
  -1  -4  10 1.66071 4.91541   8
   1   4  10 0.81478 4.86740   5
  -1   4 -10 1.77503 3.23670   1
  -4   1  10 -5.4212  4.1877   5
  -1  -4  10 -4.3552  4.7545   7
   4  -1  10 7.95843 4.84911   3
  -4   1  10 4.34932 5.15422   7
  -1  -4  10 7.75565 5.47255   3
   1  -4 -10 1.30853 2.88914   1
  -4   1  10 -1.5470  5.2700   8
   4   1 -10 -1.7128  3.0978   1
  -1  -4  10 6.93335 5.45910   5
   1   4  10 5.49293 4.87645   8
   1   4  10 -0.3249  5.0866   3
  -4   1  10 -0.7817  4.6687   3
  -4  -1 -10 0.41537 2.99981   1
   1   4  10 2.23179 4.64313   7
   4  -1  10 6.16837 5.32478   8
   4  -2 -10 2023.99   38.70   4
  -2  -4 -10 1988.64   37.61   4
  -4  -2  10 2073.46   45.67   3
  -4  -2  10 1977.66   45.70   7
  -2   4  10 2002.01   47.10   8
  -4  -2  10 2008.82   46.12   5
  -2   4  10 1961.50   45.18   5
   2  -4  10 1923.81   46.21   8
  -4   2 -10 2001.89   39.98   1
  -2  -4 -10 2039.69   39.19   1
   4   2  10 1955.81   46.04   8
  -2   4  10 1980.95   45.43   3
  -4  -2  10 2044.88   45.87   8
  -2   4  10 1933.02   45.32   7
   2   4 -10 1999.37   40.16   1
   2  -4  10 2077.41   45.00   3
   4  -2 -10 2075.03   39.53   1
   4   2  10 2110.87   45.13   3
   4  -2  10 2025.28   44.03   3
   2   4  10 1974.36   46.39   8
   2   4  10 1940.41   44.48   5
  -2  -4  10 2035.87   45.63   5
  -2   4 -10 1973.93   40.07   1
  -2  -4  10 2031.40   45.77   3
  -4  -2 -10 2007.43   39.45   1
   2   4  10 1976.00   44.61   7
   2   4  10 2105.07   45.93   3
  -4   2  10 1925.37   45.80   5
  -2  -4  10 2021.43   45.51   8
  -4  -2 -10 1980.37   38.59   4
  -4   2  10 1939.38   44.74   3
  -4   2  10 1999.01   46.43   7
   4  -2  10 1892.22   46.37   8
   4   2 -10 2047.36   39.93   1
   2  -4 -10 2041.35   37.70   4
   2  -4 -10 2072.53   39.33   1
  -2  -4  10 1968.48   45.25   7
   3  -4  10 54.2811  7.9031   8
  -4   3 -10 47.0289  4.9458   1
   3   4 -10 46.7229  4.9614   1
  -4  -3  10 56.9473  7.6458   3
  -3   4  10 46.3503  7.2961   3
  -3  -4 -10 50.2246  4.6461   1
  -4  -3  10 47.9759  7.1007   8
  -4  -3  10 65.5260  8.1076   7
   4  -3 -10 41.4922  4.4197   1
   3  -4  10 41.9482  6.5067   3
  -4  -3  10 36.9080  7.0219   5
  -3   4  10 37.4115  6.9425   5
   4  -3 -10 37.3740  3.3981   4
   4   3  10 46.0243  7.2980   3
  -3  -4 -10 43.1421  3.3664   4
   4   3  10 49.5661  7.2772   8
  -3   4  10 36.2328  6.9267   7
  -4  -3 -10 46.4803  4.5783   1
  -4   3  10 36.1082  7.1096   5
   3   4  10 48.8406  7.3534   3
  -3  -4  10 49.2892  7.3500   5
  -3   4 -10 47.5810  5.2349   1
  -4  -3 -10 45.1987  3.5162   4
   4  -3  10 39.8789  6.8518   8
   4  -3  10 37.3471  6.6080   3
   3   4  10 58.0900  7.7138   8
   3  -4 -10 46.3353  3.4236   4
   3   4  10 51.8070  7.1333   7
  -4   3  10 30.9242  6.9476   7
   3  -4 -10 43.4239  4.4606   1
  -3  -4  10 39.9695  7.1048   3
  -4   3  10 57.9823  7.4817   3
   4   3 -10 45.9170  4.9183   1
   3   4  10 44.6192  6.8822   5
  -3  -4  10 46.6958  6.7414   7
  -3  -4  10 33.7619  6.5069   8
  -4  -4 -10 568.302  14.336   4
   4  -4 -10 600.751  14.513   4
  -4  -4 -10 637.522  15.632   1
  -4  -4  10 620.944  20.022   7
   4   4  10 625.276  20.368   8
  -4  -4  10 589.214  19.993   5
   4   4  10 615.097  20.381   3
  -4   4  10 618.513  20.580   7
   4  -4 -10 611.803  15.538   1
  -4   4  10 587.427  19.541   3
  -4  -4  10 602.624  20.099   3
   4   4 -10 577.487  15.942   1
   4  -4  10 597.781  21.188   8
  -4   4 -10 618.289  16.225   1
  -4   4  10 600.586  20.249   5
   4  -4  10 610.071  19.013   3
   0   5  10 -0.3232  5.3519   3
  -5   0  10 -7.2354  4.6708   7
   0  -5 -10 -3.4606  3.0335   1
   5   0  10 2.66852 5.04379   3
  -5   0  10 -9.7057  4.7278   5
   0   5  10 0.02073 4.67758   5
   0  -5  10 4.21308 5.21337   5
   0  -5  10 -4.6339  4.7817   3
   0   5  10 1.41200 5.42882   8
   5   0  10 -0.6002  4.5682   8
   0  -5  10 -4.3439  4.8469   8
  -5   0 -10 1.92107 3.37460   1
   5   0 -10 -0.6863  2.6185   4
   0  -5 -10 1.22342 1.93377   4
   0   5 -10 4.28158 3.84841   1
   0  -5 -10 0.01702 1.90905   4
   5   0 -10 3.67060 3.48336   1
   0   5  10 8.35843 5.10000   7
  -5   0  10 -2.8475  4.7170   3
   5   1  10 335.915  14.806   8
  -5  -1  10 358.720  14.675   3
  -1  -5 -10 358.563  10.596   1
  -1   5  10 368.540  15.211   3
  -5  -1  10 335.765  14.834   8
   1  -5  10 324.861  14.738   8
   5   1  10 349.114  13.906   3
  -1  -5 -10 350.806   8.766   4
   1  -5  10 392.590  15.320   5
   5  -1 -10 354.191  10.681   1
  -5   1 -10 343.991  10.796   1
   5  -1 -10 361.730  10.007   4
  -1   5  10 365.593  14.660   7
   1   5 -10 349.347  11.192   1
  -5  -1  10 324.764  14.761   5
   1  -5  10 354.767  14.701   3
  -1   5  10 372.856  14.518   5
  -5  -1  10 350.501  15.207   7
  -1  -5 -10 344.343   8.758   4
   5   1 -10 366.897  10.224   4
  -1  -5  10 351.429  14.760   7
  -5   1  10 334.421  15.163   7
  -1  -5  10 327.978  14.587   3
  -5   1  10 332.879  15.345   5
   1   5  10 341.342  14.189   7
  -1  -5  10 325.468  14.349   5
   1  -5 -10 359.082   8.852   4
   5   1 -10 351.687  10.914   1
  -1  -5  10 370.540  14.765   8
   1   5  10 332.951  13.714   5
   1  -5 -10 352.584  10.337   1
  -5  -1 -10 341.527   9.682   4
   1  -5 -10 348.432   8.810   4
  -5  -1 -10 355.173  10.724   1
   1   5  10 332.092  14.738   3
   5  -1  10 346.654  15.176   8
   1   5  10 365.684  15.227   8
  -5   1  10 350.273  14.618   3
  -1   5 -10 374.925  11.387   1
  -5  -2  10 11.5585  6.0675   8
  -5  -2  10 -0.3333  4.5148   3
   2  -5  10 8.06264 5.34178   3
  -2  -5 -10 11.1346  3.6329   1
   2   5 -10 12.7702  4.1087   1
  -5   2 -10 2.27599 3.84217   1
   5   2  10 13.6018  5.7504   3
  -2   5  10 -7.0370  5.0991   3
  -2  -5 -10 5.05651 2.41697   4
  -2   5  10 9.59440 5.43087   7
   2  -5  10 2.94603 5.65445   8
   5  -2 -10 9.69626 3.73195   1
   5  -2 -10 8.54809 2.96948   4
  -5  -2  10 18.0989  5.9895   7
  -5  -2  10 -3.0326  5.3321   5
  -2   5  10 19.2234  5.7943   5
   5   2  10 5.32041 5.28442   8
  -5   2  10 9.61889 5.28719   3
  -2  -5  10 7.82147 5.26928   7
  -5  -2 -10 8.38706 2.94214   4
  -2   5 -10 8.86480 4.05352   1
   2  -5 -10 7.91275 2.51095   4
  -2  -5  10 9.07974 5.63303   8
   5   2 -10 8.60325 3.91108   1
   2   5  10 3.22304 4.81048   7
   2   5  10 8.90106 5.48243   3
   2   5  10 6.80185 5.18089   5
  -2  -5  10 6.50618 5.32267   5
  -5  -2 -10 11.2041  3.7887   1
   2   5  10 13.6153  5.5967   8
  -2  -5  10 13.4191  5.7597   3
  -5   2  10 5.59800 5.18367   7
   2  -5 -10 6.38119 3.64182   1
  -5   2  10 7.40255 6.06004   5
   2  -5 -10 11.6910  2.6331   4
   5  -2  10 8.77112 5.36083   8
  -5  -3  10 400.583  15.878   3
  -3   5  10 400.424  16.009   3
   5   3  10 401.790  15.943   3
  -3  -5 -10 383.068  11.691   1
  -3   5  10 397.994  15.757   5
  -5   3 -10 400.826  12.364   1
   3   5 -10 390.792  12.369   1
   5  -3 -10 390.391  11.681   1
   5  -3 -10 393.858  10.944   4
   3  -5  10 389.863  15.156   3
  -5  -3  10 378.947  15.588   7
   5   3  10 357.832  15.324   8
  -5  -3  10 354.293  15.699   5
  -3  -5 -10 371.196  10.458   4
   3  -5  10 369.982  16.318   8
  -3   5  10 357.151  15.124   7
  -3  -5  10 399.492  15.634   5
   3  -5 -10 393.090  11.685   1
  -3  -5  10 337.018  15.217   3
   3   5  10 364.732  15.527   8
  -5  -3 -10 378.186  11.788   1
  -5   3  10 376.494  16.288   7
  -3  -5  10 403.814  15.534   7
  -5   3  10 355.161  15.929   5
   3   5  10 378.626  15.971   3
   5   3 -10 407.035  12.279   1
  -5  -3 -10 389.988  10.807   4
  -3   5 -10 398.837  12.352   1
   5  -3  10 344.555  15.636   8
  -5   3  10 393.453  15.497   3
   3  -5 -10 382.614  10.533   4
   3   5  10 370.438  14.522   5
   4   5 -10 37.9768  5.5336   1
   5   4  10 53.2057  7.7256   8
  -4  -5 -10 46.7000  5.2655   1
  -5   4 -10 40.1799  5.4788   1
   5   4  10 44.7060  7.5236   3
   5  -4 -10 47.9871  4.6681   4
  -4   5  10 49.7538  7.9974   7
  -4   5  10 28.8899  6.7891   5
  -5  -4  10 35.0741  7.1157   5
   4  -5  10 39.4256  7.8410   8
  -4   5  10 53.1020  7.8482   3
  -5  -4  10 44.3279  7.3607   7
   5  -4 -10 51.7372  5.3857   1
  -5  -4  10 37.2878  7.2453   3
  -4   5 -10 51.7912  5.6952   1
   4   5  10 42.7854  7.2600   8
  -4  -5  10 50.8530  7.5022   7
   4   5  10 47.0163  7.9504   3
  -5   4  10 53.5486  7.6997   3
  -5   4  10 43.6425  7.7918   5
  -5   4  10 52.7429  8.1995   7
  -4  -5  10 39.7510  7.3816   3
  -4  -5  10 44.5335  7.2813   5
  -5  -4 -10 44.6255  5.3096   1
   5   4 -10 54.4511  6.0719   1
   5  -4  10 26.0498  7.1015   8
   4  -5 -10 40.4737  5.2378   1
   4  -5 -10 50.8340  4.6704   4
   5   4 -10 37.7436  5.5109   1
   5  -5 -10 276.337   9.799   4
   5  -5  10 248.549  14.351   8
   5   5  10 263.302  13.280   8
  -5   5  10 236.325  13.386   5
  -5  -5  10 286.794  13.697   3
  -5   5  10 256.794  13.363   3
  -5   5  10 252.834  14.014   7
  -5  -5  10 276.717  13.441   5
  -5  -5  10 273.943  13.166   7
  -5  -5 -10 282.333  10.600   1
  -5   5 -10 270.364  10.991   1
   5  -5 -10 273.280  10.545   1
   5   5 -10 258.807  10.730   1
   5   5  10 281.657  14.000   3
   0   6  10 1972.42   44.43   7
   6   0 -10 1926.92   40.06   1
   6   0 -10 2009.80   40.47   4
  -6   0  10 1937.21   44.40   3
   0  -6  10 1974.34   45.36   8
  -6   0  10 1899.56   45.77   7
   0  -6  10 1931.10   44.90   5
   0  -6 -10 1989.70   39.17   4
  -6   0  10 1903.85   46.27   5
   0   6  10 1923.15   45.54   3
  -6   0 -10 2005.84   40.32   1
   0  -6  10 1946.05   45.15   3
   6   0  10 1868.79   45.88   8
   0   6 -10 1954.75   40.74   1
   0  -6 -10 1994.61   39.80   1
  -1  -6 -10 6.97500 3.02945   4
   6   1  10 9.52000 5.81787   8
   1  -6  10 5.29633 5.74657   8
  -6  -1  10 7.05755 5.46444   3
   6  -1 -10 9.89568 3.54347   4
   1  -6  10 21.7065  6.5110   3
   6  -1 -10 15.2393  4.5486   1
  -1   6  10 13.9609  6.3305   3
  -1  -6 -10 14.1213  4.3043   1
  -6  -1  10 19.5007  6.3572   5
   1   6 -10 6.49905 4.15781   1
  -6   1 -10 16.6528  4.5010   1
  -6  -1  10 11.0975  5.9531   7
  -1   6  10 14.1783  5.7756   5
  -1   6  10 3.34494 5.52939   7
  -6   1  10 8.45244 6.21234   5
   1  -6 -10 11.5153  4.1275   1
  -6   1  10 20.8527  6.0754   3
  -6   1  10 6.37260 6.08134   7
   6   1 -10 11.4595  3.7714   4
  -6  -1 -10 10.7709  3.6643   4
   1  -6 -10 7.48720 3.11276   4
  -1  -6  10 3.45973 5.21992   8
   6  -1  10 -1.9451  5.4299   8
  -1   6 -10 8.35118 4.41648   1
   1   6  10 19.6517  6.5172   8
   6   1 -10 15.0178  4.3984   1
  -1  -6  10 24.0278  6.4808   3
  -6  -1 -10 18.2458  4.3824   1
   1   6  10 9.81841 6.20131   3
  -1  -6  10 8.49549 5.49581   5
  -6  -2  10 1895.96   43.29   3
   2  -6  10 1817.09   44.44   8
  -2   6  10 1875.82   42.95   5
  -6   2 -10 1899.13   38.94   1
   2  -6  10 1880.87   42.80   3
  -6  -2  10 1796.46   43.70   7
  -2   6  10 1846.15   43.97   3
   6  -2 -10 1837.25   38.50   1
  -2  -6 -10 1907.36   38.48   1
  -2   6  10 1838.83   43.13   7
   6   2  10 1848.75   43.84   8
  -6  -2  10 1860.42   44.36   5
   6  -2 -10 1868.57   38.62   4
   2   6 -10 1809.57   39.18   1
  -2  -6  10 1898.60   43.50   7
   2   6  10 1851.03   44.34   8
   2  -6 -10 1902.50   37.97   4
  -2  -6  10 1788.80   43.52   3
  -2   6 -10 1777.75   39.03   1
   6  -2  10 1831.87   44.81   8
  -6   2  10 1838.12   44.80   5
  -6   2  10 1885.56   42.84   3
  -6  -2 -10 1903.57   38.68   1
   6   2 -10 1892.34   39.47   4
   2   6  10 1831.26   44.13   3
   2  -6 -10 1863.21   38.32   1
  -2  -6  10 1891.98   43.16   5
   6   2 -10 1823.33   38.81   1
  -6   2  10 1813.51   44.75   7
   3  -6  10 222.328  11.662   3
   6   3  10 196.533  11.526   3
   6  -3 -10 204.233   8.301   4
  -3   6  10 190.322  11.683   7
   6  -3 -10 202.705   8.987   1
  -6  -3  10 181.752  11.981   5
  -6  -3  10 192.643  11.605   3
  -6  -3  10 201.178  11.872   7
  -3   6  10 203.114  12.038   5
   3   6 -10 193.156   9.510   1
  -6   3 -10 200.233   9.395   1
   6   3  10 209.981  11.921   8
  -3   6  10 211.203  12.229   3
   3  -6  10 184.690  12.244   8
  -3  -6 -10 211.144   8.919   1
  -6  -3 -10 201.696   8.950   1
  -6   3  10 205.959  12.897   5
   6   3 -10 193.073   9.228   1
   3  -6 -10 178.368   8.653   1
   3   6  10 226.070  13.170   3
   3  -6 -10 210.208   8.101   4
   3   6  10 204.702  12.181   8
  -3  -6  10 194.594  12.237   3
   6  -3  10 204.660  12.659   8
  -6   3  10 200.475  11.535   3
  -3  -6  10 204.694  11.510   7
  -3  -6  10 188.347  11.375   5
  -3   6 -10 172.096   9.175   1
  -6   3  10 200.941  12.671   7
  -6   4 -10 1310.93   29.96   1
   4  -6  10 1251.31   35.32   8
  -4   6  10 1300.35   33.61   5
  -4   6  10 1272.89   34.05   7
  -4   6  10 1276.41   33.65   3
   4   6 -10 1268.01   29.99   1
   6   4  10 1353.47   33.80   3
  -6  -4  10 1308.49   34.06   5
  -6  -4  10 1218.93   33.13   3
   6  -4 -10 1268.03   29.15   1
  -6  -4  10 1311.39   33.56   7
   6  -4 -10 1298.46   29.25   4
  -4  -6 -10 1304.54   29.29   1
   6   4  10 1312.43   33.75   8
  -6   4  10 1358.32   33.62   3
  -4   6 -10 1297.72   30.10   1
   6  -4  10 1303.80   35.81   8
  -4  -6  10 1342.44   33.40   5
  -4  -6  10 1326.77   33.24   7
   4   6  10 1350.51   34.12   8
   4  -6 -10 1364.55   29.12   4
   4  -6 -10 1310.15   29.29   1
   6   4 -10 1253.21   29.78   1
  -6  -4 -10 1309.50   29.45   1
  -6   4  10 1287.86   34.90   5
   6   4 -10 1287.97   29.88   1
  -4  -6  10 1267.36   34.15   3
  -6   4  10 1250.04   34.74   7
  -5   6  10 18.6343  7.0761   5
   5  -6  10 7.57532 6.72234   8
  -5   6  10 14.4348  6.4900   7
  -5  -6 -10 14.9346  4.8455   1
   6  -5 -10 20.1128  4.8373   1
  -6  -5  10 24.6049  7.1138   5
  -6  -5  10 8.14045 5.70392   7
  -6   5 -10 18.6707  5.0337   1
  -6  -5  10 12.6699  6.2879   3
  -5   6  10 15.1154  6.4202   3
   5   6 -10 20.9095  5.2303   1
   6   5  10 23.6878  6.6185   8
   5   6  10 17.0290  6.2596   8
  -6  -5 -10 24.8753  5.2156   1
  -6   5  10 0.44759 6.48651   5
   6  -5  10 17.0729  7.1121   8
  -5  -6  10 22.6984  6.9072   5
  -5   6 -10 8.90232 5.13459   1
  -5  -6  10 9.70880 5.88190   7
   6   5 -10 16.2195  4.8219   1
  -5  -6  10 16.4048  6.6984   3
  -6   5  10 18.5131  6.5488   3
  -6   5  10 6.48795 6.51155   7
   5  -6 -10 22.8671  5.1637   1
  -6  -6  10 1937.07   47.11   3
  -6   6  10 2109.21   47.07   3
   6  -6 -10 1985.57   42.66   1
  -6   6  10 1979.30   48.72   7
  -6   6 -10 1978.31   43.36   1
  -6  -6  10 2018.58   46.42   5
   6   6 -10 1975.37   43.25   1
  -6  -6 -10 1919.75   42.45   1
  -6   6  10 1950.07   47.46   5
  -7   0  10 -0.8496  5.8297   5
   7   0 -10 0.38192 3.91528   1
   0   7 -10 -0.2373  4.3083   1
   7   0  10 3.71620 5.82182   8
   0  -7  10 -4.1423  5.7029   3
   0  -7 -10 -0.4651  3.3998   4
   0  -7  10 6.81099 5.75202   5
   0   7  10 -2.7550  5.8778   3
   0  -7 -10 0.33885 4.18540   1
  -7   0 -10 -2.9051  4.1271   1
  -7   0  10 -2.4217  5.7597   7
   0  -7  10 4.85704 5.76010   8
  -7   0  10 -0.3954  5.0754   3
   1  -7  10 418.831  17.128   8
  -7  -1  10 428.167  17.634   7
  -1  -7 -10 442.290  13.605   1
   7  -1 -10 437.073  13.819   1
   7   1  10 416.362  17.208   8
   1   7 -10 451.954  14.669   1
  -7  -1  10 459.617  17.036   3
  -7   1 -10 447.096  14.109   1
  -1   7  10 420.280  17.711   3
   1  -7  10 436.401  17.094   3
  -7  -1  10 459.584  18.397   5
   1  -7 -10 440.187  12.670   4
  -1  -7  10 434.413  17.820   3
   1  -7 -10 462.833  13.805   1
  -7  -1 -10 403.998  13.714   1
  -7   1  10 420.777  17.979   7
   7  -1  10 465.944  18.192   8
   7   1 -10 440.369  13.891   1
  -7   1  10 416.976  16.619   3
  -1  -7  10 453.330  17.274   5
  -1   7 -10 453.793  14.531   1
  -7   1  10 432.168  18.426   5
   1   7  10 431.585  17.977   3
   7   2  10 101.715   9.698   8
   2   7 -10 64.8925  6.7331   1
   7  -2 -10 63.9858  6.3693   1
   2  -7  10 79.8923  8.7614   3
  -7  -2  10 74.2393  9.4939   5
  -2  -7 -10 79.7148  6.7924   1
  -2   7  10 71.8695  9.3812   3
  -2   7  10 76.4089  8.7689   7
  -7   2 -10 61.8931  6.5133   1
  -7  -2  10 84.9829  9.2315   7
   2  -7  10 74.7039  9.2014   8
  -7  -2  10 65.9328  8.2932   3
   7   2 -10 65.5150  6.4958   1
   2  -7 -10 75.1126  5.8656   4
  -7   2  10 63.5244  8.0052   3
  -7   2  10 61.9921  9.2176   5
  -2  -7  10 60.5106  8.9765   3
  -2  -7  10 58.8918  8.1578   5
   2  -7 -10 73.9188  6.5991   1
   7  -2  10 61.9557  8.9475   8
  -7   2  10 65.7229  9.0794   7
  -2   7 -10 65.0783  6.8543   1
  -7  -2 -10 76.5513  6.7386   1
   7   3  10 209.225  12.184   8
  -3  -7 -10 213.721   9.609   1
   3  -7  10 232.043  12.165   3
   7  -3 -10 189.586   9.477   1
   3   7 -10 210.812  10.243   1
  -7  -3  10 232.635  12.761   7
   3  -7  10 231.521  13.388   8
  -7   3 -10 213.354   9.954   1
  -7  -3  10 200.707  11.974   3
  -3   7  10 179.338  12.403   3
  -7  -3  10 199.579  12.768   5
  -3   7  10 225.058  12.542   7
  -7   3  10 209.798  13.624   5
   3   7  10 206.559  12.951   8
  -3  -7  10 174.090  11.249   7
   7  -3  10 218.806  13.307   8
  -3   7 -10 196.211  10.169   1
  -3  -7  10 204.442  13.003   3
   3  -7 -10 197.110   9.504   1
   7   3 -10 204.045   9.903   1
  -7   3  10 195.991  12.698   7
  -7   3  10 226.563  12.550   3
  -3  -7  10 203.593  12.258   5
   3  -7 -10 209.893   8.788   4
  -7  -3 -10 204.292   9.787   1
  -7  -4  10 6.61142 5.99995   3
   4  -7  10 1.95876 6.40142   8
   4   7 -10 -1.2697  4.6853   1
  -4  -7 -10 -0.4019  4.7557   1
  -4   7  10 1.29415 5.76211   7
  -7  -4  10 -8.1820  5.8865   5
  -7   4 -10 2.75307 4.84448   1
   7  -4 -10 -0.4983  4.2046   1
   7   4  10 -2.5403  5.4193   8
  -4   7  10 -1.7332  5.5539   5
  -4   7  10 -0.5484  6.0531   3
  -7  -4  10 4.01073 5.86385   7
  -4  -7  10 3.50050 5.99143   5
  -4  -7  10 -2.5737  6.0106   3
   7   4 -10 -5.4300  4.3446   1
  -4   7 -10 6.01403 4.70672   1
   4  -7 -10 -1.9364  4.6875   1
   4   7  10 4.77955 5.98744   8
  -7   4  10 1.89456 6.06108   3
  -7  -4 -10 3.79590 4.63564   1
  -7   4  10 6.96144 6.89178   5
   7  -4  10 -11.432   5.657   8
  -7   4  10 -3.3363  5.6979   7
  -5   7  10 263.569  14.196   3
   5   7 -10 259.397  11.756   1
  -7  -5  10 250.117  14.021   5
   7  -5 -10 239.732  11.053   1
  -7  -5  10 241.146  13.555   3
  -7  -5  10 272.037  13.609   7
  -5   7  10 259.025  14.197   7
  -5   7  10 243.632  13.707   5
  -7   5 -10 274.285  12.010   1
  -5  -7 -10 265.475  11.237   1
   5  -7 -10 266.614  11.546   1
  -7   5  10 269.339  13.985   3
   7   5 -10 261.700  11.641   1
  -7  -5 -10 247.828  11.216   1
  -5  -7  10 247.658  14.475   3
  -7   5  10 248.481  14.757   7
  -5   7 -10 246.206  11.742   1
   7   5 -10 257.990  11.682   1
  -7   5  10 253.189  14.846   5
  -6   7  10 3.98521 6.66441   5
  -6  -7 -10 1.92109 4.83709   1
   6   7 -10 2.53159 4.61616   9
  -6   7  10 4.19574 6.73874   7
  -7  -6  10 8.55385 6.45621   5
  -6   7  10 3.73446 6.43533   3
   6   7 -10 2.33389 5.31058   1
   7  -6 -10 2.02822 4.78776   1
  -7   6 -10 1.73184 4.87100   1
  -7  -6  10 8.07732 6.45780   3
  -6   7 -10 -1.7946  4.3256   9
  -7  -6 -10 -2.4966  4.6989   1
  -7   6  10 -9.4732  5.9929   3
   6  -7 -10 -1.7369  4.5007   1
  -6  -7  10 -0.5980  6.2740   3
  -7   6  10 4.17564 6.76058   5
   7   6 -10 0.00792 5.04908   1
  -7   6  10 -1.3089  6.0566   7
  -6   7 -10 3.54985 5.17596   1
  -7   7  10 597.946  21.146   3
  -7  -7 -10 541.334  17.905   1
  -7   7 -10 550.821  18.713   1
  -7  -7  10 583.809  22.013   3
  -7   7  10 547.758  22.564   7
  -7   7 -10 551.842  16.923   9
   7  -7 -10 563.536  18.123   1
  -7   7  10 566.169  21.696   5
   7   7 -10 563.641  18.487   1
  -8   0  10 843.283  26.441   7
   8   0  10 820.720  25.813   8
   0  -8  10 833.089  26.018   3
  -8   0  10 785.488  26.588   5
  -8   0 -10 835.169  21.927   1
  -8   0  10 836.862  24.613   3
   0   8 -10 803.266  22.180   1
   8   0 -10 841.841  21.678   1
   0  -8 -10 810.187  21.318   1
   8   1  10 42.6095  7.8009   8
   1  -8  10 32.8992  7.5100   8
  -8  -1  10 36.9734  7.8365   7
  -8   1 -10 45.4914  6.3375   1
   1   8 -10 47.0762  6.4545   1
   8  -1 -10 43.0942  6.0978   1
  -8  -1  10 37.0214  7.1865   3
  -8  -1  10 45.9021  8.6077   5
   1  -8  10 34.4994  7.9324   3
  -1  -8 -10 38.9318  5.8896   1
  -1  -8  10 36.1367  8.1040   3
   8   1 -10 31.4150  5.7499   1
  -8   1  10 39.5391  8.1536   7
  -8   1  10 38.1384  7.1957   3
  -1  -8  10 35.4244  7.4970   5
  -8  -1 -10 30.9787  5.6950   1
   8  -1  10 37.4053  7.8234   8
   1  -8 -10 28.0191  5.6445   1
  -8   1  10 48.9487  9.1078   5
  -1   8 -10 47.2050  6.2430   1
   2  -8  10 1065.96   29.25   3
   8  -2 -10 1039.72   25.80   1
  -2  -8 -10 1047.15   25.57   1
   2   8 -10 1019.24   26.37   1
  -8   2 -10 990.894  25.907   1
  -8  -2  10 1102.99   30.34   7
  -8  -2  10 1069.90   28.86   3
   2  -8  10 1072.38   30.27   8
   8   2  10 1084.43   29.92   8
  -2   8  10 1027.35   30.34   3
  -8  -2  10 1023.66   30.38   5
   2  -8 -10 1023.51   25.58   1
  -8   2  10 998.030  31.283   5
  -8   2  10 1097.51   28.84   3
   8   2 -10 1076.45   26.16   1
  -8   2  10 967.464  30.573   7
  -2   8 -10 1055.85   26.44   1
  -8  -2 -10 1010.88   25.63   1
   8  -2  10 1055.08   30.81   8
  -2  -8  10 996.630  30.375   3
  -8  -3  10 15.9029  6.4776   7
   8   3  10 5.67402 5.83102   8
  -8   3 -10 8.80995 5.09368   1
   8  -3 -10 6.63282 4.97807   1
  -3   8  10 12.7913  7.0186   3
  -8  -3  10 14.5081  6.4103   3
   3   8 -10 9.21371 5.34077   1
  -8  -3  10 -7.1156  5.8067   5
   3  -8  10 23.8340  7.4858   8
  -3  -8 -10 12.8281  5.0515   1
  -8   3  10 10.4841  6.9978   7
   3  -8 -10 8.09608 5.22836   1
   8   3 -10 12.7505  5.2743   1
  -3  -8  10 7.71663 7.05785   3
  -8  -3 -10 10.6519  5.2678   1
  -8   3  10 9.77469 6.90955   5
  -8   3  10 19.0729  6.7351   3
  -3   8 -10 10.6034  5.4448   1
  -8  -4  10 1437.98   37.66   5
  -4   8  10 1479.97   37.55   7
  -4   8  10 1464.00   38.19   3
   8  -4 -10 1417.54   33.44   1
  -8  -4  10 1520.54   37.20   7
  -8   4 -10 1444.77   34.18   1
   4   8 -10 1463.74   34.30   1
  -4  -8 -10 1416.04   33.40   1
  -8  -4  10 1461.06   36.98   3
  -8   4  10 1357.30   39.52   7
  -8  -4 -10 1445.80   33.66   1
  -4   8 -10 1393.07   34.18   1
  -8   4  10 1429.15   39.58   5
   4  -8 -10 1437.82   33.54   1
  -4  -8  10 1417.41   38.74   3
  -8   4  10 1543.68   36.96   3
   8   4 -10 1405.19   33.84   1
  -8   5 -10 12.7764  5.6700   1
  -5   8  10 12.1517  7.0786   7
  -8  -5  10 16.3831  7.5291   5
   8  -5 -10 21.0449  5.7703   1
   5   8 -10 17.0318  5.8640   1
  -5   8  10 27.5423  7.8614   3
   5   8 -10 11.4364  5.2338   9
  -5  -8 -10 16.7853  5.6913   1
  -8  -5  10 12.5459  6.7510   3
  -5   8 -10 23.4076  5.3200   9
   8   5 -10 17.5785  6.1839   1
  -5   8 -10 15.7893  5.8865   1
   5  -8 -10 11.2850  5.4080   1
  -5  -8  10 4.50306 6.50261   3
  -8   5  10 20.5731  8.5733   7
  -8   5  10 32.5423  9.0310   5
  -8  -5 -10 10.9911  5.5902   1
   8   5 -10 21.8266  5.5469   9
   8   5 -10 9.76950 5.56981   1
  -6   8  10 1364.47   36.54   3
  -8   6 -10 1380.86   31.82   9
   6   8 -10 1343.91   33.39   1
   6   8 -10 1416.49   32.25   9
  -8   6 -10 1312.47   33.21   1
  -6  -8 -10 1372.84   32.86   1
   8  -6 -10 1344.74   32.60   1
  -8  -6  10 1316.22   36.09   3
  -6   8  10 1379.69   37.74   7
  -8   6  10 1302.52   39.28   7
  -8  -6 -10 1296.61   32.56   1
   8   6 -10 1412.81   32.35   9
  -6   8 -10 1385.82   33.83   1
   6  -8 -10 1325.81   32.63   1
  -6  -8  10 1331.03   37.57   3
   8   6 -10 1306.08   33.35   1
  -6   8 -10 1402.93   32.05   9
  -8   6  10 1342.19   38.16   5
   0   9 -10 -2.5402  5.2697   1
   0  -9  10 2.11348 6.62564   3
   0   9 -10 -3.9514  4.2565   9
   9   0 -10 4.56352 5.00650   1
  -9   0  10 -2.0966  5.7138   3
   0  -9 -10 -0.2185  4.9689   1
  -9   0  10 5.30821 7.13371   5
  -9   0  10 -10.360   5.564   7
   9   0  10 2.51160 6.27520   8
  -9   0 -10 5.66519 4.77771   1
   9   1  10 346.434  16.416   8
   1   9 -10 332.601  12.376   9
  -9  -1  10 349.587  16.353   7
  -9  -1  10 316.527  14.607   3
  -1  -9 -10 332.007  13.022   1
  -9   1 -10 318.347  13.098   1
   1   9 -10 309.953  13.304   1
   9  -1 -10 312.709  13.051   1
   1  -9  10 363.328  16.417   3
  -9  -1  10 301.279  16.671   5
  -9   1  10 325.131  16.649   7
  -9   1  10 310.882  17.181   5
  -1  -9  10 329.081  17.008   3
  -1   9 -10 328.527  12.303   9
  -9  -1 -10 320.895  13.072   1
   9   1 -10 321.186  12.874   1
  -1   9 -10 305.653  13.597   1
   1  -9 -10 316.455  12.803   1
  -9  -2  10 2.30129 5.56087   3
   2   9 -10 0.60712 4.65676   9
  -2  -9 -10 3.66198 4.94571   1
  -9   2 -10 0.82420 4.91898   1
   2   9 -10 3.91966 5.21113   1
  -9  -2  10 9.91103 6.63091   7
   2   9 -10 5.31668 4.90035   9
  -9  -2  10 10.8442  7.2866   5
   9  -2 -10 0.54574 4.99953   1
   2  -9  10 5.14440 6.50143   3
  -9   2  10 4.82588 6.73733   5
  -2   9 -10 7.25800 5.66207   1
   2  -9 -10 1.74617 4.89259   1
  -2  -9  10 -1.5909  7.0105   3
   9   2 -10 3.70246 5.19782   1
  -9  -2 -10 8.27401 5.25345   1
  -9   2  10 -2.4960  6.6220   7
  -2   9 -10 4.89743 4.65157   9
  -9   3 -10 146.114   9.735   1
  -9  -3  10 172.663  11.453   3
  -9  -3  10 150.694  11.999   7
   9  -3 -10 150.643   9.750   1
   3   9 -10 131.400   9.481   1
  -9  -3  10 146.579  12.482   5
  -3  -9 -10 148.902   9.400   1
   3   9 -10 150.247   9.069   9
  -9   3  10 146.643  13.600   7
   9   3 -10 147.541   9.543   1
  -3   9 -10 129.770   9.500   1
  -9   3  10 158.361  14.135   5
  -3   9 -10 166.833   9.163   9
  -9  -3 -10 154.699   9.865   1
  -3  -9  10 149.964  13.812   3
   3  -9 -10 148.901   9.702   1
  -9  -4  10 8.48379 6.95246   5
   4   9 -10 4.78910 5.58193   1
  -4  -9 -10 4.88383 5.53600   1
   4   9 -10 4.32109 5.01182   9
   9  -4 -10 12.0550  5.5832   1
  -9   4 -10 3.64402 5.13689   1
  -9  -4  10 4.66263 6.19794   3
  -9   4 -10 6.81486 4.73138   9
  -4   9 -10 8.49953 5.52342   1
  -4  -9  10 11.3468  7.8401   3
  -9   4  10 6.27324 8.04012   5
  -9  -4 -10 -1.2564  5.3492   1
   9   4 -10 10.6045  5.6582   1
   9   4 -10 8.53263 5.10085   9
  -4   9 -10 12.3262  5.2900   9
  -9   4  10 15.1211  8.0940   7
   4  -9 -10 6.58911 5.47905   1
  -9  -5  10 213.948  13.524   5
  -9   5 -10 191.370  11.190   1
  -9  -5  10 215.876  13.619   3
   5   9 -10 189.892  10.347   9
   5   9 -10 187.236  11.147   1
  -5  -9 -10 186.063  10.844   1
  -9   5 -10 204.767  10.544   9
   9  -5 -10 185.498  10.882   1
  -5   9 -10 204.246  10.550   9
  -5  -9  10 170.344  14.708   3
  -9   5  10 184.967  15.928   7
   9   5 -10 171.769  10.190   9
  -9  -5 -10 191.251  10.863   1
  -5   9 -10 203.874  11.526   1
   9   5 -10 171.777  11.131   1
   9   5 -10 180.112  11.266   1
  -9   5  10 183.923  15.403   5
   5  -9 -10 187.455  11.065   1
 -10   0  10 1545.94   39.83   7
   0  10 -10 1461.17   33.75   9
 -10   0 -10 1479.20   35.07   1
 -10   0  10 1481.14   41.22   5
   0 -10 -10 1392.16   34.20   1
  10   0 -10 1415.53   34.86   1
   0 -10  10 1450.62   39.81   3
   0  10 -10 1406.94   35.29   1
  10  -1 -10 52.8556  7.3060   1
 -10   1 -10 44.7685  7.1514   1
   1  10 -10 55.2456  7.9577   1
   1 -10  10 54.6806 10.0115   3
 -10   1 -10 40.2999  6.3473   9
   1  10 -10 49.4382  6.7319   9
   1  10 -10 64.5296  7.2471   9
 -10  -1  10 59.2174 10.2561   5
  -1 -10 -10 47.3066  7.1356   1
 -10  -1  10 68.6150  9.8978   7
  10   1 -10 45.0746  6.9878   1
  10   1 -10 47.3134  6.6218   9
 -10   1  10 59.9386  9.8948   7
  -1  10 -10 51.2809  7.4197   1
 -10   1  10 39.6507  9.8765   5
  -1 -10  10 65.0578 10.8955   3
  -1  10 -10 46.6328  6.8345   9
   1 -10 -10 53.2632  7.1931   1
 -10  -1 -10 47.9095  7.1841   1
   2  10 -10 1307.59   31.00   9
  10  -2 -10 1240.87   31.58   1
 -10   2 -10 1339.06   30.67   9
 -10  -2  10 1197.35   36.03   5
   2 -10  10 1257.24   34.72   3
 -10  -2  10 1342.55   35.67   7
  -2 -10 -10 1251.54   31.56   1
   2  10 -10 1280.45   32.38   1
 -10   2 -10 1244.78   31.96   1
   2  10 -10 1298.35   30.97   9
  -2 -10  10 1326.01   38.36   3
  10   2 -10 1271.66   32.02   1
 -10  -2 -10 1297.31   31.95   1
   2 -10 -10 1285.98   31.68   1
  -2  10 -10 1281.14   30.68   9
  -2  10 -10 1238.06   32.35   1
  10   2 -10 1234.81   30.50   9
 -10   2  10 1332.31   37.93   7
  10  -3 -10 13.8730  5.8258   1
  -3 -10 -10 12.5959  5.9156   1
   3  10 -10 2.46727 5.45714   1
  10  -3 -10 15.5563  5.4634   9
 -10  -3  10 19.0981  8.0695   5
 -10   3 -10 14.4294  6.0445   1
 -10  -3  10 9.90481 7.01169   7
   3  10 -10 12.1987  5.6895   9
 -10   3 -10 16.0755  5.5474   9
  -3  10 -10 5.61608 5.51624   1
  10   3 -10 7.29555 5.73210   1
  -3  10 -10 17.0198  5.6901   9
  -3 -10  10 22.0200  9.4145   3
 -10  -3 -10 13.0949  5.8450   1
  10   3 -10 17.4016  5.5631   9
 -10   3  10 10.0714  8.3125   7
   3 -10 -10 19.0581  6.3403   1
   0   0  11 -2.6225  5.1001   5
   0   0  11 3.42961 5.43265   8
   0   0  11 1.44600 5.17307   7
   0   0  11 5.80813 5.36809   3
   1   0  11 -3.5363  4.9376   7
   0   1  11 0.04235 5.12484   5
   0  -1  11 6.47117 5.46674   7
   0   1  11 2.22523 5.28254   8
   1   0  11 0.43806 5.25040   5
   0  -1  11 -7.1951  4.9939   5
   0  -1  11 13.6192  5.7709   8
  -1   0  11 -4.6017  4.2562   7
  -1   0  11 -7.0689  4.6966   3
   0   1  11 6.29562 4.86177   7
  -1   0  11 -4.3876  4.9794   8
   0   1  11 -0.3938  5.0487   3
   0  -1  11 1.52383 5.06251   3
  -1   0  11 -5.5997  4.9750   5
   1   0  11 2.80206 5.14831   3
   1   0  11 4.80266 5.35408   8
   1   1  11 -3.9459  4.8325   7
   1   1  11 3.47610 5.24589   3
  -1   1  11 -3.4825  5.2962   8
  -1  -1  11 -1.1103  5.2294   7
   1   1  11 1.80932 5.47132   5
  -1   1  11 -0.5198  5.3559   5
  -1  -1  11 -1.4036  5.2509   5
  -1  -1  11 -6.8565  4.7202   8
  -1   1  11 -4.7210  4.8166   3
   1   1  11 1.28743 4.84241   8
   1  -1  11 3.83603 5.39946   8
  -1   1  11 0.01653 5.24557   7
   1  -1  11 2.20577 5.26237   5
  -1  -1  11 -2.6817  5.1021   3
   1  -1  11 8.64460 5.77425   7
   1  -1  11 3.89312 5.28997   3
   0  -2  11 214.224  12.116   8
  -2   0  11 226.016  12.214   3
  -2   0  11 210.677  11.974   7
   0   2  11 202.033  11.594   7
   0   2  11 195.308  11.702   5
   2   0  11 229.375  11.942   3
  -2   0  11 221.803  12.383   8
   0   2  11 206.925  11.869   8
  -2   0  11 196.119  11.827   5
   0  -2  11 199.360  11.908   5
   2   0  11 193.966  11.832   8
   2   0  11 204.560  11.990   7
   0   2  11 191.326  11.490   3
   0  -2  11 218.939  12.093   7
   2   0  11 207.334  12.109   5
   0  -2  11 226.436  12.083   3
  -1   2  11 1.57462 4.64132   7
  -1   2  11 -5.1978  5.0072   5
   2   1  11 -1.6078  5.5422   5
   1  -2  11 4.10002 5.01646   7
  -2  -1  11 -7.7654  4.9649   5
   1  -2  11 8.95138 5.60134   5
   2   1  11 0.50170 5.15741   3
  -1   2  11 -7.9590  4.8620   3
   2   1  11 0.92421 5.27812   7
   1  -2  11 1.49326 5.21356   8
  -1   2  11 -1.4248  5.2294   8
   2   1  11 5.99442 5.41062   8
  -2  -1  11 -7.7331  4.8925   8
   1  -2  11 -5.8123  4.7823   3
  -2  -1  11 4.20099 5.26440   3
  -2  -1  11 5.13137 5.29012   7
   2  -1  11 -0.8495  5.1412   8
  -1  -2  11 0.92659 5.25580   5
   1   2  11 3.64357 5.23060   7
  -1  -2  11 -12.808   3.975   8
   2  -1  11 -8.5760  4.6541   3
  -2   1  11 -1.1877  5.3963   8
   1   2  11 -2.5059  5.0479   8
  -2   1  11 0.26689 4.63325   3
   1   2  11 -3.3233  5.2825   3
  -1  -2  11 0.09343 5.19259   7
  -2   1  11 -2.7092  5.2514   5
   2  -1  11 -10.934   4.788   5
   1   2  11 1.10274 5.27965   5
  -1  -2  11 -5.3013  4.9114   3
  -2   1  11 1.68947 5.09839   7
   2   2  11 -5.6406  4.2595   7
  -2  -2  11 5.53902 5.52847   7
  -2  -2  11 8.26675 5.72309   5
   2  -2  11 -8.8779  4.8471   5
  -2   2  11 -6.6551  4.8954   7
  -2  -2  11 -8.8922  4.8818   3
   2   2 -11 -1.4472  2.8743   1
  -2   2  11 -3.0004  5.4535   5
   2   2  11 -1.0196  5.2156   3
   2  -2  11 4.23261 5.06146   8
  -2  -2  11 -3.5482  4.9215   8
  -2   2 -11 -5.3931  2.7665   1
  -2   2  11 -0.0139  5.1342   3
   2  -2  11 -3.6446  4.8262   3
   2   2  11 2.40717 5.46305   5
   2   2  11 -0.2759  4.7731   8
  -2   2  11 5.69640 5.47853   8
   3   0  11 4.46382 5.28258   3
   0  -3  11 2.42839 5.57838   8
  -3   0  11 -2.2317  5.1560   3
   0  -3  11 -12.138   4.819   5
  -3   0  11 -0.4275  5.2972   8
   0   3  11 2.62595 5.22256   5
   0   3 -11 -0.6849  3.0512   1
   0   3  11 7.08837 5.60217   8
   0  -3  11 -1.2299  5.2462   7
   3   0  11 -2.8466  5.0655   8
   0   3  11 0.08243 4.96934   7
  -3   0  11 -7.7081  4.7093   7
  -3   0  11 3.66279 5.61243   5
   0   3  11 4.43323 5.69794   3
   0  -3  11 3.62176 5.21615   3
  -3   1 -11 0.60580 2.93473   1
  -3  -1  11 -5.6379  4.6906   5
   1  -3  11 11.3576  5.7901   8
  -1   3  11 3.13380 4.89072   3
  -3  -1  11 -0.7469  4.6953   7
  -3  -1  11 -6.1537  5.0319   8
   3   1  11 7.05554 5.57114   3
   3   1  11 -6.7237  4.9940   5
   1   3 -11 -3.0573  2.8531   1
  -1   3  11 7.12392 5.62171   7
  -1   3  11 -6.6703  5.2862   8
   1  -3  11 -9.6818  4.3568   5
   1  -3  11 2.43379 5.42844   3
  -3  -1  11 3.00563 5.22222   3
   3   1  11 -3.3198  5.0537   8
  -1   3  11 -4.3331  4.9964   5
   1   3  11 -4.9547  5.0797   7
  -1  -3  11 -0.6614  5.2587   3
  -1  -3  11 -0.5051  5.0022   8
  -3   1  11 0.25067 4.98025   8
  -3   1  11 -0.7370  5.3493   3
   1   3  11 -1.2260  5.0167   5
  -1   3 -11 0.19248 2.96342   1
  -1  -3  11 1.10213 5.69255   5
  -1  -3  11 -1.7122  5.2728   7
   3  -1  11 6.77325 5.56844   3
  -3   1  11 5.77855 5.70446   7
   3  -1  11 -7.8010  4.8101   8
  -3   1  11 3.02379 5.60856   5
   1   3  11 -1.6710  5.3272   8
   3   1 -11 -0.4437  2.8865   1
   1   3  11 0.55568 5.15748   3
  -3  -2  11 120.509  10.380   8
  -2   3  11 104.374   9.862   3
   3  -2 -11 98.8696  5.2883   1
  -3  -2  11 106.766   9.834   3
   2   3 -11 99.8631  5.8148   1
  -2   3  11 100.320  10.148   8
   2  -3  11 110.639   9.756   3
  -2   3  11 98.7516  9.7389   7
   2  -3  11 113.429  10.510   8
  -2   3  11 126.035  10.587   5
  -3   2 -11 102.185   5.876   1
   2  -3  11 109.808  10.163   5
  -3  -2  11 104.307   9.886   5
   3   2  11 105.732   9.722   3
  -3  -2  11 105.437  10.051   7
   3   2  11 87.7520  9.3570   8
   3   2  11 93.3327  9.4106   5
  -2  -3  11 82.1890  9.1392   3
  -2  -3  11 106.441   9.962   5
   2   3  11 105.809   9.819   3
   2   3  11 88.6457  9.2151   5
  -2  -3  11 100.820   9.344   7
   3   2 -11 97.2467  5.6733   1
   3  -2  11 108.157   9.342   3
   2   3  11 102.377   9.407   7
  -2  -3  11 99.4063  9.5624   8
   3  -2  11 112.526  10.305   8
  -3   2  11 102.713   9.679   3
   2   3  11 93.5207  9.7069   8
  -3   2  11 114.925  10.474   7
  -3   2  11 113.960  10.272   5
  -2   3 -11 114.914   6.022   1
  -3   2  11 100.768  10.381   8
  -3  -3  11 4.41690 5.48756   8
   3   3  11 0.95045 5.28348   3
  -3  -3  11 7.33137 5.74154   5
   3  -3  11 1.94243 5.54938   3
   3  -3 -11 0.80198 3.15330   1
   3   3  11 1.58068 5.19340   7
  -3  -3  11 0.89723 4.78616   3
   3   3  11 6.75491 5.88757   5
   3  -3  11 6.01200 5.86978   8
  -3   3 -11 -2.8069  3.3676   1
   3   3  11 0.74380 5.46690   8
  -3  -3  11 6.09818 5.55366   7
  -3   3  11 -2.8133  5.1481   3
  -3   3  11 5.72180 5.86792   7
  -3   3  11 2.16282 5.85873   5
   3   3 -11 -0.1111  3.3884   1
  -3  -3 -11 -5.3150  2.9837   1
   0   4  11 110.658  10.543   8
   4   0 -11 126.674   6.073   1
   0   4 -11 120.247   6.457   1
   0  -4  11 101.666  10.094   5
   0   4  11 106.485   9.691   5
   0  -4  11 115.143   9.988   8
   4   0  11 117.017  10.381   8
  -4   0  11 99.9243 10.1796   5
   0  -4  11 110.264   9.884   3
  -4   0 -11 130.387   6.258   1
  -4   0  11 115.391  10.104   3
  -4   0  11 116.690  10.554   7
   0   4  11 128.039  10.606   7
   0   4  11 131.133  10.982   3
   4   0  11 100.781   9.309   3
  -4   0  11 135.948  11.085   8
  -1  -4 -11 1.82322 3.05751   1
  -1   4  11 1.80296 5.30550   5
  -4  -1  11 2.66843 5.86846   5
   1   4 -11 -3.9618  3.3686   1
  -4   1 -11 6.07495 3.50546   1
   4  -1 -11 0.93881 3.21786   1
  -1   4  11 3.39341 5.65465   7
  -1   4  11 -1.0551  5.6458   8
  -4  -1  11 -11.406   4.953   8
  -4  -1  11 4.51652 5.61783   7
  -4  -1  11 0.69267 5.38468   3
   1  -4  11 1.35996 5.86961   5
   4   1  11 0.11118 5.23766   3
   1  -4  11 1.08725 5.75083   8
   1  -4  11 -0.8996  5.3485   3
  -1   4  11 10.1433  5.8156   3
   4   1  11 12.8837  6.0288   8
  -1  -4  11 2.18595 5.54219   8
  -4  -1 -11 2.46354 3.22230   1
   1  -4 -11 6.21886 3.20128   1
   1   4  11 6.76020 5.34988   7
  -4   1  11 6.06029 5.41042   7
  -4   1  11 0.94975 5.87996   8
  -1  -4  11 -0.5465  5.5131   3
  -1  -4  11 11.7132  6.1068   5
  -1   4 -11 1.35834 3.57970   1
   4  -1  11 1.17773 5.43045   8
  -4   1  11 5.50728 5.00622   3
  -4   1  11 10.2662  5.7031   5
   4  -1  11 2.16449 5.53306   3
   1   4  11 4.57554 5.24698   8
   1   4  11 6.44557 5.79833   3
   4   1 -11 -1.1541  3.2916   1
   1   4  11 13.4934  5.8084   5
  -1  -4  11 6.86451 5.67986   7
  -4  -2  11 144.437  11.544   7
   2   4 -11 151.799   7.360   1
  -4  -2  11 161.813  11.257   5
  -4  -2  11 127.793  10.685   3
  -2   4  11 151.175  10.927   7
  -2  -4 -11 147.173   6.593   1
   4  -2 -11 137.079   6.630   1
   4   2  11 153.878  10.611   3
   2  -4  11 138.088  10.153   3
  -2   4  11 136.641  11.108   5
  -2   4  11 147.403  10.794   3
   2  -4  11 138.369  11.425   8
  -4   2 -11 145.952   6.972   1
  -4  -2  11 146.395  10.470   8
   4   2  11 142.983  10.598   8
   2   4  11 139.871  10.225   5
  -4  -2 -11 145.533   6.620   1
   2  -4 -11 150.634   6.579   1
  -2  -4  11 139.700  10.688   8
  -2  -4  11 158.271  11.070   5
  -4   2  11 134.140  11.414   5
   4   2 -11 146.191   6.961   1
  -2  -4  11 137.038  11.203   3
   2   4  11 136.925  11.329   8
   4  -2  11 160.359  10.814   8
  -2  -4  11 156.759  10.893   7
   2   4  11 140.790  10.143   7
  -2   4 -11 164.395   7.498   1
  -4   2  11 126.815  10.567   3
   2   4  11 144.683  10.847   3
   4  -2  11 150.310  10.484   3
  -4   2  11 143.499  10.585   7
   3   4 -11 10.3012  4.0919   1
   4   3  11 5.89217 5.98926   8
  -3  -4 -11 19.2798  3.9945   1
  -3   4  11 12.3196  6.4101   7
   4  -3 -11 14.8844  3.9217   1
  -3   4  11 6.45431 6.17616   5
  -4   3 -11 13.5790  4.1653   1
   3  -4  11 12.2035  5.8442   3
  -4  -3  11 13.1086  6.5288   5
  -4  -3  11 19.5533  6.0079   7
  -4  -3  11 17.5405  6.6422   8
  -3   4  11 14.5444  6.4559   3
   4   3  11 23.9497  6.9723   3
   3  -4  11 19.1297  6.7463   8
  -4  -3  11 14.6042  6.2719   3
   3   4  11 6.61128 5.93951   8
  -3  -4  11 15.4197  6.2391   7
   3   4  11 9.37604 6.35147   3
  -4   3  11 16.3485  6.5810   5
   4  -3  11 12.9258  6.0836   3
  -3  -4  11 17.6830  6.4648   5
  -3  -4  11 22.2777  6.4123   8
   3   4  11 11.2720  5.9034   7
   4   3 -11 15.0889  4.3510   1
  -3  -4  11 3.90274 6.09985   3
  -4   3  11 9.21114 5.75355   7
  -4  -3 -11 15.3467  3.8476   1
   4   3 -11 13.9780  4.2347   1
   4  -3  11 7.13410 6.40844   8
  -4   3  11 17.3242  6.2472   3
   3  -4 -11 14.6418  3.8867   1
  -3   4 -11 7.09543 3.89936   1
   3   4  11 17.6239  6.2203   5
  -4  -4  11 -1.6921  5.6589   3
  -4  -4  11 -1.4621  5.7760   5
  -4   4  11 0.96830 5.80389   5
  -4  -4  11 1.35306 5.35054   7
  -4   4  11 3.43829 5.34431   3
   4  -4 -11 -2.1793  3.6768   1
  -4   4  11 5.80633 5.82533   7
  -4   4 -11 0.43000 3.72427   1
   4   4 -11 7.48130 4.06915   1
  -4  -4 -11 -2.0477  3.7352   1
   4   4  11 -1.3100  5.5261   8
   4  -4  11 10.1401  6.5996   8
   4   4  11 6.37919 6.01921   3
   0   5  11 -6.1157  4.8765   7
   0   5 -11 0.38032 3.88698   1
  -5   0  11 11.8682  6.3446   5
   0  -5  11 -3.9896  5.5657   5
   5   0  11 -4.9215  5.4234   8
  -5   0  11 3.22429 5.53292   3
   0   5  11 1.14534 5.48620   5
   0  -5  11 -11.001   4.793   3
   0   5  11 -1.6583  5.7339   8
   5   0 -11 -0.1916  3.5655   1
  -5   0  11 6.10656 6.10015   7
   0  -5 -11 2.27732 3.50010   1
   0  -5  11 7.36275 5.79722   8
  -5   0 -11 2.83683 3.69130   1
   0   5  11 1.29005 5.69242   3
  -1   5  11 21.6123  6.3581   7
  -5   1 -11 19.7815  4.2100   1
  -5  -1  11 19.4299  6.8842   7
  -1   5  11 17.4378  6.5661   3
  -1  -5 -11 22.4088  4.1963   1
   1   5 -11 14.0237  4.4156   1
   1  -5  11 5.53761 5.86877   5
   1  -5  11 25.7015  7.0934   8
   5   1  11 20.5297  6.3526   3
  -1   5  11 5.60111 5.78724   5
  -5  -1  11 26.4700  7.0744   8
   5  -1 -11 14.8049  3.8739   1
  -5  -1  11 10.1385  6.4999   5
  -5  -1  11 13.3068  6.0996   3
   5   1  11 13.1334  6.1504   8
   1  -5  11 30.9535  6.9740   3
  -1   5 -11 27.4711  4.7878   1
   1   5  11 8.22575 6.07177   7
  -5   1  11 16.6834  6.8830   5
   1   5  11 30.3586  6.9035   8
   1   5  11 18.5346  6.2693   3
   1  -5 -11 17.3507  3.9531   1
   5   1 -11 14.7711  4.1803   1
  -1  -5  11 17.3411  6.0014   3
  -5   1  11 16.6870  6.6902   7
  -1  -5  11 21.5449  6.6198   5
  -5  -1 -11 18.7037  4.2655   1
  -1  -5  11 20.2279  6.4370   8
   1   5  11 9.27047 6.21150   5
   5  -1  11 10.5387  6.4184   8
  -5   1  11 13.9988  6.3439   3
  -1  -5  11 26.1307  6.7655   7
  -2  -5 -11 8.31529 3.84284   1
  -2   5  11 3.93202 5.70301   3
  -2   5  11 0.89925 5.65581   7
  -5  -2  11 8.11469 5.39093   3
   5   2  11 -1.5966  5.3717   8
  -2   5  11 10.8540  6.4904   5
  -5  -2  11 6.01408 5.49436   7
   5   2  11 4.07841 5.83156   3
   2  -5  11 9.94586 6.32669   8
   2   5 -11 7.21297 4.16123   1
  -5  -2  11 9.09598 6.39414   5
   5  -2 -11 6.70046 3.96000   1
  -5   2 -11 4.99267 4.06313   1
   2  -5  11 0.12572 6.01930   3
  -5  -2  11 -0.8322  6.0025   8
   2  -5 -11 7.42822 3.88280   1
   2   5  11 10.2590  6.1260   5
   5   2 -11 7.94084 3.98298   1
  -5   2  11 10.0413  5.9267   3
  -2   5 -11 10.7233  4.2339   1
  -2  -5  11 -1.8078  5.7296   5
   2   5  11 5.95999 5.50292   7
  -2  -5  11 -3.5270  5.3561   7
  -2  -5  11 4.77483 6.01357   8
   2   5  11 0.54684 6.03072   8
  -2  -5  11 4.49306 5.83363   3
  -5   2  11 1.32052 5.69711   7
  -5  -2 -11 5.57749 3.80366   1
  -5   2  11 11.1394  6.4708   5
   2   5  11 4.66319 6.31420   3
   5  -2  11 2.01504 5.91075   8
   5   3  11 -1.0610  5.4257   8
  -5  -3  11 -0.7729  5.4539   7
  -3   5  11 7.87532 6.15120   3
   3  -5  11 7.61653 6.51903   8
  -3   5  11 1.08569 5.70746   5
  -5   3 -11 1.61063 4.18501   1
   5  -3 -11 1.30537 3.99011   1
   3  -5  11 1.72641 5.76074   3
  -5  -3  11 4.83276 5.79463   3
  -5  -3  11 -4.3123  5.6094   5
  -3   5  11 -0.8193  5.6715   7
   3   5 -11 2.05128 4.19027   1
  -3  -5 -11 -0.5208  3.8329   1
   5   3  11 9.22832 6.14974   3
  -5   3  11 -8.3134  5.6378   5
   3   5  11 0.12835 5.68567   8
  -5   3  11 0.14347 5.42916   3
  -5   3  11 -7.3773  5.7588   7
  -3  -5  11 -1.3297  5.5916   5
  -5  -3 -11 1.58687 3.95073   1
   5   3 -11 3.71913 3.98392   1
   3  -5 -11 3.22078 3.85410   1
  -3  -5  11 6.68457 6.17905   3
   3   5  11 2.42820 6.17447   3
   5  -3  11 -2.1640  5.4028   8
  -3  -5  11 5.40135 5.57506   7
  -3   5 -11 1.61514 4.23264   1
   5   4  11 12.6088  6.4886   8
  -4   5  11 24.5811  7.1480   7
  -4   5  11 8.65211 6.51014   5
  -5   4 -11 17.7056  4.8210   1
   5  -4 -11 15.2463  4.3536   1
   4   5 -11 6.97544 4.63490   1
   4  -5  11 16.8365  6.5511   8
  -4   5  11 7.71904 6.23583   3
  -4  -5 -11 11.3916  4.3220   1
  -5  -4  11 3.33180 5.99006   7
  -5  -4  11 2.95055 6.12117   5
  -5  -4  11 15.4228  6.6107   3
   5   4  11 10.1355  6.8848   3
  -4  -5  11 16.5674  6.6438   5
  -4  -5  11 21.3238  7.0580   3
  -4  -5  11 17.7751  6.5986   7
  -5  -4 -11 8.88799 4.31275   1
  -5   4  11 12.9963  6.4432   3
   4  -5 -11 16.3939  4.5405   1
   4   5  11 10.0449  6.7288   8
  -4   5 -11 20.0379  4.8086   1
  -5   4  11 13.3481  6.9189   5
   5   4 -11 8.93359 4.64113   1
  -5   4  11 15.4406  6.3520   7
   4   5  11 21.5208  7.5212   3
   5   5 -11 1.97555 4.49208   1
  -5  -5  11 -5.6486  5.7239   5
  -5   5  11 0.77298 5.54627   7
  -5   5  11 0.64551 5.85632   3
  -5   5 -11 0.14306 4.57628   1
  -5   5  11 1.68993 6.12429   5
  -5  -5 -11 -0.2364  4.1753   1
   5   5  11 0.28188 6.16311   8
  -5  -5  11 -1.5124  5.7637   7
   5  -5 -11 -2.2554  4.3043   1
  -5  -5  11 -2.8532  6.1291   3
   5   5  11 -2.0916  5.9858   3
   0   6 -11 197.508   9.239   1
   0  -6  11 187.076  11.997   5
   0   6  11 198.327  12.678   3
  -6   0  11 148.084  12.581   5
   0  -6  11 204.773  12.301   8
   0   6  11 185.534  11.755   7
   0  -6  11 173.251  12.164   3
   6   0 -11 177.887   8.490   1
  -6   0 -11 186.944   8.671   1
   0  -6 -11 177.106   8.185   1
  -6   0  11 196.059  11.939   3
   6   0  11 209.309  12.838   8
  -6   0  11 167.342  11.965   7
  -6  -1  11 11.9820  5.9538   7
  -1   6  11 2.16548 5.96189   3
   1   6 -11 -2.4286  4.2944   1
   6   1  11 -1.7909  4.8155   8
   1  -6  11 -1.8034  5.4917   8
  -6  -1  11 -0.9109  5.4243   3
  -6   1 -11 3.14628 4.22226   1
  -1  -6 -11 -1.1582  3.7369   1
  -6  -1  11 14.1502  6.7811   5
   1  -6  11 10.1915  6.2997   3
  -1   6  11 10.9124  6.1548   7
  -1   6  11 -2.1425  5.3993   5
   6  -1 -11 5.70563 4.07804   1
   6   1 -11 8.09693 4.09440   1
  -6   1  11 5.49206 6.16499   7
   1  -6 -11 -0.3606  3.9625   1
  -6   1  11 5.87218 5.79725   3
  -1  -6  11 2.74667 5.79565   8
   6  -1  11 0.14095 5.86928   8
  -6   1  11 3.33473 5.61210   5
  -1  -6  11 12.6948  6.3529   5
  -1   6 -11 3.05065 4.27366   1
   1   6  11 -4.4828  6.0524   3
  -1  -6  11 1.15700 5.90023   3
  -6  -1 -11 -0.8029  3.8829   1
   1   6  11 -1.0090  5.8834   8
   2   6 -11 112.375   7.873   1
  -6  -2  11 135.232  10.978   3
   2  -6  11 104.860  10.583   8
  -6  -2  11 108.317  10.750   7
  -2  -6 -11 121.153   7.417   1
  -6  -2  11 115.447  11.214   5
   6  -2 -11 136.245   7.468   1
   6   2  11 123.035  10.980   8
  -2   6  11 119.021  10.548   5
  -2   6  11 125.768  10.851   7
  -2   6  11 97.5862 10.4829   3
   2  -6  11 140.705  11.078   3
  -6   2 -11 123.432   7.707   1
   6  -2  11 137.834  12.040   8
  -2   6 -11 120.441   8.019   1
  -6   2  11 117.286  11.481   5
  -6   2  11 119.656  10.578   3
  -2  -6  11 117.410  10.623   5
  -6  -2 -11 122.487   7.287   1
   2  -6 -11 132.405   7.369   1
  -6   2  11 118.943  11.483   7
  -2  -6  11 113.297  11.084   3
   2   6  11 126.718  11.675   3
   2   6  11 113.846  11.038   8
   6   2 -11 117.494   7.555   1
   3  -6  11 52.0359  8.1923   3
  -3  -6 -11 71.2313  6.3936   1
   6   3  11 64.6638  8.6859   8
   6  -3 -11 57.6473  6.0294   1
   3  -6  11 75.8595  9.9576   8
  -3   6  11 68.4536  9.0858   7
  -3   6  11 77.6889  9.4990   3
   3   6 -11 64.7568  6.6942   1
  -6  -3  11 52.8959  8.4499   3
  -3   6  11 67.2320  9.1901   5
  -6  -3  11 67.3515  8.8162   7
  -6   3 -11 60.7056  6.5873   1
  -6  -3  11 54.5977  8.9021   5
  -3  -6  11 60.6372  8.9114   3
  -3  -6  11 47.1294  8.2202   7
  -6   3  11 45.0757  8.9343   5
  -6  -3 -11 44.8505  5.9335   1
   3  -6 -11 71.0226  6.3963   1
  -3   6 -11 54.7007  6.5038   1
   3   6  11 73.4373  9.2720   8
  -3  -6  11 63.1933  9.2591   5
  -6   3  11 58.7366  8.4152   3
  -6   3  11 62.7530  9.4109   7
   6   3 -11 56.2811  6.3563   1
   3   6  11 47.0929  9.0672   3
  -6  -4  11 118.941  11.051   7
   4   6 -11 101.878   8.093   1
   6  -4 -11 96.3355  7.3973   1
  -4  -6 -11 118.182   7.720   1
  -6  -4  11 136.338  11.738   5
  -4   6  11 121.968  11.542   7
   6   4  11 114.210  10.723   8
  -4   6  11 113.421  10.865   5
  -4   6  11 107.484  10.553   3
  -6  -4  11 115.609  10.793   3
  -6   4 -11 113.537   8.097   1
  -6  -4 -11 112.681   7.603   1
   6   4 -11 113.094   8.142   1
  -6   4  11 107.956  11.471   5
  -6   4  11 109.113  10.508   3
   4  -6 -11 116.486   7.855   1
   6   4 -11 113.758   8.241   1
  -4  -6  11 111.700  10.468   7
  -4  -6  11 91.9428 10.3531   3
  -4   6 -11 110.967   8.258   1
   4   6  11 118.142  11.079   8
  -6   4  11 116.045  11.488   7
  -4  -6  11 116.192  10.900   5
   5   6 -11 29.8043  5.7416   1
  -5  -6 -11 24.6108  5.5164   1
  -6  -5  11 24.2973  7.2411   5
  -6  -5  11 16.4165  7.1330   3
   6   5  11 38.7540  7.6318   8
  -5   6  11 23.0733  7.6614   5
  -6  -5  11 18.2737  6.8068   7
  -5   6  11 23.3850  7.5205   7
  -6   5 -11 11.8081  5.4134   1
   6  -5 -11 18.7388  5.3209   1
  -5   6  11 7.73302 6.61283   3
  -6  -5 -11 17.2164  5.0738   1
  -6   5  11 12.1623  6.8894   3
   5  -6 -11 12.8755  5.1527   1
  -6   5  11 21.1730  7.0491   7
  -5   6 -11 21.9162  5.5847   1
  -5  -6  11 28.3984  7.3342   5
  -6   5  11 15.8730  7.4432   5
   6   5 -11 10.9262  5.1863   1
   5   6  11 7.48234 6.56418   8
  -5  -6  11 11.4769  7.0886   3
  -5  -6  11 23.6923  7.1157   7
   6  -6 -11 1.72679 4.60686   1
  -6   6 -11 5.78702 5.24731   1
  -6  -6 -11 -3.1098  4.5572   1
  -6   6  11 -3.5976  6.1328   3
  -6   6  11 5.82760 6.96477   5
  -6   6  11 2.50080 6.82514   7
   6   6 -11 -0.9866  4.8531   1
  -6  -6  11 10.6642  6.9627   5
  -6  -6  11 8.11305 6.70004   3
   7   0 -11 1.32525 4.25859   1
  -7   0  11 1.00041 5.61165   3
   0  -7  11 5.30903 6.44787   3
   0   7  11 1.51353 6.24174   3
  -7   0 -11 -4.0904  4.3092   1
   0  -7 -11 -0.7874  4.2930   1
   0   7 -11 3.36369 4.77120   1
  -7   0  11 3.77620 6.27793   7
  -7   0  11 -6.7738  6.2100   5
  -7  -1  11 56.1492  9.1539   5
   1   7 -11 32.3763  5.7608   1
   7  -1 -11 49.9675  6.0057   1
   1  -7  11 51.4862  8.9328   8
  -1   7  11 44.4981  8.5153   3
   1  -7  11 41.0173  8.0049   3
  -7  -1  11 57.7404  8.2069   3
  -7  -1  11 51.2974  8.4856   7
  -1  -7 -11 50.4219  6.0864   1
  -7   1 -11 50.7001  6.2567   1
  -7   1  11 66.0144  9.7218   5
  -1  -7  11 56.6191  8.4280   5
  -1  -7  11 45.1636  8.2455   3
  -7   1  11 51.1249  8.0644   3
   1  -7 -11 45.9140  5.7518   1
   7   1 -11 41.8022  5.9869   1
   1   7  11 49.6903  8.9421   3
  -7   1  11 37.5299  8.1164   7
  -7  -1 -11 46.8777  6.0503   1
  -1   7 -11 26.7296  5.8419   1
  -2   7  11 11.2656  6.7994   3
   7   2  11 7.99676 6.42314   8
  -2  -7 -11 6.16497 4.52750   1
  -7  -2  11 10.1262  6.4181   7
   7  -2 -11 5.33777 4.62725   1
  -7   2 -11 15.6499  5.1613   1
  -2   7  11 3.55548 6.52797   7
  -7  -2  11 6.72038 6.75489   5
  -7  -2  11 8.15848 6.03935   3
   2  -7  11 17.4148  6.5787   3
   2  -7  11 5.36880 6.56983   8
   2   7 -11 4.27164 4.69505   1
  -2  -7  11 3.89607 6.64568   5
  -7   2  11 5.17075 6.47546   7
  -2  -7  11 9.94169 6.80070   3
  -7   2  11 1.29944 6.02116   5
  -7   2  11 11.3243  6.2375   3
  -2   7 -11 0.45087 4.63411   1
   7   2 -11 11.2543  4.9577   1
   2  -7 -11 8.69565 4.86319   1
  -7  -2 -11 6.47373 4.50014   1
   7   3  11 7.71086 6.34138   8
   3   7 -11 5.03253 4.88985   1
  -7  -3  11 12.4979  7.2180   5
  -7  -3  11 -0.7910  5.6378   3
   7  -3 -11 8.57064 4.77090   1
  -7  -3  11 5.60201 6.48151   7
  -3   7  11 -7.4966  5.9175   7
  -7   3 -11 3.97286 4.78089   1
  -3   7  11 6.58761 6.88266   3
  -3  -7 -11 1.00557 4.45410   1
  -7  -3 -11 -7.3250  4.3362   1
  -7   3  11 -4.3658  5.6310   3
  -7   3  11 -2.1191  5.6678   7
   3   7  11 -2.1387  6.5025   8
   7   3 -11 6.56566 4.86031   1
  -3  -7  11 0.98113 6.56243   3
  -3   7 -11 7.92053 4.83527   1
  -3  -7  11 -7.9257  5.7561   5
  -7   3  11 0.35437 6.80875   5
   3  -7 -11 5.03888 4.75154   1
  -7  -4  11 -3.4355  6.0568   5
  -7  -4  11 9.29807 6.58225   3
   4   7 -11 0.99901 4.91300   1
  -7  -4  11 -0.4648  6.1265   7
  -4  -7 -11 -0.0437  4.8447   1
  -4   7  11 7.80522 6.89812   3
  -7   4 -11 10.0728  5.4776   1
  -4   7  11 15.6486  7.1125   7
   7  -4 -11 2.29734 4.74244   1
  -7  -4 -11 6.04437 5.01976   1
   7   4 -11 19.3635  5.4715   1
   4  -7 -11 3.92796 4.89354   1
  -7   4  11 10.8911  7.0467   5
  -7   4  11 22.6912  7.9974   7
  -7   4  11 11.8358  6.9824   3
  -4  -7  11 10.8254  6.8145   3
  -4   7 -11 13.9882  5.4695   1
  -4  -7  11 2.68560 6.32580   5
   7   4 -11 5.30990 5.12962   1
  -7  -5  11 26.5926  7.6559   5
  -5  -7 -11 19.1062  5.7430   1
  -7  -5  11 29.8988  7.8943   3
  -5   7  11 7.52888 7.37060   5
  -5   7  11 18.0195  7.3967   7
  -7  -5  11 13.9211  6.6306   7
   5   7 -11 26.5758  6.1952   1
  -7   5 -11 14.7519  5.7243   1
   7  -5 -11 24.9831  5.5814   1
  -5   7  11 17.0667  7.2660   3
  -5  -7  11 16.9279  7.5770   3
  -7   5  11 17.7660  8.1966   7
  -7   5  11 33.0006  7.7463   3
  -5   7 -11 24.0644  6.2164   1
  -7   5  11 26.6670  8.6235   5
   5  -7 -11 18.9458  5.6005   1
  -7  -5 -11 33.1315  6.1515   1
   7   5 -11 26.3716  5.9616   1
  -8   0  11 35.8588  8.8417   5
  -8   0  11 67.1927  9.8020   7
  -8   0  11 36.2095  7.8272   3
   0  -8 -11 66.6064  6.8851   1
   8   0 -11 56.0666  6.7048   1
   0  -8  11 60.8086  9.3374   3
   0   8 -11 58.2518  7.2710   1
  -8   0 -11 47.6634  6.6589   1
   1   8 -11 75.6629  7.7298   1
   8  -1 -11 61.9518  6.8428   1
  -8  -1  11 67.3916  8.9599   3
  -1  -8 -11 54.5404  6.6498   1
  -8  -1  11 73.3842 10.4901   5
   1  -8  11 70.8880  9.3834   3
  -8   1 -11 63.6996  7.2975   1
  -8  -1  11 79.2706  9.9955   7
  -8   1  11 62.5771  9.9934   5
   8   1 -11 70.0565  7.1165   1
  -8   1  11 49.8553  9.2170   7
  -8  -1 -11 64.9312  6.8931   1
   1  -8 -11 72.1757  7.0983   1
  -1  -8  11 61.6534  9.7222   3
  -1   8 -11 56.6889  7.1542   1
  -8   1  11 80.5404  9.2640   3
   2   8 -11 10.5615  5.5605   1
  -2  -8 -11 0.96582 4.78723   1
  -2   8  11 12.4827  7.0039   3
  -8   2 -11 3.29089 5.24381   1
  -8  -2  11 2.81999 6.53576   7
  -8  -2  11 3.84076 6.12953   3
   8  -2 -11 1.34313 4.94655   1
  -8  -2  11 5.80505 7.16415   5
   2  -8  11 10.8551  7.0008   3
  -2  -8  11 7.56473 7.06403   3
  -8  -2 -11 14.5569  5.2503   1
   2  -8 -11 2.67343 4.77652   1
   8   2 -11 1.17982 4.80445   1
  -8   2  11 7.40483 6.67800   5
  -8   2  11 4.54204 6.37279   7
  -8   2  11 -3.9958  5.7415   3
  -2   8 -11 9.99188 5.49532   1
  -3   8  11 6.19264 7.11671   3
   8  -3 -11 -4.4487  4.7668   1
  -8  -3  11 4.61725 6.93144   5
   3   8 -11 -5.3077  4.8888   1
  -3  -8 -11 -4.9871  4.6661   1
  -8  -3  11 0.24319 6.26180   7
  -8  -3  11 2.59236 6.13463   3
  -8   3 -11 -3.6108  5.3168   1
  -8   3  11 -6.7135  6.9832   5
   8   3 -11 0.00817 4.86648   1
  -8  -3 -11 0.03946 4.74487   1
  -3   8 -11 0.87073 5.12757   1
  -8   3  11 11.6325  6.9460   3
  -3  -8  11 2.19783 7.17873   3
   3  -8 -11 7.57064 5.23177   1
  -8   3  11 8.93316 7.47689   7
  -4  -8 -11 94.6859  8.2874   1
   8  -4 -11 102.672   8.474   1
  -4   8  11 101.404  11.071   7
  -8  -4  11 105.097  10.775   7
  -8  -4  11 89.4666 10.2474   3
  -8   4 -11 102.152   8.868   1
  -4   8  11 93.8664 11.2532   3
   4   8 -11 95.5787  8.5225   1
  -8  -4  11 111.541  11.408   5
   4  -8 -11 85.7709  8.1559   1
  -4  -8  11 66.2623 10.3918   3
   8   4 -11 110.122   9.195   1
  -8   4  11 75.1528 10.9101   5
   8   4 -11 83.4584  8.3757   1
  -8  -4 -11 95.9278  8.5123   1
  -8   4  11 101.562  10.444   3
  -4   8 -11 99.7501  8.9570   1
  -8   4  11 123.343  12.952   7
  -9   0  11 7.33096 6.84626   3
   0  -9  11 7.67733 7.21132   3
   0   9 -11 -0.0850  5.1668   1
  -9   0  11 0.45398 6.69761   7
   0  -9 -11 -3.2887  5.2119   1
  -9   0  11 -1.8908  7.0854   5
   9   0 -11 6.92532 5.52142   1
  -9   0 -11 -2.1543  4.7477   1
   1   9 -11 7.68689 5.61063   1
  -1  -9 -11 7.77545 5.67798   1
  -9  -1  11 0.22261 6.00810   3
   9  -1 -11 15.9660  5.5728   1
  -9  -1  11 -1.3998  6.3450   7
   1  -9  11 1.56386 6.47274   3
  -9   1 -11 17.2765  5.8914   1
  -9  -1  11 16.8476  7.9117   5
   9   1 -11 11.3267  5.4885   1
  -9   1  11 11.0550  7.9603   5
  -1  -9  11 13.2949  8.0355   3
   1  -9 -11 8.96568 5.39629   1
  -9  -1 -11 7.71307 5.36662   1
  -1   9 -11 7.56467 5.24593   1
  -9   1  11 11.4543  7.4815   7
   0   0  12 5402.18  105.36   3
   0   0  12 5251.86  106.45   5
   0   0  12 5251.98  107.96   8
   0   0  12 5379.39  106.77   7
   0  -1  12 -2.1529  5.4554   5
  -1   0  12 8.41205 6.41470   8
   1   0  12 -1.9731  4.9171   8
   0   1  12 2.39468 5.55154   7
   1   0  12 -3.4806  5.7235   7
  -1   0  12 8.47819 6.12325   3
   1   0  12 0.20023 5.45903   3
   0   1  12 0.89719 4.99036   3
   0  -1  12 -5.6447  5.2966   7
   0   1  12 -5.8708  5.4590   5
   0  -1  12 4.83031 6.04948   3
   0   1  12 10.5916  6.3936   8
   0  -1  12 0.52440 5.78723   8
  -1   0  12 16.6194  5.9347   7
   1   0  12 -6.0348  5.5569   5
  -1   0  12 -6.4518  5.3711   5
  -1  -1  12 422.085  17.243   5
   1   1  12 381.403  17.067   8
   1  -1  12 372.801  16.801   7
  -1  -1  12 395.343  16.884   7
  -1   1  12 408.306  17.521   8
   1   1  12 428.807  17.315   5
  -1   1  12 366.784  16.210   7
  -1  -1  12 407.909  17.319   8
   1   1  12 408.462  16.970   7
   1  -1  12 375.903  16.949   8
  -1   1  12 389.757  16.991   5
   1   1  12 409.084  16.793   3
  -1   1  12 413.169  16.993   3
  -1  -1  12 397.475  16.792   3
   1  -1  12 418.077  17.433   5
   1  -1  12 415.091  16.724   3
   0  -2  12 1322.78   34.42   3
   0   2  12 1311.94   34.99   5
  -2   0  12 1308.94   35.31   7
   2   0  12 1382.88   34.63   3
   0   2  12 1311.20   35.87   8
   2   0  12 1323.06   35.86   8
  -2   0  12 1287.32   35.06   5
   0  -2  12 1332.80   35.76   8
   0   2  12 1370.30   35.16   3
   0  -2  12 1331.72   35.28   7
  -2   0  12 1352.63   34.89   3
  -2   0  12 1350.28   35.74   8
   0   2  12 1408.63   35.49   7
   2   0  12 1322.25   35.36   5
   0  -2  12 1294.45   35.18   5
   2   1  12 1.90977 5.76655   3
  -1   2  12 -0.9312  5.0721   7
   1  -2  12 0.54102 5.91265   8
   2   1  12 8.86497 6.13417   8
  -1   2  12 -8.4327  5.3506   5
  -2  -1  12 1.86643 5.73321   7
  -1   2  12 1.99015 5.84176   3
   2   1  12 4.12177 6.07413   5
  -1   2  12 0.38759 5.89033   8
   2   1  12 -8.8165  5.4577   7
   1  -2  12 -4.3126  4.7681   5
  -2  -1  12 4.67608 6.44210   8
   1  -2  12 0.79413 5.86400   3
  -2  -1  12 7.21857 6.16821   3
  -2  -1  12 -12.098   5.138   5
  -1  -2  12 -0.2678  5.7102   3
  -2   1  12 -1.9339  5.7096   7
  -2   1  12 0.87065 5.65349   3
  -1  -2  12 1.57411 6.00251   5
  -2   1  12 1.77980 5.89691   5
  -1  -2  12 -4.7174  5.3673   7
  -1  -2  12 15.1808  6.7190   8
   2  -1  12 -3.4561  5.4111   3
   1   2  12 1.39402 5.90610   8
  -2   1  12 5.60292 6.28124   8
   1   2  12 2.23066 5.72452   3
   1   2  12 -4.3703  5.4702   5
   2  -1  12 -1.6534  5.9529   8
   1   2  12 -0.5704  5.4721   7
   2  -1  12 2.64454 5.82063   5
  -2   2  12 499.952  18.842   3
   2  -2  12 471.133  19.303   8
   2   2  12 522.713  19.434   7
  -2  -2  12 557.445  19.820   3
   2   2  12 536.254  20.205   8
  -2  -2  12 527.704  20.001   5
   2   2  12 507.830  19.265   5
  -2   2  12 493.474  19.386   5
   2   2  12 483.610  18.853   3
  -2  -2  12 507.904  19.430   7
   2  -2  12 499.183  18.786   3
  -2   2  12 534.688  20.649   8
  -2  -2  12 549.153  20.020   8
  -2   2  12 514.985  19.707   7
   2  -2  12 572.671  20.303   5
   0  -3  12 2.23415 5.38008   7
   0  -3  12 2.26911 5.86629   5
   0   3  12 -2.5781  5.8619   5
   0   3  12 -1.3962  5.8749   3
  -3   0  12 2.29793 6.08968   5
   0  -3  12 1.90676 6.00006   3
   0   3  12 4.57746 5.98536   7
  -3   0  12 3.63326 5.44963   7
   3   0  12 -4.9636  5.3854   3
   3   0  12 -3.5684  5.5594   8
  -3   0  12 -0.2867  6.2328   8
   0  -3  12 -1.4133  5.8624   8
  -3   0  12 -0.2621  5.7280   3
   0   3  12 -2.6711  5.8303   8
  -1   3  12 255.445  13.983   7
   1  -3  12 289.233  14.760   5
  -3  -1  12 295.088  14.648   8
  -1   3  12 265.113  14.121   3
   3   1  12 237.853  13.913   8
   3   1  12 269.784  14.073   3
   1  -3  12 269.564  14.087   8
   1  -3  12 268.039  13.847   3
  -3  -1  12 271.661  14.118   3
  -3  -1  12 254.503  14.229   5
  -3  -1  12 273.222  14.099   7
  -1   3  12 256.662  13.966   5
  -1  -3  12 264.428  14.008   3
   1   3  12 269.531  13.942   7
  -1  -3  12 282.895  14.630   5
   1   3  12 260.756  14.448   8
  -3   1  12 244.213  13.792   8
  -3   1  12 298.026  14.447   3
   3  -1  12 288.385  13.940   3
  -3   1  12 246.436  14.132   5
  -1  -3  12 275.211  14.304   7
  -3   1  12 277.515  14.860   7
   1   3  12 291.905  14.605   3
  -1  -3  12 279.226  14.531   8
   1   3  12 278.709  14.201   5
   2  -3  12 127.341  10.929   3
  -3  -2  12 128.499  11.074   7
   3   2  12 108.283  10.504   3
  -2   3  12 155.224  12.280   5
  -3  -2  12 111.564  10.960   5
  -3   2 -12 131.915   6.725   1
  -2   3  12 123.923  11.370   7
  -3  -2  12 131.637  11.470   8
   2   3 -12 136.760   6.794   1
  -2   3  12 137.604  11.460   3
  -3  -2  12 137.381  11.513   3
   3  -2  12 149.454  10.692   3
  -3   2  12 118.439  11.445   7
   3   2 -12 132.908   6.516   1
  -2  -3  12 136.378  11.694   5
  -2  -3  12 107.493  10.656   3
  -2   3 -12 121.337   6.506   1
  -3   2  12 119.840  11.439   5
   2   3  12 116.443  10.982   3
   3   2 -12 141.035   6.644   1
  -2  -3  12 119.768  11.010   7
   2   3  12 132.909  11.311   5
  -3   2  12 130.229  11.214   3
  -2  -3  12 147.774  11.881   8
   2   3  12 131.557  11.404   7
  -3   3  12 172.770  12.504   5
  -3  -3  12 182.615  12.760   8
   3  -3  12 185.998  11.706   3
   3   3  12 174.520  11.988   3
  -3  -3  12 175.070  12.000   7
  -3   3  12 158.746  11.914   7
  -3  -3  12 183.119  12.444   5
   3   3 -12 185.650   8.041   1
  -3  -3  12 154.615  11.638   3
  -3   3 -12 173.317   7.846   1
  -3   3  12 151.753  12.277   3
   0   4  12 1202.73   33.58   3
   0  -4  12 1210.30   34.13   8
   0  -4  12 1268.46   33.68   3
   0   4  12 1208.65   33.21   5
   0   4 -12 1271.03   26.88   1
   0  -4  12 1241.06   34.13   5
  -4   0  12 1214.69   34.25   5
  -4   0  12 1248.13   34.50   7
  -4   0  12 1273.38   34.95   8
   0   4  12 1249.18   33.48   7
   4   0  12 1273.17   33.05   3
  -4   0  12 1270.40   33.75   3
  -4  -1  12 54.9274  8.7116   7
   1  -4  12 51.0869  8.3780   3
  -1   4  12 67.2521  9.0443   5
  -4  -1  12 30.1648  7.6742   5
   1   4 -12 58.6157  5.4786   1
   1  -4  12 40.3319  7.9647   8
  -4  -1  12 45.6969  8.0044   3
  -1   4  12 52.2605  8.4173   3
  -4  -1  12 54.8329  8.8665   8
  -1   4  12 54.7683  8.6363   7
   4   1  12 53.6350  8.4754   3
   1  -4  12 41.9976  8.1223   5
  -4   1 -12 54.3481  5.0774   1
  -4   1  12 36.0273  8.2375   8
  -1  -4  12 34.5556  7.5483   8
  -4   1  12 46.5506  8.0879   3
   1   4  12 46.9517  8.0507   5
   1   4  12 33.2036  7.3274   7
  -1   4 -12 52.3116  5.2486   1
   4   1 -12 59.5336  5.1537   1
  -4   1  12 46.2382  8.0218   7
  -1  -4  12 58.5562  8.8380   7
  -1  -4  12 39.4609  7.9533   3
  -1  -4  12 53.8495  8.4114   5
  -4   1  12 41.8026  8.2993   5
   4  -1  12 61.8687  8.5615   3
   1   4  12 42.3956  7.6062   3
  -4  -2  12 1740.17   42.68   8
   2  -4  12 1768.44   41.72   3
  -4  -2  12 1625.75   42.18   7
  -2   4  12 1568.71   41.27   5
  -4  -2  12 1611.68   42.04   5
  -4  -2  12 1641.94   41.55   3
   4   2  12 1704.96   41.30   3
  -2   4  12 1663.30   42.17   7
  -2   4  12 1673.47   42.01   3
   2   4 -12 1741.90   35.20   1
  -4   2  12 1638.56   41.45   3
  -2  -4  12 1755.99   42.60   5
   4  -2  12 1718.08   40.46   3
  -4   2  12 1610.20   42.21   5
   2   4  12 1698.08   41.45   7
  -2   4 -12 1741.07   35.13   1
  -2  -4  12 1742.26   42.52   8
  -2  -4  12 1675.63   42.05   7
   2   4  12 1715.26   42.18   3
  -2  -4  12 1563.83   41.25   3
   4   2 -12 1744.80   34.86   1
  -4   2  12 1616.10   42.61   7
   2   4  12 1719.10   41.58   5
   3  -4  12 -0.9728  6.1769   3
  -4  -3  12 -6.3072  5.7524   7
  -4  -3  12 -0.4337  5.9941   3
   3   4 -12 3.93746 4.22706   1
  -3   4  12 -0.3354  6.0151   3
  -3  -4 -12 5.27730 3.87207   1
  -4  -3  12 2.05052 6.63257   5
  -3   4  12 -4.9209  5.7991   5
  -4   3 -12 3.63492 4.01782   1
  -3   4  12 3.19337 6.60230   7
   4  -3 -12 3.48934 3.76316   1
   4   3  12 5.28129 6.29760   3
  -3  -4  12 -3.3304  5.6934   7
  -3  -4  12 10.0495  6.6550   5
   4   3 -12 -2.1463  3.7754   1
   3   4  12 8.39384 6.70445   3
  -4   3  12 -1.1001  5.6594   7
  -4  -3 -12 0.34685 3.81908   1
  -3  -4  12 10.1438  6.2801   3
  -4   3  12 -3.3265  6.2023   5
  -3   4 -12 -1.4445  3.9582   1
  -4   3  12 2.30562 6.03950   3
   3  -4 -12 0.89587 3.82137   1
   4   4  12 2147.45   49.77   3
  -4   4  12 2080.48   50.44   7
  -4  -4  12 2043.50   49.34   7
  -4  -4  12 2039.73   49.35   3
  -4  -4 -12 2138.64   42.19   1
  -4   4  12 2115.37   49.66   3
   4   4 -12 2150.63   43.36   1
   4  -4 -12 2069.89   42.10   1
  -4  -4  12 2060.02   49.70   5
  -4   4  12 2021.95   49.82   5
  -5   0  12 -8.0177  5.9569   7
   0  -5  12 3.26488 6.34208   3
  -5   0  12 -0.8778  6.1807   5
   0   5 -12 7.66245 4.28900   1
   0   5  12 1.24295 6.12239   3
  -5   0 -12 -1.7893  3.7085   1
   5   0 -12 -1.4614  3.7680   1
   0  -5  12 5.68925 6.30292   5
  -5   0  12 1.74334 5.97730   3
   0   5  12 3.00181 5.88143   7
   0   5  12 0.46387 6.46881   5
  -1   5  12 390.951  17.542   3
  -5  -1  12 416.441  18.368   8
  -5  -1  12 420.103  17.456   3
  -1   5  12 409.570  17.330   7
   1  -5  12 388.425  16.932   3
  -5  -1  12 393.104  17.696   7
  -5   1 -12 408.194  12.435   1
   1   5 -12 391.938  12.802   1
   5  -1 -12 398.010  11.997   1
  -5  -1  12 394.312  17.937   5
  -1   5  12 420.949  17.421   5
   5   1 -12 407.533  12.322   1
  -5   1  12 409.239  17.204   3
  -5  -1 -12 428.917  12.222   1
  -1  -5  12 359.760  17.114   3
  -5   1  12 368.690  17.677   5
  -1  -5  12 409.767  17.663   5
  -1  -5  12 385.065  17.040   8
   1   5  12 431.853  17.492   7
   1   5  12 399.008  16.782   5
  -5   1  12 385.946  17.661   7
   1   5  12 352.650  17.069   3
  -1   5 -12 433.914  12.853   1
  -2   5  12 1.74475 6.36005   3
  -5  -2  12 -6.2054  6.1988   5
  -2  -5 -12 2.02033 3.98891   1
  -2   5  12 1.22154 6.18235   7
   2  -5  12 4.06959 6.12183   3
   5   2  12 -4.7178  5.7929   3
  -2   5  12 14.0605  6.8715   5
  -5  -2  12 2.58909 6.33012   7
  -5  -2  12 17.0391  6.7912   3
  -5   2 -12 2.18791 4.04855   1
   2   5 -12 4.39711 4.30868   1
   5  -2 -12 4.13198 3.90106   1
  -5  -2 -12 -1.5022  3.8064   1
  -2  -5  12 -2.0044  6.0391   7
  -5   2  12 4.80847 6.14797   3
  -2   5 -12 3.20763 4.44153   1
  -5   2  12 -1.9302  5.9786   7
   2  -5 -12 6.79205 3.93549   1
   5   2 -12 7.58282 4.19216   1
   2   5  12 3.30879 6.47768   3
  -5   2  12 0.27672 6.50890   5
  -2  -5  12 8.27946 6.44682   5
  -2  -5  12 -1.1818  6.1398   3
   5  -3 -12 337.103  11.253   1
   5   3  12 327.953  16.320   3
  -3   5  12 309.136  15.813   5
  -3   5  12 321.850  15.990   3
  -5  -3  12 303.938  15.619   3
  -3  -5 -12 326.569  10.989   1
  -5  -3  12 301.057  16.108   5
  -5  -3  12 319.440  15.937   7
   3  -5  12 307.451  15.177   3
  -5   3 -12 341.540  11.793   1
   3   5 -12 340.389  11.967   1
  -3   5  12 312.430  15.879   7
   3   5  12 367.365  17.125   3
  -5   3  12 338.655  16.059   3
   3  -5 -12 336.271  11.086   1
  -3  -5  12 315.400  15.843   5
   5   3 -12 332.183  11.747   1
  -3  -5  12 330.046  15.823   7
  -5   3  12 309.630  16.542   7
  -5   3  12 336.070  16.834   5
  -5  -3 -12 342.974  11.382   1
  -3   5 -12 316.213  11.597   1
  -3  -5  12 311.579  15.998   3
   5   3 -12 329.528  11.793   1
  -5   4 -12 3.52324 4.69907   1
  -4   5  12 16.5959  7.2787   7
  -5  -4  12 5.34268 6.73435   7
  -4   5  12 1.97230 6.76222   3
   4   5 -12 5.26852 4.69631   1
   5   4  12 7.36800 7.31547   3
  -4   5  12 -3.8330  6.1370   5
  -5  -4  12 0.31466 6.17615   3
  -4  -5 -12 6.76474 4.51479   1
  -5  -4  12 4.45724 6.66869   5
   5  -4 -12 11.2210  4.5874   1
  -5   4  12 6.45093 6.68520   3
   4  -5 -12 4.73199 4.41997   1
   4   5  12 3.84657 6.91978   3
  -4  -5  12 6.23638 6.50000   3
  -5   4  12 3.75209 6.76774   7
   5   4 -12 4.63785 4.65341   1
  -4   5 -12 5.45342 4.78155   1
  -5  -4 -12 0.11527 4.41372   1
  -4  -5  12 0.76570 6.34189   7
  -5   4  12 7.67750 7.07867   5
  -4  -5  12 1.78647 6.53319   5
  -5   5  12 181.464  12.784   3
  -5  -5  12 195.188  13.325   3
   5   5 -12 171.721   9.683   1
  -5   5  12 192.648  13.943   5
  -5   5  12 183.606  13.543   7
   5   5  12 194.484  13.556   3
  -5  -5 -12 192.130   9.289   1
   5  -5 -12 192.440   9.188   1
  -5   5 -12 198.898  10.107   1
  -5  -5  12 206.946  13.197   7
  -5  -5  12 192.163  13.014   5
   6   0 -12 398.938  12.688   1
   0   6  12 373.980  17.799   3
  -6   0  12 377.750  17.908   7
   0  -6 -12 413.029  12.424   1
   0  -6  12 422.569  17.853   5
   0  -6  12 420.716  18.102   3
   0   6 -12 375.806  13.250   1
  -6   0 -12 412.268  13.101   1
  -6   0  12 399.181  17.330   3
  -6   0  12 423.214  18.925   5
  -6  -1  12 12.7459  6.6460   3
  -6  -1  12 22.9326  7.9241   5
   1   6 -12 12.0139  4.7975   1
   6  -1 -12 9.07612 4.52553   1
  -6   1 -12 13.6040  4.7541   1
  -1  -6 -12 15.9634  4.5850   1
  -6  -1  12 14.2256  7.4193   7
  -1   6  12 5.90313 6.42920   7
   1  -6  12 14.7657  7.1646   3
  -1   6  12 17.0420  7.2002   3
  -6  -1 -12 12.4091  4.7896   1
  -1   6 -12 10.9885  4.6353   1
   6   1 -12 17.4494  4.7966   1
  -1  -6  12 12.1963  7.3564   5
   1  -6 -12 17.5920  4.4872   1
  -6   1  12 11.6649  7.0541   7
   1   6  12 19.0384  7.7800   3
  -1  -6  12 11.6929  6.9271   3
  -6   1  12 9.93226 7.49006   5
  -6   1  12 10.0956  6.6230   3
  -6  -2  12 1187.88   34.77   5
   2   6 -12 1220.97   28.81   1
  -6  -2  12 1204.62   33.80   3
  -6   2 -12 1251.94   28.50   1
   2  -6  12 1243.53   33.74   3
  -2   6  12 1276.04   34.39   7
  -6  -2  12 1192.82   34.48   7
  -2   6  12 1269.07   34.03   5
   6  -2 -12 1275.50   28.12   1
  -2   6  12 1183.58   34.40   3
  -2   6 -12 1241.24   28.92   1
   2   6  12 1250.01   35.13   3
  -6   2  12 1248.79   33.91   3
  -2  -6  12 1272.30   34.20   5
   6   2 -12 1284.86   28.52   1
   2  -6 -12 1265.27   27.75   1
  -6   2  12 1169.57   35.10   5
  -2  -6  12 1203.12   34.39   3
  -6   2  12 1218.43   35.34   7
  -3   6  12 43.0007  9.2125   3
  -6   3 -12 34.0930  5.7286   1
   6  -3 -12 38.8582  5.6705   1
  -6  -3  12 35.2611  8.4121   5
  -6  -3  12 29.7393  7.8303   3
   3   6 -12 39.5399  6.1451   1
  -3   6  12 39.1914  8.5350   5
  -6  -3  12 29.8324  8.0216   7
  -3   6  12 38.5668  8.0189   7
  -3  -6 -12 42.8251  5.6619   1
  -6   3  12 35.6362  8.2982   7
  -6  -3 -12 35.4805  5.7110   1
  -6   3  12 50.6520  8.5071   3
   3   6  12 28.3897  8.3952   3
  -3  -6  12 21.8826  7.7667   3
  -3  -6  12 54.2182  9.1572   7
  -6   3  12 48.1724  9.2381   5
  -3  -6  12 33.3194  8.0994   5
   6   3 -12 32.0027  5.7920   1
   6   3 -12 40.5305  6.0547   1
   3  -6 -12 32.1242  5.3364   1
  -3   6 -12 23.7178  5.5838   1
  -6   4 -12 1026.48   25.70   1
   4   6 -12 977.579  25.382   1
  -4   6  12 974.071  30.419   3
  -6  -4  12 1012.08   31.01   5
   6  -4 -12 1028.91   24.86   1
  -4   6  12 1049.88   31.40   7
  -4   6  12 1023.51   30.51   5
  -6  -4  12 1028.01   30.68   3
  -4  -6 -12 1073.31   24.98   1
   6   4 -12 1026.95   25.57   1
   4  -6 -12 1056.70   24.77   1
  -4  -6  12 1043.15   30.39   5
  -6   4  12 1015.13   31.56   5
  -4  -6  12 1021.87   30.14   7
  -6   4  12 1035.99   32.17   7
  -4  -6  12 1009.22   30.89   3
  -6  -4 -12 1027.64   25.03   1
  -6   4  12 1052.73   30.41   3
  -4   6 -12 1026.25   25.72   1
  -7   0 -12 -3.7514  4.5622   1
   0  -7  12 -3.9380  6.9715   3
   0  -7 -12 0.07440 4.34167   1
   0   7  12 1.17697 7.08708   3
  -7   0  12 -5.8868  6.2505   7
  -7   0  12 -0.5321  6.8712   5
   7   0 -12 6.29813 4.84764   1
  -7   0  12 -0.2364  6.3911   3
   0   7 -12 5.17211 5.03192   1
  -7  -1  12 127.508  11.600   3
  -7  -1  12 96.0984 11.4889   5
   7  -1 -12 85.5106  7.5253   1
  -1   7  12 83.1194 10.7046   3
  -1  -7 -12 96.7855  7.4640   1
   1  -7  12 107.502  11.008   3
   1   7 -12 98.4655  8.2880   1
  -7   1 -12 97.1925  8.0588   1
  -7  -1  12 101.826  11.163   7
  -1   7 -12 111.652   8.224   1
   7   1 -12 95.3774  7.6778   1
  -7   1  12 115.230  11.540   7
  -1  -7  12 100.677  11.256   3
  -7   1  12 112.978  12.250   5
   1  -7 -12 99.7266  7.6145   1
  -7   1  12 91.2763 10.1033   3
  -7  -1 -12 110.051   7.963   1
  -1  -7  12 97.9594 10.7563   5
   1   7  12 62.7015 10.2391   3
  -7   2 -12 8.29400 5.03857   1
  -2   7  12 0.87602 6.69552   3
   7  -2 -12 14.0229  5.1378   1
  -7  -2  12 9.56179 7.07782   7
  -7  -2  12 2.18705 7.24792   5
  -7  -2  12 6.38546 7.10261   3
   2   7 -12 7.69167 5.19521   1
  -2  -7 -12 7.95570 4.87463   1
   2  -7  12 10.6193  7.3171   3
  -7   2  12 -0.5705  6.5601   3
   2  -7 -12 14.8277  4.9875   1
  -7   2  12 7.77174 7.38126   5
  -7  -2 -12 12.3121  5.0507   1
  -2  -7  12 6.38413 7.37099   5
   7   2 -12 7.94858 5.04060   1
  -2  -7  12 7.30372 7.40032   3
  -2   7 -12 5.79001 5.20923   1
   0   0  13 8.65167 6.76222   5
   0   0  13 4.16478 6.36188   7
   0   0  13 -0.9053  6.0833   3
   1   0  13 -6.5764  5.6823   3
   0  -1  13 1.69618 5.96157   7
   0   1  13 -7.7987  6.0417   5
   0   1  13 5.43376 5.76230   7
   0   1  13 -4.1260  5.7578   3
   0  -1  13 -3.6314  5.9856   5
   1   0  13 -2.2075  6.2660   5
   1   0  13 5.37967 6.55524   7
  -1   0  13 -9.8637  5.6348   3
   0  -1  13 2.27066 6.23140   3
  -1   0  13 5.95752 6.72858   5
  -1   0  13 0.12569 6.03929   7
   1  -1  13 -3.3257  6.1090   5
  -1  -1  13 2.19209 5.51462   7
  -1  -1  13 5.95481 6.61551   3
   1   1  13 5.49822 6.57351   3
  -1   1  13 -4.4756  6.1813   5
   1   1  13 2.77420 6.46983   7
  -1  -1  13 -1.1445  6.2685   5
  -1   1  13 6.81616 6.45654   7
   1   1  13 -0.9286  6.2939   5
  -1   1  13 -8.6848  5.5999   3
   1  -1  13 0.60911 6.05444   3
   0  -2  13 15.7104  6.9222   3
  -2   0  13 7.99970 6.98592   5
   0   2  13 -2.0937  6.1605   7
  -2   0  13 8.35013 6.45130   3
   2   0  13 4.11439 6.19517   3
   0  -2  13 9.19400 6.76101   5
   0   2  13 7.90388 6.78982   5
   0  -2  13 11.9173  6.8726   7
   0   2  13 15.2222  7.0692   3
   2   0  13 21.4144  7.4371   5
  -2   0  13 6.67094 6.45024   7
  -1   2  13 23.0560  7.6165   3
  -2  -1  13 45.0894  8.2750   7
  -1   2  13 36.0082  8.1424   5
  -2  -1  13 20.8679  7.7249   5
  -2  -1  13 15.1674  6.9930   3
   1  -2  13 26.7791  7.8932   5
   1  -2  13 25.2521  7.7318   3
  -1   2  13 29.1936  7.7598   7
   2   1  13 18.2483  7.3715   3
   2   1  13 26.5970  7.6301   5
   1   2  13 23.4466  7.5825   3
  -1  -2  13 14.2065  7.2931   5
  -2   1  13 14.4664  7.1320   3
   2  -1  13 21.5728  7.3128   5
  -2   1  13 28.1926  8.0089   5
   1   2  13 18.2216  7.2113   5
  -1  -2  13 6.47432 6.72566   3
   1   2  13 20.0979  7.3185   7
  -1  -2  13 26.2584  6.9829   7
  -2   1  13 7.84091 6.81284   7
   2  -1  13 18.6624  7.2215   3
   2   2  13 7.91486 6.96505   3
  -2  -2  13 4.20621 6.43993   7
  -2   2  13 1.61952 6.55686   5
  -2   2  13 3.63853 6.43541   7
  -2  -2  13 3.49696 6.41760   3
   2  -2  13 -3.0129  6.1160   3
   2   2  13 1.39970 6.05367   7
  -2  -2  13 -7.8276  6.1997   5
   2   2  13 -4.9069  5.8959   5
  -2   2  13 -1.4741  6.3061   3
  -3   0  13 1.50013 6.33154   7
   0  -3  13 -4.6720  6.1232   3
   3   0  13 4.23149 6.60292   3
   0  -3  13 -0.4982  6.5649   5
  -3   0  13 -10.342   5.634   3
   0   3  13 5.33400 6.59682   5
   0   3  13 -3.0896  5.9568   3
  -3   0  13 2.84509 6.60920   5
   0   3  13 -5.0723  5.6370   7
  -3  -1  13 -1.6912  5.5389   7
  -3  -1  13 9.00978 6.97634   5
   3   1  13 -6.4950  5.9228   3
  -1   3  13 -0.5343  6.2611   3
  -1   3  13 2.76299 6.48495   5
  -1   3  13 13.9022  6.9736   7
   1  -3  13 -8.1624  5.9424   5
  -3  -1  13 3.75673 6.25076   3
   1  -3  13 5.48725 6.64595   3
   1   3  13 -2.2428  6.1100   3
  -1  -3  13 -5.3498  6.0274   3
  -1  -3  13 -4.6297  6.0386   7
   3  -1  13 11.4856  6.7257   3
   1   3  13 -2.4350  6.0293   7
  -3   1  13 2.71658 6.22020   3
   1   3  13 7.68976 6.55592   5
  -3   1  13 2.14467 6.42923   7
  -1  -3  13 -3.3029  6.2622   5
  -3   1  13 6.07764 7.13444   5
  -2   3  13 16.4818  7.1892   3
   3   2  13 40.8421  8.5097   3
  -3  -2  13 20.7604  7.5132   3
  -2   3  13 16.3575  7.5746   5
   2  -3  13 42.6955  8.3319   3
  -2   3  13 23.3005  7.7411   7
  -3  -2  13 30.6248  8.2105   5
  -3  -2  13 34.7342  7.9630   7
   3  -2  13 22.1962  7.2383   3
   2   3  13 36.0381  8.4784   3
  -2  -3  13 30.1368  7.6494   3
  -2  -3  13 41.3132  8.4578   5
   2   3  13 25.9744  7.7642   7
  -3   2  13 33.7923  8.5467   5
  -2  -3  13 18.2631  7.3732   7
  -3   2  13 24.2753  7.7323   7
  -3   2  13 32.7598  7.9007   3
   2   3  13 23.8348  8.0117   5
  -3  -3  13 9.42824 7.04732   5
  -3   3  13 -4.6497  6.5724   7
  -3  -3  13 -3.3656  6.3780   3
   3  -3  13 -1.4522  6.1369   3
  -3   3  13 3.80363 6.61900   3
  -3   3  13 -11.175   6.630   5
  -3  -3  13 3.19881 6.48850   7
   3   3  13 -6.0823  6.3197   3
   0   4  13 18.8527  7.1777   7
   0  -4  13 6.86728 6.85562   5
   0   4  13 18.5620  7.4651   3
  -4   0  13 12.8510  6.9854   3
   4   0  13 19.9223  7.0764   3
  -4   0  13 27.9801  8.0491   5
  -4   0  13 6.07054 6.72871   7
   0  -4  13 -1.9492  6.6374   3
   0   4  13 25.2417  7.4162   5
   4   1  13 19.0581  7.0704   3
  -1   4  13 13.6273  7.1112   5
  -1   4  13 4.18170 6.51866   7
  -4  -1  13 5.51912 6.58555   3
  -1   4  13 10.2164  6.9669   3
   1  -4  13 10.4213  7.0530   5
   1  -4  13 5.88739 6.61095   3
  -4  -1  13 7.27989 6.40864   7
  -4  -1  13 17.1347  7.3955   5
  -4   1  13 13.9812  7.5598   7
   4  -1  13 1.17728 6.18073   3
   1   4  13 7.21555 6.87075   3
  -4   1  13 7.41846 6.77771   3
  -1  -4  13 2.58526 6.73784   3
  -1  -4  13 9.83352 7.07244   5
  -4   1  13 1.73325 6.82379   5
   1   4  13 13.4813  7.0569   5
   1   4  13 17.4673  7.2613   7
  -2   4  13 51.3090  8.9158   3
  -2   4  13 71.2821 10.0125   7
  -2   4  13 60.9406  9.5098   5
   4   2  13 55.2177  9.1886   3
   2  -4  13 61.7218  9.3749   3
   2   4 -13 66.1007  5.9760   1
  -4  -2  13 48.2050  9.1676   5
  -4  -2  13 58.6575  9.1959   3
  -4  -2  13 55.2543  9.3324   7
   2   4  13 58.9855  9.2950   7
  -4   2  13 68.8954  9.9587   5
  -2  -4  13 70.5910  9.9391   5
   2   4  13 54.2245  9.0497   5
  -2   4 -13 56.4347  5.5978   1
   2   4  13 40.5715  8.7469   3
  -2  -4  13 61.3701  9.3865   7
  -4   2  13 60.3384  9.2402   3
  -2  -4  13 55.8750  9.1345   3
   0   0   0    0.00    0.00   0
;
_shelx_hkl_checksum              57568
#END Tags that were not found in dictionaries
loop_
_space_group_symop_operation_xyz
'x, y, z'
'-x, -y, z'
'-y, x, z+1/2'
'y, -x, z+1/2'
'-x+1/2, y+1/2, -z'
'x+1/2, -y+1/2, -z'
'y+1/2, x+1/2, -z+1/2'
'-y+1/2, -x+1/2, -z+1/2'
'-x, -y, -z'
'x, y, -z'
'y, -x, -z-1/2'
'-y, x, -z-1/2'
'x-1/2, -y-1/2, z'
'-x-1/2, y-1/2, z'
'-y-1/2, -x-1/2, z-1/2'
'y-1/2, x-1/2, z-1/2'
loop_
_atom_site_label
_atom_site_type_symbol
_atom_site_fract_x
_atom_site_fract_y
_atom_site_fract_z
_atom_site_U_iso_or_equiv
_atom_site_adp_type
_atom_site_occupancy
_atom_site_site_symmetry_order
_atom_site_calc_flag
_atom_site_refinement_flags_posn
_atom_site_refinement_flags_adp
_atom_site_refinement_flags_occupancy
Th1 Th 0.0000 0.0000 0.2500 0.00507(5) Uani 1 4 d S T P
Sr1 Sr 0.0000 0.5000 0.2500 0.00679(8) Uani 1 4 d S T P
P1 P 0.03516(5) 0.24098(5) 0.0000 0.00542(11) Uani 1 2 d S T P
S1 S 0.23598(3) 0.07142(3) 0.32738(4) 0.00752(8) Uani 1 1 d . . .
S2 S 0.13589(5) 0.08273(5) 0.0000 0.00612(11) Uani 1 2 d S T P
S3 S 0.13673(5) 0.39108(5) 0.0000 0.00750(11) Uani 1 2 d S T P
loop_
_atom_site_aniso_label
_atom_site_aniso_U_11
_atom_site_aniso_U_22
_atom_site_aniso_U_33
_atom_site_aniso_U_23
_atom_site_aniso_U_13
_atom_site_aniso_U_12
Th1 0.00541(6) 0.00541(6) 0.00437(7) 0.000 0.000 0.000
Sr1 0.00714(11) 0.00714(11) 0.00608(16) 0.000 0.000 -0.00008(10)
P1 0.0056(2) 0.0056(3) 0.0050(2) 0.000 0.000 0.00043(19)
S1 0.00641(17) 0.00887(18) 0.00729(16) 0.00258(13) -0.00010(13) -0.00080(13)
S2 0.0064(2) 0.0063(2) 0.0057(2) 0.000 0.000 0.00083(18)
S3 0.0075(2) 0.0065(2) 0.0085(2) 0.000 0.000 -0.00114(19)
loop_
_atom_type_symbol
_atom_type_description
_atom_type_scat_dispersion_real
_atom_type_scat_dispersion_imag
_atom_type_scat_source
P P 0.1023 0.0942 'International Tables Vol C Tables 4.2.6.8 and 6.1.1.4'
S S 0.1246 0.1234 'International Tables Vol C Tables 4.2.6.8 and 6.1.1.4'
Sr Sr -1.5307 3.2498 'International Tables Vol C Tables 4.2.6.8 and 6.1.1.4'
Th Th -7.2400 8.8979 'International Tables Vol C Tables 4.2.6.8 and 6.1.1.4'
loop_
_geom_angle_atom_site_label_1
_geom_angle_atom_site_label_2
_geom_angle_atom_site_label_3
_geom_angle
_geom_angle_site_symmetry_1
_geom_angle_site_symmetry_3
S1 Th1 S1 94.039(4) 11_556 2
S1 Th1 S1 149.220(15) 11_556 12_556
S1 Th1 S1 94.039(4) 2 12_556
S1 Th1 S1 94.039(4) 11_556 .
S1 Th1 S1 149.220(15) 2 .
S1 Th1 S1 94.038(4) 12_556 .
S1 Th1 S2 85.809(13) 11_556 .
S1 Th1 S2 139.728(11) 2 .
S1 Th1 S2 69.113(13) 12_556 .
S1 Th1 S2 70.526(13) . .
S1 Th1 S2 69.113(12) 11_556 9
S1 Th1 S2 70.526(13) 2 9
S1 Th1 S2 85.809(13) 12_556 9
S1 Th1 S2 139.728(11) . 9
S2 Th1 S2 71.927(18) . 9
S1 Th1 S2 139.729(11) 11_556 3
S1 Th1 S2 69.113(13) 2 3
S1 Th1 S2 70.526(13) 12_556 3
S1 Th1 S2 85.809(13) . 3
S2 Th1 S2 130.928(11) . 3
S2 Th1 S2 130.928(12) 9 3
S1 Th1 S2 70.526(13) 11_556 11_556
S1 Th1 S2 85.809(13) 2 11_556
S1 Th1 S2 139.729(11) 12_556 11_556
S1 Th1 S2 69.113(12) . 11_556
S2 Th1 S2 130.928(11) . 11_556
S2 Th1 S2 130.928(11) 9 11_556
S2 Th1 S2 71.927(18) 3 11_556
S3 Sr1 S3 103.449(18) 7_455 9_565
S3 Sr1 S3 77.130(17) 7_455 15_666
S3 Sr1 S3 171.96(2) 9_565 15_666
S3 Sr1 S3 171.96(2) 7_455 .
S3 Sr1 S3 77.130(18) 9_565 .
S3 Sr1 S3 103.449(18) 15_666 .
S3 Sr1 S1 123.140(12) 7_455 12_556
S3 Sr1 S1 92.983(12) 9_565 12_556
S3 Sr1 S1 80.207(12) 15_666 12_556
S3 Sr1 S1 64.619(12) . 12_556
S3 Sr1 S1 92.983(12) 7_455 14_665
S3 Sr1 S1 123.140(12) 9_565 14_665
S3 Sr1 S1 64.619(12) 15_666 14_665
S3 Sr1 S1 80.207(12) . 14_665
S1 Sr1 S1 122.200(14) 12_556 14_665
S3 Sr1 S1 80.207(12) 7_455 11_566
S3 Sr1 S1 64.619(12) 9_565 11_566
S3 Sr1 S1 123.140(12) 15_666 11_566
S3 Sr1 S1 92.983(12) . 11_566
S1 Sr1 S1 152.130(14) 12_556 11_566
S1 Sr1 S1 65.362(14) 14_665 11_566
S3 Sr1 S1 64.619(12) 7_455 13_565
S3 Sr1 S1 80.207(12) 9_565 13_565
S3 Sr1 S1 92.983(12) 15_666 13_565
S3 Sr1 S1 123.140(12) . 13_565
S1 Sr1 S1 65.362(13) 12_556 13_565
S1 Sr1 S1 152.130(13) 14_665 13_565
S1 Sr1 S1 122.200(14) 11_566 13_565
S3 P1 S1 110.17(2) . 3_554
S3 P1 S1 110.17(2) . 12_556
S1 P1 S1 109.65(4) 3_554 12_556
S3 P1 S2 113.43(4) . .
S1 P1 S2 106.63(2) 3_554 .
S1 P1 S2 106.63(2) 12_556 .
P1 S1 Th1 94.65(2) 11_556 .
P1 S1 Sr1 91.47(2) 11_556 11_556
Th1 S1 Sr1 136.876(14) . 11_556
P1 S2 Th1 89.329(16) . 9
P1 S2 Th1 89.329(16) . .
Th1 S2 Th1 108.073(18) 9 .
P1 S3 Sr1 92.774(17) . 9_565
P1 S3 Sr1 92.774(17) . .
Sr1 S3 Sr1 102.870(17) 9_565 .
loop_
_geom_bond_atom_site_label_1
_geom_bond_atom_site_label_2
_geom_bond_distance
_geom_bond_site_symmetry_2
Th1 S1 2.8202(5) 11_556
Th1 S1 2.8202(5) 2
Th1 S1 2.8202(5) 12_556
Th1 S1 2.8202(5) .
Th1 S2 2.9876(4) .
Th1 S2 2.9876(4) 9
Th1 S2 2.9876(4) 3
Th1 S2 2.9876(4) 11_556
Sr1 S3 3.0926(4) 7_455
Sr1 S3 3.0926(4) 9_565
Sr1 S3 3.0926(4) 15_666
Sr1 S3 3.0926(4) .
Sr1 S1 3.1079(5) 12_556
Sr1 S1 3.1079(5) 14_665
Sr1 S1 3.1079(5) 11_566
Sr1 S1 3.1079(5) 13_565
P1 S3 1.9988(8) .
P1 S1 2.0426(5) 3_554
P1 S1 2.0426(5) 12_556
P1 S2 2.0688(8) .
S1 P1 2.0426(5) 11_556
S1 Sr1 3.1079(5) 11_556
S2 Th1 2.9876(4) 9
S3 Sr1 3.0926(4) 9_565
