#------------------------------------------------------------------------------
#$Date: 2016-03-24 00:14:39 +0200 (Thu, 24 Mar 2016) $
#$Revision: 179528 $
#$URL: svn://www.crystallography.net/cod/cif/4/34/25/4342581.cif $
#------------------------------------------------------------------------------
#
# This file is available in the Crystallography Open Database (COD),
# http://www.crystallography.net/
#
# All data on this site have been placed in the public domain by the
# contributors.
#
data_4342581
loop_
_publ_author_name
'Oliynyk, Anton O.'
'Stoyko, Stanislav S.'
'Mar, Arthur'
_publ_section_title
;
 Many Metals Make the Cut: Quaternary Rare-Earth Germanides RE4M2InGe4 (M
 = Fe, Co, Ni, Ru, Rh, Ir) and RE4RhInGe4 Derived from Excision of Slabs
 in RE2InGe2.
;
_journal_issue                   6
_journal_name_full               'Inorganic chemistry'
_journal_page_first              2780
_journal_page_last               2792
_journal_paper_doi               10.1021/ic502955h
_journal_volume                  54
_journal_year                    2015
_chemical_formula_structural     'Ce4 Fe2 In Ge4'
_chemical_formula_sum            'Ce4 Fe2 Ge4 In'
_chemical_formula_weight         1077.36
_chemical_name_common            'cerium iron indium germanide (4/2/1/4)'
_chemical_name_systematic        'cerium iron indium germanide (4/2/1/4)'
_space_group_crystal_system      monoclinic
_space_group_IT_number           12
_space_group_name_Hall           '-C 2y'
_space_group_name_H-M_alt        'C 1 2/m 1'
_symmetry_space_group_name_Hall  '-C 2y'
_symmetry_space_group_name_H-M   'C 1 2/m 1'
_atom_sites_solution_primary     direct
_atom_sites_solution_secondary   difmap
_audit_creation_method           SHELXL-2013
_cell_angle_alpha                90
_cell_angle_beta                 106.945(3)
_cell_angle_gamma                90
_cell_formula_units_Z            2
_cell_length_a                   16.071(4)
_cell_length_b                   4.3480(10)
_cell_length_c                   7.2757(17)
_cell_measurement_reflns_used    3698
_cell_measurement_temperature    173(2)
_cell_measurement_theta_max      33.01
_cell_measurement_theta_min      4.87
_cell_volume                     486.3(2)
_computing_cell_refinement       'Bruker SAINT 8.27B (Bruker, 2011)'
_computing_data_collection       'Bruker APEX 2 (Bruker, 2008)'
_computing_data_reduction        'Bruker SAINT 8.27B'
_computing_molecular_graphics    'ATOMS 5.1 (Dowty, 1999)'
_computing_publication_material  'Bruker SHELXTL'
_computing_structure_refinement  'Bruker SHELXTL'
_computing_structure_solution    'Bruker SHELXTL'
_diffrn_ambient_temperature      173(2)
_diffrn_measured_fraction_theta_full 1.000
_diffrn_measured_fraction_theta_max 0.979
_diffrn_measurement_device_type  'Bruker PLATFORM/SMART APEX II CCD'
_diffrn_measurement_method       '\w and \f scans'
_diffrn_radiation_type           MoK\a
_diffrn_radiation_wavelength     0.71073
_diffrn_reflns_av_R_equivalents  0.0284
_diffrn_reflns_av_unetI/netI     0.0248
_diffrn_reflns_Laue_measured_fraction_full 1.000
_diffrn_reflns_Laue_measured_fraction_max 0.979
_diffrn_reflns_limit_h_max       24
_diffrn_reflns_limit_h_min       -24
_diffrn_reflns_limit_k_max       6
_diffrn_reflns_limit_k_min       -6
_diffrn_reflns_limit_l_max       11
_diffrn_reflns_limit_l_min       -10
_diffrn_reflns_number            3484
_diffrn_reflns_point_group_measured_fraction_full 1.000
_diffrn_reflns_point_group_measured_fraction_max 0.979
_diffrn_reflns_theta_full        25.242
_diffrn_reflns_theta_max         33.219
_diffrn_reflns_theta_min         2.650
_diffrn_source                   'fine-focus sealed tube'
_exptl_absorpt_coefficient_mu    35.584
_exptl_absorpt_correction_T_max  0.4306
_exptl_absorpt_correction_T_min  0.1444
_exptl_absorpt_correction_type   numerical
_exptl_absorpt_process_details   'Bruker SHELXTL (Sheldrick, 2013)'
_exptl_crystal_colour            grey
_exptl_crystal_density_diffrn    7.357
_exptl_crystal_density_method    'not measured'
_exptl_crystal_description       irregular
_exptl_crystal_F_000             922
_exptl_crystal_size_max          0.095
_exptl_crystal_size_mid          0.046
_exptl_crystal_size_min          0.032
_refine_diff_density_max         1.594
_refine_diff_density_min         -1.383
_refine_diff_density_rms         0.314
_refine_ls_extinction_coef       0.00026(6)
_refine_ls_extinction_expression Fc^*^=kFc[1+0.001xFc^2^\l^3^/sin(2\q)]^-1/4^
_refine_ls_extinction_method     SHELXL
_refine_ls_goodness_of_fit_ref   1.105
_refine_ls_hydrogen_treatment    undef
_refine_ls_matrix_type           full
_refine_ls_number_parameters     37
_refine_ls_number_reflns         1016
_refine_ls_number_restraints     0
_refine_ls_restrained_S_all      1.105
_refine_ls_R_factor_all          0.0220
_refine_ls_R_factor_gt           0.0174
_refine_ls_shift/su_max          0.001
_refine_ls_shift/su_mean         0.000
_refine_ls_structure_factor_coef Fsqd
_refine_ls_weighting_details
'w=1/[\s^2^(Fo^2^)+(0.0121P)^2^+1.4656P] where P=(Fo^2^+2Fc^2^)/3'
_refine_ls_weighting_scheme      calc
_refine_ls_wR_factor_gt          0.0375
_refine_ls_wR_factor_ref         0.0386
_reflns_Friedel_coverage         0.000
_reflns_number_gt                908
_reflns_number_total             1016
_reflns_threshold_expression     'I > 2\s(I)'
_cod_data_source_file            ic502955h_si_002.cif
_cod_data_source_block           Ce4Fe2InGe4
_cod_depositor_comments
'Adding full bibliography for 4342570--4342590.cif.'
_cod_original_cell_volume        486.34(19)
_cod_database_code               4342581
#BEGIN Tags that were not found in dictionaries:
_shelx_space_group_comment
;
The symmetry employed for this shelxl refinement is uniquely defined
by the following loop, which should always be used as a source of
symmetry information in preference to the above space-group names.
They are only intended as comments.
;
_shelx_estimated_absorpt_t_min   0.133
_shelx_estimated_absorpt_t_max   0.396
_shelxl_version_number           2013-4
_shelx_res_file
;
TITL Ce4Fe2InGe4 C/m lsf final refinement
CELL 0.71073  16.07120   4.34800   7.27570  90.0000 106.9451  90.0000
ZERR    2.00   0.00370   0.00100   0.00170   0.0000   0.0030   0.0000
LATT  7
SYMM -X, Y, -Z
SFAC FE GE IN CE
UNIT 4 8 2 8
TEMP -100
SIZE 0.032 0.046 0.095

L.S. 4
ACTA

WGHT    0.012100    1.465600
EXTI    0.000262
FVAR       0.04464
CE1   4    0.347763    0.000000    0.060074    10.50000    0.00863    0.00691 =
         0.00650    0.00000    0.00089    0.00000
CE2   4    0.588469    0.000000    0.376035    10.50000    0.00801    0.00590 =
         0.00772    0.00000    0.00232    0.00000
FE    1    0.216732    0.000000    0.626089    10.50000    0.00883    0.00665 =
         0.00829    0.00000    0.00162    0.00000
IN    3    0.000000    0.000000    0.000000     0.24229    0.01142    0.00814 =
         0.00898    0.00000    0.00328    0.00000
GE1   2    0.065759    0.000000    0.652842    10.50000    0.00873    0.00639 =
         0.00719    0.00000    0.00161    0.00000
GE2   2    0.211788    0.000000    0.279515    10.50000    0.01152    0.00576 =
         0.00808    0.00000    0.00343    0.00000
HKLF 4

REM  Ce4Fe2InGe4 C/m lsf final refinement
REM R1 =  0.0174 for     908 Fo > 4sig(Fo)  and  0.0220 for all    1016 data
REM     37 parameters refined using      0 restraints

END

WGHT      0.0121      1.4658

REM Highest difference peak  1.594,  deepest hole -1.383,  1-sigma level  0.314
Q1    1   0.5801  0.0000  0.4997  10.50000  0.05    1.59
Q2    1   0.0897  0.0000  0.3951  10.50000  0.05    1.32
Q3    1   0.2695  0.0000  0.6612  10.50000  0.05    1.29
Q4    1   0.2779  0.0000  0.1530  10.50000  0.05    1.28
Q5    1   0.4880  0.0000  0.3792  10.50000  0.05    1.27
Q6    1   0.6349  0.0000  0.3857  10.50000  0.05    1.26
Q7    1   0.1583  0.0000  0.2538  10.50000  0.05    1.21
Q8    1   0.1210  0.0000  0.6576  10.50000  0.05    1.19
Q9    1   0.3357  0.0000  0.1646  10.50000  0.05    1.16
Q10   1   0.3599  0.0000 -0.0330  10.50000  0.05    1.16
Q11   1   0.3185  0.0000  0.2261  10.50000  0.05    1.15
Q12   1   0.0804  0.0000  0.5752  10.50000  0.05    1.12
Q13   1   0.5409  0.0000  0.3390  10.50000  0.05    1.12
Q14   1   0.3263  0.0000 -0.1047  10.50000  0.05    1.11
Q15   1   0.3983  0.0000  0.0763  10.50000  0.05    1.10
Q16   1   0.2485  0.0000  0.2215  10.50000  0.05    1.10
Q17   1   0.5978  0.0000  0.2925  10.50000  0.05    1.07
Q18   1   0.2828  0.0000  0.3065  10.50000  0.05    1.05
Q19   1   0.0323  0.0000  0.0284  10.50000  0.05    1.04
Q20   1   0.1564  0.0000  0.4178  10.50000  0.05    1.03
;
_shelx_res_checksum              5586
_shelx_hkl_file
;
   2  -2 -10    0.16    0.46
   4  -2 -10   -0.06    0.42
   6  -2 -10    1.06    0.56
   8  -2 -10   50.63    2.83
  -1  -1 -10    1.79    0.64
   1  -1 -10    1.19    0.51
   3  -1 -10    0.58    0.44
   5  -1 -10   29.74    1.97
   7  -1 -10    2.33    0.61
   9  -1 -10    9.55    1.08
  11  -1 -10    0.28    0.44
  15  -1 -10   -0.02    0.61
  -2   0 -10    3.97    0.53
   0   0 -10    8.13    1.07
   2   0 -10    0.68    0.47
   4   0 -10    0.83    0.45
   6   0 -10    0.96    0.48
   8   0 -10   58.45    3.16
  10   0 -10   53.34    2.98
  12   0 -10   14.45    1.56
  14   0 -10    6.12    1.02
  16   0 -10    0.42    0.59
  -1   1 -10    1.92    0.44
   1   1 -10    0.60    0.51
   3   1 -10    0.27    0.43
   5   1 -10   29.72    2.04
   7   1 -10    2.24    0.64
   9   1 -10    6.94    1.01
  11   1 -10   -0.02    0.34
  13   1 -10   41.50    2.48
  15   1 -10   -0.42    0.37
   0   2 -10    4.48    0.83
   2   2 -10   -0.06    0.46
   4   2 -10    0.17    0.50
   6   2 -10    0.86    0.57
   8   2 -10   47.96    3.06
  12   2 -10    8.10    1.25
   6  -4  -9    3.35    0.78
  -1  -3  -9   67.92    3.58
   1  -3  -9    5.06    0.87
   3  -3  -9    9.50    1.11
   5  -3  -9   26.72    1.73
   7  -3  -9   21.19    1.51
  -6  -2  -9    7.15    0.98
  -4  -2  -9    7.12    0.68
  -2  -2  -9    6.42    0.94
   0  -2  -9   30.99    2.04
   2  -2  -9   34.74    2.13
   4  -2  -9   25.94    1.70
   6  -2  -9    4.83    0.80
   8  -2  -9    0.15    0.38
  10  -2  -9    0.80    0.41
  14  -2  -9    0.31    0.54
  -7  -1  -9    6.20    0.68
  -5  -1  -9    4.20    0.53
  -3  -1  -9    5.98    0.60
  -1  -1  -9   90.35    4.53
   1  -1  -9    6.96    0.93
   3  -1  -9   11.32    1.16
   5  -1  -9   32.40    1.97
   7  -1  -9   25.90    1.69
   9  -1  -9    1.11    0.44
  11  -1  -9   28.62    1.30
  13  -1  -9   45.06    2.60
  15  -1  -9   15.86    1.56
  17  -1  -9    0.73    0.58
  -8   0  -9   -0.30    0.45
  -6   0  -9    6.49    0.63
  -4   0  -9    9.10    0.76
  -2   0  -9    6.55    0.62
   0   0  -9   41.46    1.61
   2   0  -9   35.96    2.22
   4   0  -9   26.60    1.74
   6   0  -9    5.40    0.78
   8   0  -9    0.17    0.32
  10   0  -9    1.11    0.33
  12   0  -9    3.50    0.50
  14   0  -9    0.80    0.36
  16   0  -9  106.69    4.92
  18   0  -9   -0.29    0.44
  -5   1  -9    4.39    0.58
  -3   1  -9    5.15    0.60
  -1   1  -9   93.89    3.14
   1   1  -9    7.02    0.63
   3   1  -9    9.63    1.11
   5   1  -9   34.92    2.09
   7   1  -9   25.17    1.76
   9   1  -9    1.04    0.34
  11   1  -9   26.87    1.34
  13   1  -9   44.84    1.83
  15   1  -9   15.15    0.99
  17   1  -9    1.56    0.66
  -4   2  -9    7.73    0.78
  -2   2  -9    6.63    0.70
   0   2  -9   33.82    1.49
   2   2  -9   33.78    1.49
   4   2  -9   24.44    1.18
   6   2  -9    4.48    0.85
   8   2  -9    1.23    0.55
  10   2  -9    1.65    0.66
  12   2  -9    2.83    0.76
  14   2  -9    0.69    0.40
  16   2  -9   88.59    4.43
  -3   3  -9    3.33    0.96
  -1   3  -9   66.40    2.61
   1   3  -9    4.33    0.63
   3   3  -9    8.51    0.82
   5   3  -9   22.70    1.25
   7   3  -9   18.09    1.92
   9   3  -9    0.39    0.55
  11   3  -9   17.46    1.93
   0  -4  -8    7.21    1.00
   2  -4  -8   18.51    1.45
   4  -4  -8   10.21    1.15
   6  -4  -8    7.08    0.94
  -7  -3  -8   15.64    1.55
  -5  -3  -8   13.49    0.98
  -3  -3  -8    8.17    0.72
  -1  -3  -8    2.64    0.65
   1  -3  -8   12.97    1.15
   3  -3  -8    5.80    0.84
   5  -3  -8   62.21    3.14
   7  -3  -8   45.13    2.38
  13  -3  -8    0.55    0.52
  15  -3  -8   14.46    1.49
  17  -3  -8    2.02    0.70
  -8  -2  -8    1.39    0.41
  -6  -2  -8   67.09    3.60
  -4  -2  -8    4.14    0.50
  -2  -2  -8    0.82    0.29
   0  -2  -8   11.66    1.02
   2  -2  -8   26.96    1.75
   4  -2  -8   13.85    1.13
   6  -2  -8    9.63    0.89
   8  -2  -8   14.74    1.11
  10  -2  -8   71.92    2.40
  12  -2  -8    0.07    0.48
  14  -2  -8   -0.45    0.43
  16  -2  -8    1.73    0.65
  18  -2  -8   -0.48    0.38
  -9  -1  -8    0.29    0.31
  -7  -1  -8   20.18    1.04
  -5  -1  -8   18.02    0.96
  -3  -1  -8    9.38    0.65
  -1  -1  -8    4.03    0.44
   1  -1  -8   22.10    0.92
   3  -1  -8    8.80    0.94
   5  -1  -8   85.14    4.03
   7  -1  -8   54.12    2.85
   9  -1  -8    9.73    0.67
  11  -1  -8   36.19    1.43
  13  -1  -8    0.17    0.42
  15  -1  -8   18.71    1.47
  17  -1  -8    1.50    0.58
  19  -1  -8   53.96    3.07
 -10   0  -8   48.49    2.78
  -8   0  -8    2.97    0.47
  -6   0  -8   77.82    2.63
  -4   0  -8    4.23    0.48
  -2   0  -8    0.95    0.27
   0   0  -8   12.03    0.68
   2   0  -8   33.84    1.30
   4   0  -8   18.70    1.30
   6   0  -8   10.36    0.70
   8   0  -8   18.51    0.94
  10   0  -8   81.43    2.76
  12   0  -8    0.10    0.25
  14   0  -8    0.01    0.26
  16   0  -8    3.73    0.80
  18   0  -8    0.14    0.53
  20   0  -8   -0.34    0.46
  -9   1  -8    0.67    0.49
  -7   1  -8   18.27    1.03
  -5   1  -8   19.25    1.00
  -3   1  -8    8.47    0.69
  -1   1  -8    4.71    0.47
   1   1  -8   17.86    0.91
   3   1  -8    7.88    0.61
   5   1  -8   84.88    4.12
   7   1  -8   56.06    2.09
   9   1  -8    8.56    0.73
  11   1  -8   34.10    1.49
  13   1  -8   -0.24    0.26
  15   1  -8   21.42    1.54
  17   1  -8    1.66    0.62
  19   1  -8   53.53    3.04
  -8   2  -8    1.80    0.61
  -6   2  -8   72.15    2.57
  -4   2  -8    4.67    0.58
  -2   2  -8    0.46    0.29
   0   2  -8   10.54    0.74
   2   2  -8   30.11    1.26
   4   2  -8   14.54    0.82
   6   2  -8    9.36    0.66
   8   2  -8   14.57    1.30
  10   2  -8   68.95    2.54
  12   2  -8   -0.12    0.31
  14   2  -8    0.26    0.32
  16   2  -8    1.85    0.50
  18   2  -8   -0.07    0.50
  -5   3  -8   14.85    1.47
  -3   3  -8    6.90    0.75
  -1   3  -8    3.20    0.51
   1   3  -8   13.98    0.95
   3   3  -8    5.07    0.60
   5   3  -8   61.17    2.31
   7   3  -8   42.47    1.81
   9   3  -8    6.67    1.07
  11   3  -8   24.73    2.02
  13   3  -8    0.21    0.53
  15   3  -8   13.52    1.63
  17   3  -8   -0.39    0.61
  -2   4  -8    1.48    0.89
   0   4  -8    5.99    0.77
   2   4  -8   18.45    1.23
   4   4  -8    9.23    0.93
   6   4  -8    5.80    0.75
   8   4  -8    9.32    0.92
  10   4  -8   44.67    3.10
   3  -5  -7   -0.11    0.45
  -6  -4  -7    0.60    0.62
  -4  -4  -7   47.69    1.95
  -2  -4  -7   12.99    1.38
   0  -4  -7   22.90    1.68
   2  -4  -7   25.34    1.61
   4  -4  -7   14.54    1.14
   6  -4  -7   14.85    1.13
  12  -4  -7    7.30    1.03
  14  -4  -7   15.60    1.44
  -9  -3  -7    3.11    0.57
  -7  -3  -7   21.61    1.13
  -5  -3  -7    4.43    0.55
  -3  -3  -7   27.62    1.23
  -1  -3  -7    1.03    0.28
   1  -3  -7   53.68    2.85
   3  -3  -7    2.51    0.52
   5  -3  -7    0.07    0.30
   7  -3  -7    5.16    0.69
   9  -3  -7    2.41    0.63
  11  -3  -7    2.26    0.61
  13  -3  -7   45.12    2.59
  15  -3  -7    7.13    1.04
  17  -3  -7   47.19    2.80
 -12  -2  -7   15.28    1.31
 -10  -2  -7    1.22    0.34
  -8  -2  -7    3.55    0.51
  -6  -2  -7    1.14    0.32
  -4  -2  -7   69.99    2.44
  -2  -2  -7   20.36    0.94
   0  -2  -7   40.16    1.44
   2  -2  -7   38.12    2.04
   4  -2  -7   25.46    1.45
   6  -2  -7   22.40    1.35
   8  -2  -7   14.72    0.77
  10  -2  -7   77.73    2.51
  12  -2  -7    9.62    1.07
  14  -2  -7   25.46    1.32
  16  -2  -7    2.78    0.55
  18  -2  -7   23.44    1.31
  20  -2  -7    0.74    0.46
 -13  -1  -7    4.18    1.24
 -11  -1  -7    9.35    0.72
  -9  -1  -7    5.22    0.52
  -7  -1  -7   27.14    1.06
  -5  -1  -7    6.28    0.50
  -3  -1  -7   39.54    1.49
  -1  -1  -7    1.58    0.29
   1  -1  -7   82.33    2.53
   3  -1  -7    3.38    0.33
   5  -1  -7   -0.05    0.20
   7  -1  -7    6.04    0.52
   9  -1  -7    1.15    0.27
  11  -1  -7    2.51    0.37
  13  -1  -7   58.84    2.99
  15  -1  -7   12.13    0.94
  17  -1  -7   63.80    2.39
  19  -1  -7    0.00    0.36
  21  -1  -7    5.20    0.70
 -12   0  -7   15.98    1.09
 -10   0  -7    0.72    0.36
  -8   0  -7    3.73    0.41
  -6   0  -7    1.15    0.25
  -4   0  -7   86.73    2.81
  -2   0  -7   26.16    1.09
   0   0  -7   47.71    1.66
   2   0  -7   47.82    1.64
   4   0  -7   25.97    0.83
   6   0  -7   26.40    1.11
   8   0  -7   15.92    0.83
  10   0  -7   91.84    3.04
  12   0  -7   12.28    0.74
  14   0  -7   30.54    1.27
  16   0  -7    3.83    0.77
  18   0  -7   25.51    1.31
  20   0  -7    0.94    0.43
  22   0  -7    0.24    0.55
 -13   1  -7    4.64    1.14
 -11   1  -7   11.72    0.99
  -9   1  -7    5.48    0.81
  -7   1  -7   25.24    1.19
  -5   1  -7    5.64    0.55
  -3   1  -7   39.61    1.50
  -1   1  -7    1.84    0.31
   1   1  -7   76.32    2.55
   3   1  -7    1.84    0.30
   5   1  -7    0.27    0.16
   7   1  -7    5.03    0.52
   9   1  -7    1.69    0.34
  11   1  -7    2.58    0.42
  13   1  -7   62.93    2.18
  15   1  -7   12.32    0.84
  17   1  -7   62.19    3.21
  19   1  -7    0.10    0.44
  21   1  -7    4.72    0.90
 -10   2  -7    0.87    0.51
  -8   2  -7    2.30    0.61
  -6   2  -7    0.69    0.31
  -4   2  -7   74.73    2.52
  -2   2  -7   20.77    1.00
   0   2  -7   37.93    1.49
   2   2  -7   38.36    1.44
   4   2  -7   22.58    1.02
   6   2  -7   21.48    1.00
   8   2  -7   12.67    0.78
  10   2  -7   74.95    2.66
  12   2  -7    9.45    0.81
  14   2  -7   28.96    1.33
  16   2  -7    3.25    0.52
  18   2  -7   22.69    1.71
  20   2  -7    1.28    0.62
  -9   3  -7    3.94    0.79
  -7   3  -7   20.86    1.56
  -5   3  -7    3.25    0.69
  -3   3  -7   26.18    1.31
  -1   3  -7    1.48    0.38
   1   3  -7   56.95    2.12
   3   3  -7    0.80    0.32
   5   3  -7    0.13    0.27
   7   3  -7    3.30    0.47
   9   3  -7    0.62    0.34
  11   3  -7    2.68    0.73
  13   3  -7   42.11    2.82
  15   3  -7    9.32    1.34
  17   3  -7   51.53    3.02
  -4   4  -7   45.24    2.73
  -2   4  -7   16.22    1.10
   0   4  -7   24.41    1.36
   2   4  -7   20.41    1.24
   4   4  -7   13.69    1.10
   6   4  -7   12.35    1.04
   8   4  -7    9.64    0.89
  10   4  -7   44.69    1.99
  12   4  -7    6.68    1.23
  14   4  -7   15.65    1.83
   1   5  -7   35.71    2.81
   3   5  -7    0.65    0.81
   5   5  -7    0.22    0.46
   7   5  -7    1.07    0.69
   9   5  -7    0.16    0.60
  -5  -5  -6   24.29    2.09
  -3  -5  -6    1.64    0.48
  -1  -5  -6   36.66    2.35
   1  -5  -6    1.41    0.54
   3  -5  -6    1.37    0.54
  -8  -4  -6    6.45    0.80
  -6  -4  -6    0.36    0.36
  -4  -4  -6   10.82    0.89
  -2  -4  -6   26.95    1.26
   0  -4  -6    0.32    0.26
   2  -4  -6    7.08    0.86
   4  -4  -6   91.50    4.17
   6  -4  -6   25.70    1.51
  10  -4  -6    1.60    0.53
  12  -4  -6   47.73    2.53
  14  -4  -6    5.51    0.87
  16  -4  -6   17.43    1.46
 -11  -3  -6   11.22    1.00
  -9  -3  -6   81.47    2.91
  -7  -3  -6    0.33    0.30
  -5  -3  -6   44.91    1.71
  -3  -3  -6    3.20    0.42
  -1  -3  -6   69.40    2.33
   1  -3  -6    2.19    0.32
   3  -3  -6    2.46    0.51
   5  -3  -6   66.57    2.98
   7  -3  -6   53.40    1.75
   9  -3  -6   37.81    2.03
  11  -3  -6    8.19    0.95
  13  -3  -6   24.61    1.66
  15  -3  -6    1.36    0.55
  17  -3  -6    1.22    0.46
  19  -3  -6    2.86    0.61
 -14  -2  -6    1.18    0.85
 -12  -2  -6   20.47    1.01
 -10  -2  -6   31.48    1.41
  -8  -2  -6    9.69    0.75
  -6  -2  -6    1.41    0.31
  -4  -2  -6   16.77    0.83
  -2  -2  -6   46.16    1.65
   0  -2  -6    0.25    0.17
   2  -2  -6   11.81    0.59
   4  -2  -6  155.98    4.47
   6  -2  -6   40.97    1.45
   8  -2  -6   21.40    0.92
  10  -2  -6    4.05    0.36
  12  -2  -6   71.81    2.61
  14  -2  -6    9.31    0.82
  16  -2  -6   27.17    1.35
  18  -2  -6   14.92    1.12
  20  -2  -6   66.17    2.66
 -15  -1  -6   17.62    2.32
 -13  -1  -6   17.33    1.18
 -11  -1  -6   13.16    0.76
  -9  -1  -6  106.71    3.02
  -7  -1  -6    0.60    0.21
  -5  -1  -6   61.01    2.06
  -3  -1  -6    4.37    0.41
  -1  -1  -6  105.14    3.21
   1  -1  -6    3.68    0.34
   3  -1  -6    3.13    0.26
   5  -1  -6   93.07    2.86
   7  -1  -6   70.47    2.30
   9  -1  -6   53.06    1.79
  11  -1  -6   13.32    0.60
  13  -1  -6   39.09    1.60
  15  -1  -6    1.62    0.41
  17  -1  -6    1.00    0.37
  19  -1  -6    4.93    0.65
  21  -1  -6   31.92    1.56
 -14   0  -6    1.23    0.45
 -12   0  -6   21.12    1.22
 -10   0  -6   34.15    1.24
  -8   0  -6   10.60    0.60
  -6   0  -6    1.18    0.24
  -4   0  -6   22.36    0.81
  -2   0  -6   61.25    1.75
   0   0  -6    0.10    0.13
   2   0  -6   14.97    0.54
   4   0  -6  180.99    4.30
   6   0  -6   49.25    1.33
   8   0  -6   24.76    1.03
  10   0  -6    4.99    0.45
  12   0  -6   88.86    2.38
  14   0  -6   10.87    0.84
  16   0  -6   28.06    1.31
  18   0  -6   17.67    1.01
  20   0  -6   79.32    2.90
  22   0  -6   -0.06    0.35
 -15   1  -6   15.93    1.27
 -13   1  -6   19.10    1.17
 -11   1  -6   13.13    0.91
  -9   1  -6  106.92    3.77
  -7   1  -6    1.13    0.25
  -5   1  -6   60.84    1.79
  -3   1  -6    4.11    0.35
  -1   1  -6  104.06    3.24
   1   1  -6    3.12    0.33
   3   1  -6    2.47    0.30
   5   1  -6   89.95    2.30
   7   1  -6   71.11    1.87
   9   1  -6   53.67    1.89
  11   1  -6   13.57    0.76
  13   1  -6   38.57    1.51
  15   1  -6    2.22    0.40
  17   1  -6    1.95    0.45
  19   1  -6    3.89    0.56
  21   1  -6   30.75    1.49
  23   1  -6    4.11    0.88
 -14   2  -6    0.44    0.44
 -12   2  -6   20.47    1.56
 -10   2  -6   30.29    1.93
  -8   2  -6    9.53    1.03
  -6   2  -6    0.52    0.23
  -4   2  -6   17.06    0.74
  -2   2  -6   44.77    1.70
   0   2  -6    0.27    0.20
   2   2  -6   11.48    0.65
   4   2  -6  147.27    4.51
   6   2  -6   39.65    1.50
   8   2  -6   22.89    0.84
  10   2  -6    3.68    0.39
  12   2  -6   76.10    2.58
  14   2  -6    9.73    0.78
  16   2  -6   25.77    1.26
  18   2  -6   18.68    1.40
  20   2  -6   79.42    3.65
  22   2  -6   -0.05    0.50
 -13   3  -6    4.20    1.17
 -11   3  -6    8.04    0.84
  -9   3  -6   80.09    3.94
  -7   3  -6    1.42    0.53
  -5   3  -6   40.75    1.71
  -3   3  -6    2.84    0.44
  -1   3  -6   68.46    2.45
   1   3  -6    2.11    0.39
   3   3  -6    1.95    0.38
   5   3  -6   58.96    2.21
   7   3  -6   49.31    1.89
   9   3  -6   35.88    1.56
  11   3  -6   10.08    0.83
  13   3  -6   26.11    1.96
  15   3  -6    0.96    0.60
  17   3  -6    1.62    0.45
  19   3  -6    3.25    0.81
  -8   4  -6    8.91    1.17
  -6   4  -6    0.68    0.52
  -4   4  -6    8.73    1.11
  -2   4  -6   27.52    1.37
   0   4  -6    0.17    0.32
   2   4  -6    5.27    0.68
   4   4  -6   83.04    3.14
   6   4  -6   23.08    1.26
   8   4  -6   13.50    1.08
  10   4  -6    2.47    0.53
  12   4  -6   48.52    2.02
  14   4  -6    6.49    1.12
  16   4  -6   17.32    1.61
  -3   5  -6    1.52    0.64
  -1   5  -6   35.65    1.85
   1   5  -6    1.08    0.49
   3   5  -6    1.83    0.54
   5   5  -6   32.70    1.69
   7   5  -6   31.75    1.64
   9   5  -6   21.68    1.33
  11   5  -6    5.86    1.05
  -7  -5  -5   12.85    1.74
  -5  -5  -5   10.91    0.78
  -3  -5  -5    7.04    0.59
  -1  -5  -5   51.47    1.91
   1  -5  -5   37.90    1.49
   3  -5  -5   20.01    0.97
   9  -5  -5    3.89    0.74
  11  -5  -5   26.98    1.72
  13  -5  -5   -0.39    0.46
 -10  -4  -5    3.14    0.63
  -8  -4  -5   15.09    1.15
  -6  -4  -5   58.16    1.76
  -4  -4  -5    0.18    0.21
  -2  -4  -5   52.56    1.52
   0  -4  -5    5.81    0.43
   2  -4  -5    0.24    0.20
   4  -4  -5    0.64    0.33
   6  -4  -5   13.97    0.74
   8  -4  -5    6.25    0.79
  10  -4  -5   40.47    2.22
  12  -4  -5   11.55    1.18
  14  -4  -5   34.16    2.00
  16  -4  -5    1.25    0.54
 -13  -3  -5    5.73    0.74
 -11  -3  -5    3.76    0.59
  -9  -3  -5    2.23    0.45
  -7  -3  -5   27.10    1.31
  -5  -3  -5   17.86    0.69
  -3  -3  -5   10.37    0.54
  -1  -3  -5  101.59    2.49
   1  -3  -5   78.19    2.44
   3  -3  -5   37.98    1.33
   5  -3  -5   22.39    0.92
   7  -3  -5   49.96    1.63
   9  -3  -5    8.92    0.88
  11  -3  -5   37.94    2.11
  13  -3  -5    0.45    0.32
  15  -3  -5   82.54    3.00
  17  -3  -5    2.25    0.51
  19  -3  -5   -0.44    0.34
  21  -3  -5    5.42    1.24
 -14  -2  -5   31.63    1.70
 -12  -2  -5   17.89    1.02
 -10  -2  -5    3.56    0.48
  -8  -2  -5   25.78    1.14
  -6  -2  -5   99.06    3.16
  -4  -2  -5    0.00    0.17
  -2  -2  -5   87.94    2.67
   0  -2  -5   10.28    0.55
   2  -2  -5    0.73    0.16
   4  -2  -5    1.64    0.19
   6  -2  -5   29.27    1.09
   8  -2  -5   11.03    0.51
  10  -2  -5   66.90    1.89
  12  -2  -5   18.92    0.99
  14  -2  -5   48.67    1.92
  16  -2  -5    1.33    0.38
  18  -2  -5   13.83    1.02
  20  -2  -5   21.46    1.27
  22  -2  -5    3.35    0.61
 -15  -1  -5   31.12    1.63
 -13  -1  -5    9.18    0.89
 -11  -1  -5    5.09    0.47
  -9  -1  -5    3.16    0.35
  -7  -1  -5   39.09    1.47
  -5  -1  -5   22.49    0.94
  -3  -1  -5   15.44    0.70
  -1  -1  -5  150.01    4.32
   1  -1  -5  123.64    2.88
   3  -1  -5   58.43    1.45
   5  -1  -5   37.23    0.96
   7  -1  -5   72.16    1.91
   9  -1  -5   11.43    0.53
  11  -1  -5   59.26    1.63
  13  -1  -5    0.76    0.31
  15  -1  -5  111.91    3.66
  17  -1  -5    3.04    0.45
  19  -1  -5    0.47    0.36
  21  -1  -5    6.12    0.74
  23  -1  -5    5.18    0.71
 -16   0  -5    1.19    0.46
 -14   0  -5   36.42    1.72
 -12   0  -5   18.88    1.08
 -10   0  -5    5.02    0.44
  -8   0  -5   34.57    1.15
  -6   0  -5  120.28    3.20
  -4   0  -5    0.02    0.13
  -2   0  -5  105.80    2.75
   0   0  -5   13.27    0.51
   2   0  -5    0.51    0.11
   4   0  -5    2.67    0.22
   6   0  -5   38.41    1.03
   8   0  -5   14.93    0.70
  10   0  -5   84.46    2.28
  12   0  -5   22.59    0.82
  14   0  -5   59.48    2.12
  16   0  -5    1.42    0.36
  18   0  -5   19.44    1.07
  20   0  -5   27.00    1.35
  22   0  -5    4.49    0.65
  24   0  -5   13.64    1.48
 -17   1  -5   21.69    1.71
 -15   1  -5   29.81    1.55
 -13   1  -5    9.16    0.85
 -11   1  -5    5.33    0.60
  -9   1  -5    2.46    0.31
  -7   1  -5   39.97    1.27
  -5   1  -5   23.22    0.82
  -3   1  -5   15.43    0.60
  -1   1  -5  147.43    3.77
   1   1  -5  120.57    3.09
   3   1  -5   55.66    1.47
   5   1  -5   35.14    1.01
   7   1  -5   72.85    1.88
   9   1  -5   12.19    0.53
  11   1  -5   58.96    2.00
  13   1  -5    1.00    0.25
  15   1  -5  113.72    2.95
  17   1  -5    3.04    0.48
  19   1  -5    0.63    0.35
  21   1  -5    7.48    0.76
  23   1  -5    5.06    0.67
 -16   2  -5    0.74    0.46
 -14   2  -5   30.06    1.58
 -12   2  -5   18.17    1.09
 -10   2  -5    4.67    0.56
  -8   2  -5   26.99    1.24
  -6   2  -5  100.89    3.15
  -4   2  -5    0.18    0.17
  -2   2  -5   86.09    2.35
   0   2  -5   11.21    0.52
   2   2  -5    0.34    0.21
   4   2  -5    1.43    0.28
   6   2  -5   30.42    1.19
   8   2  -5   11.91    0.56
  10   2  -5   71.09    1.93
  12   2  -5   19.25    0.97
  14   2  -5   48.46    1.86
  16   2  -5    1.33    0.36
  18   2  -5   16.22    1.33
  20   2  -5   22.20    1.19
  22   2  -5    4.30    0.62
 -13   3  -5    5.71    0.95
 -11   3  -5    3.30    0.59
  -9   3  -5    1.87    0.47
  -7   3  -5   30.48    1.43
  -5   3  -5   16.36    0.79
  -3   3  -5   12.53    0.64
  -1   3  -5  101.71    2.83
   1   3  -5   75.59    2.56
   3   3  -5   38.73    1.51
   5   3  -5   22.01    1.08
   7   3  -5   46.50    1.82
   9   3  -5    7.70    0.72
  11   3  -5   40.31    1.69
  13   3  -5    1.02    0.33
  15   3  -5   83.63    2.91
  17   3  -5    2.13    0.46
  19   3  -5    0.29    0.52
  21   3  -5    5.36    0.96
 -12   4  -5   10.25    1.76
 -10   4  -5    2.02    0.55
  -8   4  -5   16.68    1.18
  -6   4  -5   63.40    2.48
  -4   4  -5    0.19    0.33
  -2   4  -5   50.71    2.05
   0   4  -5    5.26    0.63
   2   4  -5    0.14    0.28
   4   4  -5    0.33    0.32
   6   4  -5   13.94    1.04
   8   4  -5    6.37    0.72
  10   4  -5   42.10    1.82
  12   4  -5   11.90    0.97
  14   4  -5   30.25    1.48
  16   4  -5    1.25    0.56
  18   4  -5   10.90    1.27
  -7   5  -5   15.83    1.65
  -5   5  -5   10.69    1.36
  -3   5  -5    4.40    0.92
  -1   5  -5   51.35    2.23
   1   5  -5   37.60    1.80
   3   5  -5   20.01    1.29
   5   5  -5   11.25    1.03
   7   5  -5   22.14    1.33
   9   5  -5    4.83    0.71
  11   5  -5   24.86    1.37
  13   5  -5    0.23    0.41
   0  -6  -4   11.65    1.33
   2  -6  -4   20.03    1.04
   4  -6  -4    7.83    0.97
  -9  -5  -4    0.44    0.46
  -7  -5  -4    1.85    0.39
  -5  -5  -4    7.49    0.73
  -3  -5  -4    2.14    0.43
  -1  -5  -4    0.85    0.31
   1  -5  -4   50.99    1.79
   3  -5  -4    0.32    0.25
   5  -5  -4   33.58    1.29
   7  -5  -4    1.21    0.32
   9  -5  -4   37.29    2.05
  11  -5  -4   18.60    1.46
  13  -5  -4    1.32    0.54
 -14  -4  -4    2.65    0.95
 -12  -4  -4   31.50    1.73
 -10  -4  -4    6.09    0.80
  -8  -4  -4   60.25    2.46
  -6  -4  -4   19.04    0.85
  -4  -4  -4   14.91    0.80
  -2  -4  -4    8.63    0.64
   0  -4  -4   18.37    0.85
   2  -4  -4   39.83    1.42
   4  -4  -4   18.14    0.66
   6  -4  -4  118.33    2.80
   8  -4  -4    1.75    0.45
  10  -4  -4    4.48    0.70
  12  -4  -4    2.53    0.60
  14  -4  -4    5.41    0.82
  16  -4  -4    4.04    0.77
  18  -4  -4   16.16    1.40
 -15  -3  -4   29.46    1.56
 -13  -3  -4    5.05    0.70
 -11  -3  -4   48.07    1.98
  -9  -3  -4    1.53    0.38
  -7  -3  -4    3.26    0.34
  -5  -3  -4   15.87    0.64
  -3  -3  -4    5.84    0.40
  -1  -3  -4    1.07    0.23
   1  -3  -4   99.00    2.35
   3  -3  -4    0.85    0.17
   5  -3  -4   64.20    2.00
   7  -3  -4    2.82    0.32
   9  -3  -4   70.70    2.39
  11  -3  -4   35.25    1.54
  13  -3  -4    1.64    0.41
  15  -3  -4   15.08    0.98
  17  -3  -4   46.39    2.02
  19  -3  -4    7.58    0.85
  21  -3  -4   37.26    1.81
 -16  -2  -4   16.37    1.23
 -14  -2  -4    4.83    0.54
 -12  -2  -4   52.42    1.99
 -10  -2  -4   12.16    0.78
  -8  -2  -4  107.21    3.43
  -6  -2  -4   35.56    1.01
  -4  -2  -4   28.61    0.84
  -2  -2  -4   17.10    0.57
   0  -2  -4   35.53    0.81
   2  -2  -4   76.47    1.85
   4  -2  -4   32.25    0.76
   6  -2  -4  214.61    5.15
   8  -2  -4    1.84    0.22
  10  -2  -4    8.71    0.70
  12  -2  -4    4.11    0.50
  14  -2  -4    8.90    0.75
  16  -2  -4    6.95    0.70
  18  -2  -4   23.61    1.25
  20  -2  -4    1.89    0.49
  22  -2  -4   20.74    2.31
 -17  -1  -4    0.25    0.39
 -15  -1  -4   37.12    1.77
 -13  -1  -4    7.59    0.77
 -11  -1  -4   66.35    1.98
  -9  -1  -4    1.71    0.29
  -7  -1  -4    3.04    0.34
  -5  -1  -4   25.03    0.96
  -3  -1  -4    9.57    0.50
  -1  -1  -4    2.09    0.17
   1  -1  -4  163.14    3.68
   3  -1  -4    0.80    0.12
   5  -1  -4   97.68    2.03
   7  -1  -4    5.23    0.32
   9  -1  -4  104.68    2.61
  11  -1  -4   58.18    1.55
  13  -1  -4    1.89    0.39
  15  -1  -4   20.01    1.06
  17  -1  -4   62.20    2.40
  19  -1  -4   13.21    0.91
  21  -1  -4   46.92    2.00
  23  -1  -4   20.17    1.26
 -18   0  -4    1.33    0.46
 -16   0  -4   17.80    1.13
 -14   0  -4    7.22    0.75
 -12   0  -4   60.05    2.41
 -10   0  -4   14.51    0.65
  -8   0  -4  129.61    3.42
  -6   0  -4   45.44    1.33
  -4   0  -4   35.41    1.07
  -2   0  -4   25.06    0.78
   0   0  -4   46.08    1.05
   2   0  -4   92.98    2.21
   4   0  -4   40.42    1.04
   6   0  -4  293.89    6.61
   8   0  -4    1.85    0.23
  10   0  -4   11.97    0.54
  12   0  -4    5.26    0.39
  14   0  -4   10.18    0.72
  16   0  -4    6.88    0.66
  18   0  -4   25.35    1.26
  20   0  -4    1.72    0.45
  22   0  -4   30.66    1.46
  24   0  -4   10.71    1.28
 -19   1  -4    6.00    1.00
 -17   1  -4    0.18    0.37
 -15   1  -4   36.56    1.70
 -13   1  -4    7.35    0.72
 -11   1  -4   64.64    2.47
  -9   1  -4    1.53    0.24
  -7   1  -4    3.46    0.31
  -5   1  -4   26.34    0.84
  -3   1  -4    9.57    0.43
  -1   1  -4    2.11    0.20
   1   1  -4  163.10    3.96
   3   1  -4    0.75    0.11
   5   1  -4   96.99    2.36
   7   1  -4    5.55    0.34
   9   1  -4  101.41    2.25
  11   1  -4   56.72    1.35
  13   1  -4    3.20    0.35
  15   1  -4   20.63    0.83
  17   1  -4   65.71    2.35
  19   1  -4   13.54    0.87
  21   1  -4   51.11    1.98
  23   1  -4   20.73    1.20
 -18   2  -4    1.03    0.43
 -16   2  -4   16.87    0.87
 -14   2  -4    5.54    0.52
 -12   2  -4   51.91    1.62
 -10   2  -4   11.92    0.60
  -8   2  -4  109.29    3.71
  -6   2  -4   33.97    1.30
  -4   2  -4   28.05    0.95
  -2   2  -4   17.15    0.67
   0   2  -4   36.21    1.10
   2   2  -4   74.90    2.04
   4   2  -4   30.67    0.99
   6   2  -4  217.72    4.63
   8   2  -4    2.15    0.29
  10   2  -4   10.47    0.56
  12   2  -4    4.61    0.40
  14   2  -4   10.61    0.63
  16   2  -4    6.66    0.52
  18   2  -4   23.75    1.17
  20   2  -4    1.18    0.41
  22   2  -4   26.88    1.96
 -15   3  -4   28.37    1.96
 -13   3  -4    5.87    0.90
 -11   3  -4   46.82    2.57
  -9   3  -4    1.02    0.36
  -7   3  -4    3.51    0.49
  -5   3  -4   16.24    0.74
  -3   3  -4    6.06    0.48
  -1   3  -4    0.92    0.25
   1   3  -4   98.62    2.73
   3   3  -4    0.64    0.22
   5   3  -4   61.89    1.86
   7   3  -4    2.87    0.43
   9   3  -4   66.97    2.41
  11   3  -4   36.95    1.56
  13   3  -4    1.96    0.41
  15   3  -4   15.26    0.70
  17   3  -4   52.50    1.92
  19   3  -4   10.61    1.18
 -14   4  -4    3.75    0.87
 -12   4  -4   36.86    1.83
 -10   4  -4    8.25    0.86
  -8   4  -4   66.63    2.62
  -6   4  -4   21.33    1.17
  -4   4  -4   15.60    0.80
  -2   4  -4   10.46    0.72
   0   4  -4   19.72    0.89
   2   4  -4   41.39    1.44
   4   4  -4   17.58    0.85
   6   4  -4  109.93    3.84
   8   4  -4    1.23    0.38
  10   4  -4    4.36    0.60
  12   4  -4    2.33    0.46
  14   4  -4    6.00    0.66
  16   4  -4    3.09    0.73
  18   4  -4   15.36    1.39
  -9   5  -4    0.32    0.46
  -7   5  -4    1.79    0.53
  -5   5  -4    8.52    0.91
  -3   5  -4    1.83    0.52
  -1   5  -4    0.12    0.29
   1   5  -4   47.74    2.08
   3   5  -4   -0.48    0.30
   5   5  -4   31.39    1.59
   7   5  -4    0.69    0.40
   9   5  -4   31.87    1.60
  11   5  -4   17.84    1.11
  13   5  -4    0.77    0.40
  15   5  -4    8.09    1.11
   2   6  -4   19.43    1.35
   4   6  -4    9.65    1.00
   6   6  -4   57.23    3.57
  -4  -6  -3   27.74    1.36
  -2  -6  -3    9.11    0.83
   0  -6  -3   67.58    2.38
   2  -6  -3    0.39    0.31
   6  -6  -3    8.04    0.72
   8  -6  -3   14.68    0.92
 -11  -5  -3    3.30    0.69
  -9  -5  -3   17.11    1.08
  -7  -5  -3   19.57    1.12
  -5  -5  -3  109.59    3.46
  -3  -5  -3    9.17    0.74
  -1  -5  -3    3.50    0.45
   1  -5  -3    1.32    0.32
   3  -5  -3    5.54    0.43
   5  -5  -3    0.91    0.28
   7  -5  -3    0.90    0.29
   9  -5  -3   71.31    2.26
  11  -5  -3   32.57    1.96
  13  -5  -3    0.32    0.43
  15  -5  -3    8.05    1.11
 -14  -4  -3   19.12    1.29
 -12  -4  -3    4.25    0.67
 -10  -4  -3   21.13    1.29
  -8  -4  -3    6.70    0.65
  -6  -4  -3    0.27    0.25
  -4  -4  -3   57.85    1.93
  -2  -4  -3   23.39    0.98
   0  -4  -3  157.33    3.61
   2  -4  -3    1.05    0.21
   4  -4  -3   53.99    1.41
   6  -4  -3   19.40    0.67
   8  -4  -3   29.22    1.12
  10  -4  -3    0.36    0.34
  12  -4  -3   77.75    3.74
  14  -4  -3   45.65    2.41
  16  -4  -3    9.13    0.88
  18  -4  -3   12.60    1.07
 -17  -3  -3   22.46    1.84
 -15  -3  -3   32.42    1.58
 -13  -3  -3    0.07    0.30
 -11  -3  -3    5.27    0.65
  -9  -3  -3   29.88    1.37
  -7  -3  -3   42.55    1.29
  -5  -3  -3  209.06    5.89
  -3  -3  -3   15.19    0.70
  -1  -3  -3   11.17    0.45
   1  -3  -3    2.67    0.24
   3  -3  -3   13.25    0.49
   5  -3  -3    2.87    0.25
   7  -3  -3    1.69    0.20
   9  -3  -3  137.45    4.35
  11  -3  -3   63.10    2.27
  13  -3  -3    0.21    0.26
  15  -3  -3   16.38    0.99
  17  -3  -3   23.56    1.30
  19  -3  -3    1.97    0.52
  21  -3  -3   -0.11    0.42
 -18  -2  -3    5.77    0.77
 -16  -2  -3    1.01    0.41
 -14  -2  -3   34.58    1.50
 -12  -2  -3    7.00    0.64
 -10  -2  -3   36.43    1.47
  -8  -2  -3    7.78    0.43
  -6  -2  -3    0.21    0.14
  -4  -2  -3   99.01    2.35
  -2  -2  -3   44.85    1.11
   0  -2  -3  307.35    6.72
   2  -2  -3    3.54    0.23
   4  -2  -3  111.43    2.22
   6  -2  -3   37.88    1.09
   8  -2  -3   49.31    1.36
  10  -2  -3    2.26    0.37
  12  -2  -3  134.95    4.39
  14  -2  -3   72.76    2.67
  16  -2  -3   14.97    0.81
  18  -2  -3   18.37    0.92
  20  -2  -3   15.14    0.88
  22  -2  -3    0.09    0.34
 -19  -1  -3   10.27    1.00
 -17  -1  -3   30.92    1.58
 -15  -1  -3   47.22    1.99
 -13  -1  -3    0.66    0.23
 -11  -1  -3    7.38    0.51
  -9  -1  -3   41.69    1.53
  -7  -1  -3   65.86    1.62
  -5  -1  -3  331.13    7.44
  -3  -1  -3   25.37    0.87
  -1  -1  -3   23.13    0.61
   1  -1  -3    3.85    0.21
   3  -1  -3   26.20    0.60
   5  -1  -3    3.95    0.24
   7  -1  -3    2.49    0.20
   9  -1  -3  215.09    5.11
  11  -1  -3   91.48    3.01
  13  -1  -3    0.14    0.21
  15  -1  -3   21.93    0.92
  17  -1  -3   35.17    1.27
  19  -1  -3    3.13    0.44
  21  -1  -3    0.68    0.35
  23  -1  -3    0.51    0.35
 -20   0  -3   47.36    2.14
 -18   0  -3    5.69    0.71
 -16   0  -3    1.46    0.41
 -14   0  -3   41.10    1.77
 -12   0  -3    9.76    0.77
 -10   0  -3   45.09    1.37
  -8   0  -3    9.72    0.46
  -6   0  -3   -0.05    0.10
  -4   0  -3  125.66    3.20
  -2   0  -3   60.51    1.82
   0   0  -3  428.53    9.62
   2   0  -3    4.39    0.22
   4   0  -3  159.34    3.58
   6   0  -3   54.07    1.21
   8   0  -3   61.82    1.65
  10   0  -3    2.13    0.24
  12   0  -3  176.31    3.77
  14   0  -3   94.27    2.56
  16   0  -3   19.40    0.87
  18   0  -3   22.97    0.98
  20   0  -3   18.17    0.88
  22   0  -3    0.60    0.35
  24   0  -3   18.01    2.02
 -19   1  -3    9.56    0.73
 -17   1  -3   31.21    1.19
 -15   1  -3   44.33    1.90
 -13   1  -3    0.23    0.24
 -11   1  -3    7.99    0.66
  -9   1  -3   44.83    1.32
  -7   1  -3   69.32    1.85
  -5   1  -3  338.13    8.32
  -3   1  -3   23.35    0.73
  -1   1  -3   22.18    0.67
   1   1  -3    4.14    0.24
   3   1  -3   25.30    0.64
   5   1  -3    4.69    0.22
   7   1  -3    1.95    0.16
   9   1  -3  215.15    4.09
  11   1  -3   95.34    1.89
  13   1  -3    0.18    0.15
  15   1  -3   23.14    0.90
  17   1  -3   35.47    1.22
  19   1  -3    4.24    0.43
  21   1  -3    0.75    0.32
  23   1  -3    0.35    0.42
 -18   2  -3    4.31    0.63
 -16   2  -3    0.85    0.29
 -14   2  -3   34.46    1.21
 -12   2  -3    7.75    0.54
 -10   2  -3   36.12    1.17
  -8   2  -3    8.42    0.46
  -6   2  -3    0.07    0.12
  -4   2  -3  101.84    2.37
  -2   2  -3   44.96    1.05
   0   2  -3  298.19    7.56
   2   2  -3    2.88    0.27
   4   2  -3  108.63    2.85
   6   2  -3   37.96    1.00
   8   2  -3   52.69    1.29
  10   2  -3    1.70    0.19
  12   2  -3  143.26    2.53
  14   2  -3   80.52    1.42
  16   2  -3   18.10    0.66
  18   2  -3   18.20    0.82
  20   2  -3   16.21    1.05
  22   2  -3    0.19    0.41
 -15   3  -3   33.99    2.02
 -13   3  -3    0.32    0.34
 -11   3  -3    5.08    0.75
  -9   3  -3   30.34    1.74
  -7   3  -3   41.68    2.22
  -5   3  -3  212.83    5.47
  -3   3  -3   15.03    0.69
  -1   3  -3   11.47    0.59
   1   3  -3    2.29    0.32
   3   3  -3   13.00    0.65
   5   3  -3    2.77    0.34
   7   3  -3    1.91    0.31
   9   3  -3  139.59    3.80
  11   3  -3   65.04    1.97
  13   3  -3    0.27    0.27
  15   3  -3   17.07    0.91
  17   3  -3   27.91    1.25
 -14   4  -3   20.43    1.65
 -12   4  -3    3.80    0.64
 -10   4  -3   23.20    1.32
  -8   4  -3    6.07    0.70
  -6   4  -3   -0.11    0.28
  -4   4  -3   58.10    1.84
  -2   4  -3   22.29    0.97
   0   4  -3  155.66    4.18
   2   4  -3    1.18    0.30
   4   4  -3   50.73    1.71
   6   4  -3   17.65    0.86
   8   4  -3   28.63    1.17
  10   4  -3    0.80    0.29
  12   4  -3   76.81    2.82
  14   4  -3   44.58    1.78
  16   4  -3   10.57    0.84
  18   4  -3   10.81    1.29
 -11   5  -3    2.49    0.64
  -9   5  -3   17.30    1.29
  -7   5  -3   25.36    1.40
  -5   5  -3  115.75    4.08
  -3   5  -3    8.13    0.85
  -1   5  -3    3.69    0.50
   1   5  -3    1.34    0.36
   3   5  -3    5.31    0.57
   5   5  -3    1.04    0.35
   7   5  -3    1.49    0.37
   9   5  -3   62.31    2.54
  11   5  -3   28.27    1.44
  13   5  -3    0.50    0.34
  15   5  -3    8.19    0.81
  -4   6  -3   28.77    1.65
  -2   6  -3   10.76    1.08
   0   6  -3   68.80    2.90
   2   6  -3    0.09    0.31
   4   6  -3   21.90    1.31
   6   6  -3    6.85    0.83
  -6  -6  -2    0.02    0.36
  -4  -6  -2    1.82    0.46
  -2  -6  -2   28.36    1.36
   0  -6  -2    2.20    0.46
   2  -6  -2    6.13    0.85
   4  -6  -2    3.20    0.48
   6  -6  -2   53.71    1.87
   8  -6  -2    8.49    0.73
  10  -6  -2    0.18    0.44
 -11  -5  -2   42.82    3.01
  -9  -5  -2   21.68    1.23
  -7  -5  -2    7.52    0.74
  -5  -5  -2    0.66    0.33
  -3  -5  -2    0.50    0.29
  -1  -5  -2   51.79    1.88
   1  -5  -2   23.00    0.82
   3  -5  -2  131.83    3.19
   5  -5  -2    0.57    0.27
   7  -5  -2    0.21    0.25
   9  -5  -2   -0.15    0.25
  11  -5  -2    0.98    0.49
  13  -5  -2    0.70    0.48
  15  -5  -2   35.89    2.19
 -16  -4  -2    1.67    0.50
 -14  -4  -2   38.93    1.85
 -12  -4  -2   28.63    1.53
 -10  -4  -2   22.17    1.12
  -8  -4  -2   12.19    0.82
  -6  -4  -2    0.72    0.28
  -4  -4  -2    6.18    0.55
  -2  -4  -2   61.78    1.60
   0  -4  -2    4.88    0.37
   2  -4  -2   10.34    0.49
   4  -4  -2    5.49    0.38
   6  -4  -2  114.14    2.65
   8  -4  -2   17.78    0.79
  10  -4  -2    0.02    0.20
  12  -4  -2    8.22    0.72
  14  -4  -2   27.58    1.97
  16  -4  -2    8.13    0.77
  18  -4  -2   26.21    1.39
 -19  -3  -2    0.18    0.50
 -17  -3  -2   28.68    1.94
 -15  -3  -2   30.23    1.50
 -13  -3  -2    6.14    0.70
 -11  -3  -2   85.59    3.03
  -9  -3  -2   44.27    1.55
  -7  -3  -2   14.98    0.75
  -5  -3  -2    2.46    0.34
  -3  -3  -2    0.55    0.17
  -1  -3  -2  125.68    2.78
   1  -3  -2   50.69    1.28
   3  -3  -2  291.63    5.59
   5  -3  -2    1.71    0.18
   7  -3  -2    0.33    0.13
   9  -3  -2    1.04    0.21
  11  -3  -2    1.57    0.32
  13  -3  -2    2.42    0.39
  15  -3  -2   55.28    1.75
  17  -3  -2   11.00    0.74
  19  -3  -2   17.87    0.96
  21  -3  -2    3.01    0.50
 -20  -2  -2    0.83    0.43
 -18  -2  -2   27.50    1.48
 -16  -2  -2    2.99    0.54
 -14  -2  -2   67.49    2.29
 -12  -2  -2   54.76    1.98
 -10  -2  -2   35.44    1.40
  -8  -2  -2   25.92    0.82
  -6  -2  -2    1.14    0.22
  -4  -2  -2    9.56    0.48
  -2  -2  -2  122.33    2.69
   0  -2  -2    9.83    0.35
   2  -2  -2   17.88    0.47
   4  -2  -2   10.22    0.33
   6  -2  -2  232.87    4.52
   8  -2  -2   30.54    0.87
  10  -2  -2    0.07    0.19
  12  -2  -2   13.08    0.64
  14  -2  -2   42.69    1.40
  16  -2  -2   11.48    0.68
  18  -2  -2   38.46    1.42
  20  -2  -2   70.35    2.19
  22  -2  -2    0.16    0.34
 -21  -1  -2    3.62    1.08
 -19  -1  -2    0.13    0.32
 -17  -1  -2   31.61    1.56
 -15  -1  -2   44.20    1.92
 -13  -1  -2    9.65    0.57
 -11  -1  -2  126.30    3.84
  -9  -1  -2   62.87    2.04
  -7  -1  -2   24.34    0.68
  -5  -1  -2    4.97    0.25
  -3  -1  -2    0.38    0.09
  -1  -1  -2  234.12    4.96
   1  -1  -2  107.94    2.34
   3  -1  -2  529.19   12.09
   5  -1  -2    3.93    0.21
   7  -1  -2    1.01    0.11
   9  -1  -2    1.00    0.21
  11  -1  -2    1.64    0.27
  13  -1  -2    3.31    0.37
  15  -1  -2   77.64    2.23
  17  -1  -2   15.87    0.81
  19  -1  -2   24.39    1.05
  21  -1  -2    3.31    0.50
  23  -1  -2   12.31    1.19
 -20   0  -2    1.04    0.72
 -18   0  -2   32.98    1.60
 -16   0  -2    4.39    0.56
 -14   0  -2   73.09    2.68
 -12   0  -2   66.02    2.44
 -10   0  -2   41.18    1.25
  -8   0  -2   33.19    1.02
  -6   0  -2    1.29    0.16
  -4   0  -2   12.21    0.43
  -2   0  -2  169.87    4.79
   0   0  -2   14.64    0.39
   2   0  -2   24.77    0.62
   4   0  -2   14.80    0.38
   6   0  -2  320.95    5.70
   8   0  -2   40.86    1.02
  10   0  -2    0.37    0.17
  12   0  -2   14.74    0.59
  14   0  -2   52.89    1.64
  16   0  -2   12.34    0.71
  18   0  -2   45.91    1.56
  20   0  -2   82.49    2.46
  22   0  -2   -0.45    0.45
  24   0  -2    1.34    0.89
 -21   1  -2    2.93    0.75
 -19   1  -2    0.81    0.38
 -17   1  -2   33.54    1.20
 -15   1  -2   46.03    1.87
 -13   1  -2   10.54    0.68
 -11   1  -2  122.76    4.20
  -9   1  -2   62.74    1.73
  -7   1  -2   25.03    0.77
  -5   1  -2    4.93    0.27
  -3   1  -2    0.85    0.12
  -1   1  -2  233.18    6.38
   1   1  -2  106.90    2.63
   3   1  -2  521.61   10.80
   5   1  -2    3.72    0.20
   7   1  -2    0.52    0.10
   9   1  -2    1.07    0.13
  11   1  -2    1.39    0.16
  13   1  -2    3.40    0.25
  15   1  -2   78.10    1.86
  17   1  -2   16.48    0.67
  19   1  -2   24.62    1.02
  21   1  -2    4.87    0.71
  23   1  -2   12.10    1.09
 -20   2  -2    0.39    0.43
 -18   2  -2   29.60    1.85
 -16   2  -2    3.41    0.41
 -14   2  -2   61.66    1.84
 -12   2  -2   53.70    1.59
 -10   2  -2   34.62    1.10
  -8   2  -2   25.98    0.96
  -6   2  -2    1.01    0.20
  -4   2  -2   10.21    0.37
  -2   2  -2  119.50    2.74
   0   2  -2    9.69    0.44
   2   2  -2   16.39    0.63
   4   2  -2    9.19    0.47
   6   2  -2  234.37    4.83
   8   2  -2   31.76    0.69
  10   2  -2    0.20    0.11
  12   2  -2   14.64    0.42
  14   2  -2   45.91    0.91
  16   2  -2   12.09    0.43
  18   2  -2   41.48    1.36
  20   2  -2   73.17    2.68
  22   2  -2   -0.58    0.60
 -19   3  -2    0.02    0.47
 -17   3  -2   25.57    1.70
 -15   3  -2   33.71    1.33
 -13   3  -2    7.75    0.61
 -11   3  -2   86.09    2.67
  -9   3  -2   42.87    1.30
  -7   3  -2   15.20    0.62
  -5   3  -2    2.60    0.25
  -3   3  -2    0.83    0.15
  -1   3  -2  116.05    2.58
   1   3  -2   49.63    1.54
   3   3  -2  274.00    7.20
   5   3  -2    1.64    0.31
   7   3  -2    0.30    0.23
   9   3  -2    0.70    0.18
  11   3  -2    1.05    0.21
  13   3  -2    1.09    0.30
  15   3  -2   60.17    1.87
  17   3  -2   11.19    0.75
 -16   4  -2    0.36    0.91
 -12   4  -2   31.63    1.58
 -10   4  -2   18.66    1.14
  -8   4  -2   14.27    0.93
  -6   4  -2    0.78    0.37
  -4   4  -2    5.68    0.52
  -2   4  -2   60.12    1.88
   0   4  -2    4.28    0.46
   2   4  -2   10.36    0.70
   4   4  -2    5.34    0.52
   6   4  -2  105.00    3.11
   8   4  -2   16.09    0.82
  10   4  -2    0.33    0.24
  12   4  -2    7.16    0.61
  14   4  -2   25.92    1.10
  16   4  -2    7.07    0.74
  18   4  -2   26.54    1.82
 -11   5  -2   48.39    2.21
  -9   5  -2   21.40    1.36
  -7   5  -2    6.82    0.84
  -5   5  -2    0.81    0.42
  -3   5  -2    0.29    0.34
  -1   5  -2   56.12    1.84
   1   5  -2   20.85    1.01
   3   5  -2  131.08    4.77
   5   5  -2    0.46    0.28
   7   5  -2    0.27    0.25
   9   5  -2    0.17    0.26
  11   5  -2    0.34    0.31
  13   5  -2    1.18    0.41
  15   5  -2   31.69    1.56
  -8   6  -2    3.27    1.00
  -6   6  -2    0.45    0.51
  -4   6  -2    1.40    0.54
  -2   6  -2   28.78    1.66
   0   6  -2    1.81    0.44
   2   6  -2    6.37    0.68
   4   6  -2    2.58    0.48
   6   6  -2   45.89    1.80
   8   6  -2    8.99    0.79
  -8  -6  -1   47.38    2.71
  -6  -6  -1   45.80    1.96
  -4  -6  -1    1.33    0.43
  -2  -6  -1    0.52    0.35
   0  -6  -1    0.06    0.26
   2  -6  -1    0.17    0.30
   4  -6  -1    0.36    0.31
   6  -6  -1   57.16    2.99
   8  -6  -1    0.30    0.35
 -13  -5  -1    0.48    0.60
 -11  -5  -1   19.53    1.14
  -9  -5  -1    0.30    0.35
  -7  -5  -1   14.67    0.96
  -5  -5  -1    1.99    0.43
  -3  -5  -1  105.41    2.71
  -1  -5  -1    0.12    0.22
   1  -5  -1    0.16    0.20
   3  -5  -1    0.33    0.20
   5  -5  -1   36.69    1.34
   7  -5  -1    0.76    0.29
   9  -5  -1   62.69    2.08
  11  -5  -1   64.68    3.17
  13  -5  -1   11.82    1.28
  15  -5  -1    0.34    0.51
 -16  -4  -1    0.10    0.34
 -14  -4  -1    0.44    0.34
 -12  -4  -1    6.97    0.70
 -10  -4  -1   22.59    1.14
  -8  -4  -1  101.00    3.21
  -6  -4  -1   99.88    3.21
  -4  -4  -1    1.25    0.24
  -2  -4  -1    1.38    0.23
   0  -4  -1    0.49    0.18
   2  -4  -1    0.27    0.16
   4  -4  -1    0.30    0.17
   6  -4  -1  120.62    3.41
   8  -4  -1    0.28    0.19
  10  -4  -1   21.51    0.77
  12  -4  -1   27.99    1.30
  14  -4  -1    9.44    0.80
  16  -4  -1    3.29    0.54
  18  -4  -1    0.14    0.37
 -19  -3  -1    7.99    0.83
 -17  -3  -1    8.56    1.11
 -15  -3  -1    0.18    0.30
 -13  -3  -1    0.10    0.27
 -11  -3  -1   36.46    1.45
  -9  -3  -1    0.77    0.29
  -7  -3  -1   26.06    0.83
  -5  -3  -1    7.04    0.40
  -3  -3  -1  245.26    5.46
  -1  -3  -1    0.54    0.16
   1  -3  -1    0.38    0.12
   3  -3  -1    0.94    0.15
   5  -3  -1   80.59    1.69
   7  -3  -1    3.46    0.23
   9  -3  -1  118.44    2.52
  11  -3  -1  124.47    3.21
  13  -3  -1   19.14    0.83
  15  -3  -1    0.22    0.24
  17  -3  -1    0.31    0.29
  19  -3  -1   11.05    0.77
  21  -3  -1   28.76    1.49
 -20  -2  -1   57.10    2.40
 -18  -2  -1   17.18    1.08
 -16  -2  -1    0.05    0.26
 -14  -2  -1    0.27    0.24
 -12  -2  -1   11.57    0.73
 -10  -2  -1   42.37    1.41
  -8  -2  -1  196.49    4.34
  -6  -2  -1  216.63    4.70
  -4  -2  -1    3.04    0.21
  -2  -2  -1    1.46    0.15
   0  -2  -1    0.68    0.12
   2  -2  -1    0.23    0.08
   4  -2  -1   -0.01    0.07
   6  -2  -1  230.92    4.15
   8  -2  -1    0.07    0.15
  10  -2  -1   34.75    1.13
  12  -2  -1   55.13    1.65
  14  -2  -1   13.97    0.70
  16  -2  -1    5.30    0.49
  18  -2  -1    0.01    0.25
  20  -2  -1    1.83    0.40
  22  -2  -1   16.73    1.41
 -21  -1  -1    0.04    0.55
 -19  -1  -1    9.59    0.86
 -17  -1  -1   13.31    0.90
 -15  -1  -1   -0.01    0.22
 -13  -1  -1    0.06    0.16
 -11  -1  -1   54.45    1.81
  -9  -1  -1    1.15    0.16
  -7  -1  -1   36.84    0.94
  -5  -1  -1   12.45    0.45
  -3  -1  -1  459.15    9.58
  -1  -1  -1    1.54    0.12
   1  -1  -1    0.43    0.07
   3  -1  -1    2.78    0.14
   5  -1  -1  142.53    3.44
   7  -1  -1    6.60    0.35
   9  -1  -1  186.18    4.60
  11  -1  -1  187.27    4.66
  13  -1  -1   23.67    0.91
  15  -1  -1    0.08    0.21
  17  -1  -1   -0.01    0.22
  19  -1  -1   14.60    0.83
  21  -1  -1   38.57    2.00
  23  -1  -1   21.27    1.62
 -22   0  -1    0.63    0.38
 -20   0  -1   62.90    2.50
 -18   0  -1   23.00    1.20
 -16   0  -1    0.08    0.24
 -14   0  -1    0.59    0.25
 -12   0  -1   13.52    0.74
 -10   0  -1   51.42    1.42
  -8   0  -1  243.22    5.98
  -6   0  -1  275.21    6.72
  -4   0  -1    4.26    0.21
  -2   0  -1    1.55    0.12
   0   0  -1    1.57    0.08
   2   0  -1    0.13    0.05
   4   0  -1    0.22    0.08
   6   0  -1  320.96    5.74
   8   0  -1    0.05    0.09
  10   0  -1   44.29    0.97
  12   0  -1   70.63    1.65
  14   0  -1   17.03    0.64
  16   0  -1    7.03    0.47
  18   0  -1    0.41    0.27
  20   0  -1    1.80    0.61
  22   0  -1   18.42    1.50
 -21   1  -1   -0.10    0.34
 -19   1  -1    9.33    0.87
 -17   1  -1   12.47    0.65
 -15   1  -1    0.28    0.19
 -13   1  -1    0.10    0.16
 -11   1  -1   54.14    1.95
  -9   1  -1    1.63    0.42
  -7   1  -1   37.54    1.01
  -5   1  -1   11.82    0.40
  -3   1  -1  441.78    8.91
  -1   1  -1    1.49    0.11
   1   1  -1    0.47    0.12
   3   1  -1    3.11    0.15
   5   1  -1  143.48    2.28
   7   1  -1    6.18    0.24
   9   1  -1  188.89    3.03
  11   1  -1  190.84    3.30
  13   1  -1   24.32    0.65
  15   1  -1    0.57    0.20
  17   1  -1    0.11    0.20
  19   1  -1   15.71    0.84
  21   1  -1   38.97    1.97
  23   1  -1   19.64    1.53
 -20   2  -1   56.05    2.95
 -18   2  -1   17.42    1.35
 -16   2  -1    0.30    0.27
 -14   2  -1    0.36    0.20
 -12   2  -1   12.36    0.64
 -10   2  -1   42.53    1.40
  -8   2  -1  194.17    5.28
  -6   2  -1  216.33    4.77
  -4   2  -1    3.13    0.20
  -2   2  -1    1.41    0.14
   0   2  -1    0.70    0.11
   2   2  -1    0.24    0.08
   4   2  -1    0.14    0.09
   6   2  -1  238.18    4.40
   8   2  -1    0.09    0.10
  10   2  -1   36.49    0.75
  12   2  -1   56.25    1.07
  14   2  -1   14.33    0.45
  16   2  -1    5.14    0.43
  18   2  -1    0.12    0.28
  20   2  -1    1.93    0.49
  22   2  -1   20.02    1.21
 -19   3  -1    6.01    0.91
 -17   3  -1    8.00    0.98
 -15   3  -1   -0.19    0.26
 -13   3  -1    0.40    0.22
 -11   3  -1   38.19    1.35
  -9   3  -1    1.25    0.23
  -7   3  -1   25.46    0.86
  -5   3  -1    6.51    0.35
  -3   3  -1  238.09    5.54
  -1   3  -1    0.63    0.14
   1   3  -1    0.32    0.12
   3   3  -1    0.75    0.14
   5   3  -1   77.21    1.85
   7   3  -1    2.98    0.27
   9   3  -1  119.70    2.73
  11   3  -1  122.49    2.83
  13   3  -1   19.78    0.73
  15   3  -1    0.43    0.23
  17   3  -1    0.37    0.27
  19   3  -1   12.37    0.99
 -16   4  -1   -0.17    0.78
 -14   4  -1    0.34    0.73
 -12   4  -1    5.66    0.71
 -10   4  -1   24.71    1.30
  -8   4  -1   99.58    3.62
  -6   4  -1  106.66    3.71
  -4   4  -1    1.63    0.32
  -2   4  -1    1.21    0.29
   0   4  -1    0.29    0.23
   2   4  -1    0.32    0.23
   4   4  -1   -0.16    0.21
   6   4  -1  117.13    3.35
   8   4  -1    0.29    0.26
  10   4  -1   20.90    0.98
  12   4  -1   28.36    1.18
  14   4  -1    9.07    0.87
  16   4  -1    3.10    0.56
  18   4  -1    0.26    0.40
 -13   5  -1    0.02    0.85
 -11   5  -1   18.05    2.05
  -9   5  -1    1.14    0.48
  -7   5  -1   15.40    1.13
  -5   5  -1    1.74    0.50
  -3   5  -1  109.14    3.08
  -1   5  -1   -0.07    0.24
   1   5  -1    0.07    0.25
   3   5  -1    0.48    0.28
   5   5  -1   35.47    1.38
   7   5  -1    0.95    0.33
   9   5  -1   60.43    2.07
  11   5  -1   58.41    2.01
  13   5  -1   11.99    1.03
  15   5  -1    0.35    0.42
  -8   6  -1   52.07    3.88
  -6   6  -1   52.74    3.72
  -4   6  -1    0.57    0.49
  -2   6  -1    1.08    0.50
   0   6  -1    0.28    0.33
   2   6  -1    0.36    0.32
   4   6  -1    0.29    0.32
   6   6  -1   54.19    1.96
   8   6  -1    0.26    0.40
  10   6  -1   15.15    2.11
  -8  -6   0    1.44    0.49
  -6  -6   0    1.40    0.46
  -4  -6   0    2.06    0.50
  -2  -6   0    0.08    0.28
   0  -6   0  169.01    4.23
   2  -6   0   -0.03    0.30
   4  -6   0    3.39    0.52
   6  -6   0    1.76    0.43
   8  -6   0    1.64    0.61
 -13  -5   0    7.18    0.76
 -11  -5   0    6.18    0.71
  -9  -5   0   15.28    1.01
  -7  -5   0   18.93    1.05
  -5  -5   0   51.99    1.59
  -3  -5   0   17.06    0.77
  -1  -5   0    2.56    0.34
   1  -5   0    2.81    0.34
   3  -5   0   17.95    0.74
   5  -5   0   55.60    1.84
   7  -5   0   21.15    0.93
   9  -5   0   17.59    1.35
  11  -5   0    6.76    0.98
  13  -5   0    6.20    1.00
 -18  -4   0    0.32    0.46
 -16  -4   0   33.13    1.55
 -14  -4   0   80.55    4.23
 -12  -4   0   21.32    1.08
 -10  -4   0    2.91    0.45
  -8  -4   0    4.25    0.40
  -6  -4   0    3.34    0.40
  -4  -4   0    7.09    0.54
  -2  -4   0    0.41    0.22
   0  -4   0  406.72   10.76
   2  -4   0    0.28    0.21
   4  -4   0    5.77    0.39
   6  -4   0    3.49    0.32
   8  -4   0    4.09    0.35
  10  -4   0    3.36    0.46
  12  -4   0   20.43    1.03
  14  -4   0   75.88    2.72
  16  -4   0   32.19    1.49
  18  -4   0    0.11    0.38
 -21  -3   0   24.75    2.23
 -19  -3   0    4.61    0.64
 -17  -3   0   54.62    2.85
 -15  -3   0   49.53    1.94
 -13  -3   0    9.56    0.78
 -11  -3   0   16.52    0.85
  -9  -3   0   34.90    1.07
  -7  -3   0   50.57    1.63
  -5  -3   0  125.33    3.43
  -3  -3   0   40.50    1.05
  -1  -3   0    3.86    0.26
   1  -3   0    4.12    0.27
   3  -3   0   39.75    1.06
   5  -3   0  123.82    2.52
   7  -3   0   50.82    1.20
   9  -3   0   35.26    0.91
  11  -3   0   14.98    0.71
  13  -3   0   11.16    0.65
  15  -3   0   46.76    1.57
  17  -3   0   52.17    1.76
  19  -3   0    5.61    0.59
  21  -3   0   22.80    2.46
 -22  -2   0   -0.11    0.60
 -20  -2   0   13.48    1.54
 -18  -2   0   -0.03    0.27
 -16  -2   0   46.32    2.46
 -14  -2   0  121.75    3.93
 -12  -2   0   36.74    1.34
 -10  -2   0    7.02    0.39
  -8  -2   0    9.63    0.47
  -6  -2   0    6.60    0.38
  -4  -2   0   10.79    0.36
  -2  -2   0    0.27    0.09
   0  -2   0  929.54   20.43
   2  -2   0    0.02    0.08
   4  -2   0    9.60    0.34
   6  -2   0    6.11    0.28
   8  -2   0    8.18    0.34
  10  -2   0    6.42    0.46
  12  -2   0   34.75    1.18
  14  -2   0  120.75    3.28
  16  -2   0   46.26    1.54
  18  -2   0    0.04    0.24
  20  -2   0   12.59    1.20
  22  -2   0    0.31    0.89
 -23  -1   0    1.57    0.85
 -21  -1   0   31.02    1.52
 -19  -1   0    7.35    1.26
 -17  -1   0   74.36    2.65
 -15  -1   0   69.99    2.57
 -13  -1   0   14.44    0.62
 -11  -1   0   22.63    0.91
  -9  -1   0   60.92    1.89
  -7  -1   0   90.60    3.84
  -3  -1   0   83.27    2.13
  -1  -1   0    6.31    0.22
   1  -1   0    6.55    0.21
   3  -1   0   76.16    1.59
   5  -1   0  220.03    4.39
   7  -1   0   85.79    2.18
   9  -1   0   56.71    1.57
  11  -1   0   19.87    0.76
  13  -1   0   13.03    0.62
  15  -1   0   69.76    2.01
  17  -1   0   69.19    2.08
  19  -1   0    6.47    0.86
  21  -1   0   32.92    1.82
 -22   0   0   -0.25    0.32
 -20   0   0   15.49    0.99
 -18   0   0    0.15    0.26
 -16   0   0   57.54    2.12
 -14   0   0  162.48    5.16
 -12   0   0   41.81    1.62
 -10   0   0    8.54    0.36
  -8   0   0   10.52    0.40
  -6   0   0    8.37    0.31
  -4   0   0   12.05    0.36
  -2   0   0    0.05    0.04
   2   0   0    0.05    0.03
   4   0   0   12.08    0.35
   6   0   0    8.86    0.29
   8   0   0   12.29    0.39
  10   0   0    9.29    0.38
  12   0   0   44.97    1.12
  14   0   0  157.36    3.39
  16   0   0   55.76    1.45
  18   0   0    0.11    0.26
  20   0   0   15.17    1.31
  22   0   0    0.66    0.59
 -21   1   0   29.04    1.53
 -19   1   0    6.95    0.73
 -17   1   0   67.74    2.60
 -15   1   0   68.02    1.95
 -13   1   0   13.62    0.58
 -11   1   0   21.99    0.74
  -9   1   0   60.01    1.56
  -7   1   0   88.91    2.17
  -5   1   0  231.81    5.34
  -3   1   0   80.95    2.17
  -1   1   0    6.84    0.25
   1   1   0    6.57    0.24
   3   1   0   80.62    1.39
   5   1   0  229.49    3.49
   7   1   0   87.10    1.44
   9   1   0   58.28    1.12
  11   1   0   22.38    0.62
  13   1   0   13.47    0.50
  15   1   0   73.44    2.05
  17   1   0   73.00    2.13
  19   1   0    8.43    0.70
  21   1   0   33.78    1.38
 -22   2   0   -0.71    0.63
 -20   2   0   11.29    1.24
 -18   2   0    0.14    0.29
 -16   2   0   47.81    2.40
 -14   2   0  122.73    5.13
 -12   2   0   36.33    1.26
 -10   2   0    6.61    0.44
  -8   2   0    8.81    0.46
  -6   2   0    6.96    0.37
  -4   2   0   10.58    0.35
  -2   2   0    0.12    0.09
   0   2   0  951.95   20.72
   2   2   0   -0.02    0.09
   4   2   0   10.43    0.36
   6   2   0    6.42    0.26
   8   2   0    9.04    0.34
  10   2   0    6.61    0.28
  12   2   0   35.72    0.81
  14   2   0  130.98    2.93
  16   2   0   48.42    1.62
  18   2   0    0.36    0.30
  20   2   0   14.76    1.15
  22   2   0    0.46    0.48
 -19   3   0    4.24    0.65
 -17   3   0   54.70    2.71
 -15   3   0   44.74    1.94
 -13   3   0    9.64    0.96
 -11   3   0   14.38    0.65
  -9   3   0   35.18    1.23
  -7   3   0   53.08    1.65
  -5   3   0  121.29    2.90
  -3   3   0   40.29    1.10
  -1   3   0    3.76    0.26
   1   3   0    4.03    0.28
   3   3   0   38.99    1.05
   5   3   0  121.84    3.01
   7   3   0   51.65    1.35
   9   3   0   34.81    1.02
  11   3   0   14.90    0.68
  13   3   0   11.18    0.65
  15   3   0   49.81    1.59
  17   3   0   54.04    2.18
  19   3   0    6.04    0.72
  21   3   0   26.16    1.83
 -18   4   0    0.06    0.43
 -16   4   0   30.01    1.56
 -14   4   0   76.20    3.46
 -12   4   0   17.61    1.04
 -10   4   0    3.12    0.37
  -8   4   0    5.00    0.43
  -6   4   0    3.16    0.33
  -4   4   0    5.93    0.38
  -2   4   0    0.17    0.14
   0   4   0  407.54    9.24
   2   4   0    0.03    0.14
   4   4   0    5.79    0.39
   6   4   0    3.86    0.34
   8   4   0    3.87    0.35
  10   4   0    2.76    0.35
  12   4   0   19.95    0.86
  14   4   0   77.16    3.02
  16   4   0   30.54    1.61
  18   4   0   -0.38    0.67
 -13   5   0    7.08    1.49
 -11   5   0    6.36    1.33
  -9   5   0   15.24    1.96
  -7   5   0   19.38    1.22
  -5   5   0   54.41    2.32
  -3   5   0   18.77    0.89
  -1   5   0    2.26    0.39
   1   5   0    3.59    0.46
   3   5   0   20.21    0.95
   5   5   0   53.22    1.85
   7   5   0   18.65    1.21
   9   5   0   16.10    1.18
  11   5   0    7.78    0.85
  13   5   0    7.24    0.84
  15   5   0   28.00    2.52
  -8   6   0    1.25    0.91
  -6   6   0    2.01    0.62
  -4   6   0    3.34    0.70
  -2   6   0   -0.06    0.40
   0   6   0  180.96    9.71
   2   6   0    0.19    0.41
   4   6   0    3.48    0.66
   6   6   0    1.94    0.54
   8   6   0    0.71    0.46
  -8  -6   1    0.23    0.36
  -6  -6   1   51.57    2.81
  -4  -6   1    0.11    0.29
  -2  -6   1    0.34    0.29
   0  -6   1   -0.03    0.29
   2  -6   1    0.74    0.39
   4  -6   1    0.61    0.37
   6  -6   1   47.12    2.79
 -15  -5   1    0.03    0.36
 -13  -5   1    9.02    0.84
 -11  -5   1   62.64    2.25
  -9  -5   1   60.70    2.26
  -7  -5   1    0.74    0.34
  -5  -5   1   33.73    1.40
  -3  -5   1    0.65    0.30
  -1  -5   1   -0.06    0.26
   1  -5   1    0.05    0.24
   3  -5   1  104.00    3.18
   5  -5   1    2.56    0.41
   7  -5   1   15.79    0.82
   9  -5   1    0.46    0.42
  11  -5   1   21.40    1.57
  13  -5   1    0.23    0.38
 -18  -4   1    0.45    0.34
 -16  -4   1    3.57    0.87
 -14  -4   1   11.29    0.83
 -12  -4   1   32.24    1.35
 -10  -4   1   21.95    1.00
  -8  -4   1    0.22    0.25
  -6  -4   1  114.69    3.47
  -4  -4   1    0.29    0.23
  -2  -4   1    0.14    0.21
   0  -4   1   -0.01    0.19
   2  -4   1    1.53    0.23
   4  -4   1    1.62    0.24
   6  -4   1  104.47    2.56
   8  -4   1  103.13    2.51
  10  -4   1   23.68    1.12
  12  -4   1    6.79    0.65
  14  -4   1    0.39    0.33
  16  -4   1    0.28    0.35
  18  -4   1   13.56    1.35
 -19  -3   1   10.22    0.90
 -17  -3   1    0.09    0.29
 -15  -3   1    0.73    0.32
 -13  -3   1   20.90    0.99
 -11  -3   1  128.25    3.58
  -9  -3   1  124.00    3.46
  -7  -3   1    3.46    0.30
  -5  -3   1   79.24    1.95
  -3  -3   1    1.06    0.19
  -1  -3   1    0.73    0.16
   1  -3   1    0.59    0.17
   3  -3   1  234.29    5.46
   5  -3   1    5.92    0.37
   7  -3   1   24.93    0.72
   9  -3   1    1.34    0.37
  11  -3   1   36.93    1.27
  13  -3   1   -0.08    0.22
  15  -3   1   -0.01    0.24
  17  -3   1    8.79    0.70
  19  -3   1    8.14    1.04
 -22  -2   1   17.23    1.06
 -20  -2   1    1.37    0.66
 -18  -2   1    0.46    0.30
 -16  -2   1    4.91    0.69
 -14  -2   1   14.73    1.28
  -8  -2   1   -0.08    0.19
  -6  -2   1  231.37    6.73
  -4  -2   1   -0.04    0.10
  -2  -2   1    0.10    0.10
   0  -2   1    0.56    0.12
   2  -2   1    1.44    0.13
   4  -2   1    2.88    0.19
   6  -2   1  203.38    4.14
   8  -2   1  185.89    3.81
  10  -2   1   39.44    1.24
  12  -2   1   10.76    0.57
  14  -2   1    0.55    0.22
  16  -2   1    0.21    0.23
  18  -2   1   16.63    1.26
  20  -2   1   58.89    2.62
 -23  -1   1   21.20    1.21
 -21  -1   1   40.55    1.74
 -19  -1   1   14.35    0.90
 -17  -1   1    0.27    0.41
 -15  -1   1    0.92    0.28
 -13  -1   1   25.11    0.89
 -11  -1   1  193.18    7.62
  -3  -1   1    2.89    0.27
  -1  -1   1    0.36    0.08
   1  -1   1    1.08    0.12
   3  -1   1  436.62    7.50
   5  -1   1   11.58    0.29
   7  -1   1   36.24    0.87
   9  -1   1    1.37    0.23
  11  -1   1   53.10    1.29
  13  -1   1    0.16    0.15
  15  -1   1    0.18    0.17
  17  -1   1   13.44    1.08
  19  -1   1   10.31    1.03
  21  -1   1    0.10    0.50
 -24   0   1    0.14    0.71
 -22   0   1   20.44    1.17
 -20   0   1    2.45    0.48
 -18   0   1    0.60    0.28
 -16   0   1    6.56    0.62
 -14   0   1   16.91    0.65
 -12   0   1   69.84    1.87
 -10   0   1   45.45    1.23
  -8   0   1    0.02    0.10
  -6   0   1  330.94    7.57
  -4   0   1    0.13    0.10
  -2   0   1    0.02    0.05
   0   0   1    1.50    0.07
   2   0   1    1.39    0.08
   4   0   1    4.32    0.16
   6   0   1  276.90    5.04
   8   0   1  243.10    4.83
  10   0   1   50.88    1.19
  12   0   1   13.75    0.50
  14   0   1    1.00    0.26
  16   0   1    0.64    0.27
  18   0   1   22.10    1.04
  20   0   1   62.38    2.05
  22   0   1    0.01    0.59
 -23   1   1   20.92    1.25
 -21   1   1   38.96    1.78
 -19   1   1   14.66    0.99
 -17   1   1   -0.06    0.24
 -15   1   1    0.64    0.27
 -13   1   1   25.72    0.83
 -11   1   1  192.75    4.61
  -9   1   1  198.12    4.56
  -7   1   1    7.58    0.29
  -5   1   1  153.21    3.88
  -3   1   1    3.51    0.21
  -1   1   1    0.41    0.09
   1   1   1    1.33    0.12
   3   1   1  451.07    8.02
   5   1   1   11.99    0.29
   7   1   1   36.36    0.72
   9   1   1    0.83    0.14
  11   1   1   55.25    1.19
  13   1   1    0.26    0.18
  15   1   1    0.12    0.22
  17   1   1   12.78    0.80
  19   1   1    9.16    0.74
  21   1   1   -0.34    0.39
 -22   2   1   15.05    1.53
 -20   2   1    0.86    0.44
 -18   2   1    0.21    0.31
 -16   2   1    5.07    0.73
 -14   2   1   14.52    1.06
 -12   2   1   57.12    2.54
 -10   2   1   35.83    1.19
  -8   2   1    0.04    0.13
  -6   2   1  245.40    5.62
  -4   2   1    0.03    0.09
  -2   2   1    0.16    0.08
   0   2   1    0.90    0.10
   2   2   1    1.38    0.13
   4   2   1    2.89    0.20
   6   2   1  207.59    3.93
   8   2   1  192.83    3.65
  10   2   1   41.89    1.00
  12   2   1   12.29    0.63
  14   2   1    0.69    0.25
  16   2   1    0.34    0.25
  18   2   1   19.31    1.17
  20   2   1   57.05    2.36
 -21   3   1   35.07    2.06
 -19   3   1   12.28    1.23
 -17   3   1    0.03    0.31
 -15   3   1    0.91    0.34
 -13   3   1   17.12    1.00
 -11   3   1  127.71    5.05
  -9   3   1  124.08    3.10
  -7   3   1    3.09    0.26
  -5   3   1   79.73    1.95
  -3   3   1    0.70    0.13
  -1   3   1    0.45    0.14
   1   3   1    0.37    0.14
   3   3   1  252.07    5.17
   5   3   1    6.84    0.35
   7   3   1   24.36    0.76
   9   3   1    0.58    0.19
  11   3   1   38.98    1.10
  13   3   1   -0.02    0.19
  15   3   1    0.58    0.32
  17   3   1    9.92    0.90
  19   3   1    7.08    0.83
 -18   4   1   -0.47    0.37
 -16   4   1    2.68    0.56
 -14   4   1    9.87    0.85
 -12   4   1   30.53    1.40
 -10   4   1   22.46    1.10
  -8   4   1    0.25    0.23
  -6   4   1  121.92    3.13
  -4   4   1   -0.11    0.17
  -2   4   1   -0.08    0.15
   0   4   1    0.20    0.16
   2   4   1    1.40    0.25
   4   4   1    2.02    0.30
   6   4   1  105.60    2.85
   8   4   1  102.44    2.80
  10   4   1   24.28    0.97
  12   4   1    7.34    0.59
  14   4   1    0.38    0.27
  16   4   1    0.32    0.36
  18   4   1   12.06    1.33
 -15   5   1    0.86    0.91
 -13   5   1   12.57    1.88
 -11   5   1   52.86    4.05
  -9   5   1   65.32    2.37
  -7   5   1    0.90    0.33
  -5   5   1   37.02    1.75
  -3   5   1    0.33    0.36
  -1   5   1    0.05    0.30
   1   5   1    0.28    0.35
   3   5   1  104.92    3.98
   5   5   1    2.68    0.56
   7   5   1   14.36    1.22
   9   5   1    0.71    0.44
  11   5   1   20.89    1.32
  13   5   1    0.33    0.42
  -8   6   1    0.06    0.72
  -6   6   1   57.96    3.99
  -4   6   1    0.55    0.49
  -2   6   1   -0.06    0.37
   0   6   1   -0.15    0.38
   2   6   1    0.75    0.45
   4   6   1    0.89    0.47
   6   6   1   51.35    2.35
   8   6   1   52.37    3.85
  -8  -6   2    8.13    1.12
  -6  -6   2   49.50    1.97
  -4  -6   2    2.58    0.52
  -2  -6   2    6.26    0.69
   0  -6   2    2.25    0.50
   2  -6   2   29.14    1.36
   4  -6   2    2.15    0.49
   6  -6   2    0.75    0.58
 -15  -5   2   31.07    1.96
 -13  -5   2    0.36    0.50
 -11  -5   2    0.90    0.52
  -9  -5   2    0.58    0.34
  -7  -5   2    0.13    0.30
  -5  -5   2    0.63    0.31
  -3  -5   2  125.72    3.90
  -1  -5   2   20.79    1.02
   1  -5   2   55.56    1.89
   3  -5   2    0.51    0.28
   5  -5   2    1.26    0.34
   7  -5   2    6.19    0.96
   9  -5   2   24.58    1.22
  11  -5   2   44.15    2.59
  13  -5   2    5.48    0.69
 -18  -4   2   28.78    2.00
 -16  -4   2    7.66    0.73
 -14  -4   2   27.87    1.66
 -12  -4   2    9.99    0.73
 -10  -4   2    0.35    0.25
  -8  -4   2   16.15    0.84
  -6  -4   2  105.70    3.25
  -4  -4   2    5.88    0.54
  -2  -4   2   10.77    0.55
   0  -4   2    4.78    0.38
   2  -4   2   59.90    1.60
   4  -4   2    5.63    0.41
   6  -4   2    0.42    0.20
   8  -4   2   11.93    0.81
  10  -4   2   21.56    1.06
  12  -4   2   29.95    1.37
  14  -4   2   38.40    1.67
  16  -4   2    1.98    0.48
 -17  -3   2   12.13    1.33
 -15  -3   2   58.98    1.90
 -13  -3   2    1.92    0.32
 -11  -3   2    1.65    0.32
  -9  -3   2    0.83    0.26
  -7  -3   2   -0.03    0.21
  -5  -3   2    1.62    0.24
  -3  -3   2  284.48    6.40
  -1  -3   2   47.43    1.30
   1  -3   2  117.89    2.80
   3  -3   2    0.50    0.18
   5  -3   2    3.13    0.28
   7  -3   2   15.14    0.51
   9  -3   2   40.61    1.32
  11  -3   2   86.35    2.40
  13  -3   2    7.14    0.57
  15  -3   2   31.23    1.21
  17  -3   2   25.37    1.63
 -22  -2   2   -0.20    0.35
 -20  -2   2   68.04    3.20
 -18  -2   2   42.51    1.67
 -16  -2   2   10.73    0.72
  -8  -2   2   32.09    1.24
  -6  -2   2  220.77    5.46
  -4  -2   2   10.26    0.39
  -2  -2   2   17.45    0.54
   0  -2   2    9.43    0.37
   2  -2   2  114.68    2.38
   4  -2   2    9.86    0.34
   6  -2   2    0.77    0.14
   8  -2   2   24.33    0.84
  10  -2   2   34.34    1.09
  12  -2   2   53.78    1.58
  14  -2   2   60.67    1.82
  16  -2   2    3.33    0.61
  18  -2   2   28.37    1.60
  20  -2   2    0.59    0.56
 -23  -1   2    9.64    1.09
 -21  -1   2    3.65    0.52
 -19  -1   2   23.55    1.17
 -17  -1   2   16.88    0.90
 -15  -1   2   79.71    2.12
 -13  -1   2    3.18    0.31
 -11  -1   2    2.10    0.48
  -7  -1   2    0.55    0.37
  -5  -1   2    4.05    0.24
  -3  -1   2  525.46   15.10
  -1  -1   2   98.10    2.49
   1  -1   2  216.71    4.45
   3  -1   2    0.38    0.09
   5  -1   2    4.84    0.24
   7  -1   2   24.01    0.64
   9  -1   2   62.80    1.43
  11  -1   2  126.17    2.71
  13  -1   2    9.65    0.46
  15  -1   2   46.59    1.51
  17  -1   2   33.13    1.26
  19  -1   2    0.54    0.47
  21  -1   2    3.20    0.94
 -22   0   2    0.34    0.33
 -20   0   2   83.12    3.00
 -18   0   2   47.38    1.87
 -16   0   2   12.17    0.75
 -14   0   2   54.50    1.97
 -12   0   2   16.71    0.57
 -10   0   2    0.22    0.11
  -8   0   2   39.87    1.06
  -6   0   2  314.41    7.64
  -4   0   2   14.69    0.46
  -2   0   2   23.87    0.64
   0   0   2   13.75    0.37
   2   0   2  172.42    3.13
   4   0   2   12.80    0.32
   6   0   2    1.22    0.11
   8   0   2   35.54    0.83
  10   0   2   43.53    1.03
  12   0   2   68.62    1.86
  14   0   2   72.77    2.05
  16   0   2    4.05    0.46
  18   0   2   35.34    1.33
  20   0   2    1.32    0.42
  22   0   2    3.40    0.99
 -23   1   2   10.92    1.21
 -21   1   2    4.38    0.62
 -19   1   2   24.34    1.24
 -17   1   2   16.26    0.94
 -15   1   2   78.66    2.75
 -13   1   2    3.36    0.42
 -11   1   2    1.62    0.29
  -9   1   2    1.17    0.13
  -7   1   2    0.39    0.14
  -5   1   2    3.76    0.25
  -3   1   2  535.90   11.62
  -1   1   2  106.54    1.96
   1   1   2  232.78    4.16
   3   1   2    0.52    0.08
   5   1   2    5.27    0.25
   7   1   2   25.12    0.69
   9   1   2   66.20    1.54
  11   1   2  132.13    2.89
  13   1   2   10.21    0.55
  15   1   2   47.29    1.47
  17   1   2   33.49    1.25
  19   1   2   -0.16    0.38
  21   1   2    2.19    1.11
 -22   2   2   -0.36    0.37
 -20   2   2   68.03    3.39
 -18   2   2   41.56    2.24
 -16   2   2   10.54    1.08
 -14   2   2   40.72    1.75
 -12   2   2   13.12    0.96
 -10   2   2    0.15    0.18
  -8   2   2   30.33    0.82
  -6   2   2  235.42    4.80
  -4   2   2    9.86    0.36
  -2   2   2   17.97    0.55
   0   2   2   10.07    0.35
   2   2   2  120.01    2.55
   4   2   2   10.34    0.39
   6   2   2    0.77    0.16
   8   2   2   25.61    0.77
  10   2   2   35.43    1.16
  12   2   2   54.21    1.67
  14   2   2   63.56    1.96
  16   2   2    3.96    0.48
  18   2   2   27.31    1.44
  20   2   2    0.34    0.47
 -21   3   2    1.93    0.48
 -19   3   2   17.49    0.94
 -17   3   2   10.04    0.74
 -15   3   2   56.19    1.84
 -13   3   2    1.29    0.30
 -11   3   2    1.54    0.28
  -9   3   2    0.81    0.21
  -7   3   2    0.25    0.15
  -5   3   2    1.55    0.19
  -3   3   2  288.49    5.93
  -1   3   2   48.72    1.31
   1   3   2  115.12    2.60
   3   3   2    0.82    0.15
   5   3   2    2.93    0.26
   7   3   2   14.75    0.56
   9   3   2   42.39    1.17
  11   3   2   88.33    2.12
  13   3   2    6.75    0.69
  15   3   2   31.85    1.54
  17   3   2   26.98    1.46
 -18   4   2   26.62    1.47
 -16   4   2    7.05    0.80
 -14   4   2   24.87    1.34
 -12   4   2    7.56    0.73
 -10   4   2    0.61    0.30
  -8   4   2   16.78    0.88
  -6   4   2  110.80    2.93
  -4   4   2    6.02    0.46
  -2   4   2    9.95    0.56
   0   4   2    4.46    0.41
   2   4   2   55.59    1.78
   4   4   2    5.51    0.48
   6   4   2    0.39    0.22
   8   4   2   12.48    0.72
  10   4   2   20.84    0.92
  12   4   2   30.89    1.21
  14   4   2   42.15    1.82
  16   4   2    2.33    0.55
 -15   5   2   35.12    1.68
 -13   5   2    0.34    0.37
 -11   5   2   -0.07    0.31
  -9   5   2    0.61    0.33
  -7   5   2    0.00    0.27
  -5   5   2    0.47    0.23
  -3   5   2  133.01    3.50
  -1   5   2   20.90    0.89
   1   5   2   51.89    1.68
   3   5   2    0.48    0.22
   5   5   2    0.97    0.28
   7   5   2    7.20    0.61
   9   5   2   22.50    1.01
  11   5   2   45.30    2.22
  -8   6   2    8.45    1.61
  -6   6   2   58.41    3.91
  -4   6   2    2.86    1.00
  -2   6   2    5.63    0.82
   0   6   2    2.30    0.58
   2   6   2   31.56    1.71
   4   6   2    1.92    0.59
   6   6   2    0.78    0.48
 -10  -6   3   -0.11    0.62
  -8  -6   3   12.96    1.54
  -6  -6   3    7.65    0.79
  -4  -6   3   20.55    1.17
  -2  -6   3    1.06    0.44
   0  -6   3   67.90    2.44
   2  -6   3    9.53    0.86
 -15  -5   3    7.87    1.04
 -13  -5   3   -0.27    0.44
 -11  -5   3   30.82    1.36
  -9  -5   3   69.00    2.38
  -7  -5   3    0.95    0.36
  -5  -5   3    0.92    0.36
  -3  -5   3    5.23    0.59
  -1  -5   3    0.71    0.35
   1  -5   3    3.93    0.52
   3  -5   3    8.30    0.70
   5  -5   3  109.61    3.64
   7  -5   3   22.01    1.18
   9  -5   3   17.83    1.06
  11  -5   3    3.13    0.57
 -18  -4   3   10.53    1.26
 -16  -4   3   11.47    1.12
 -14  -4   3   43.68    1.61
 -12  -4   3   83.25    2.59
 -10  -4   3    1.03    0.30
  -8  -4   3   28.98    1.21
  -6  -4   3   18.10    0.74
  -4  -4   3   50.73    1.49
  -2  -4   3    1.15    0.27
   0  -4   3  152.31    3.67
   2  -4   3   21.85    0.80
   4  -4   3   56.00    1.56
   6  -4   3   -0.03    0.23
   8  -4   3    5.91    0.61
  10  -4   3   24.25    1.17
  12  -4   3    4.51    0.59
  14  -4   3   23.10    1.83
 -17  -3   3   29.01    1.69
 -15  -3   3   17.13    1.19
 -13  -3   3    0.47    0.24
 -11  -3   3   65.11    2.22
  -9  -3   3  136.57    4.30
  -7  -3   3    1.74    0.35
  -5  -3   3    3.40    0.41
  -3  -3   3   12.45    0.70
  -1  -3   3    1.74    0.27
   1  -3   3   11.68    0.51
   3  -3   3   14.67    0.59
   5  -3   3  213.97    4.86
   7  -3   3   43.52    1.33
   9  -3   3   30.97    1.06
  11  -3   3    5.46    0.48
  13  -3   3    0.21    0.27
  15  -3   3   30.92    2.20
  17  -3   3   22.93    1.93
 -22  -2   3    0.23    0.56
 -20  -2   3   14.94    1.34
 -18  -2   3   19.49    0.94
 -16  -2   3   16.30    0.83
 -14  -2   3   82.05    2.51
 -12  -2   3  147.10    3.49
 -10  -2   3    1.57    0.24
  -8  -2   3   46.70    1.34
  -6  -2   3   38.08    0.90
  -4  -2   3  106.25    2.68
  -2  -2   3    3.00    0.25
   0  -2   3  298.29    7.15
   2  -2   3   42.56    1.21
   4  -2   3   98.98    2.05
   6  -2   3    0.04    0.16
   8  -2   3    8.54    0.39
  10  -2   3   37.23    1.16
  12  -2   3    6.99    0.49
  14  -2   3   32.76    1.57
  16  -2   3    0.60    0.42
  18  -2   3    4.90    0.77
 -23  -1   3    0.10    0.32
 -21  -1   3    1.09    0.47
 -19  -1   3    4.62    0.70
 -17  -1   3   37.99    1.87
 -15  -1   3   22.38    1.02
 -13  -1   3    0.47    0.20
 -11  -1   3   94.04    2.49
  -9  -1   3  211.07    6.46
  -7  -1   3    2.27    0.22
  -5  -1   3    4.57    0.26
  -3  -1   3   24.11    0.92
  -1  -1   3    3.19    0.17
   1  -1   3   21.16    0.54
   3  -1   3   23.35    0.60
   5  -1   3  338.17    6.70
   7  -1   3   66.62    1.50
   9  -1   3   43.44    1.08
  11  -1   3    7.65    0.52
  13  -1   3    0.28    0.23
  15  -1   3   44.51    1.49
  17  -1   3   28.74    1.21
  19  -1   3    9.79    0.81
 -24   0   3   17.29    1.39
 -22   0   3    0.31    0.41
 -20   0   3   17.84    1.31
 -18   0   3   24.86    1.18
 -16   0   3   21.21    1.02
 -14   0   3   92.95    3.12
 -12   0   3  175.12    4.47
 -10   0   3    1.69    0.24
  -8   0   3   63.70    1.71
  -6   0   3   55.64    1.47
  -4   0   3  152.86    3.62
  -2   0   3    4.46    0.20
   0   0   3  431.12    8.78
   2   0   3   60.87    1.19
   4   0   3  127.51    2.38
   6   0   3    0.03    0.08
   8   0   3   10.46    0.49
  10   0   3   46.94    1.34
  12   0   3   10.12    0.57
  14   0   3   41.96    1.36
  16   0   3    1.24    0.33
  18   0   3    5.11    0.57
  20   0   3   44.60    2.15
 -23   1   3    0.07    0.34
 -21   1   3    0.73    0.35
 -19   1   3    3.18    0.52
 -17   1   3   34.64    1.52
 -15   1   3   21.33    0.90
 -13   1   3    0.46    0.22
 -11   1   3   91.60    2.52
  -9   1   3  218.36    5.33
  -7   1   3    2.02    0.23
  -5   1   3    4.48    0.29
  -3   1   3   25.74    0.66
  -1   1   3    3.89    0.21
   1   1   3   21.85    0.57
   3   1   3   24.56    0.64
   5   1   3  350.61    7.08
   7   1   3   69.79    1.60
   9   1   3   46.70    1.17
  11   1   3    8.19    0.46
  13   1   3    0.48    0.21
  15   1   3   45.45    1.80
  17   1   3   32.05    1.50
  19   1   3    8.63    0.94
 -22   2   3    0.21    0.36
 -20   2   3   15.22    0.90
 -18   2   3   18.66    0.92
 -16   2   3   16.93    0.83
 -14   2   3   74.87    2.59
 -12   2   3  135.40    4.22
 -10   2   3    1.60    0.27
  -8   2   3   50.96    1.45
  -6   2   3   38.96    0.94
  -4   2   3  108.71    2.33
  -2   2   3    3.26    0.19
   0   2   3  318.71    6.30
   2   2   3   45.43    1.09
   4   2   3   97.91    2.21
   6   2   3    0.00    0.13
   8   2   3    7.93    0.50
  10   2   3   38.67    1.25
  12   2   3    8.15    0.60
  14   2   3   34.51    1.29
  16   2   3    1.39    0.38
  18   2   3    4.82    0.68
 -21   3   3    0.29    0.39
 -19   3   3    2.42    0.47
 -17   3   3   27.66    1.16
 -15   3   3   14.43    0.79
 -13   3   3    0.05    0.21
 -11   3   3   62.01    1.86
  -9   3   3  144.77    3.61
  -7   3   3    1.59    0.24
  -5   3   3    2.84    0.25
  -3   3   3   12.79    0.47
  -1   3   3    2.38    0.22
   1   3   3   10.83    0.44
   3   3   3   15.93    0.55
   5   3   3  212.70    4.55
   7   3   3   45.25    1.20
   9   3   3   29.68    0.94
  11   3   3    6.16    0.52
  13   3   3    0.10    0.25
  15   3   3   30.55    1.58
  17   3   3   23.46    1.39
 -18   4   3   10.06    0.99
 -16   4   3    9.16    0.90
 -14   4   3   40.86    1.82
 -12   4   3   80.87    2.90
 -10   4   3    0.71    0.29
  -8   4   3   31.29    1.32
  -6   4   3   18.63    0.94
  -4   4   3   52.65    1.61
  -2   4   3    0.94    0.26
   0   4   3  146.23    3.97
   2   4   3   20.68    0.88
   4   4   3   52.16    1.73
   6   4   3    0.16    0.20
   8   4   3    5.92    0.54
  10   4   3   22.61    1.01
  12   4   3    4.76    0.64
  14   4   3   21.72    1.25
 -15   5   3    8.68    0.91
 -13   5   3   -0.11    0.33
 -11   5   3   30.76    1.45
  -9   5   3   71.91    2.60
  -7   5   3    1.38    0.41
  -5   5   3    1.37    0.35
  -3   5   3    6.49    0.53
  -1   5   3    1.44    0.30
   1   5   3    3.07    0.40
   3   5   3    6.89    0.59
   5   5   3  102.00    3.07
   7   5   3   19.71    0.99
   9   5   3   16.30    0.91
  11   5   3    2.27    0.44
  -8   6   3   13.55    2.07
  -6   6   3    9.78    1.68
  -4   6   3   18.68    2.02
  -2   6   3    0.90    0.82
   0   6   3   67.09    2.90
   2   6   3   10.11    1.08
   4   6   3   23.99    2.10
  -6  -6   4   55.41    3.39
  -4  -6   4    7.87    0.83
  -2  -6   4   19.99    1.20
   0  -6   4    9.25    1.17
 -13  -5   4    0.85    0.40
 -11  -5   4   18.05    1.02
  -9  -5   4   33.09    1.45
  -7  -5   4    0.52    0.38
  -5  -5   4   32.88    1.43
  -3  -5   4    0.30    0.34
  -1  -5   4   50.46    1.87
   1  -5   4    0.35    0.29
   3  -5   4    3.53    0.58
   5  -5   4    6.39    0.74
   7  -5   4    1.69    0.49
   9  -5   4    0.61    0.42
 -18  -4   4   17.34    1.33
 -16  -4   4    4.52    0.53
 -14  -4   4    5.61    0.59
 -12  -4   4    2.60    0.63
 -10  -4   4    4.81    0.80
  -8  -4   4    1.62    0.31
  -6  -4   4  113.65    2.93
  -4  -4   4   18.79    0.78
  -2  -4   4   41.15    1.27
   0  -4   4   18.55    0.77
   2  -4   4    9.70    0.59
   4  -4   4   14.38    0.87
   6  -4   4   19.06    1.03
   8  -4   4   63.44    2.33
  10  -4   4    7.67    0.74
  12  -4   4   36.01    2.39
 -19  -3   4    9.55    1.07
 -17  -3   4   52.08    1.90
 -15  -3   4   13.66    0.83
 -13  -3   4    2.35    0.41
 -11  -3   4   36.41    1.51
  -9  -3   4   70.62    2.38
  -7  -3   4    2.42    0.40
  -5  -3   4   61.40    2.15
  -3  -3   4    0.97    0.30
  -1  -3   4   99.53    3.15
   1  -3   4    0.92    0.22
   3  -3   4    5.56    0.40
   5  -3   4   16.27    0.85
   7  -3   4    2.78    0.43
   9  -3   4    1.04    0.34
  11  -3   4   48.34    1.83
  13  -3   4    5.86    1.03
 -22  -2   4   26.39    1.94
 -20  -2   4    4.24    0.85
 -18  -2   4   26.53    1.78
 -16  -2   4    7.78    0.69
 -14  -2   4   10.15    0.79
 -12  -2   4    4.07    0.53
 -10  -2   4    8.80    0.74
  -8  -2   4    2.10    0.38
  -6  -2   4  212.20    5.21
  -4  -2   4   30.45    0.97
  -2  -2   4   71.39    1.94
   0  -2   4   32.96    1.03
   2  -2   4   17.48    0.64
   4  -2   4   27.46    0.91
   6  -2   4   36.25    0.92
   8  -2   4  108.28    2.36
  10  -2   4   11.93    0.61
  12  -2   4   51.30    1.60
  14  -2   4    5.12    0.68
  16  -2   4   16.12    1.24
 -23  -1   4   18.74    1.07
 -21  -1   4   46.71    1.83
 -19  -1   4   12.08    0.81
 -17  -1   4   68.65    2.28
 -15  -1   4   21.41    1.01
 -13  -1   4    2.36    0.38
 -11  -1   4   50.17    1.86
  -9  -1   4   97.73    2.61
  -7  -1   4    4.88    0.48
  -5  -1   4   96.78    2.34
  -3  -1   4    0.79    0.12
  -1  -1   4  152.98    3.18
   1  -1   4    2.33    0.17
   3  -1   4   10.42    0.37
   5  -1   4   24.60    0.69
   7  -1   4    3.46    0.25
   9  -1   4    1.73    0.28
  11  -1   4   64.49    1.88
  13  -1   4    6.97    0.56
  15  -1   4   35.70    1.63
  17  -1   4    0.66    0.35
 -24   0   4   10.13    1.14
 -22   0   4   27.43    1.35
 -20   0   4    2.24    0.44
 -18   0   4   29.07    1.29
 -16   0   4    7.50    0.68
 -14   0   4   11.83    0.76
 -12   0   4    4.77    0.52
 -10   0   4   12.90    0.58
  -8   0   4    2.40    0.24
  -6   0   4  287.21    6.69
  -4   0   4   39.33    1.06
  -2   0   4   92.80    2.02
   0   0   4   46.07    1.08
   2   0   4   25.40    0.58
   4   0   4   37.04    0.85
   6   0   4   44.88    1.26
   8   0   4  131.58    3.22
  10   0   4   16.96    0.68
  12   0   4   65.05    1.83
  14   0   4    6.20    0.52
  16   0   4   18.95    0.90
  18   0   4    1.02    0.49
 -23   1   4   19.64    1.16
 -21   1   4   46.63    1.93
 -19   1   4   12.23    0.93
 -17   1   4   64.69    2.33
 -15   1   4   20.23    1.04
 -13   1   4    2.91    0.36
 -11   1   4   55.34    1.65
  -9   1   4  108.89    2.74
  -7   1   4    5.38    0.37
  -5   1   4   97.23    2.16
  -3   1   4    0.83    0.13
  -1   1   4  158.81    3.37
   1   1   4    2.35    0.19
   3   1   4   10.13    0.38
   5   1   4   25.74    0.73
   7   1   4    3.17    0.27
   9   1   4    1.71    0.24
  11   1   4   69.04    1.70
  13   1   4    7.62    0.70
  15   1   4   37.75    1.63
  17   1   4    0.50    0.38
 -22   2   4   27.39    1.42
 -20   2   4    2.56    0.51
 -18   2   4   22.95    1.22
 -16   2   4    5.62    0.55
 -14   2   4    8.43    0.61
 -12   2   4    4.02    0.41
 -10   2   4   10.08    0.56
  -8   2   4    2.48    0.30
  -6   2   4  220.07    5.34
  -4   2   4   31.15    0.71
  -2   2   4   76.50    1.50
   0   2   4   35.48    0.89
   2   2   4   18.06    0.67
   4   2   4   29.01    0.95
   6   2   4   35.43    1.15
   8   2   4  109.92    2.94
  10   2   4   11.95    0.65
  12   2   4   52.63    1.70
  14   2   4    5.30    0.56
  16   2   4   18.20    1.14
  18   2   4    0.20    0.67
 -19   3   4    9.22    0.85
 -17   3   4   46.19    1.67
 -15   3   4   13.64    0.78
 -13   3   4    1.29    0.29
 -11   3   4   38.30    1.26
  -9   3   4   65.27    1.89
  -7   3   4    2.50    0.28
  -5   3   4   61.25    1.73
  -3   3   4    0.36    0.15
  -1   3   4  100.23    2.23
   1   3   4    1.04    0.18
   3   3   4    5.30    0.35
   5   3   4   14.64    0.58
   7   3   4    2.92    0.34
   9   3   4    1.10    0.26
  11   3   4   48.24    1.59
  13   3   4    5.69    0.58
  15   3   4   29.52    1.57
 -18   4   4   14.58    1.20
 -16   4   4    3.90    0.65
 -14   4   4    4.68    0.63
 -12   4   4    1.70    0.41
 -10   4   4    4.02    0.54
  -8   4   4    1.13    0.32
  -6   4   4  119.03    3.87
  -4   4   4   17.61    0.95
  -2   4   4   39.92    1.33
   0   4   4   18.99    0.82
   2   4   4    8.71    0.62
   4   4   4   14.44    0.76
   6   4   4   18.51    0.90
   8   4   4   64.41    2.47
  10   4   4    7.87    0.77
  12   4   4   35.33    1.69
 -15   5   4    7.22    0.84
 -13   5   4    0.66    0.40
 -11   5   4   20.19    1.14
  -9   5   4   34.21    1.56
  -7   5   4    1.24    0.38
  -5   5   4   32.71    1.48
  -3   5   4    0.36    0.28
  -1   5   4   48.71    1.63
   1   5   4    0.90    0.30
   3   5   4    2.16    0.40
   5   5   4    6.69    0.63
   7   5   4    1.31    0.35
   9   5   4    0.22    0.35
  -8   6   4    0.92    0.52
  -6   6   4   62.86    2.44
  -4   6   4   10.08    0.90
  -2   6   4   20.46    1.16
   0   6   4    9.56    0.87
   2   6   4    4.16    0.56
 -13  -5   5    0.05    0.37
 -11  -5   5   22.31    1.19
  -9  -5   5    4.00    0.58
  -7  -5   5   23.50    1.20
  -5  -5   5   11.55    0.93
  -3  -5   5   20.95    1.14
  -1  -5   5   38.07    1.35
   1  -5   5   54.05    2.17
   3  -5   5    7.16    0.80
   5  -5   5   11.33    0.98
   7  -5   5   17.32    1.11
 -18  -4   5    8.67    1.16
 -16  -4   5    0.17    0.45
 -14  -4   5   30.47    2.01
 -12  -4   5   13.32    1.38
 -10  -4   5   41.99    1.76
  -8  -4   5    5.80    0.68
  -6  -4   5   14.26    0.97
  -4  -4   5    0.42    0.24
  -2  -4   5   -0.20    0.22
   0  -4   5    5.48    0.48
   2  -4   5   49.93    1.99
   4  -4   5   -0.13    0.29
   6  -4   5   58.78    2.25
   8  -4   5   14.26    0.97
  10  -4   5    1.71    0.75
 -21  -3   5    4.23    0.78
 -19  -3   5    0.31    0.33
 -17  -3   5    3.91    0.54
 -15  -3   5   92.18    2.97
 -13  -3   5    0.67    0.32
 -11  -3   5   42.41    1.70
  -9  -3   5    9.54    0.79
  -7  -3   5   46.53    1.84
  -5  -3   5   22.13    1.09
  -3  -3   5   34.37    1.47
  -1  -3   5   75.18    2.56
   1  -3   5   98.72    3.28
   3  -3   5   10.96    0.74
   5  -3   5   18.18    0.92
   7  -3   5   29.07    1.28
   9  -3   5    1.31    0.58
  11  -3   5    4.36    0.89
  13  -3   5    5.80    1.04
 -22  -2   5    3.63    0.80
 -20  -2   5   24.25    1.24
 -18  -2   5   17.26    1.01
 -16  -2   5    1.24    0.38
 -14  -2   5   53.11    2.02
 -12  -2   5   17.68    1.05
 -10  -2   5   68.64    2.53
  -8  -2   5   11.76    0.61
  -6  -2   5   29.04    1.00
  -4  -2   5    1.56    0.26
  -2  -2   5    0.16    0.18
   0  -2   5   10.53    0.52
   2  -2   5   82.46    2.22
   4  -2   5    0.03    0.18
   6  -2   5  100.25    2.60
   8  -2   5   26.95    1.22
  10  -2   5    4.76    0.59
  12  -2   5   17.31    1.07
  14  -2   5   32.42    1.59
  16  -2   5    2.80    0.97
 -23  -1   5    4.08    0.90
 -21  -1   5    6.75    1.06
 -19  -1   5   -0.30    0.45
 -17  -1   5    4.49    0.55
 -15  -1   5  112.79    3.51
 -13  -1   5    0.80    0.26
 -11  -1   5   52.81    1.67
  -9  -1   5   13.34    0.64
  -7  -1   5   73.54    1.89
  -5  -1   5   35.38    1.01
  -3  -1   5   55.28    1.28
  -1  -1   5  119.54    2.51
   1  -1   5  146.71    3.04
   3  -1   5   14.88    0.50
   5  -1   5   23.73    0.81
   7  -1   5   40.35    1.25
   9  -1   5    2.81    0.34
  11  -1   5    5.02    0.47
  13  -1   5    9.38    0.67
  15  -1   5   27.97    1.18
  17  -1   5   21.75    1.34
 -24   0   5   13.29    1.34
 -22   0   5    4.41    0.62
 -20   0   5   27.78    1.33
 -18   0   5   18.37    1.03
 -16   0   5    0.97    0.36
 -14   0   5   54.15    2.04
 -12   0   5   21.21    1.05
 -10   0   5   89.55    2.34
  -8   0   5   14.86    0.65
  -6   0   5   36.46    1.08
  -4   0   5    2.66    0.25
  -2   0   5    0.29    0.14
   0   0   5   13.79    0.44
   2   0   5  105.47    2.20
   4   0   5    0.00    0.16
   6   0   5  122.96    3.02
   8   0   5   34.91    1.10
  10   0   5    4.77    0.43
  12   0   5   20.13    0.85
  14   0   5   35.98    1.58
  16   0   5    1.68    0.53
 -23   1   5    4.26    0.65
 -21   1   5    6.20    0.72
 -19   1   5    0.91    0.38
 -17   1   5    2.67    0.47
 -15   1   5  105.70    3.53
 -13   1   5    1.39    0.33
 -11   1   5   60.67    2.03
  -9   1   5   13.83    0.74
  -7   1   5   74.44    1.93
  -5   1   5   35.16    0.94
  -3   1   5   57.78    1.36
  -1   1   5  121.04    2.65
   1   1   5  149.60    3.22
   3   1   5   16.20    0.53
   5   1   5   23.41    0.71
   7   1   5   42.20    1.11
   9   1   5    2.43    0.36
  11   1   5    6.24    0.60
  13   1   5    9.41    0.80
  15   1   5   28.43    1.44
 -22   2   5    3.85    0.64
 -20   2   5   21.93    1.25
 -18   2   5   17.37    1.03
 -16   2   5    0.75    0.35
 -14   2   5   47.47    1.83
 -12   2   5   18.76    0.95
 -10   2   5   72.83    2.01
  -8   2   5   11.15    0.58
  -6   2   5   29.84    0.85
  -4   2   5    1.74    0.21
  -2   2   5    0.16    0.17
   0   2   5   10.96    0.53
   2   2   5   86.58    2.33
   4   2   5    0.22    0.17
   6   2   5   98.68    2.72
   8   2   5   24.33    0.98
  10   2   5    4.01    0.44
  12   2   5   17.15    0.89
  14   2   5   30.73    1.29
  16   2   5    1.70    0.75
 -21   3   5    5.44    1.10
 -19   3   5    0.36    0.38
 -17   3   5    2.27    0.46
 -15   3   5   79.36    2.82
 -13   3   5    0.21    0.27
 -11   3   5   41.25    1.36
  -9   3   5    8.39    0.54
  -7   3   5   47.40    1.45
  -5   3   5   22.05    0.82
  -3   3   5   37.68    1.00
  -1   3   5   74.38    2.10
   1   3   5  102.56    2.75
   3   3   5   12.24    0.60
   5   3   5   16.41    0.73
   7   3   5   30.10    1.08
   9   3   5    1.61    0.31
  11   3   5    3.49    0.45
  13   3   5    6.10    0.78
 -16   4   5    0.21    0.43
 -14   4   5   31.54    1.92
 -12   4   5   12.99    1.00
 -10   4   5   41.56    1.76
  -8   4   5    6.33    0.65
  -6   4   5   14.07    0.86
  -4   4   5    0.55    0.28
  -2   4   5    0.07    0.22
   0   4   5    5.86    0.50
   2   4   5   53.35    1.68
   4   4   5    0.29    0.26
   6   4   5   58.69    2.35
   8   4   5   15.11    1.03
  10   4   5    1.88    0.49
 -13   5   5    0.24    0.40
 -11   5   5   23.06    1.31
  -9   5   5    3.79    0.60
  -7   5   5   24.88    1.28
  -5   5   5   11.48    0.94
  -3   5   5   20.10    1.14
  -1   5   5   37.96    1.69
   1   5   5   51.69    1.76
   3   5   5    6.58    0.63
   5   5   5   10.91    0.94
   7   5   5   15.96    1.09
 -11  -5   6    5.92    1.11
  -9  -5   6   21.00    1.17
  -7  -5   6   27.07    1.39
  -5  -5   6   31.14    1.50
  -3  -5   6    1.68    0.44
  -1  -5   6    1.19    0.41
   1  -5   6   38.51    1.80
   3  -5   6    1.51    0.55
 -16  -4   6   18.07    1.52
 -14  -4   6    7.09    1.08
 -12  -4   6   46.06    1.97
 -10  -4   6    2.32    0.51
  -8  -4   6   14.84    1.12
  -6  -4   6   21.82    1.25
  -4  -4   6   89.82    3.17
  -2  -4   6    6.95    0.58
   0  -4   6    0.27    0.28
   2  -4   6   28.30    1.36
   4  -4   6   11.45    0.93
   6  -4   6   -0.20    0.36
   8  -4   6    8.48    1.23
 -19  -3   6    3.28    0.51
 -17  -3   6    1.84    0.45
 -15  -3   6    2.57    0.49
 -13  -3   6   25.95    1.31
 -11  -3   6    9.54    0.85
  -9  -3   6   37.95    1.63
  -7  -3   6   44.06    1.90
  -5  -3   6   57.63    2.26
  -3  -3   6    2.86    0.47
  -1  -3   6    1.63    0.38
   1  -3   6   69.85    2.46
   3  -3   6    1.99    0.38
   5  -3   6   44.29    1.71
   7  -3   6    0.25    0.50
   9  -3   6   82.42    4.25
  11  -3   6   12.34    1.47
 -22  -2   6   -0.11    0.50
 -20  -2   6   70.46    2.66
 -18  -2   6   14.66    1.10
 -16  -2   6   26.96    1.38
 -14  -2   6    8.94    0.85
 -12  -2   6   70.38    2.75
 -10  -2   6    4.76    0.61
  -8  -2   6   21.48    0.89
  -6  -2   6   38.68    1.30
  -4  -2   6  147.61    3.77
  -2  -2   6   12.24    0.59
   0  -2   6    0.67    0.22
   2  -2   6   48.67    1.42
   4  -2   6   17.44    0.72
   6  -2   6    1.33    0.36
   8  -2   6    9.13    0.80
  10  -2   6   30.59    1.46
  12  -2   6   19.36    1.20
  14  -2   6    2.36    0.59
 -23  -1   6    2.44    0.78
 -21  -1   6   31.26    1.55
 -19  -1   6    4.16    0.62
 -17  -1   6    1.91    0.47
 -15  -1   6    2.69    0.53
 -13  -1   6   34.86    1.70
 -11  -1   6   10.48    0.93
  -9  -1   6   51.03    2.04
  -7  -1   6   70.86    2.50
  -5  -1   6   93.10    3.02
  -3  -1   6    2.58    0.30
  -1  -1   6    2.47    0.29
   1  -1   6  106.45    2.69
   3  -1   6    3.60    0.45
   5  -1   6   61.22    2.18
   7  -1   6    0.45    0.30
   9  -1   6  107.95    3.59
  11  -1   6   13.13    0.91
  13  -1   6   16.75    1.11
  15  -1   6   15.80    1.47
 -22   0   6    0.27    0.40
 -20   0   6   81.68    2.87
 -18   0   6   15.62    1.05
 -16   0   6   26.49    1.32
 -14   0   6    9.28    0.66
 -12   0   6   86.46    2.44
 -10   0   6    3.38    0.38
  -8   0   6   25.26    0.90
  -6   0   6   49.49    1.39
  -4   0   6  186.18    4.35
  -2   0   6   14.74    0.58
   0   0   6    0.53    0.15
   2   0   6   63.55    1.68
   4   0   6   21.93    0.79
   6   0   6    1.37    0.25
   8   0   6   11.10    0.59
  10   0   6   35.85    1.22
  12   0   6   22.86    0.96
  14   0   6    2.88    0.57
 -23   1   6    4.05    0.90
 -21   1   6   33.87    1.57
 -19   1   6    3.44    0.59
 -17   1   6    2.49    0.49
 -15   1   6    1.79    0.43
 -13   1   6   38.73    1.57
 -11   1   6   12.91    0.69
  -9   1   6   55.22    1.58
  -7   1   6   73.66    1.92
  -5   1   6   91.32    2.32
  -3   1   6    2.52    0.27
  -1   1   6    2.86    0.25
   1   1   6  107.02    2.40
   3   1   6    4.20    0.32
   5   1   6   62.37    1.82
   7   1   6    1.43    0.29
   9   1   6  107.73    3.43
  11   1   6   14.11    0.98
  13   1   6   19.06    1.11
  15   1   6   17.52    1.74
 -20   2   6   68.21    2.62
 -18   2   6   14.10    1.07
 -16   2   6   24.19    1.26
 -14   2   6    8.07    0.74
 -12   2   6   75.58    2.50
 -10   2   6    3.55    0.44
  -8   2   6   22.49    0.82
  -6   2   6   42.22    1.20
  -4   2   6  150.32    3.87
  -2   2   6   12.37    0.61
   0   2   6    1.55    0.23
   2   2   6   50.14    1.49
   4   2   6   18.16    0.77
   6   2   6    1.07    0.25
   8   2   6    9.35    0.66
  10   2   6   31.69    1.23
  12   2   6   19.69    0.99
  14   2   6    1.51    0.66
 -19   3   6    2.86    0.56
 -17   3   6    0.99    0.42
 -15   3   6    0.84    0.36
 -13   3   6   27.47    1.23
 -11   3   6    8.36    0.67
  -9   3   6   36.65    1.39
  -7   3   6   49.48    1.70
  -5   3   6   63.72    1.85
  -3   3   6    2.59    0.33
  -1   3   6    2.05    0.30
   1   3   6   71.41    2.05
   3   3   6    2.89    0.35
   5   3   6   41.75    1.41
   7   3   6    0.29    0.24
   9   3   6   79.81    2.42
  11   3   6   10.10    0.76
 -16   4   6   14.98    1.48
 -14   4   6    4.36    0.80
 -12   4   6   41.20    2.37
 -10   4   6    3.13    0.61
  -8   4   6   15.00    0.95
  -6   4   6   21.30    1.19
  -4   4   6   92.53    3.26
  -2   4   6    8.17    0.76
   0   4   6   -0.04    0.25
   2   4   6   26.43    1.36
   4   4   6   10.53    0.92
   6   4   6    1.22    0.40
   8   4   6    7.88    0.86
 -11   5   6    5.18    0.83
  -9   5   6   19.13    1.43
  -7   5   6   30.34    1.52
  -5   5   6   34.91    1.63
  -3   5   6    1.53    0.45
  -1   5   6    1.82    0.47
   1   5   6   38.37    1.78
   3   5   6    2.01    0.47
  -7  -5   7    3.11    0.77
  -5  -5   7    0.06    0.46
  -3  -5   7    0.21    0.47
  -1  -5   7   37.20    2.71
 -14  -4   7   20.49    1.23
 -12  -4   7    7.83    0.85
 -10  -4   7   49.41    2.09
  -8  -4   7    8.33    0.91
  -6  -4   7   12.74    1.11
  -4  -4   7   14.30    1.13
  -2  -4   7   25.14    1.35
   0  -4   7   28.32    1.42
   2  -4   7   14.97    1.12
   4  -4   7   47.18    2.00
 -19  -3   7    0.38    0.58
 -17  -3   7   50.49    2.07
 -15  -3   7   10.08    0.93
 -13  -3   7   48.90    2.02
 -11  -3   7    2.21    0.52
  -9  -3   7    0.66    0.39
  -7  -3   7    3.58    0.60
  -5  -3   7   -0.16    0.31
  -3  -3   7    2.01    0.46
  -1  -3   7   53.59    2.12
   1  -3   7    0.95    0.38
   3  -3   7   28.93    1.33
   5  -3   7    4.69    0.92
   7  -3   7   20.52    1.77
   9  -3   7    3.13    0.85
 -20  -2   7    0.84    0.60
 -18  -2   7   25.86    1.38
 -16  -2   7    4.10    0.67
 -14  -2   7   25.45    1.45
 -12  -2   7    8.32    0.89
 -10  -2   7   74.38    2.25
  -8  -2   7   14.24    0.77
  -6  -2   7   21.18    0.90
  -4  -2   7   22.81    0.91
  -2  -2   7   36.95    1.22
   0  -2   7   38.58    1.25
   2  -2   7   20.77    1.07
   4  -2   7   72.66    2.61
   6  -2   7    0.54    0.36
   8  -2   7    3.20    0.57
  10  -2   7    1.46    0.46
  12  -2   7   15.57    1.77
 -21  -1   7    5.04    0.71
 -19  -1   7   -0.33    0.36
 -17  -1   7   63.58    2.52
 -15  -1   7    9.47    0.95
 -13  -1   7   56.87    2.44
 -11  -1   7    2.52    0.55
  -9  -1   7    1.35    0.42
  -7  -1   7    5.56    0.62
  -5  -1   7   -0.09    0.20
  -3  -1   7    2.42    0.33
  -1  -1   7   79.67    2.15
   1  -1   7    1.37    0.35
   3  -1   7   39.64    1.60
   5  -1   7    5.74    0.60
   7  -1   7   27.52    1.28
   9  -1   7    5.19    0.62
  11  -1   7    8.94    0.86
  13  -1   7    3.91    0.88
 -22   0   7    0.75    0.71
 -20   0   7    0.75    0.44
 -18   0   7   24.99    1.43
 -16   0   7    3.70    0.65
 -14   0   7   27.81    1.55
 -12   0   7   10.99    0.75
 -10   0   7   98.25    2.60
  -8   0   7   17.94    0.74
  -6   0   7   27.31    0.93
  -4   0   7   26.62    0.89
  -2   0   7   49.12    1.39
   0   0   7   49.00    1.40
   2   0   7   27.43    0.94
   4   0   7   88.07    2.33
   6   0   7    0.58    0.23
   8   0   7    3.64    0.40
  10   0   7    1.59    0.45
  12   0   7   16.36    1.19
  14   0   7    0.89    0.79
 -21   1   7    4.32    0.70
 -19   1   7    0.55    0.43
 -17   1   7   56.71    2.34
 -15   1   7   10.76    0.76
 -13   1   7   59.73    1.87
 -11   1   7    3.71    0.44
  -9   1   7    1.97    0.33
  -7   1   7    5.40    0.43
  -5   1   7    0.61    0.20
  -3   1   7    2.68    0.29
  -1   1   7   81.51    2.09
   1   1   7    1.32    0.24
   3   1   7   40.94    1.51
   5   1   7    6.96    0.62
   7   1   7   27.58    1.24
   9   1   7    5.71    0.64
  11   1   7    9.66    0.88
  13   1   7    4.25    0.90
 -20   2   7    0.95    0.48
 -18   2   7   22.96    1.29
 -16   2   7    4.17    0.59
 -14   2   7   24.50    1.08
 -12   2   7    9.16    0.66
 -10   2   7   78.60    2.16
  -8   2   7   15.59    0.68
  -6   2   7   21.42    0.98
  -4   2   7   22.64    1.02
  -2   2   7   37.13    1.40
   0   2   7   38.94    1.46
   2   2   7   19.73    0.94
   4   2   7   73.85    2.16
   6   2   7    0.96    0.29
   8   2   7    3.15    0.44
  10   2   7    1.14    0.36
 -19   3   7    0.06    0.64
 -17   3   7   44.24    2.64
 -15   3   7    8.77    0.79
 -13   3   7   48.95    1.87
 -11   3   7    2.49    0.43
  -9   3   7    0.91    0.29
  -7   3   7    3.11    0.42
  -5   3   7    0.19    0.22
  -3   3   7    1.67    0.34
  -1   3   7   59.10    1.97
   1   3   7    0.91    0.28
   3   3   7   29.41    1.11
   5   3   7    3.47    0.44
   7   3   7   18.37    0.95
   9   3   7    4.02    0.51
 -14   4   7   17.89    1.41
 -12   4   7    5.49    0.87
 -10   4   7   41.20    2.34
  -8   4   7   10.52    1.07
  -6   4   7   12.21    1.17
  -4   4   7   12.89    1.08
  -2   4   7   24.03    1.51
   0   4   7   26.30    1.39
   2   4   7   13.04    1.08
   4   4   7   47.78    2.11
   6   4   7   -0.09    0.93
   1   5   7    2.06    1.28
 -12  -4   8   -0.88    0.69
 -10  -4   8   48.07    2.18
  -8  -4   8    8.63    0.96
  -6  -4   8    7.97    0.93
  -4  -4   8   10.38    1.05
  -2  -4   8   21.58    1.37
   0  -4   8    7.07    0.86
 -17  -3   8    1.08    0.77
 -15  -3   8   16.45    1.24
 -13  -3   8    0.60    0.44
 -11  -3   8   28.35    1.51
  -9  -3   8    5.65    0.79
  -7  -3   8   43.90    1.96
  -5  -3   8   61.95    2.45
  -3  -3   8    6.09    0.74
  -1  -3   8   14.64    0.99
   1  -3   8    3.91    0.96
   3  -3   8   10.15    1.32
   5  -3   8   14.88    1.63
 -18  -2   8    0.15    0.60
 -16  -2   8    2.06    0.59
 -14  -2   8    0.04    0.48
 -12  -2   8    0.24    0.31
 -10  -2   8   69.74    2.18
  -8  -2   8   14.86    0.82
  -6  -2   8    9.26    0.69
  -4  -2   8   16.35    0.78
  -2  -2   8   30.23    1.11
   0  -2   8    9.98    0.84
   2  -2   8    1.03    0.42
   4  -2   8    4.82    0.66
   6  -2   8   71.10    2.67
   8  -2   8    2.40    0.58
 -19  -1   8   61.61    2.45
 -17  -1   8    1.74    0.58
 -15  -1   8   17.50    1.26
 -13  -1   8   -0.35    0.42
 -11  -1   8   34.51    1.75
  -9  -1   8    9.79    0.90
  -7  -1   8   61.20    1.84
  -5  -1   8   84.97    2.42
  -3  -1   8    7.89    0.56
  -1  -1   8   18.64    1.02
   1  -1   8    4.40    0.55
   3  -1   8    9.79    0.82
   5  -1   8   20.04    1.10
   7  -1   8   19.11    1.13
   9  -1   8   -0.34    0.34
  11  -1   8   14.12    1.57
 -20   0   8    0.26    0.47
 -18   0   8    0.31    0.48
 -16   0   8    3.08    0.66
 -14   0   8    0.66    0.47
 -12   0   8    0.05    0.44
 -10   0   8   83.76    3.06
  -8   0   8   18.67    1.10
  -6   0   8   11.19    0.79
  -4   0   8   19.65    1.03
  -2   0   8   34.93    1.44
   0   0   8   11.37    0.76
   2   0   8    0.96    0.34
   4   0   8    4.87    0.57
   6   0   8   72.56    3.85
   8   0   8    2.77    0.74
  10   0   8   54.01    3.08
 -19   1   8   45.97    3.39
 -17   1   8    1.29    0.44
 -15   1   8   17.53    1.00
 -13   1   8    0.27    0.34
 -11   1   8   38.00    1.36
  -9   1   8    9.46    0.65
  -7   1   8   61.04    1.73
  -5   1   8   89.44    2.33
  -3   1   8    8.22    0.53
  -1   1   8   19.39    0.96
   1   1   8    3.82    0.49
   3   1   8    9.65    0.76
   5   1   8   19.45    1.03
   7   1   8   20.27    1.10
   9   1   8    0.22    0.36
 -18   2   8    0.09    0.37
 -16   2   8    2.99    0.50
 -14   2   8    0.40    0.34
 -12   2   8   -0.07    0.30
 -10   2   8   69.23    2.42
  -8   2   8   13.70    0.88
  -6   2   8    9.50    0.73
  -4   2   8   15.88    0.84
  -2   2   8   29.76    1.25
   0   2   8    9.93    0.76
   2   2   8    1.82    0.38
   4   2   8    4.99    0.56
   6   2   8   69.40    2.48
   8   2   8    2.28    0.47
 -17   3   8    1.29    0.71
 -15   3   8   13.04    1.03
 -13   3   8    0.17    0.36
 -11   3   8   28.10    1.28
  -9   3   8    6.56    0.65
  -7   3   8   43.60    1.67
  -5   3   8   64.95    3.02
  -3   3   8    5.62    0.57
  -1   3   8   12.30    0.87
   1   3   8    3.77    0.50
   3   3   8    7.84    0.69
   5   3   8   14.40    0.94
   7   3   8   14.72    1.51
 -10   4   8   48.22    2.57
  -8   4   8   10.74    1.12
  -6   4   8    8.20    0.99
  -4   4   8    9.80    1.09
  -2   4   8   18.30    1.38
   0   4   8    7.43    0.97
 -13  -3   9   34.20    1.80
 -11  -3   9   23.54    1.47
  -9  -3   9    0.54    0.54
  -7  -3   9   18.80    1.39
  -5  -3   9   27.35    1.49
  -3  -3   9    8.30    0.90
  -1  -3   9    4.77    1.08
   1  -3   9   66.85    3.91
 -16  -2   9   88.98    3.31
 -14  -2   9    0.81    0.43
 -12  -2   9    2.99    0.51
 -10  -2   9    1.39    0.44
  -8  -2   9    0.58    0.38
  -6  -2   9    4.78    0.55
  -4  -2   9   24.34    1.07
  -2  -2   9   37.89    1.69
   0  -2   9   35.88    1.64
   2  -2   9    8.45    0.84
   4  -2   9    7.35    0.81
   6  -2   9    4.88    1.05
 -17  -1   9    1.10    0.59
 -15  -1   9   11.51    1.19
 -13  -1   9   41.30    2.16
 -11  -1   9   26.34    1.60
  -9  -1   9    1.28    0.38
  -7  -1   9   28.04    1.14
  -5  -1   9   33.43    1.57
  -3  -1   9   10.96    0.91
  -1  -1   9    6.89    0.74
   1  -1   9   96.51    3.32
   3  -1   9    6.46    0.73
   5  -1   9    4.02    0.62
   7  -1   9    5.12    1.02
 -18   0   9    0.58    0.58
 -16   0   9   96.34    5.48
 -14   0   9    0.46    0.54
 -12   0   9    3.78    0.75
 -10   0   9    1.26    0.52
  -8   0   9    0.77    0.43
  -6   0   9    6.78    0.71
  -4   0   9   28.08    1.33
  -2   0   9   41.01    1.69
   0   0   9   42.14    1.74
   2   0   9    6.72    0.70
   4   0   9    9.86    1.20
   6   0   9    7.01    1.11
 -17   1   9    1.04    0.61
 -15   1   9   11.88    1.19
 -13   1   9   42.89    2.12
 -11   1   9   31.61    1.61
  -9   1   9    0.67    0.44
  -7   1   9   29.16    1.37
  -5   1   9   32.55    2.12
  -3   1   9    8.67    1.07
  -1   1   9    6.96    0.99
   1   1   9   95.73    4.64
   3   1   9    6.04    0.96
   5   1   9    3.61    0.82
 -16   2   9   88.59    4.31
 -14   2   9    0.45    0.46
 -12   2   9    2.64    0.54
 -10   2   9    1.72    0.48
  -8   2   9    0.23    0.33
  -6   2   9    4.49    0.57
  -4   2   9   26.16    1.21
  -2   2   9   35.64    1.49
   0   2   9   33.57    1.44
   2   2   9    5.96    0.66
   4   2   9    8.73    0.77
 -13   3   9   36.33    1.65
 -11   3   9   20.27    1.16
  -9   3   9    0.22    0.33
  -7   3   9   20.56    1.09
  -5   3   9   24.14    1.20
  -3   3   9    8.82    0.77
  -1   3   9    4.33    0.56
   1   3   9   70.75    2.46
   3   3   9    4.23    0.85
 -12  -2  10   10.37    1.43
 -10  -2  10   50.86    2.32
  -8  -2  10   52.93    2.33
  -6  -2  10    1.23    0.58
  -4  -2  10   -0.14    0.46
  -2  -2  10   -0.13    0.42
   0  -2  10    4.20    1.00
 -15  -1  10    0.42    0.81
 -13  -1  10   31.40    1.99
 -11  -1  10    0.78    0.43
  -9  -1  10    8.03    0.75
  -7  -1  10    2.23    0.59
  -5  -1  10   32.75    1.61
  -3  -1  10   -0.38    0.38
  -1  -1  10    0.20    0.43
   1  -1  10    2.10    0.52
   3  -1  10   18.22    1.70
 -14   0  10    4.20    0.90
 -12   0  10   11.10    1.21
 -10   0  10   57.28    2.49
  -8   0  10   60.74    2.47
  -6   0  10    1.39    0.50
  -4   0  10   -0.17    0.38
  -2   0  10    0.52    0.41
   0   0  10    5.21    0.97
   2   0  10    4.35    0.90
 -15   1  10    0.58    0.94
 -13   1  10   37.18    2.02
 -11   1  10    0.45    0.54
  -9   1  10    7.89    1.25
  -7   1  10    2.19    0.78
  -5   1  10   30.07    2.12
  -3   1  10   -0.16    0.50
  -1   1  10    0.56    0.56
   1   1  10    2.86    0.75
 -12   2  10    9.31    1.36
 -10   2  10   48.84    3.00
  -8   2  10   54.83    2.11
  -6   2  10    0.88    0.43
  -4   2  10    0.04    0.36
  -2   2  10    0.21    0.35
   0   2  10    5.78    0.96
 -10   0  11    5.08    1.27
  -8   0  11    0.04    0.76
   0   0   0    0.00    0.00
;
_shelx_hkl_checksum              46001
#END Tags that were not found in dictionaries
loop_
_space_group_symop_operation_xyz
'x, y, z'
'-x, y, -z'
'x+1/2, y+1/2, z'
'-x+1/2, y+1/2, -z'
'-x, -y, -z'
'x, -y, z'
'-x+1/2, -y+1/2, -z'
'x+1/2, -y+1/2, z'
loop_
_atom_site_label
_atom_site_type_symbol
_atom_site_fract_x
_atom_site_fract_y
_atom_site_fract_z
_atom_site_U_iso_or_equiv
_atom_site_adp_type
_atom_site_occupancy
_atom_site_site_symmetry_order
_atom_site_calc_flag
_atom_site_refinement_flags_posn
_atom_site_refinement_flags_adp
_atom_site_refinement_flags_occupancy
Ce1 Ce 0.34776(2) 0.0000 0.06007(4) 0.00763(7) Uani 1 2 d S T P
Ce2 Ce 0.58847(2) 0.0000 0.37604(4) 0.00721(7) Uani 1 2 d S T P
Fe Fe 0.21673(4) 0.0000 0.62609(10) 0.00811(13) Uani 1 2 d S T P
In In 0.0000 0.0000 0.0000 0.00945(15) Uani 0.969(2) 4 d S T .
Ge1 Ge 0.06576(3) 0.0000 0.65284(7) 0.00759(10) Uani 1 2 d S T P
Ge2 Ge 0.21179(3) 0.0000 0.27952(7) 0.00833(11) Uani 1 2 d S T P
loop_
_atom_site_aniso_label
_atom_site_aniso_U_11
_atom_site_aniso_U_22
_atom_site_aniso_U_33
_atom_site_aniso_U_23
_atom_site_aniso_U_13
_atom_site_aniso_U_12
Ce1 0.00863(12) 0.00691(12) 0.00650(12) 0.000 0.00089(8) 0.000
Ce2 0.00801(12) 0.00590(12) 0.00772(12) 0.000 0.00232(9) 0.000
Fe 0.0088(3) 0.0067(3) 0.0083(3) 0.000 0.0016(2) 0.000
In 0.0114(2) 0.0081(2) 0.0090(2) 0.000 0.00328(17) 0.000
Ge1 0.0087(2) 0.0064(2) 0.0072(2) 0.000 0.00161(17) 0.000
Ge2 0.0115(2) 0.0058(2) 0.0081(2) 0.000 0.00343(17) 0.000
loop_
_atom_type_symbol
_atom_type_description
_atom_type_scat_dispersion_real
_atom_type_scat_dispersion_imag
_atom_type_scat_source
Fe Fe 0.3463 0.8444 'International Tables Vol C Tables 4.2.6.8 and 6.1.1.4'
Ge Ge 0.1547 1.8001 'International Tables Vol C Tables 4.2.6.8 and 6.1.1.4'
In In -0.7276 1.3100 'International Tables Vol C Tables 4.2.6.8 and 6.1.1.4'
Ce Ce -0.2486 2.6331 'International Tables Vol C Tables 4.2.6.8 and 6.1.1.4'
loop_
_geom_angle_atom_site_label_1
_geom_angle_atom_site_label_2
_geom_angle_atom_site_label_3
_geom_angle
_geom_angle_site_symmetry_1
_geom_angle_site_symmetry_3
Ge1 Ce1 Ge1 90.76(2) 7_556 7_546
Ge1 Ce1 Ge2 83.971(19) 7_556 .
Ge1 Ce1 Ge2 83.971(19) 7_546 .
Ge1 Ce1 Ge2 168.395(17) 7_556 7_545
Ge1 Ce1 Ge2 91.06(2) 7_546 7_545
Ge2 Ce1 Ge2 107.618(16) . 7_545
Ge1 Ce1 Ge2 91.06(2) 7_556 7
Ge1 Ce1 Ge2 168.395(17) 7_546 7
Ge2 Ce1 Ge2 107.618(17) . 7
Ge2 Ce1 Ge2 84.93(2) 7_545 7
Ge1 Ce1 Fe 134.619(11) 7_556 1_554
Ge1 Ce1 Fe 134.619(11) 7_546 1_554
Ge2 Ce1 Fe 98.52(2) . 1_554
Ge2 Ce1 Fe 44.753(12) 7_545 1_554
Ge2 Ce1 Fe 44.753(12) 7 1_554
Ge1 Ce1 In 55.312(15) 7_556 3
Ge1 Ce1 In 110.027(18) 7_546 3
Ge2 Ce1 In 135.922(10) . 3
Ge2 Ce1 In 113.436(16) 7_545 3
Ge2 Ce1 In 62.166(14) 7 3
Fe Ce1 In 99.344(16) 1_554 3
Ge1 Ce1 In 110.027(18) 7_556 3_545
Ge1 Ce1 In 55.313(15) 7_546 3_545
Ge2 Ce1 In 135.922(10) . 3_545
Ge2 Ce1 In 62.166(14) 7_545 3_545
Ge2 Ce1 In 113.436(16) 7 3_545
Fe Ce1 In 99.344(16) 1_554 3_545
In Ce1 In 79.634(19) 3 3_545
Ge1 Ce1 Fe 43.798(18) 7_556 7_556
Ge1 Ce1 Fe 99.05(2) 7_546 7_556
Ge2 Ce1 Fe 43.227(13) . 7_556
Ge2 Ce1 Fe 146.796(19) 7_545 7_556
Ge2 Ce1 Fe 90.17(2) 7 7_556
Fe Ce1 Fe 113.634(19) 1_554 7_556
In Ce1 Fe 92.724(16) 3 7_556
In Ce1 Fe 146.968(14) 3_545 7_556
Ge1 Ce1 Fe 99.05(2) 7_556 7_546
Ge1 Ce1 Fe 43.798(18) 7_546 7_546
Ge2 Ce1 Fe 43.227(13) . 7_546
Ge2 Ce1 Fe 90.17(2) 7_545 7_546
Ge2 Ce1 Fe 146.796(18) 7 7_546
Fe Ce1 Fe 113.634(19) 1_554 7_546
In Ce1 Fe 146.968(14) 3 7_546
In Ce1 Fe 92.724(16) 3_545 7_546
Fe Ce1 Fe 76.27(2) 7_556 7_546
Ge1 Ce1 Ce2 114.344(17) 7_556 5_655
Ge1 Ce1 Ce2 114.344(17) 7_546 5_655
Ge2 Ce1 Ce2 152.664(14) . 5_655
Ge2 Ce1 Ce2 54.704(14) 7_545 5_655
Ge2 Ce1 Ce2 54.704(14) 7 5_655
Fe Ce1 Ce2 54.14(2) 1_554 5_655
In Ce1 Ce2 59.113(7) 3 5_655
In Ce1 Ce2 59.113(7) 3_545 5_655
Fe Ce1 Ce2 141.564(11) 7_556 5_655
Fe Ce1 Ce2 141.564(11) 7_546 5_655
Ge1 Ce1 Ce1 139.783(17) 7_556 7_545
Ge1 Ce1 Ce1 85.951(16) 7_546 7_545
Ge2 Ce1 Ce1 55.815(15) . 7_545
Ge2 Ce1 Ce1 51.803(12) 7_545 7_545
Ge2 Ce1 Ce1 99.957(16) 7 7_545
Fe Ce1 Ce1 60.384(14) 1_554 7_545
In Ce1 Ce1 159.648(13) 3 7_545
In Ce1 Ce1 100.784(18) 3_545 7_545
Fe Ce1 Ce1 97.204(19) 7_556 7_545
Fe Ce1 Ce1 53.250(15) 7_546 7_545
Ce2 Ce1 Ce1 103.355(13) 5_655 7_545
Ge1 Ce2 Ge1 90.67(2) 3 3_545
Ge1 Ce2 Fe 108.325(14) 3 5_656
Ge1 Ce2 Fe 108.325(14) 3_545 5_656
Ge1 Ce2 Ge2 81.952(18) 3 3
Ge1 Ce2 Ge2 147.129(16) 3_545 3
Fe Ce2 Ge2 46.061(12) 5_656 3
Ge1 Ce2 Ge2 147.129(16) 3 3_545
Ge1 Ce2 Ge2 81.952(18) 3_545 3_545
Fe Ce2 Ge2 46.061(12) 5_656 3_545
Ge2 Ce2 Ge2 87.09(2) 3 3_545
Ge1 Ce2 Fe 47.030(19) 3 3
Ge1 Ce2 Fe 106.94(2) 3_545 3
Fe Ce2 Fe 61.366(19) 5_656 3
Ge2 Ce2 Fe 46.486(19) 3 3
Ge2 Ce2 Fe 104.71(2) 3_545 3
Ge1 Ce2 Fe 106.94(2) 3 3_545
Ge1 Ce2 Fe 47.030(19) 3_545 3_545
Fe Ce2 Fe 61.366(19) 5_656 3_545
Ge2 Ce2 Fe 104.71(2) 3 3_545
Ge2 Ce2 Fe 46.486(19) 3_545 3_545
Fe Ce2 Fe 86.33(2) 3 3_545
Ge1 Ce2 Ge1 106.405(15) 3 7_546
Ge1 Ce2 Ge1 48.172(18) 3_545 7_546
Fe Ce2 Ge1 137.887(12) 5_656 7_546
Ge2 Ce2 Ge1 163.918(16) 3 7_546
Ge2 Ce2 Ge1 92.37(2) 3_545 7_546
Fe Ce2 Ge1 147.985(19) 3 7_546
Fe Ce2 Ge1 86.26(2) 3_545 7_546
Ge1 Ce2 Ge1 48.172(18) 3 7_556
Ge1 Ce2 Ge1 106.405(15) 3_545 7_556
Fe Ce2 Ge1 137.887(12) 5_656 7_556
Ge2 Ce2 Ge1 92.37(2) 3 7_556
Ge2 Ce2 Ge1 163.918(16) 3_545 7_556
Fe Ce2 Ge1 86.26(2) 3 7_556
Fe Ce2 Ge1 147.985(19) 3_545 7_556
Ge1 Ce2 Ge1 83.74(2) 7_546 7_556
Ge1 Ce2 Ge2 77.634(16) 3 5_656
Ge1 Ce2 Ge2 77.634(17) 3_545 5_656
Fe Ce2 Ge2 44.30(2) 5_656 5_656
Ge2 Ce2 Ge2 69.500(18) 3 5_656
Ge2 Ce2 Ge2 69.500(18) 3_545 5_656
Fe Ce2 Ge2 43.362(12) 3 5_656
Fe Ce2 Ge2 43.362(12) 3_545 5_656
Ge1 Ce2 Ge2 125.200(15) 7_546 5_656
Ge1 Ce2 Ge2 125.200(15) 7_556 5_656
Ge1 Ce2 In 150.180(15) 3 3_545
Ge1 Ce2 In 88.49(2) 3_545 3_545
Fe Ce2 In 100.191(13) 5_656 3_545
Ge2 Ce2 In 113.390(17) 3 3_545
Ge2 Ce2 In 62.035(15) 3_545 3_545
Fe Ce2 In 158.628(16) 3 3_545
Fe Ce2 In 94.092(18) 3_545 3_545
Ge1 Ce2 In 53.123(13) 7_546 3_545
Ge1 Ce2 In 103.817(15) 7_556 3_545
Ge2 Ce2 In 130.969(10) 5_656 3_545
Ge1 Ce2 In 88.489(19) 3 3
Ge1 Ce2 In 150.180(15) 3_545 3
Fe Ce2 In 100.191(13) 5_656 3
Ge2 Ce2 In 62.035(15) 3 3
Ge2 Ce2 In 113.390(18) 3_545 3
Fe Ce2 In 94.092(18) 3 3
Fe Ce2 In 158.628(16) 3_545 3
Ge1 Ce2 In 103.817(15) 7_546 3
Ge1 Ce2 In 53.123(12) 7_556 3
Ge2 Ce2 In 130.969(10) 5_656 3
In Ce2 In 77.876(18) 3_545 3
Ge2 Fe Ge2 124.09(4) 7_556 7_546
Ge2 Fe Ge1 111.37(2) 7_556 .
Ge2 Fe Ge1 111.37(2) 7_546 .
Ge2 Fe Ge2 99.00(2) 7_556 .
Ge2 Fe Ge2 99.00(2) 7_546 .
Ge1 Fe Ge2 109.49(3) . .
Ge2 Fe Ce2 67.41(2) 7_556 5_656
Ge2 Fe Ce2 67.41(2) 7_546 5_656
Ge1 Fe Ce2 175.98(3) . 5_656
Ge2 Fe Ce2 74.53(2) . 5_656
Ge2 Fe Ce2 159.41(3) 7_556 3_445
Ge2 Fe Ce2 74.192(19) 7_546 3_445
Ge1 Fe Ce2 63.929(18) . 3_445
Ge2 Fe Ce2 66.289(18) . 3_445
Ce2 Fe Ce2 118.633(19) 5_656 3_445
Ge2 Fe Ce2 74.192(19) 7_556 3_455
Ge2 Fe Ce2 159.41(3) 7_546 3_455
Ge1 Fe Ce2 63.929(18) . 3_455
Ge2 Fe Ce2 66.289(18) . 3_455
Ce2 Fe Ce2 118.633(19) 5_656 3_455
Ce2 Fe Ce2 86.33(2) 3_445 3_455
Ge2 Fe Ce1 67.090(19) 7_556 1_556
Ge2 Fe Ce1 67.090(19) 7_546 1_556
Ge1 Fe Ce1 107.14(3) . 1_556
Ge2 Fe Ce1 143.37(3) . 1_556
Ce2 Fe Ce1 68.840(19) 5_656 1_556
Ce2 Fe Ce1 133.298(14) 3_445 1_556
Ce2 Fe Ce1 133.298(14) 3_455 1_556
Ge2 Fe Ce1 58.349(19) 7_556 7_556
Ge2 Fe Ce1 124.48(3) 7_546 7_556
Ge1 Fe Ce1 58.096(15) . 7_556
Ge2 Fe Ce1 136.510(16) . 7_556
Ce2 Fe Ce1 119.103(17) 5_656 7_556
Ce2 Fe Ce1 121.96(3) 3_445 7_556
Ce2 Fe Ce1 71.603(19) 3_455 7_556
Ce1 Fe Ce1 66.366(19) 1_556 7_556
Ge2 Fe Ce1 124.48(3) 7_556 7_546
Ge2 Fe Ce1 58.349(19) 7_546 7_546
Ge1 Fe Ce1 58.096(15) . 7_546
Ge2 Fe Ce1 136.510(16) . 7_546
Ce2 Fe Ce1 119.103(17) 5_656 7_546
Ce2 Fe Ce1 71.603(19) 3_445 7_546
Ce2 Fe Ce1 121.96(3) 3_455 7_546
Ce1 Fe Ce1 66.366(19) 1_556 7_546
Ce1 Fe Ce1 76.27(2) 7_556 7_546
Ge1 In Ge1 180.000(16) 5_556 1_554
Ge1 In Ce1 56.585(9) 5_556 3_445
Ge1 In Ce1 123.415(9) 1_554 3_445
Ge1 In Ce1 123.415(9) 5_556 7
Ge1 In Ce1 56.585(9) 1_554 7
Ce1 In Ce1 180.0 3_445 7
Ge1 In Ce1 123.415(9) 5_556 7_545
Ge1 In Ce1 56.585(9) 1_554 7_545
Ce1 In Ce1 100.366(19) 3_445 7_545
Ce1 In Ce1 79.634(19) 7 7_545
Ge1 In Ce1 56.585(9) 5_556 3_455
Ge1 In Ce1 123.415(9) 1_554 3_455
Ce1 In Ce1 79.634(19) 3_445 3_455
Ce1 In Ce1 100.366(19) 7 3_455
Ce1 In Ce1 180.0 7_545 3_455
Ge1 In Ce2 60.000(15) 5_556 3_455
Ge1 In Ce2 120.000(14) 1_554 3_455
Ce1 In Ce2 116.495(13) 3_445 3_455
Ce1 In Ce2 63.505(13) 7 3_455
Ce1 In Ce2 111.024(13) 7_545 3_455
Ce1 In Ce2 68.976(13) 3_455 3_455
Ge1 In Ce2 120.000(14) 5_556 7_545
Ge1 In Ce2 60.000(15) 1_554 7_545
Ce1 In Ce2 63.505(13) 3_445 7_545
Ce1 In Ce2 116.495(13) 7 7_545
Ce1 In Ce2 68.976(13) 7_545 7_545
Ce1 In Ce2 111.024(13) 3_455 7_545
Ce2 In Ce2 180.0 3_455 7_545
Ge1 In Ce2 60.000(15) 5_556 3_445
Ge1 In Ce2 120.000(14) 1_554 3_445
Ce1 In Ce2 68.976(13) 3_445 3_445
Ce1 In Ce2 111.024(13) 7 3_445
Ce1 In Ce2 63.505(13) 7_545 3_445
Ce1 In Ce2 116.495(13) 3_455 3_445
Ce2 In Ce2 77.876(19) 3_455 3_445
Ce2 In Ce2 102.124(18) 7_545 3_445
Ge1 In Ce2 120.000(14) 5_556 7
Ge1 In Ce2 60.000(15) 1_554 7
Ce1 In Ce2 111.024(13) 3_445 7
Ce1 In Ce2 68.976(13) 7 7
Ce1 In Ce2 116.495(13) 7_545 7
Ce1 In Ce2 63.505(13) 3_455 7
Ce2 In Ce2 102.124(18) 3_455 7
Ce2 In Ce2 77.876(19) 7_545 7
Ce2 In Ce2 180.0 3_445 7
Fe Ge1 Ge1 120.27(4) . 5_556
Fe Ge1 In 130.87(2) . 1_556
Ge1 Ge1 In 108.86(3) 5_556 1_556
Fe Ge1 Ce1 78.107(18) . 7_556
Ge1 Ge1 Ce1 133.142(13) 5_556 7_556
In Ge1 Ce1 68.103(16) 1_556 7_556
Fe Ge1 Ce1 78.107(18) . 7_546
Ge1 Ge1 Ce1 133.142(13) 5_556 7_546
In Ge1 Ce1 68.103(16) 1_556 7_546
Ce1 Ge1 Ce1 90.76(2) 7_556 7_546
Fe Ge1 Ce2 69.042(16) . 3_445
Ge1 Ge1 Ce2 69.98(2) 5_556 3_445
In Ge1 Ce2 133.764(12) 1_556 3_445
Ce1 Ge1 Ce2 147.02(2) 7_556 3_445
Ce1 Ge1 Ce2 80.004(19) 7_546 3_445
Fe Ge1 Ce2 69.042(16) . 3_455
Ge1 Ge1 Ce2 69.98(2) 5_556 3_455
In Ge1 Ce2 133.764(12) 1_556 3_455
Ce1 Ge1 Ce2 80.004(19) 7_556 3_455
Ce1 Ge1 Ce2 147.02(2) 7_546 3_455
Ce2 Ge1 Ce2 90.67(2) 3_445 3_455
Fe Ge1 Ce2 137.344(13) . 7_546
Ge1 Ge1 Ce2 61.849(18) 5_556 7_546
In Ge1 Ce2 66.877(13) 1_556 7_546
Ce1 Ge1 Ce2 134.85(2) 7_556 7_546
Ce1 Ge1 Ce2 75.823(16) 7_546 7_546
Ce2 Ge1 Ce2 73.595(15) 3_445 7_546
Ce2 Ge1 Ce2 131.828(17) 3_455 7_546
Fe Ge1 Ce2 137.344(12) . 7_556
Ge1 Ge1 Ce2 61.849(18) 5_556 7_556
In Ge1 Ce2 66.877(13) 1_556 7_556
Ce1 Ge1 Ce2 75.823(16) 7_556 7_556
Ce1 Ge1 Ce2 134.85(2) 7_546 7_556
Ce2 Ge1 Ce2 131.828(17) 3_445 7_556
Ce2 Ge1 Ce2 73.595(15) 3_455 7_556
Ce2 Ge1 Ce2 83.73(2) 7_546 7_556
Fe Ge2 Fe 124.09(4) 7_556 7_546
Fe Ge2 Fe 81.00(2) 7_556 .
Fe Ge2 Fe 81.00(2) 7_546 .
Fe Ge2 Ce1 78.42(2) 7_556 .
Fe Ge2 Ce1 78.42(2) 7_546 .
Fe Ge2 Ce1 135.15(3) . .
Fe Ge2 Ce2 144.96(3) 7_556 3_445
Fe Ge2 Ce2 66.53(2) 7_546 3_445
Fe Ge2 Ce2 67.224(16) . 3_445
Ce1 Ge2 Ce2 134.962(12) . 3_445
Fe Ge2 Ce2 66.53(2) 7_556 3_455
Fe Ge2 Ce2 144.96(3) 7_546 3_455
Fe Ge2 Ce2 67.224(16) . 3_455
Ce1 Ge2 Ce2 134.962(12) . 3_455
Ce2 Ge2 Ce2 87.09(2) 3_445 3_455
Fe Ge2 Ce1 145.15(3) 7_556 7_545
Fe Ge2 Ce1 68.16(2) 7_546 7_545
Fe Ge2 Ce1 133.552(15) . 7_545
Ce1 Ge2 Ce1 72.381(17) . 7_545
Ce2 Ge2 Ce1 68.909(16) 3_445 7_545
Ce2 Ge2 Ce1 124.78(2) 3_455 7_545
Fe Ge2 Ce1 68.16(2) 7_556 7
Fe Ge2 Ce1 145.15(3) 7_546 7
Fe Ge2 Ce1 133.552(15) . 7
Ce1 Ge2 Ce1 72.381(16) . 7
Ce2 Ge2 Ce1 124.78(2) 3_445 7
Ce2 Ge2 Ce1 68.909(15) 3_455 7
Ce1 Ge2 Ce1 84.93(2) 7_545 7
Fe Ge2 Ce2 62.444(19) 7_556 5_656
Fe Ge2 Ce2 62.444(19) 7_546 5_656
Fe Ge2 Ce2 61.17(2) . 5_656
Ce1 Ge2 Ce2 73.98(2) . 5_656
Ce2 Ge2 Ce2 110.499(18) 3_445 5_656
Ce2 Ge2 Ce2 110.499(18) 3_455 5_656
Ce1 Ge2 Ce2 124.269(14) 7_545 5_656
Ce1 Ge2 Ce2 124.269(14) 7 5_656
loop_
_geom_bond_atom_site_label_1
_geom_bond_atom_site_label_2
_geom_bond_distance
_geom_bond_site_symmetry_2
Ce1 Ge1 3.0543(6) 7_556
Ce1 Ge1 3.0543(6) 7_546
Ce1 Ge2 3.0591(8) .
Ce1 Ge2 3.2200(7) 7_545
Ce1 Ge2 3.2200(7) 7
Ce1 Fe 3.2448(9) 1_554
Ce1 In 3.3951(6) 3
Ce1 In 3.3951(6) 3_545
Ce1 Fe 3.5205(8) 7_556
Ce1 Fe 3.5205(8) 7_546
Ce1 Ce2 3.6075(8) 5_655
Ce1 Ce1 3.7099(8) 7_545
Ce2 Ge1 3.0568(6) 3
Ce2 Ge1 3.0568(6) 3_545
Ce2 Fe 3.1351(11) 5_656
Ce2 Ge2 3.1558(6) 3
Ce2 Ge2 3.1558(6) 3_545
Ce2 Fe 3.1780(7) 3
Ce2 Fe 3.1780(7) 3_545
Ce2 Ge1 3.2574(7) 7_546
Ce2 Ge1 3.2574(7) 7_556
Ce2 Ge2 3.4490(8) 5_656
Ce2 In 3.4591(6) 3_545
Ce2 In 3.4591(6) 3
Fe Ge2 2.4612(6) 7_556
Fe Ge2 2.4612(6) 7_546
Fe Ge1 2.4900(10) .
Fe Ge2 2.4996(10) .
Fe Ce2 3.1352(10) 5_656
Fe Ce2 3.1779(7) 3_445
Fe Ce2 3.1779(7) 3_455
Fe Ce1 3.2448(9) 1_556
Fe Ce1 3.5205(8) 7_556
Fe Ce1 3.5205(8) 7_546
In Ge1 3.0088(8) 5_556
In Ge1 3.0088(8) 1_554
In Ce1 3.3951(6) 3_445
In Ce1 3.3951(6) 7
In Ce1 3.3951(6) 7_545
In Ce1 3.3951(6) 3_455
In Ce2 3.4591(6) 3_455
In Ce2 3.4591(6) 7_545
In Ce2 3.4591(6) 3_445
In Ce2 3.4591(6) 7
Ge1 Ge1 2.5834(10) 5_556
Ge1 In 3.0088(8) 1_556
Ge1 Ce1 3.0543(6) 7_556
Ge1 Ce1 3.0543(6) 7_546
Ge1 Ce2 3.0568(6) 3_445
Ge1 Ce2 3.0568(6) 3_455
Ge1 Ce2 3.2574(7) 7_546
Ge1 Ce2 3.2574(7) 7_556
Ge2 Fe 2.4612(6) 7_556
Ge2 Fe 2.4612(6) 7_546
Ge2 Ce2 3.1557(6) 3_445
Ge2 Ce2 3.1557(6) 3_455
Ge2 Ce1 3.2200(7) 7_545
Ge2 Ce1 3.2200(7) 7
Ge2 Ce2 3.4490(8) 5_656
