#------------------------------------------------------------------------------
#$Date: 2016-03-24 00:14:39 +0200 (Thu, 24 Mar 2016) $
#$Revision: 179528 $
#$URL: svn://www.crystallography.net/cod/cif/4/34/25/4342588.cif $
#------------------------------------------------------------------------------
#
# This file is available in the Crystallography Open Database (COD),
# http://www.crystallography.net/
#
# All data on this site have been placed in the public domain by the
# contributors.
#
data_4342588
loop_
_publ_author_name
'Oliynyk, Anton O.'
'Stoyko, Stanislav S.'
'Mar, Arthur'
_publ_section_title
;
 Many Metals Make the Cut: Quaternary Rare-Earth Germanides RE4M2InGe4 (M
 = Fe, Co, Ni, Ru, Rh, Ir) and RE4RhInGe4 Derived from Excision of Slabs
 in RE2InGe2.
;
_journal_issue                   6
_journal_name_full               'Inorganic chemistry'
_journal_page_first              2780
_journal_page_last               2792
_journal_paper_doi               10.1021/ic502955h
_journal_volume                  54
_journal_year                    2015
_chemical_formula_structural     'Nd4 Co2 In Ge4'
_chemical_formula_sum            'Co2 Ge4 In Nd4'
_chemical_formula_weight         1100.00
_chemical_name_common            'neodymium cobalt indium germanide (4/2/1/4)'
_chemical_name_systematic        'neodymium cobalt indium germanide (4/2/1/4)'
_space_group_crystal_system      monoclinic
_space_group_IT_number           12
_space_group_name_Hall           '-C 2y'
_space_group_name_H-M_alt        'C 1 2/m 1'
_symmetry_space_group_name_Hall  '-C 2y'
_symmetry_space_group_name_H-M   'C 1 2/m 1'
_atom_sites_solution_primary     direct
_atom_sites_solution_secondary   difmap
_audit_creation_method           SHELXL-2013
_cell_angle_alpha                90
_cell_angle_beta                 107.5115(8)
_cell_angle_gamma                90
_cell_formula_units_Z            2
_cell_length_a                   15.7845(9)
_cell_length_b                   4.3028(3)
_cell_length_c                   7.1824(4)
_cell_measurement_reflns_used    2183
_cell_measurement_temperature    173(2)
_cell_measurement_theta_max      32.39
_cell_measurement_theta_min      4.93
_cell_volume                     465.20(5)
_computing_cell_refinement       'Bruker SAINT 8.27B (Bruker, 2011)'
_computing_data_collection       'Bruker APEX 2 (Bruker, 2008)'
_computing_data_reduction        'Bruker SAINT 8.27B'
_computing_molecular_graphics    'ATOMS 5.1 (Dowty, 1999)'
_computing_publication_material  'Bruker SHELXTL'
_computing_structure_refinement  'Bruker SHELXTL'
_computing_structure_solution    'Bruker SHELXTL'
_diffrn_ambient_temperature      173(2)
_diffrn_measured_fraction_theta_full 1.000
_diffrn_measured_fraction_theta_max 0.981
_diffrn_measurement_device_type  'Bruker PLATFORM/SMART APEX II CCD'
_diffrn_measurement_method       '\w and \f scans'
_diffrn_radiation_type           MoK\a
_diffrn_radiation_wavelength     0.71073
_diffrn_reflns_av_R_equivalents  0.0299
_diffrn_reflns_av_unetI/netI     0.0260
_diffrn_reflns_Laue_measured_fraction_full 1.000
_diffrn_reflns_Laue_measured_fraction_max 0.981
_diffrn_reflns_limit_h_max       23
_diffrn_reflns_limit_h_min       -23
_diffrn_reflns_limit_k_max       6
_diffrn_reflns_limit_k_min       -6
_diffrn_reflns_limit_l_max       10
_diffrn_reflns_limit_l_min       -10
_diffrn_reflns_number            3306
_diffrn_reflns_point_group_measured_fraction_full 1.000
_diffrn_reflns_point_group_measured_fraction_max 0.981
_diffrn_reflns_theta_full        25.242
_diffrn_reflns_theta_max         33.075
_diffrn_reflns_theta_min         2.706
_diffrn_source                   'fine-focus sealed tube'
_exptl_absorpt_coefficient_mu    40.399
_exptl_absorpt_correction_T_max  0.4400
_exptl_absorpt_correction_T_min  0.1684
_exptl_absorpt_correction_type   numerical
_exptl_absorpt_process_details   'Bruker SHELXTL (Sheldrick, 2013)'
_exptl_crystal_colour            grey
_exptl_crystal_density_diffrn    7.853
_exptl_crystal_density_method    'not measured'
_exptl_crystal_description       irregular
_exptl_crystal_F_000             942
_exptl_crystal_size_max          0.076
_exptl_crystal_size_mid          0.039
_exptl_crystal_size_min          0.028
_refine_diff_density_max         1.418
_refine_diff_density_min         -1.467
_refine_diff_density_rms         0.312
_refine_ls_extinction_coef       0.00044(5)
_refine_ls_extinction_expression Fc^*^=kFc[1+0.001xFc^2^\l^3^/sin(2\q)]^-1/4^
_refine_ls_extinction_method     SHELXL
_refine_ls_goodness_of_fit_ref   1.053
_refine_ls_hydrogen_treatment    undef
_refine_ls_matrix_type           full
_refine_ls_number_parameters     37
_refine_ls_number_reflns         968
_refine_ls_number_restraints     0
_refine_ls_restrained_S_all      1.053
_refine_ls_R_factor_all          0.0244
_refine_ls_R_factor_gt           0.0185
_refine_ls_shift/su_max          0.001
_refine_ls_shift/su_mean         0.000
_refine_ls_structure_factor_coef Fsqd
_refine_ls_weighting_details
'w=1/[\s^2^(Fo^2^)+(0.0140P)^2^] where P=(Fo^2^+2Fc^2^)/3'
_refine_ls_weighting_scheme      calc
_refine_ls_wR_factor_gt          0.0354
_refine_ls_wR_factor_ref         0.0366
_reflns_Friedel_coverage         0.000
_reflns_number_gt                851
_reflns_number_total             968
_reflns_threshold_expression     'I > 2\s(I)'
_cod_data_source_file            ic502955h_si_003.cif
_cod_data_source_block           Nd4Co2InGe4
_cod_depositor_comments
'Adding full bibliography for 4342570--4342590.cif.'
_cod_database_code               4342588
#BEGIN Tags that were not found in dictionaries:
_shelx_space_group_comment
;
The symmetry employed for this shelxl refinement is uniquely defined
by the following loop, which should always be used as a source of
symmetry information in preference to the above space-group names.
They are only intended as comments.
;
_shelx_estimated_absorpt_t_min   0.149
_shelx_estimated_absorpt_t_max   0.398
_shelxl_version_number           2013-4
_shelx_res_file
;
TITL Nd4Co2InGe4 C2/m lsf final refinement
CELL 0.71073  15.78450   4.30280   7.18240  90.0000 107.5115  90.0000
ZERR    2.00   0.00090   0.00030   0.00040   0.0000   0.0008   0.0000
LATT  7
SYMM -X, Y, -Z
SFAC CO GE IN ND
UNIT 4 8 2 8
TEMP -100
SIZE 0.028 0.039 0.076

L.S. 4
ACTA

WGHT    0.014000
EXTI    0.000438
FVAR       0.04735
ND1   4    0.346506    0.000000    0.058935    10.50000    0.00710    0.00713 =
         0.00713    0.00000    0.00170    0.00000
ND2   4    0.588828    0.000000    0.381085    10.50000    0.00618    0.00585 =
         0.00787    0.00000    0.00286    0.00000
CO    1    0.218670    0.000000    0.625746    10.50000    0.00657    0.00732 =
         0.00912    0.00000    0.00207    0.00000
IN    3    0.000000    0.000000    0.000000     0.24125    0.00980    0.00872 =
         0.00955    0.00000    0.00406    0.00000
GE1   2    0.066854    0.000000    0.655800    10.50000    0.00637    0.00670 =
         0.00768    0.00000    0.00192    0.00000
GE2   2    0.209662    0.000000    0.276420    10.50000    0.00764    0.00568 =
         0.00850    0.00000    0.00297    0.00000
HKLF 4

REM  Nd4Co2InGe4 C2/m lsf final refinement
REM R1 =  0.0185 for     851 Fo > 4sig(Fo)  and  0.0244 for all     968 data
REM     37 parameters refined using      0 restraints

END

WGHT      0.0140      0.0000

REM Highest difference peak  1.418,  deepest hole -1.467,  1-sigma level  0.312
Q1    1   0.3412  0.1760  0.0175  11.00000  0.05    1.42
Q2    1   0.5901 -0.1768  0.3699  11.00000  0.05    1.27
Q3    1   0.3066  0.0000 -0.0339  10.50000  0.05    1.23
Q4    1   0.3927  0.0000  0.1196  10.50000  0.05    1.17
Q5    1   0.6768  0.0000  0.5768  10.50000  0.05    1.08
Q6    1   0.2288  0.0000  0.4488  10.50000  0.05    1.04
Q7    1   0.4238  0.0000  0.2451  10.50000  0.05    1.00
Q8    1   0.5387  0.0000  0.3211  10.50000  0.05    0.97
Q9    1   0.0300  0.1412  0.5779  11.00000  0.05    0.96
Q10   1   0.1381  0.0000  0.0358  10.50000  0.05    0.93
Q11   1   0.3976  0.1808  0.2239  11.00000  0.05    0.93
Q12   1   0.0878  0.0000  0.8791  10.50000  0.05    0.93
Q13   1   0.0072  0.1816  0.6633  11.00000  0.05    0.92
Q14   1  -0.0234 -0.3192  0.1278  11.00000  0.05    0.92
Q15   1   0.0677  0.1805  0.1170  11.00000  0.05    0.88
Q16   1   0.0470  0.0000  0.0995  10.50000  0.05    0.88
Q17   1   0.0780  0.0000  0.5795  10.50000  0.05    0.88
Q18   1   0.0700  0.1761  0.6625  11.00000  0.05    0.88
Q19   1   0.2988  0.0000  0.0821  10.50000  0.05    0.87
Q20   1   0.0200  0.1142 -0.0392  11.00000  0.05    0.86
;
_shelx_res_checksum              27077
_shelx_hkl_file
;
   2  -2 -10   -0.58    0.64
   4  -2 -10    0.70    0.88
   6  -2 -10    7.12    1.50
   8  -2 -10   54.39    3.25
  10  -2 -10   68.95    3.64
  -1  -1 -10    0.59    1.06
   1  -1 -10    0.80    0.65
   3  -1 -10    0.21    0.57
   5  -1 -10   39.66    2.86
   7  -1 -10    5.12    1.29
   9  -1 -10   12.72    1.83
  11  -1 -10   -0.64    0.78
  13  -1 -10   41.33    2.87
   0   0 -10    4.24    1.01
   2   0 -10    0.59    0.63
   4   0 -10    1.57    0.65
   6   0 -10    7.42    1.48
   8   0 -10   60.93    3.53
  10   0 -10   72.47    3.94
  12   0 -10    5.89    1.37
  14   0 -10    2.88    1.21
  16   0 -10    1.57    1.14
  -1   1 -10    0.67    0.70
   1   1 -10    0.66    0.65
   3   1 -10   -0.07    0.56
   5   1 -10   40.83    2.08
   7   1 -10    6.72    1.48
   9   1 -10   10.23    1.76
  11   1 -10   -0.10    0.89
  13   1 -10   38.79    2.87
   0   2 -10    3.42    1.63
   2   2 -10    0.09    0.68
   4   2 -10    1.11    0.70
   6   2 -10    5.41    1.03
   8   2 -10   45.68    3.24
  10   2 -10   65.28    3.86
   1  -3  -9   16.37    2.16
   3  -3  -9    8.61    1.54
   5  -3  -9   33.18    2.42
   7  -3  -9   16.71    1.96
  -4  -2  -9   16.32    1.72
  -2  -2  -9   12.87    1.49
   0  -2  -9   45.57    2.30
   2  -2  -9   31.43    2.14
   4  -2  -9   25.31    1.84
   6  -2  -9    1.18    0.82
   8  -2  -9    1.84    0.87
  10  -2  -9    2.36    0.96
  -5  -1  -9    9.57    1.31
  -3  -1  -9    0.70    0.66
  -1  -1  -9   98.14    4.46
   1  -1  -9   18.98    1.66
   3  -1  -9    8.12    1.07
   5  -1  -9   38.92    1.90
   7  -1  -9   19.67    2.12
   9  -1  -9    3.50    1.06
  11  -1  -9   40.92    2.69
  13  -1  -9   65.74    3.41
  -6   0  -9    4.69    1.05
  -4   0  -9   16.53    1.69
  -2   0  -9   10.17    1.28
   0   0  -9   53.04    2.39
   2   0  -9   38.40    1.96
   4   0  -9   26.87    1.83
   6   0  -9    3.49    0.74
   8   0  -9    1.24    0.85
  10   0  -9    2.27    1.00
  12   0  -9    0.27    0.78
  14   0  -9   -0.22    0.78
  16   0  -9  126.82    5.14
  -5   1  -9    6.86    1.18
  -3   1  -9    0.65    0.67
  -1   1  -9   87.39    3.23
   1   1  -9   19.69    1.67
   3   1  -9    5.89    0.92
   5   1  -9   39.01    1.95
   7   1  -9   20.70    1.57
   9   1  -9    2.14    0.96
  11   1  -9   36.45    2.67
  13   1  -9   65.98    3.61
  15   1  -9   12.78    1.92
  17   1  -9    2.68    1.07
  -4   2  -9   14.64    1.76
  -2   2  -9    8.98    1.11
   0   2  -9   47.03    2.02
   2   2  -9   29.05    1.77
   4   2  -9   23.72    1.84
   6   2  -9    1.32    0.65
   8   2  -9    1.23    0.61
  10   2  -9    0.74    0.86
  12   2  -9    0.37    0.88
  14   2  -9    0.54    0.98
  16   2  -9  115.86    5.19
  -1   3  -9   62.35    4.65
   1   3  -9   16.00    1.74
   3   3  -9    6.38    1.20
   5   3  -9   34.99    2.39
   7   3  -9   14.48    1.55
   9   3  -9    5.57    1.59
  11   3  -9   30.53    3.08
   0  -4  -8    7.72    1.51
   2  -4  -8   27.91    2.59
  12  -4  -8   -0.40    1.11
  -5  -3  -8   24.59    2.62
  -3  -3  -8    7.34    1.45
  -1  -3  -8    1.54    0.92
   1  -3  -8    8.99    1.52
   3  -3  -8   12.08    1.72
   5  -3  -8   62.44    3.17
   7  -3  -8   66.72    3.23
  13  -3  -8   -0.11    1.13
  15  -3  -8    6.85    1.93
  17  -3  -8    1.30    1.45
  -8  -2  -8    7.91    1.68
  -6  -2  -8   69.73    3.81
  -4  -2  -8    0.53    0.74
  -2  -2  -8    0.68    0.68
   0  -2  -8    8.12    1.41
   2  -2  -8   33.64    2.35
   4  -2  -8   28.55    2.09
   6  -2  -8   13.10    1.65
   8  -2  -8   22.27    2.12
  10  -2  -8   70.23    3.30
  16  -2  -8    4.00    1.45
  18  -2  -8   -0.77    1.11
  -9  -1  -8    1.26    0.74
  -7  -1  -8   12.21    1.43
  -5  -1  -8   29.78    2.12
  -3  -1  -8    8.71    1.16
  -1  -1  -8    3.55    0.76
   1  -1  -8   12.92    1.28
   3  -1  -8   19.20    1.49
   5  -1  -8   89.29    2.81
   7  -1  -8   77.32    3.55
   9  -1  -8    4.17    1.02
  11  -1  -8   43.68    2.64
  13  -1  -8   -0.15    0.66
  19  -1  -8   81.93    4.72
  -8   0  -8    8.64    1.24
  -6   0  -8   88.03    3.20
  -4   0  -8    0.97    0.61
  -2   0  -8    0.47    0.49
   0   0  -8   13.36    1.31
   2   0  -8   40.67    1.90
   4   0  -8   35.98    1.73
   6   0  -8   13.90    1.18
   8   0  -8   26.35    2.37
  10   0  -8   82.79    3.81
  12   0  -8    0.95    0.69
  14   0  -8    0.87    0.75
  16   0  -8    7.58    1.40
  -9   1  -8   -0.32    0.67
  -7   1  -8   13.29    1.51
  -5   1  -8   33.87    2.09
  -3   1  -8    6.76    1.05
  -1   1  -8    3.11    0.75
   1   1  -8   14.99    1.37
   3   1  -8   17.88    1.45
   5   1  -8   89.65    2.92
   7   1  -8   79.88    2.65
   9   1  -8    2.78    0.94
  11   1  -8   49.57    2.89
  13   1  -8    1.26    0.80
  15   1  -8   10.83    1.61
  17   1  -8    3.26    1.08
  19   1  -8   86.73    4.06
  -8   2  -8    7.68    2.04
  -6   2  -8   64.45    3.26
  -4   2  -8    1.02    0.65
  -2   2  -8    0.67    0.57
   0   2  -8    9.69    1.08
   2   2  -8   35.74    1.80
   4   2  -8   28.50    1.96
   6   2  -8   12.52    1.31
   8   2  -8   21.81    1.61
  10   2  -8   66.74    3.64
  12   2  -8    0.35    0.78
  14   2  -8    0.21    0.72
  16   2  -8    8.11    1.58
  18   2  -8    0.63    0.90
  -5   3  -8   24.23    2.39
  -3   3  -8    5.22    1.32
  -1   3  -8    1.80    0.95
   1   3  -8   11.95    1.26
   3   3  -8   14.56    1.55
   5   3  -8   65.23    2.76
   7   3  -8   66.06    2.69
   9   3  -8    2.81    0.81
  11   3  -8   31.08    2.93
  13   3  -8    0.45    0.79
  15   3  -8    8.41    1.70
  -2   4  -8    0.40    1.68
   0   4  -8    4.80    1.86
   2   4  -8   29.28    3.39
   4   4  -8   17.38    1.81
   6   4  -8    9.86    1.42
   8   4  -8   14.40    1.61
  10   4  -8   47.99    2.38
   3  -5  -7   -0.22    0.86
   5  -5  -7    0.98    1.06
   7  -5  -7    0.97    1.07
  -4  -4  -7   52.45    3.16
  -2  -4  -7   30.65    2.72
   0  -4  -7   23.97    2.36
   2  -4  -7   30.67    2.22
   4  -4  -7    8.29    1.57
   6  -4  -7   10.93    1.77
   8  -4  -7   11.28    1.90
  10  -4  -7   72.47    4.26
  12  -4  -7    9.80    2.06
  14  -4  -7   24.66    3.18
  -7  -3  -7   26.10    2.58
  -5  -3  -7    8.93    1.54
  -3  -3  -7   35.97    2.48
  -1  -3  -7   -0.33    0.53
   1  -3  -7   56.57    2.97
   3  -3  -7    0.42    0.63
   5  -3  -7    1.34    0.70
   7  -3  -7    3.03    0.65
   9  -3  -7   -0.36    0.69
  11  -3  -7    1.28    0.99
  13  -3  -7   60.13    3.97
  15  -3  -7   16.37    2.66
  17  -3  -7   52.91    4.17
 -10  -2  -7    0.51    0.79
  -8  -2  -7    1.43    0.89
  -6  -2  -7   -0.36    0.61
  -4  -2  -7   77.34    3.67
  -2  -2  -7   43.20    2.58
   0  -2  -7   35.15    2.24
   2  -2  -7   52.90    2.72
   4  -2  -7   16.12    1.68
   6  -2  -7   15.00    1.59
   8  -2  -7   18.37    1.35
  10  -2  -7  116.78    3.24
  12  -2  -7   11.32    1.95
  14  -2  -7   35.51    3.50
  16  -2  -7    2.27    1.23
  18  -2  -7   25.15    3.24
  20  -2  -7    2.26    1.42
 -11  -1  -7   12.56    1.43
  -9  -1  -7    3.45    0.84
  -7  -1  -7   39.90    2.16
  -5  -1  -7    9.96    1.48
  -3  -1  -7   48.21    2.77
  -1  -1  -7    0.90    0.56
   1  -1  -7   79.08    2.65
   3  -1  -7    0.89    0.42
   5  -1  -7   -0.20    0.32
   7  -1  -7    6.95    0.80
   9  -1  -7    0.03    0.51
  11  -1  -7    0.52    0.52
  13  -1  -7   74.70    2.56
  15  -1  -7   26.59    2.93
  17  -1  -7   76.74    4.48
  19  -1  -7   -0.41    0.91
  21  -1  -7    2.60    1.35
 -12   0  -7   13.95    2.43
 -10   0  -7    0.85    0.70
  -8   0  -7    1.26    0.64
  -6   0  -7    0.24    0.48
  -4   0  -7   88.71    2.99
  -2   0  -7   50.79    2.11
   0   0  -7   44.10    1.88
   2   0  -7   59.59    2.15
   4   0  -7   18.99    1.36
   6   0  -7   19.32    1.32
   8   0  -7   24.12    1.23
  10   0  -7  139.80    5.00
  12   0  -7   13.81    1.62
  14   0  -7   43.61    1.91
  16   0  -7    3.64    0.77
  18   0  -7   26.34    2.97
  20   0  -7    1.58    1.14
  22   0  -7    0.13    1.12
 -11   1  -7   11.85    1.53
  -9   1  -7    4.11    1.57
  -7   1  -7   35.37    2.14
  -5   1  -7   12.09    1.32
  -3   1  -7   50.11    2.22
  -1   1  -7   -0.21    0.42
   1   1  -7   79.43    2.67
   3   1  -7    1.97    0.54
   5   1  -7    0.52    0.43
   7   1  -7    5.54    0.79
   9   1  -7    0.27    0.36
  11   1  -7    0.63    0.60
  13   1  -7   87.90    3.74
  15   1  -7   23.01    2.17
  17   1  -7   83.45    2.92
  19   1  -7   -0.58    0.54
  21   1  -7    3.76    1.57
 -10   2  -7    0.13    0.77
  -8   2  -7    0.81    0.78
  -6   2  -7    1.77    0.83
  -4   2  -7   71.00    2.46
  -2   2  -7   44.72    1.89
   0   2  -7   33.74    1.75
   2   2  -7   48.29    1.84
   4   2  -7   14.67    1.10
   6   2  -7   16.56    1.37
   8   2  -7   18.44    1.40
  10   2  -7  117.41    3.24
  12   2  -7    9.84    1.52
  14   2  -7   39.52    2.60
  16   2  -7    2.48    0.95
  18   2  -7   24.20    2.43
  20   2  -7    4.37    1.19
  -9   3  -7    1.28    1.50
  -7   3  -7   29.73    2.73
  -5   3  -7    6.25    1.31
  -3   3  -7   32.11    2.63
  -1   3  -7   -0.18    0.57
   1   3  -7   58.11    2.17
   3   3  -7    0.75    0.59
   5   3  -7   -0.10    0.48
   7   3  -7    4.19    0.83
   9   3  -7    0.27    0.50
  11   3  -7    0.73    0.49
  13   3  -7   69.43    3.67
  15   3  -7   19.79    2.31
  17   3  -7   58.36    3.50
  -4   4  -7   37.55    3.12
  -2   4  -7   26.67    2.37
   0   4  -7   21.20    2.03
   2   4  -7   24.86    2.08
   4   4  -7    7.97    1.22
   6   4  -7    8.20    1.24
   8   4  -7   10.67    1.30
  10   4  -7   74.39    2.90
  12   4  -7   10.91    1.89
  14   4  -7   21.00    2.59
   7   5  -7    1.61    1.23
  -3  -5  -6    2.95    0.83
  -1  -5  -6   47.61    2.13
   1  -5  -6    4.55    1.33
   3  -5  -6    1.62    1.00
   5  -5  -6   48.11    3.38
   7  -5  -6   33.40    3.29
   9  -5  -6   23.52    2.96
  11  -5  -6    4.71    1.59
  -8  -4  -6   13.65    1.91
  -6  -4  -6    1.60    0.84
  -4  -4  -6   17.76    2.01
  -2  -4  -6   27.67    1.62
   0  -4  -6    2.11    0.56
   2  -4  -6    7.68    0.93
   4  -4  -6  109.61    4.76
   6  -4  -6   16.22    2.05
   8  -4  -6   17.79    2.25
  10  -4  -6    3.55    1.30
  12  -4  -6   43.61    3.38
  14  -4  -6    6.48    1.82
  16  -4  -6   28.76    3.62
 -11  -3  -6   19.19    2.24
  -9  -3  -6   91.46    4.21
  -7  -3  -6    2.34    0.85
  -5  -3  -6   36.47    2.38
  -3  -3  -6    4.44    0.97
  -1  -3  -6   79.68    2.42
   1  -3  -6    7.21    0.81
   3  -3  -6    2.11    0.51
   5  -3  -6   93.23    2.61
   7  -3  -6   57.26    1.95
   9  -3  -6   43.89    2.87
  11  -3  -6    7.51    1.57
  13  -3  -6   36.57    3.01
  15  -3  -6    1.32    1.26
  17  -3  -6    0.94    1.08
  19  -3  -6    4.45    1.75
 -12  -2  -6   27.36    2.58
 -10  -2  -6   21.56    2.24
  -8  -2  -6   18.77    2.01
  -6  -2  -6    1.46    0.72
  -4  -2  -6   21.52    2.03
  -2  -2  -6   46.67    2.52
   0  -2  -6    3.63    0.83
   2  -2  -6   12.58    0.95
   4  -2  -6  193.37    4.06
   6  -2  -6   31.68    1.37
   8  -2  -6   23.91    1.23
  10  -2  -6    7.22    0.84
  12  -2  -6   82.70    4.26
  14  -2  -6    8.26    1.78
  16  -2  -6   44.22    3.50
  18  -2  -6   25.06    3.16
  20  -2  -6   95.35    5.67
 -15  -1  -6   13.77    2.43
 -13  -1  -6   25.85    1.97
 -11  -1  -6   29.22    1.85
  -9  -1  -6  119.38    4.66
  -7  -1  -6    4.57    1.04
  -5  -1  -6   50.19    2.67
  -3  -1  -6    5.14    0.99
  -1  -1  -6  123.53    4.34
   1  -1  -6    9.64    1.25
   3  -1  -6    2.73    0.74
   5  -1  -6  129.29    2.56
   7  -1  -6   76.86    1.83
   9  -1  -6   60.29    2.05
  11  -1  -6   11.81    1.08
  13  -1  -6   52.71    1.97
  15  -1  -6    7.12    1.66
  17  -1  -6    0.99    1.04
  19  -1  -6    4.64    1.48
  21  -1  -6   47.81    3.75
 -14   0  -6   -0.11    0.94
 -12   0  -6   26.68    3.12
 -10   0  -6   27.45    1.76
  -8   0  -6   19.14    1.57
  -6   0  -6    4.23    0.79
  -4   0  -6   23.98    1.48
  -2   0  -6   63.20    2.24
   0   0  -6    3.37    0.61
   2   0  -6   14.00    1.12
   4   0  -6  233.18    4.83
   6   0  -6   40.98    1.58
   8   0  -6   29.47    1.08
  10   0  -6   11.73    1.08
  12   0  -6   94.32    2.82
  14   0  -6   10.20    1.06
  16   0  -6   54.69    2.09
  18   0  -6   23.16    2.84
  20   0  -6  111.49    5.69
  22   0  -6   -0.40    1.01
 -13   1  -6   22.87    2.04
 -11   1  -6   27.57    2.21
  -9   1  -6  113.33    5.87
  -7   1  -6    3.37    0.77
  -5   1  -6   47.80    2.11
  -3   1  -6    4.54    0.81
  -1   1  -6  117.97    3.37
   1   1  -6    9.77    1.02
   3   1  -6    2.02    0.55
   5   1  -6  134.52    3.35
   7   1  -6   77.36    2.31
   9   1  -6   59.30    1.60
  11   1  -6   11.27    1.10
  13   1  -6   55.75    2.19
  15   1  -6    5.10    0.84
  17   1  -6    0.42    0.49
  19   1  -6    5.00    0.87
  21   1  -6   48.33    3.82
 -12   2  -6   25.59    2.24
 -10   2  -6   20.67    2.02
  -8   2  -6   11.80    1.55
  -6   2  -6    2.06    0.81
  -4   2  -6   22.73    1.55
  -2   2  -6   52.29    1.91
   0   2  -6    2.42    0.59
   2   2  -6   11.85    1.02
   4   2  -6  184.20    3.64
   6   2  -6   33.35    1.56
   8   2  -6   23.95    1.38
  10   2  -6    8.25    0.87
  12   2  -6   70.09    2.47
  14   2  -6    7.44    1.01
  16   2  -6   46.27    2.19
  18   2  -6   22.45    1.84
  20   2  -6   99.64    3.53
  22   2  -6    0.58    0.97
 -11   3  -6   20.75    2.16
  -9   3  -6   87.25    3.84
  -7   3  -6    2.80    1.03
  -5   3  -6   28.79    2.44
  -3   3  -6    2.68    0.91
  -1   3  -6   80.92    2.50
   1   3  -6    6.04    0.80
   3   3  -6    2.06    0.55
   5   3  -6   87.01    2.89
   7   3  -6   54.63    2.15
   9   3  -6   43.78    1.90
  11   3  -6    5.03    0.80
  13   3  -6   34.03    2.51
  15   3  -6    3.57    1.02
  17   3  -6    0.04    0.77
  19   3  -6    2.54    1.14
  -8   4  -6   13.83    1.98
  -6   4  -6   -0.44    0.85
  -4   4  -6   11.53    1.69
  -2   4  -6   25.44    2.18
   0   4  -6    1.03    0.66
   2   4  -6    8.88    1.23
   4   4  -6  113.55    3.61
   6   4  -6   14.69    1.45
   8   4  -6   17.52    1.57
  10   4  -6    5.24    0.91
  12   4  -6   45.96    2.12
  14   4  -6    7.00    1.53
  16   4  -6   28.84    2.95
  -3   5  -6    3.50    1.64
  -1   5  -6   42.36    2.96
   1   5  -6    2.79    1.51
   3   5  -6   -0.12    0.79
   5   5  -6   49.63    3.63
   7   5  -6   31.44    2.27
   9   5  -6   25.44    2.04
  11   5  -6    5.22    1.07
  -7  -5  -5   16.73    2.28
  -5  -5  -5   21.72    1.73
  -3  -5  -5    3.31    0.78
  -1  -5  -5   72.59    2.61
   1  -5  -5   34.25    2.69
   3  -5  -5   17.53    2.28
   5  -5  -5   15.03    2.16
   7  -5  -5   33.74    3.32
   9  -5  -5    3.84    1.34
  11  -5  -5   31.74    3.44
 -10  -4  -5    3.34    1.11
  -8  -4  -5   29.84    1.78
  -6  -4  -5   74.11    2.59
  -4  -4  -5   -0.02    0.41
  -2  -4  -5   53.77    2.02
   0  -4  -5   11.44    1.07
   2  -4  -5    0.49    0.38
   4  -4  -5    0.23    0.60
   6  -4  -5    9.18    1.56
   8  -4  -5   10.66    1.70
  10  -4  -5   53.92    3.51
  12  -4  -5   15.51    2.28
  14  -4  -5   30.97    3.45
  16  -4  -5    2.27    1.42
 -13  -3  -5    5.46    1.28
 -11  -3  -5    0.51    0.68
  -9  -3  -5    1.12    0.70
  -7  -3  -5   26.60    2.02
  -5  -3  -5   29.16    1.39
  -3  -3  -5    9.01    0.89
  -1  -3  -5  132.97    3.20
   1  -3  -5   71.98    2.12
   3  -3  -5   33.20    1.38
   5  -3  -5   32.48    1.35
   7  -3  -5   68.99    2.08
   9  -3  -5    7.36    1.40
  11  -3  -5   56.81    3.53
  13  -3  -5   -0.83    0.64
  15  -3  -5   93.46    5.28
  17  -3  -5    2.00    1.30
  19  -3  -5    3.99    1.69
 -16  -2  -5    0.07    0.75
 -14  -2  -5   34.71    2.45
 -12  -2  -5   19.50    2.08
 -10  -2  -5    5.81    1.13
  -8  -2  -5   43.54    2.48
  -6  -2  -5  122.87    4.44
  -4  -2  -5    0.22    0.28
  -2  -2  -5   82.31    2.21
   0  -2  -5   17.36    0.96
   2  -2  -5    0.18    0.30
   4  -2  -5    2.95    0.50
   6  -2  -5   20.84    1.04
   8  -2  -5   18.53    1.07
  10  -2  -5   85.36    2.40
  12  -2  -5   27.40    2.75
  14  -2  -5   53.67    3.66
  16  -2  -5    1.09    1.01
  18  -2  -5   19.04    2.81
  20  -2  -5   17.33    2.83
 -15  -1  -5   33.96    3.54
 -13  -1  -5    8.71    1.37
 -11  -1  -5    2.19    0.78
  -9  -1  -5    2.58    0.80
  -7  -1  -5   46.49    2.40
  -5  -1  -5   44.08    2.26
  -3  -1  -5   11.42    1.30
  -1  -1  -5  205.90    3.95
   1  -1  -5  114.79    2.50
   3  -1  -5   48.89    1.50
   5  -1  -5   48.51    1.55
   7  -1  -5  102.46    2.06
   9  -1  -5   11.63    0.97
  11  -1  -5   94.19    2.59
  13  -1  -5    1.95    0.51
  15  -1  -5  127.44    5.98
  17  -1  -5    5.63    1.56
  19  -1  -5    1.29    1.06
  21  -1  -5    7.21    1.84
 -16   0  -5   -0.41    0.85
 -14   0  -5   41.88    3.31
 -12   0  -5   21.77    1.65
 -10   0  -5    4.69    0.80
  -8   0  -5   58.44    2.23
  -6   0  -5  151.06    3.84
  -4   0  -5    0.54    0.39
  -2   0  -5  100.41    2.77
   0   0  -5   23.56    1.25
   2   0  -5    0.72    0.35
   4   0  -5    3.34    0.43
   6   0  -5   31.95    1.07
   8   0  -5   22.15    0.89
  10   0  -5  118.51    3.07
  12   0  -5   34.82    1.56
  14   0  -5   68.57    2.26
  16   0  -5    2.64    0.64
  18   0  -5   25.18    2.99
  20   0  -5   21.81    2.92
  22   0  -5   16.01    2.70
 -15   1  -5   36.59    2.93
 -13   1  -5    8.81    1.28
 -11   1  -5    2.05    0.76
  -9   1  -5    4.64    0.82
  -7   1  -5   42.04    1.91
  -5   1  -5   40.75    1.82
  -3   1  -5   10.26    1.04
  -1   1  -5  211.07    4.62
   1   1  -5  118.58    3.01
   3   1  -5   51.65    1.79
   5   1  -5   50.73    1.29
   7   1  -5  101.15    2.11
   9   1  -5   11.66    0.75
  11   1  -5   92.47    2.83
  13   1  -5    1.35    0.52
  15   1  -5  137.48    3.74
  17   1  -5    5.35    0.87
  19   1  -5    1.70    0.70
  21   1  -5    6.39    1.93
  23   1  -5    8.52    2.13
 -14   2  -5   39.11    3.00
 -12   2  -5   21.39    1.98
 -10   2  -5    2.66    0.87
  -8   2  -5   40.47    2.45
  -6   2  -5  127.10    3.13
  -4   2  -5    1.05    0.48
  -2   2  -5   84.82    2.35
   0   2  -5   19.72    1.23
   2   2  -5   -0.01    0.34
   4   2  -5    2.37    0.46
   6   2  -5   22.53    0.90
   8   2  -5   18.85    1.14
  10   2  -5   90.75    2.07
  12   2  -5   26.13    1.56
  14   2  -5   49.57    2.18
  16   2  -5    1.18    0.64
  18   2  -5   20.48    1.74
  20   2  -5   15.03    1.56
  22   2  -5   12.58    1.50
 -13   3  -5    4.17    1.49
 -11   3  -5    0.81    0.82
  -9   3  -5    0.24    0.69
  -7   3  -5   25.00    2.11
  -5   3  -5   26.87    2.15
  -3   3  -5    6.71    1.08
  -1   3  -5  130.05    3.02
   1   3  -5   67.65    1.98
   3   3  -5   35.19    1.33
   5   3  -5   31.60    1.53
   7   3  -5   65.98    2.27
   9   3  -5    6.83    0.84
  11   3  -5   61.86    2.19
  13   3  -5    1.37    0.72
  15   3  -5   91.12    4.21
  17   3  -5    5.09    1.24
  19   3  -5    1.97    1.04
 -10   4  -5    2.51    0.71
  -8   4  -5   29.16    2.47
  -6   4  -5   73.55    3.31
  -4   4  -5   -0.03    0.65
  -2   4  -5   51.68    2.48
   0   4  -5   10.48    1.26
   2   4  -5    0.28    0.40
   4   4  -5    1.16    0.55
   6   4  -5    9.54    1.09
   8   4  -5    7.95    1.00
  10   4  -5   54.70    2.25
  12   4  -5   17.72    1.48
  14   4  -5   31.54    2.91
  16   4  -5    1.84    1.09
  -7   5  -5   18.17    3.04
  -5   5  -5   19.74    2.10
  -3   5  -5    3.65    1.11
  -1   5  -5   72.79    3.17
   1   5  -5   38.20    3.63
   3   5  -5   13.76    2.18
   5   5  -5   15.46    1.47
   7   5  -5   34.13    2.05
   9   5  -5    4.08    0.86
  11   5  -5   38.21    2.18
  13   5  -5   -0.06    0.63
  -9  -5  -4    2.22    1.12
  -7  -5  -4    2.14    1.05
  -5  -5  -4    7.87    1.57
  -3  -5  -4    0.58    0.79
  -1  -5  -4    1.11    0.85
   1  -5  -4   61.39    3.62
   3  -5  -4    0.97    0.83
   5  -5  -4   43.28    3.03
   7  -5  -4    0.57    0.79
   9  -5  -4   35.29    3.47
  11  -5  -4   20.65    2.76
  13  -5  -4    2.31    1.40
 -12  -4  -4   42.57    3.01
 -10  -4  -4   11.17    1.76
  -8  -4  -4   54.67    3.12
  -6  -4  -4   28.22    2.12
  -4  -4  -4   19.09    2.02
  -2  -4  -4   13.00    1.70
   0  -4  -4   21.98    1.83
   2  -4  -4   61.07    2.00
   4  -4  -4   16.13    1.92
   6  -4  -4  132.63    5.41
   8  -4  -4    1.35    0.78
  10  -4  -4    5.99    1.42
  12  -4  -4    2.35    1.10
  14  -4  -4   10.14    2.11
  16  -4  -4    7.00    1.93
 -11  -3  -4   61.83    3.21
  -9  -3  -4    2.83    0.87
  -7  -3  -4    3.96    0.92
  -5  -3  -4   17.99    1.51
  -3  -3  -4    3.22    0.76
  -1  -3  -4    1.31    0.58
   1  -3  -4  122.69    2.89
   3  -3  -4   -0.08    0.25
   5  -3  -4   77.35    2.08
   7  -3  -4    1.88    0.76
   9  -3  -4   62.53    3.38
  11  -3  -4   44.45    2.98
  13  -3  -4    1.88    1.06
  15  -3  -4   19.28    2.74
  17  -3  -4   72.55    4.82
  19  -3  -4    7.42    1.97
 -16  -2  -4   17.64    2.02
 -10  -2  -4   19.76    1.58
  -8  -2  -4   91.03    3.43
  -6  -2  -4   47.66    2.25
  -4  -2  -4   35.45    1.78
  -2  -2  -4   29.73    1.15
   0  -2  -4   35.27    1.22
   2  -2  -4  103.22    2.38
   4  -2  -4   28.88    1.10
   6  -2  -4  268.37    4.96
   8  -2  -4    2.14    0.45
  10  -2  -4   20.92    2.18
  12  -2  -4    2.64    0.97
  14  -2  -4   18.07    2.54
  16  -2  -4   11.61    2.15
  18  -2  -4   29.43    3.45
  20  -2  -4    4.99    1.60
  22  -2  -4   29.83    3.64
 -15  -1  -4   33.80    2.28
 -13  -1  -4    1.89    0.73
 -11  -1  -4   84.84    3.49
  -9  -1  -4    5.24    0.96
  -7  -1  -4    6.77    0.64
  -5  -1  -4   30.01    1.07
  -3  -1  -4    6.74    0.55
  -1  -1  -4    3.08    0.38
   1  -1  -4  195.37    3.62
   3  -1  -4    0.11    0.20
   5  -1  -4  117.64    2.59
   7  -1  -4    4.76    0.56
   9  -1  -4  102.71    2.56
  11  -1  -4   74.44    2.10
  13  -1  -4    3.96    0.58
  15  -1  -4   29.24    3.24
  17  -1  -4  104.94    5.47
  19  -1  -4   17.48    2.57
  21  -1  -4   60.23    4.35
  23  -1  -4   15.53    2.57
 -16   0  -4   23.02    2.57
 -14   0  -4   16.39    2.36
 -12   0  -4   76.78    2.58
 -10   0  -4   23.24    1.41
  -8   0  -4  114.78    3.11
  -6   0  -4   60.69    2.53
  -4   0  -4   42.87    2.02
  -2   0  -4   43.47    1.02
   0   0  -4   48.33    1.59
   2   0  -4  136.91    2.36
   4   0  -4   37.29    1.06
   6   0  -4  333.48    6.22
   8   0  -4    2.53    0.32
  10   0  -4   24.10    1.24
  12   0  -4    4.74    0.68
  14   0  -4   27.37    1.38
  16   0  -4   17.27    1.26
  18   0  -4   37.69    3.69
  20   0  -4    2.08    1.20
  22   0  -4   40.35    4.24
 -17   1  -4    0.87    0.61
 -15   1  -4   31.87    2.99
 -13   1  -4    1.45    0.66
 -11   1  -4   89.41    3.17
  -9   1  -4    4.12    0.74
  -7   1  -4    5.40    0.81
  -5   1  -4   31.01    1.51
  -3   1  -4    6.81    0.81
  -1   1  -4    2.11    0.48
   1   1  -4  194.97    4.04
   3   1  -4    0.16    0.18
   5   1  -4  118.00    2.16
   7   1  -4    3.95    0.45
   9   1  -4  100.81    2.07
  11   1  -4   71.29    1.69
  13   1  -4    4.76    0.76
  15   1  -4   34.50    1.73
  17   1  -4  101.33    3.18
  19   1  -4   20.19    1.61
  21   1  -4   71.41    4.86
  23   1  -4   16.72    2.80
 -16   2  -4   20.86    1.68
 -14   2  -4   17.84    2.27
 -12   2  -4   62.82    2.69
 -10   2  -4   22.56    1.80
  -8   2  -4   89.01    3.19
  -6   2  -4   46.32    1.66
  -4   2  -4   35.08    1.42
  -2   2  -4   32.15    1.25
   0   2  -4   35.87    1.25
   2   2  -4  103.78    2.16
   4   2  -4   26.39    0.93
   6   2  -4  261.66    4.00
   8   2  -4    2.80    0.41
  10   2  -4   17.80    0.91
  12   2  -4    3.21    0.48
  14   2  -4   19.80    1.59
  16   2  -4   10.25    1.23
  18   2  -4   29.26    1.87
  20   2  -4    4.55    0.95
  22   2  -4   29.46    4.08
 -15   3  -4   26.46    1.95
 -13   3  -4    1.33    0.56
 -11   3  -4   65.46    2.78
  -9   3  -4    1.90    0.71
  -7   3  -4    5.66    0.98
  -5   3  -4   16.45    1.52
  -3   3  -4    3.22    0.54
  -1   3  -4    1.09    0.37
   1   3  -4  123.58    2.59
   3   3  -4   -0.23    0.25
   5   3  -4   74.53    1.77
   7   3  -4    0.90    0.41
   9   3  -4   63.87    2.11
  11   3  -4   45.57    1.75
  13   3  -4    2.54    0.55
  15   3  -4   22.06    2.24
  17   3  -4   71.35    3.64
  19   3  -4   10.79    1.69
  21   3  -4   52.62    3.32
 -12   4  -4   42.45    2.27
 -10   4  -4   13.39    1.16
  -8   4  -4   51.81    1.91
  -6   4  -4   26.66    2.05
  -4   4  -4   21.03    1.75
  -2   4  -4   15.54    1.47
   0   4  -4   19.11    1.53
   2   4  -4   60.53    1.79
   4   4  -4   18.84    1.40
   6   4  -4  142.03    3.67
   8   4  -4    1.07    0.49
  10   4  -4    7.95    0.95
  12   4  -4    0.92    0.49
  14   4  -4   11.76    1.19
  16   4  -4    6.57    1.46
  18   4  -4   20.61    2.55
  -9   5  -4    1.14    0.67
  -7   5  -4    2.88    1.02
  -5   5  -4    7.02    1.24
  -3   5  -4    0.27    0.68
  -1   5  -4   -0.04    0.59
   1   5  -4   60.91    2.59
   3   5  -4   -0.71    0.61
   5   5  -4   39.36    1.96
   7   5  -4    0.50    0.55
   9   5  -4   30.70    2.06
  11   5  -4   20.54    1.73
  13   5  -4    1.03    0.66
  -2   6  -4    3.34    1.51
  -2  -6  -3    6.93    1.63
   0  -6  -3   74.99    4.41
   2  -6  -3   -0.10    0.83
   4  -6  -3   27.05    3.10
   6  -6  -3    9.23    1.95
 -11  -5  -3    4.74    1.42
  -9  -5  -3   22.37    2.61
  -7  -5  -3   32.77    2.61
  -5  -5  -3  105.49    4.88
  -3  -5  -3   12.79    1.87
  -1  -5  -3    3.56    1.08
   1  -5  -3    0.82    0.77
   3  -5  -3    3.53    1.08
   5  -5  -3    3.92    1.19
   7  -5  -3    1.55    1.01
   9  -5  -3   87.86    4.75
  11  -5  -3   38.86    3.75
  13  -5  -3    0.16    1.06
 -14  -4  -3   22.59    2.66
 -12  -4  -3    2.81    1.13
 -10  -4  -3   25.60    2.53
  -8  -4  -3    9.03    1.53
  -6  -4  -3    0.29    0.61
  -4  -4  -3   67.80    3.36
  -2  -4  -3   16.89    1.85
   0  -4  -3  160.21    5.72
   2  -4  -3    2.51    0.83
   4  -4  -3   71.94    3.48
   6  -4  -3   20.80    2.18
   8  -4  -3   41.14    2.78
  10  -4  -3    0.19    0.76
  12  -4  -3  107.56    5.23
  14  -4  -3   48.15    3.73
  16  -4  -3    7.50    1.92
  18  -4  -3    9.74    2.33
 -15  -3  -3   48.09    3.04
 -13  -3  -3   -0.68    0.59
 -11  -3  -3   10.45    1.50
  -9  -3  -3   32.74    2.19
  -7  -3  -3   64.32    3.02
  -5  -3  -3  227.02    6.84
  -3  -3  -3   20.80    1.55
  -1  -3  -3   16.22    1.55
   1  -3  -3    3.42    0.79
   3  -3  -3   13.74    0.81
   5  -3  -3    6.58    0.62
   7  -3  -3    3.76    0.93
   9  -3  -3  172.20    6.23
  11  -3  -3   77.91    4.04
  13  -3  -3    0.65    0.81
  15  -3  -3   16.47    2.59
  17  -3  -3   21.96    3.09
  19  -3  -3    2.93    1.53
 -14  -2  -3   33.06    2.27
 -12  -2  -3    5.44    1.08
 -10  -2  -3   34.82    2.11
  -8  -2  -3   12.42    1.34
  -6  -2  -3   -0.13    0.33
  -4  -2  -3  139.00    4.31
  -2  -2  -3   40.40    1.81
   0  -2  -3  330.89    8.43
   2  -2  -3    2.53    0.37
   4  -2  -3  146.00    2.95
   6  -2  -3   42.70    1.29
   8  -2  -3   69.94    1.79
  10  -2  -3    0.79    0.65
  12  -2  -3  167.45    6.59
  14  -2  -3   80.76    4.61
  16  -2  -3   15.15    2.46
  18  -2  -3   19.57    2.86
  20  -2  -3   27.20    3.39
  22  -2  -3    1.29    1.28
 -13  -1  -3    0.13    0.52
 -11  -1  -3   14.04    1.48
  -9  -1  -3   54.38    2.35
  -7  -1  -3   99.89    3.28
  -5  -1  -3  384.45    9.28
  -3  -1  -3   35.42    1.41
  -1  -1  -3   29.78    0.90
   1  -1  -3    5.79    0.45
   3  -1  -3   28.12    0.91
   5  -1  -3   10.39    0.67
   7  -1  -3    6.48    0.57
   9  -1  -3  285.78    5.20
  11  -1  -3  120.58    2.73
  13  -1  -3    0.62    0.77
  15  -1  -3   23.46    2.83
  17  -1  -3   37.06    3.70
  19  -1  -3    9.33    1.91
  21  -1  -3    2.49    1.33
  23  -1  -3    0.10    1.18
 -16   0  -3    2.57    1.01
 -14   0  -3   43.99    2.00
 -12   0  -3    7.36    0.85
 -10   0  -3   49.25    2.21
  -8   0  -3   14.26    1.10
  -6   0  -3    1.01    0.40
  -4   0  -3  181.01    3.29
  -2   0  -3   54.76    1.19
   0   0  -3  467.86   10.55
   2   0  -3    3.63    0.36
   4   0  -3  215.88    3.27
   6   0  -3   61.45    1.27
   8   0  -3   97.17    1.70
  10   0  -3    3.23    0.52
  12   0  -3  225.81    4.73
  14   0  -3  112.97    2.96
  16   0  -3   19.63    1.20
  18   0  -3   33.52    3.49
  20   0  -3   32.63    3.65
  22   0  -3    0.87    1.28
 -19   1  -3    3.68    1.09
 -17   1  -3   41.22    1.88
 -15   1  -3   62.81    3.28
 -13   1  -3    0.05    0.49
 -11   1  -3   16.53    1.47
  -9   1  -3   50.68    1.56
  -7   1  -3   94.80    2.70
  -5   1  -3  367.37    6.95
  -3   1  -3   35.67    1.36
  -1   1  -3   29.53    1.17
   1   1  -3    4.90    0.54
   3   1  -3   28.26    0.77
   5   1  -3   10.20    0.57
   7   1  -3    4.54    0.41
   9   1  -3  273.80    4.28
  11   1  -3  120.80    2.30
  13   1  -3    0.50    0.37
  15   1  -3   24.05    1.42
  17   1  -3   37.42    1.86
  19   1  -3    5.93    0.94
  21   1  -3    1.36    1.20
  23   1  -3    0.25    1.19
 -18   2  -3    5.18    0.92
 -16   2  -3    3.60    0.66
 -14   2  -3   34.03    1.68
 -12   2  -3    6.74    0.99
 -10   2  -3   36.97    1.95
  -8   2  -3    9.96    1.10
  -6   2  -3    0.44    0.35
  -4   2  -3  134.55    2.67
  -2   2  -3   39.88    1.21
   0   2  -3  327.41    4.86
   2   2  -3    1.86    0.31
   4   2  -3  146.53    2.46
   6   2  -3   43.14    1.03
   8   2  -3   71.75    1.65
  10   2  -3    2.72    0.41
  12   2  -3  174.76    3.24
  14   2  -3   85.43    2.86
  16   2  -3   17.38    1.51
  18   2  -3   19.46    1.67
  20   2  -3   23.79    1.92
  22   2  -3    1.51    1.49
 -17   3  -3   33.82    3.24
 -15   3  -3   43.26    2.04
 -13   3  -3    0.08    0.41
 -11   3  -3    8.62    0.85
  -9   3  -3   37.62    1.87
  -7   3  -3   66.94    2.45
  -5   3  -3  223.78    5.12
  -3   3  -3   20.95    0.99
  -1   3  -3   13.87    0.83
   1   3  -3    3.36    0.45
   3   3  -3   12.99    0.78
   5   3  -3    6.77    0.57
   7   3  -3    2.88    0.52
   9   3  -3  174.35    3.87
  11   3  -3   75.37    2.32
  13   3  -3    0.00    0.34
  15   3  -3   16.90    1.89
  17   3  -3   23.11    2.34
  19   3  -3    5.52    1.27
  21   3  -3    1.39    1.04
 -14   4  -3   20.58    1.70
 -12   4  -3    5.90    0.96
 -10   4  -3   20.40    1.33
  -8   4  -3    9.61    0.90
  -6   4  -3    0.40    0.32
  -4   4  -3   75.32    1.98
  -2   4  -3   20.23    1.04
   0   4  -3  164.70    3.12
   2   4  -3    1.22    0.37
   4   4  -3   68.66    1.79
   6   4  -3   22.12    1.33
   8   4  -3   42.26    1.79
  10   4  -3    1.28    0.52
  12   4  -3   97.15    3.00
  14   4  -3   49.97    2.08
  16   4  -3    7.70    1.49
  18   4  -3   13.18    1.97
 -11   5  -3    5.24    1.32
  -9   5  -3   20.65    1.43
  -7   5  -3   32.71    1.63
  -5   5  -3  113.42    3.75
  -3   5  -3   10.44    1.31
  -1   5  -3    3.49    0.84
   1   5  -3    0.50    0.52
   3   5  -3    5.77    1.39
   5   5  -3    2.86    0.70
   7   5  -3    2.45    0.67
   9   5  -3   90.24    3.03
  11   5  -3   38.37    1.96
  13   5  -3    0.28    0.56
  15   5  -3   13.50    2.04
  -4   6  -3   41.17    2.56
  -2   6  -3    8.24    1.35
   0   6  -3   76.16    4.47
   2   6  -3    0.90    1.00
   4   6  -3   33.00    3.31
   6   6  -3    9.00    1.89
   8   6  -3   21.19    2.47
  -4  -6  -2    3.01    1.27
  -2  -6  -2   33.11    3.27
   0  -6  -2    3.13    1.25
   2  -6  -2   10.44    1.95
   4  -6  -2    3.81    1.39
   6  -6  -2   58.09    4.00
   8  -6  -2   10.38    2.11
 -11  -5  -2   46.99    3.37
  -9  -5  -2   28.74    2.91
  -7  -5  -2   10.29    1.77
  -5  -5  -2    1.58    0.89
  -3  -5  -2    0.18    0.60
  -1  -5  -2   69.83    3.78
   1  -5  -2   19.94    2.26
   3  -5  -2  146.52    5.99
   5  -5  -2    0.62    0.77
   7  -5  -2    0.12    0.66
   9  -5  -2    0.03    0.74
  11  -5  -2    3.87    1.39
  13  -5  -2   -0.35    0.99
 -16  -4  -2   -0.16    0.79
 -14  -4  -2   38.22    2.94
 -12  -4  -2   41.82    2.93
 -10  -4  -2   32.20    2.45
  -8  -4  -2   13.64    1.79
  -6  -4  -2    0.47    0.60
  -4  -4  -2    4.77    1.07
  -2  -4  -2   73.02    3.33
   0  -4  -2    9.52    1.38
   2  -4  -2   11.77    1.55
   4  -4  -2    7.25    1.27
   6  -4  -2  116.06    4.86
   8  -4  -2   16.54    2.04
  10  -4  -2   -0.14    0.37
  12  -4  -2   10.01    1.11
  14  -4  -2   32.81    1.93
  16  -4  -2    8.71    1.24
  18  -4  -2   42.02    4.52
 -17  -3  -2   37.56    3.03
 -15  -3  -2   39.32    2.93
 -13  -3  -2   11.52    1.74
 -11  -3  -2   80.74    3.73
  -9  -3  -2   52.69    2.83
  -7  -3  -2   23.18    1.66
  -5  -3  -2    2.85    0.73
  -3  -3  -2   -0.10    0.39
  -1  -3  -2  158.96    5.01
   1  -3  -2   53.20    2.47
   3  -3  -2  322.21    5.87
   5  -3  -2    2.69    0.31
   7  -3  -2    0.06    0.29
   9  -3  -2    0.50    0.36
  11  -3  -2    6.92    0.84
  13  -3  -2    0.33    0.44
  15  -3  -2   74.01    2.80
  17  -3  -2   10.37    2.21
  19  -3  -2   18.42    2.96
  21  -3  -2    3.21    1.70
 -18  -2  -2   31.24    2.63
 -16  -2  -2    2.01    0.93
 -14  -2  -2   60.70    3.28
 -12  -2  -2   79.11    3.59
 -10  -2  -2   45.61    2.45
  -8  -2  -2   31.14    1.83
  -6  -2  -2    0.48    0.41
  -4  -2  -2   11.07    1.09
  -2  -2  -2  139.21    4.14
   0  -2  -2   13.98    0.98
   2  -2  -2   24.87    1.36
   4  -2  -2   14.18    0.49
   6  -2  -2  245.53    3.57
   8  -2  -2   31.31    1.26
  10  -2  -2    0.17    0.30
  12  -2  -2   16.29    1.28
  14  -2  -2   51.66    2.15
  16  -2  -2   19.84    2.69
  18  -2  -2   61.70    4.35
  20  -2  -2   69.52    4.66
  22  -2  -2   -0.01    1.19
 -17  -1  -2   50.61    3.06
 -13  -1  -2   20.19    1.46
  -9  -1  -2   86.01    3.22
  -7  -1  -2   36.30    1.74
  -5  -1  -2    5.19    0.67
  -3  -1  -2   -0.04    0.18
  -1  -1  -2  299.13    7.31
   1  -1  -2  110.86    2.11
   3  -1  -2  621.89    9.70
   5  -1  -2    6.17    0.46
   7  -1  -2    0.26    0.20
   9  -1  -2    0.65    0.22
  11  -1  -2    7.48    0.54
  13  -1  -2    2.05    1.02
  15  -1  -2  126.58    5.83
  17  -1  -2   18.44    2.58
  19  -1  -2   28.05    3.23
  21  -1  -2    4.07    1.48
  23  -1  -2   23.54    3.12
 -20   0  -2    1.79    1.11
 -18   0  -2   39.35    1.77
 -16   0  -2    1.42    0.61
 -14   0  -2   85.51    2.68
  -4   0  -2   15.80    0.88
  -2   0  -2  204.29    3.40
   0   0  -2   24.12    1.03
   2   0  -2   35.59    0.83
   4   0  -2   21.67    0.61
   6   0  -2  376.27    5.87
   8   0  -2   43.84    1.37
  10   0  -2    0.12    0.24
  12   0  -2   21.02    1.04
  14   0  -2   66.05    2.04
  16   0  -2   18.95    2.55
  18   0  -2   86.38    4.89
  20   0  -2   91.27    5.38
  22   0  -2   -0.28    1.03
 -21   1  -2    5.11    0.96
 -19   1  -2    0.30    0.66
 -17   1  -2   53.35    2.03
 -15   1  -2   58.36    2.01
 -13   1  -2   17.89    1.38
 -11   1  -2  124.17    3.39
  -9   1  -2   82.04    1.88
  -7   1  -2   37.40    1.11
  -5   1  -2    5.21    0.46
  -3   1  -2   -0.15    0.21
  -1   1  -2  308.78    5.20
   1   1  -2  110.98    1.83
   3   1  -2  614.67    8.03
   5   1  -2    6.21    0.25
   7   1  -2    0.62    0.19
   9   1  -2    0.70    0.21
  11   1  -2    8.17    0.57
  13   1  -2    0.73    0.45
  15   1  -2  110.41    3.12
  17   1  -2   18.14    1.26
  19   1  -2   27.39    3.23
  21   1  -2    3.31    1.45
  23   1  -2   10.61    2.36
 -18   2  -2   33.19    1.83
 -16   2  -2    0.61    0.46
 -14   2  -2   64.76    2.19
 -12   2  -2   83.37    2.04
 -10   2  -2   48.85    1.89
  -8   2  -2   32.96    1.48
  -6   2  -2    0.52    0.25
  -4   2  -2   11.76    0.62
  -2   2  -2  137.02    2.33
   0   2  -2   15.06    0.60
   2   2  -2   24.14    0.73
   4   2  -2   14.49    0.55
   6   2  -2  246.43    3.58
   8   2  -2   33.47    0.75
  10   2  -2    0.10    0.23
  12   2  -2   18.43    0.94
  14   2  -2   55.53    1.63
  16   2  -2   21.47    1.62
  18   2  -2   70.64    2.65
  20   2  -2   66.44    2.70
  22   2  -2    0.73    1.31
 -17   3  -2   41.76    2.01
 -15   3  -2   40.03    1.88
 -13   3  -2   10.82    1.09
 -11   3  -2   79.98    2.08
  -9   3  -2   56.14    1.62
  -7   3  -2   22.01    0.99
  -5   3  -2    2.99    0.57
  -3   3  -2    0.09    0.22
  -1   3  -2  157.50    2.72
   1   3  -2   51.41    1.30
   3   3  -2  335.59    6.14
   5   3  -2    3.01    0.38
   7   3  -2    0.33    0.23
   9   3  -2    0.68    0.36
  11   3  -2    4.96    0.68
  13   3  -2    0.05    0.33
  15   3  -2   78.24    3.54
  17   3  -2    9.09    1.45
  19   3  -2   25.37    2.51
  21   3  -2    3.73    1.19
 -16   4  -2    1.71    1.15
 -14   4  -2   44.41    2.08
 -12   4  -2   44.25    1.99
 -10   4  -2   30.39    1.30
  -8   4  -2   16.09    1.05
  -6   4  -2    0.02    0.28
  -4   4  -2    7.71    0.69
  -2   4  -2   68.33    1.72
   0   4  -2    7.48    0.65
   2   4  -2   14.96    0.90
   4   4  -2    7.94    0.66
   6   4  -2  126.81    3.21
   8   4  -2   15.84    1.23
  10   4  -2    0.19    0.37
  12   4  -2    9.28    1.02
  14   4  -2   32.92    1.67
  16   4  -2   10.16    1.64
  18   4  -2   45.00    3.03
 -11   5  -2   45.25    2.20
  -9   5  -2   29.58    1.98
  -7   5  -2   10.67    0.96
  -5   5  -2    1.59    0.63
  -3   5  -2    0.40    0.53
  -1   5  -2   75.28    2.72
   1   5  -2   23.39    1.69
   3   5  -2  150.36    3.15
   5   5  -2    0.87    0.49
   7   5  -2    0.22    0.43
   9   5  -2   -0.19    0.43
  11   5  -2    3.73    0.80
  13   5  -2    0.76    0.60
  15   5  -2   45.63    3.22
  -6   6  -2   -0.31    0.71
  -4   6  -2    2.68    0.88
  -2   6  -2   35.00    2.38
   0   6  -2    3.59    0.88
   2   6  -2    5.95    1.49
   4   6  -2    3.93    1.29
   6   6  -2   53.84    3.67
   8   6  -2    7.76    1.15
  -6  -6  -1   57.20    3.84
  -4  -6  -1    0.38    0.92
  -2  -6  -1    1.89    1.10
   0  -6  -1    0.18    0.79
   2  -6  -1   -0.24    0.80
   4  -6  -1    0.00    0.92
   6  -6  -1   65.49    4.25
   8  -6  -1    0.63    1.07
 -13  -5  -1   -0.09    0.83
 -11  -5  -1   18.63    2.46
  -9  -5  -1    0.19    0.80
  -7  -5  -1   22.67    2.53
  -5  -5  -1    0.80    0.69
  -3  -5  -1  115.63    5.02
  -1  -5  -1    0.82    0.71
   1  -5  -1    0.40    0.67
   3  -5  -1    0.40    0.69
   5  -5  -1   51.94    3.23
   7  -5  -1    1.62    0.97
   9  -5  -1   74.37    4.17
  11  -5  -1   74.97    4.44
  13  -5  -1   13.09    2.40
  15  -5  -1   -0.35    1.14
 -16  -4  -1    0.36    0.98
 -14  -4  -1    0.37    0.81
 -12  -4  -1   11.36    1.78
 -10  -4  -1   31.44    2.36
  -8  -4  -1  104.77    4.52
  -6  -4  -1  129.54    4.97
  -4  -4  -1    1.77    0.72
  -2  -4  -1    2.41    0.74
   0  -4  -1   -0.04    0.39
   2  -4  -1   -0.18    0.38
   4  -4  -1    1.17    0.62
   6  -4  -1  143.31    3.43
   8  -4  -1   -0.04    0.33
  10  -4  -1   30.54    1.60
  12  -4  -1   39.90    1.87
  14  -4  -1    5.75    0.95
  16  -4  -1    2.13    0.80
  18  -4  -1   -0.04    0.66
 -19  -3  -1    7.02    1.70
 -17  -3  -1    7.24    1.64
 -15  -3  -1    0.62    0.75
 -13  -3  -1   -0.05    0.53
 -11  -3  -1   38.61    2.54
  -9  -3  -1    1.87    0.70
  -7  -3  -1   42.11    2.31
  -5  -3  -1    5.14    0.92
  -3  -3  -1  260.41    7.37
  -1  -3  -1    0.93    0.49
   1  -3  -1    0.37    0.21
   3  -3  -1    2.28    0.37
   5  -3  -1  106.38    2.51
   7  -3  -1    5.59    0.64
   9  -3  -1  142.59    3.44
  11  -3  -1  140.61    3.64
  13  -3  -1   27.53    1.60
  15  -3  -1    0.94    0.53
  17  -3  -1    0.75    0.60
  19  -3  -1   14.58    1.57
  21  -3  -1   54.13    4.31
 -20  -2  -1   63.55    4.01
 -18  -2  -1   32.46    2.72
 -16  -2  -1    1.85    0.88
 -14  -2  -1    0.82    0.69
 -12  -2  -1   17.99    1.93
 -10  -2  -1   53.14    2.67
  -8  -2  -1  186.86    3.70
  -6  -2  -1  253.51    4.54
  -4  -2  -1    2.48    0.54
  -2  -2  -1    3.50    0.59
   0  -2  -1    1.05    0.17
   2  -2  -1    0.52    0.19
   4  -2  -1    0.17    0.18
   6  -2  -1  283.29    5.25
   8  -2  -1    0.30    0.29
  10  -2  -1   50.32    1.79
  12  -2  -1   74.99    2.48
  14  -2  -1    8.85    1.04
  16  -2  -1    8.47    1.08
  18  -2  -1    0.03    0.47
  20  -2  -1    2.47    1.36
  22  -2  -1   22.33    3.08
 -17  -1  -1    8.90    1.39
 -15  -1  -1    0.81    0.62
 -13  -1  -1    0.07    0.22
 -11  -1  -1   60.09    2.43
  -9  -1  -1    4.04    0.63
  -5  -1  -1   11.17    0.84
  -3  -1  -1  499.14   11.63
  -1  -1  -1    1.89    0.36
   1  -1  -1    0.74    0.15
   3  -1  -1    5.11    0.25
   5  -1  -1  200.95    2.80
   7  -1  -1   11.06    0.38
   9  -1  -1  224.84    3.82
  11  -1  -1  233.04    3.60
  13  -1  -1   38.25    1.72
  15  -1  -1    0.16    0.41
  17  -1  -1    0.50    0.88
  19  -1  -1   26.31    3.02
  21  -1  -1   71.55    4.66
  23  -1  -1   27.91    3.48
 -22   0  -1    1.35    1.13
 -20   0  -1   77.91    4.07
 -18   0  -1   42.68    1.79
 -16   0  -1    1.75    0.47
 -14   0  -1    0.03    0.27
 -12   0  -1   21.18    1.43
   0   0  -1    1.53    0.23
   2   0  -1    0.17    0.10
   4   0  -1    0.16    0.18
   6   0  -1  409.95    5.56
   8   0  -1    0.46    0.18
  10   0  -1   68.55    1.46
  12   0  -1  106.61    2.08
  14   0  -1   10.50    0.87
  16   0  -1   12.82    2.05
  18   0  -1    0.45    0.95
  20   0  -1    2.70    1.37
  22   0  -1   29.53    3.52
 -21   1  -1    0.19    0.60
 -19   1  -1   10.38    1.11
 -17   1  -1   11.02    1.44
 -15   1  -1    0.43    0.36
 -13   1  -1    0.15    0.27
 -11   1  -1   56.24    1.46
  -9   1  -1    4.09    0.38
  -7   1  -1   63.20    1.27
  -5   1  -1   10.95    0.49
  -3   1  -1  499.99    6.42
  -1   1  -1    2.81    0.24
   1   1  -1    1.14    0.17
   3   1  -1    5.03    0.24
   5   1  -1  201.81    2.86
   7   1  -1   10.94    0.37
   9   1  -1  226.44    3.42
  11   1  -1  229.24    3.76
  13   1  -1   38.47    1.24
  15   1  -1    0.76    0.44
  17   1  -1    0.58    0.44
  19   1  -1   22.87    2.86
  21   1  -1   73.80    4.81
  23   1  -1   19.91    3.08
 -20   2  -1   64.81    3.52
 -18   2  -1   32.40    1.66
 -16   2  -1    0.97    0.46
 -14   2  -1    0.11    0.31
 -12   2  -1   17.03    1.15
 -10   2  -1   53.94    1.40
  -8   2  -1  185.08    3.06
  -6   2  -1  251.84    4.81
  -4   2  -1    2.94    0.26
  -2   2  -1    2.42    0.26
   0   2  -1    0.73    0.18
   2   2  -1    0.06    0.13
   4   2  -1    0.12    0.14
   6   2  -1  290.04    4.08
   8   2  -1    0.24    0.17
  10   2  -1   49.37    1.36
  12   2  -1   76.23    1.87
  14   2  -1    9.51    0.79
  16   2  -1    8.85    1.05
  18   2  -1    0.20    0.51
  20   2  -1    3.16    0.82
  22   2  -1   22.22    3.19
 -19   3  -1    8.38    1.12
 -17   3  -1    5.42    0.86
 -15   3  -1    0.17    0.40
 -13   3  -1    0.16    0.36
 -11   3  -1   34.97    1.54
  -9   3  -1    1.83    0.37
  -7   3  -1   38.38    1.18
  -5   3  -1    5.82    0.52
  -3   3  -1  261.76    3.31
  -1   3  -1    1.09    0.20
   1   3  -1    0.59    0.17
   3   3  -1    1.57    0.31
   5   3  -1  103.08    2.02
   7   3  -1    5.72    0.50
   9   3  -1  140.28    3.30
  11   3  -1  143.05    3.44
  13   3  -1   24.44    1.37
  15   3  -1    0.89    0.49
  17   3  -1    0.56    0.67
  19   3  -1   20.39    2.16
  21   3  -1   55.95    3.35
 -16   4  -1    1.06    0.66
 -14   4  -1    0.67    0.50
 -12   4  -1    7.77    0.98
 -10   4  -1   27.82    1.55
  -8   4  -1  102.32    2.33
  -6   4  -1  125.59    2.61
  -4   4  -1    1.06    0.32
  -2   4  -1    2.86    0.42
   0   4  -1    0.09    0.26
   2   4  -1    0.25    0.25
   4   4  -1   -0.27    0.21
   6   4  -1  144.76    2.81
   8   4  -1   -0.38    0.29
  10   4  -1   28.14    1.44
  12   4  -1   37.80    1.74
  14   4  -1    8.03    1.02
  16   4  -1    6.23    0.96
  18   4  -1    0.26    0.80
 -13   5  -1   -0.68    0.51
 -11   5  -1   20.30    1.63
  -9   5  -1    0.83    0.53
  -7   5  -1   24.33    1.36
  -5   5  -1    1.21    0.55
  -3   5  -1  115.79    3.46
  -1   5  -1    0.47    0.49
   1   5  -1    0.62    0.45
   3   5  -1    0.60    0.34
   5   5  -1   47.64    1.97
   7   5  -1    1.63    0.56
   9   5  -1   69.33    2.54
  11   5  -1   69.92    2.65
  13   5  -1   14.98    1.42
  15   5  -1   -0.35    0.82
  -6   6  -1   60.36    2.68
  -4   6  -1    1.49    0.70
  -2   6  -1    2.31    0.78
   0   6  -1    0.31    0.61
   2   6  -1    0.50    0.61
   4   6  -1   -0.29    0.73
   6   6  -1   70.44    4.25
   8   6  -1    1.26    0.68
  -8  -6   0    2.79    1.32
  -6  -6   0    0.18    0.95
  -4  -6   0    5.37    1.53
  -2  -6   0    0.27    0.84
   0  -6   0  206.64    7.87
   2  -6   0   -0.35    0.84
   4  -6   0    2.17    1.15
   6  -6   0    1.03    1.11
   8  -6   0    5.55    1.60
 -13  -5   0    9.70    1.98
 -11  -5   0   11.48    1.99
  -9  -5   0   20.84    2.48
  -7  -5   0   20.76    2.41
  -5  -5   0   59.29    3.41
  -3  -5   0   18.97    2.17
  -1  -5   0    4.37    1.11
   1  -5   0    4.10    1.05
   3  -5   0   23.22    2.40
   5  -5   0   61.24    3.45
   7  -5   0   23.09    2.54
   9  -5   0   20.18    2.50
  11  -5   0    8.91    1.85
  13  -5   0    6.93    1.10
  15  -5   0   39.63    2.37
 -16  -4   0   39.32    3.29
 -14  -4   0   83.08    4.47
 -12  -4   0   31.08    2.52
 -10  -4   0    4.01    1.06
  -8  -4   0    5.32    1.17
  -6  -4   0    3.75    0.93
  -4  -4   0    7.82    1.29
  -2  -4   0    0.03    0.49
   0  -4   0  460.11   12.14
   2  -4   0   -0.34    0.39
   4  -4   0   10.69    0.89
   6  -4   0    4.53    0.65
   8  -4   0    7.14    0.84
  10  -4   0    4.43    0.73
  12  -4   0   30.84    1.76
  14  -4   0   78.37    2.90
  16  -4   0   43.50    2.28
 -19  -3   0    3.43    1.32
 -17  -3   0   65.95    4.07
 -15  -3   0   61.41    3.78
 -13  -3   0   12.95    1.84
 -11  -3   0   16.28    1.88
  -9  -3   0   37.43    2.42
  -7  -3   0   58.69    2.76
  -5  -3   0  135.75    4.53
  -3  -3   0   46.85    1.25
  -1  -3   0    6.22    0.50
   1  -3   0    6.43    0.53
   3  -3   0   50.23    1.46
   5  -3   0  133.05    2.98
   7  -3   0   53.50    1.77
   9  -3   0   42.48    1.67
  11  -3   0   18.33    1.32
  13  -3   0   11.49    1.19
  15  -3   0   62.19    2.56
  17  -3   0   60.71    2.61
  19  -3   0    3.68    0.95
 -20  -2   0   16.61    2.45
 -18  -2   0    1.07    0.89
 -16  -2   0   59.66    3.69
 -14  -2   0  130.72    5.51
 -12  -2   0   46.57    1.78
 -10  -2   0   11.28    0.91
  -8  -2   0   11.41    0.74
  -6  -2   0    7.37    0.57
  -4  -2   0   14.17    0.60
  -2  -2   0    0.15    0.12
   0  -2   0  969.62   15.27
   2  -2   0    0.13    0.17
   4  -2   0   13.44    0.65
   6  -2   0    5.60    0.56
   8  -2   0   11.43    0.89
  10  -2   0    9.87    0.92
  12  -2   0   46.00    1.88
  14  -2   0  128.94    3.68
  16  -2   0   63.29    2.51
  18  -2   0    0.32    0.56
  20  -2   0   15.40    1.58
  22  -2   0   -0.94    1.02
 -19  -1   0    2.42    0.98
 -17  -1   0   81.85    3.64
 -15  -1   0  102.31    3.89
 -13  -1   0   19.53    0.89
 -11  -1   0   29.55    1.01
  -9  -1   0   77.84    1.65
  -7  -1   0  101.48    1.92
  -5  -1   0  252.59    6.05
  -3  -1   0   94.00    1.79
  -1  -1   0   10.40    0.36
   1  -1   0    9.98    0.38
   3  -1   0   91.60    1.85
   5  -1   0  261.31    6.93
   7  -1   0  103.53    1.71
   9  -1   0   73.80    1.43
  11  -1   0   29.40    0.88
  13  -1   0   16.31    1.28
  15  -1   0   92.47    2.98
  17  -1   0   77.43    2.79
  19  -1   0    2.60    0.76
  21  -1   0   32.26    3.64
 -22   0   0    0.43    0.97
 -20   0   0   17.30    2.17
 -18   0   0    1.08    0.43
 -16   0   0   82.61    2.35
 -14   0   0  168.43    2.85
 -12   0   0   56.17    1.52
 -10   0   0   14.73    0.67
  -8   0   0   16.28    0.62
   2   0   0    0.50    0.05
   4   0   0   18.99    0.34
   6   0   0   10.09    0.33
   8   0   0   14.94    0.46
  10   0   0   13.78    0.57
  12   0   0   57.87    1.28
  14   0   0  165.14    3.05
  16   0   0   77.84    4.41
  18   0   0    0.19    0.85
  20   0   0   20.98    2.81
  22   0   0   -0.86    0.85
 -21   1   0   40.91    1.96
 -19   1   0    3.81    0.73
 -17   1   0   83.32    2.50
 -15   1   0   99.99    2.53
 -13   1   0   19.30    0.95
 -11   1   0   29.74    0.90
  -9   1   0   74.57    1.46
  -7   1   0  104.03    1.74
  -5   1   0  254.84    3.49
  -3   1   0   95.19    1.44
  -1   1   0    9.96    0.26
   1   1   0   10.54    0.25
   3   1   0   93.38    1.79
   5   1   0  258.87    3.69
   7   1   0  103.48    1.58
   9   1   0   74.18    1.33
  11   1   0   28.69    0.81
  13   1   0   18.26    0.91
  15   1   0   98.56    2.79
  17   1   0   77.92    2.55
  19   1   0    2.92    1.30
  21   1   0   32.98    3.63
 -20   2   0   16.23    1.46
 -18   2   0    0.06    0.56
 -16   2   0   62.93    2.12
 -14   2   0  135.62    3.25
 -12   2   0   46.25    1.61
 -10   2   0    9.83    0.62
  -8   2   0   10.75    0.62
  -6   2   0    7.19    0.47
  -4   2   0   13.63    0.37
  -2   2   0    0.31    0.11
   0   2   0  974.49   10.40
   2   2   0    0.06    0.10
   4   2   0   13.50    0.54
   6   2   0    6.99    0.47
   8   2   0   11.59    0.64
  10   2   0    9.84    0.60
  12   2   0   50.37    1.49
  14   2   0  137.79    2.89
  16   2   0   66.60    2.39
  18   2   0    0.67    0.54
  20   2   0   14.95    1.44
 -19   3   0    3.63    1.07
 -17   3   0   54.83    2.22
 -15   3   0   65.11    2.30
 -13   3   0   13.52    1.14
 -11   3   0   19.34    1.28
  -9   3   0   44.27    1.26
  -7   3   0   54.96    1.38
  -5   3   0  132.12    2.39
  -3   3   0   46.08    0.93
  -1   3   0    6.09    0.38
   1   3   0    5.42    0.35
   3   3   0   45.98    1.19
   5   3   0  133.33    2.41
   7   3   0   58.00    1.43
   9   3   0   43.75    1.27
  11   3   0   19.30    1.31
  13   3   0   13.99    1.18
  15   3   0   73.87    2.46
  17   3   0   59.14    3.17
  19   3   0    2.73    0.99
 -18   4   0   -0.49    0.84
 -16   4   0   44.88    2.08
 -14   4   0   71.51    2.60
 -12   4   0   26.68    1.59
 -10   4   0    5.21    0.76
  -8   4   0    6.04    0.61
  -6   4   0    4.15    0.51
  -4   4   0    8.32    0.66
  -2   4   0    0.03    0.22
   0   4   0  441.05    6.43
   2   4   0    0.26    0.25
   4   4   0    8.43    0.69
   6   4   0    3.15    0.47
   8   4   0    5.78    0.77
  10   4   0    5.06    0.76
  12   4   0   28.97    1.54
  14   4   0   78.78    2.73
  16   4   0   41.27    2.08
 -13   5   0    7.98    1.08
 -11   5   0   10.78    1.22
  -9   5   0   18.66    1.49
  -7   5   0   25.53    1.36
  -5   5   0   60.50    2.30
  -3   5   0   21.46    1.56
  -1   5   0    3.51    0.73
   1   5   0    3.87    0.77
   3   5   0   23.75    1.19
   5   5   0   60.47    1.80
   7   5   0   23.02    1.62
   9   5   0   19.18    1.53
  11   5   0   10.30    1.20
  13   5   0    4.83    0.95
  15   5   0   42.45    3.89
  -8   6   0    2.55    1.25
  -6   6   0    1.49    1.10
  -4   6   0    4.16    0.93
  -2   6   0    0.21    0.54
   0   6   0  203.11    5.33
   2   6   0    0.57    0.59
   4   6   0    4.85    1.34
   6   6   0    0.62    0.91
   8   6   0    2.48    0.75
  -8  -6   1   -0.33    0.89
  -6  -6   1   70.80    4.28
  -4  -6   1   -0.02    0.91
  -2  -6   1    0.18    0.75
   0  -6   1    0.22    0.91
   2  -6   1    1.69    1.16
   4  -6   1    2.68    1.14
   6  -6   1   62.08    3.93
 -13  -5   1   11.49    2.14
 -11  -5   1   76.28    4.41
  -9  -5   1   67.29    3.96
  -7  -5   1    0.45    0.74
  -5  -5   1   49.60    3.10
  -3  -5   1    0.41    0.68
  -1  -5   1    0.75    0.73
   1  -5   1    0.23    0.66
   3  -5   1  119.24    4.95
   5  -5   1    0.93    0.85
   7  -5   1   25.03    2.59
   9  -5   1    1.10    0.61
  11  -5   1   22.60    2.28
  13  -5   1    0.39    0.82
 -18  -4   1   -0.16    1.03
 -16  -4   1    3.45    1.46
 -14  -4   1    6.23    1.52
 -12  -4   1   34.37    2.69
 -10  -4   1   24.91    2.55
  -8  -4   1    1.25    0.66
  -6  -4   1  143.90    5.37
  -4  -4   1    0.75    0.60
  -2  -4   1    0.65    0.52
   0  -4   1    0.31    0.32
   2  -4   1    2.17    0.45
   4  -4   1    1.46    0.42
   6  -4   1  130.70    3.26
   8  -4   1  106.29    2.99
  10  -4   1   28.22    1.61
  12  -4   1   11.37    1.22
  14  -4   1   -0.14    0.58
  16  -4   1    0.91    0.85
 -19  -3   1   13.94    2.42
 -17  -3   1   -0.12    0.86
 -15  -3   1    0.53    0.82
 -13  -3   1   32.18    2.48
 -11  -3   1  142.50    5.53
  -9  -3   1  140.70    5.14
  -7  -3   1    6.93    0.70
  -5  -3   1  109.18    2.43
  -3  -3   1    1.88    0.35
  -1  -3   1    1.03    0.30
   1  -3   1    0.83    0.29
   3  -3   1  257.13    4.87
   5  -3   1    6.24    0.64
   7  -3   1   38.36    1.48
   9  -3   1    1.90    0.50
  11  -3   1   36.19    1.67
  13  -3   1    0.11    0.39
  15  -3   1    0.21    0.45
  17  -3   1    8.24    1.48
  19  -3   1    4.32    1.21
 -22  -2   1   20.88    2.87
 -20  -2   1    1.68    1.18
 -16  -2   1    8.36    1.37
 -14  -2   1    8.51    1.26
 -12  -2   1   80.10    3.14
 -10  -2   1   49.81    1.71
  -8  -2   1    0.45    0.29
  -6  -2   1  295.24    5.25
  -4  -2   1   -0.22    0.18
  -2  -2   1    0.24    0.16
   0  -2   1    0.92    0.16
   2  -2   1    2.31    0.25
   4  -2   1    2.35    0.27
   6  -2   1  250.79    4.81
   8  -2   1  182.46    3.96
  10  -2   1   50.35    1.85
  12  -2   1   19.88    1.24
  14  -2   1   -0.06    0.39
  16  -2   1    1.14    0.53
  18  -2   1   32.60    1.95
  20  -2   1   68.75    3.83
 -21  -1   1   78.88    4.08
 -19  -1   1   25.68    2.48
 -17  -1   1    1.05    0.71
 -15  -1   1    1.14    0.64
 -13  -1   1   40.56    1.31
 -11  -1   1  228.44    4.14
  -9  -1   1  229.84    5.11
  -7  -1   1   11.05    0.49
  -5  -1   1  198.41    3.24
  -3  -1   1    4.91    0.24
  -1  -1   1    0.77    0.12
   1  -1   1    2.61    0.20
   3  -1   1  485.99    6.34
   5  -1   1   10.38    0.46
   7  -1   1   59.53    1.33
   9  -1   1    3.75    0.42
  11  -1   1   56.43    1.95
  13  -1   1   -0.18    0.32
  15  -1   1    0.62    0.45
  17  -1   1    8.68    1.06
  19  -1   1    6.47    1.03
 -22   0   1   28.66    2.91
 -20   0   1    2.36    0.98
 -18   0   1    0.79    0.43
 -16   0   1    9.21    0.87
 -14   0   1    8.53    0.77
 -12   0   1  102.85    1.88
 -10   0   1   66.32    1.30
  -8   0   1    0.34    0.14
  -6   0   1  425.96    5.31
  -4   0   1    0.00    0.10
  -2   0   1    0.25    0.08
   0   0   1    2.24    0.14
   2   0   1    3.08    0.15
   4   0   1    4.60    0.22
   6   0   1  363.26    3.51
   8   0   1  253.60    2.66
  10   0   1   65.73    1.04
  12   0   1   21.02    0.70
  14   0   1    0.05    0.23
  16   0   1    0.64    0.50
  18   0   1   41.26    3.05
  20   0   1   81.53    4.43
  22   0   1    1.55    1.19
 -21   1   1   73.40    2.63
 -19   1   1   25.77    1.52
 -17   1   1    1.11    0.43
 -15   1   1    0.70    0.29
 -13   1   1   39.51    1.14
 -11   1   1  233.27    4.25
  -9   1   1  225.28    3.20
  -7   1   1   11.62    0.39
  -5   1   1  200.34    2.75
  -3   1   1    5.48    0.28
  -1   1   1    0.66    0.12
   1   1   1    3.17    0.20
   3   1   1  494.43    5.33
   5   1   1   10.83    0.30
   7   1   1   61.24    0.88
   9   1   1    3.85    0.27
  11   1   1   59.25    1.14
  13   1   1    0.23    0.23
  15   1   1    0.61    0.35
  17   1   1    9.27    1.01
  19   1   1   13.76    2.19
  21   1   1    1.46    1.13
 -22   2   1   20.71    2.20
 -20   2   1    1.76    0.60
 -18   2   1    0.18    0.39
 -16   2   1    7.97    0.72
 -14   2   1    8.58    0.85
 -12   2   1   75.94    2.13
 -10   2   1   48.08    1.55
  -8   2   1    0.05    0.17
  -6   2   1  284.66    4.06
  -4   2   1    0.34    0.11
  -2   2   1    0.21    0.11
   0   2   1    1.10    0.16
   2   2   1    2.67    0.22
   4   2   1    3.10    0.22
   6   2   1  257.63    3.14
   8   2   1  185.86    2.48
  10   2   1   52.30    1.42
  12   2   1   17.07    0.95
  14   2   1    0.13    0.36
  16   2   1    1.67    0.57
  18   2   1   34.76    2.27
  20   2   1   73.38    3.51
 -19   3   1   15.97    1.44
 -17   3   1    0.96    0.42
 -15   3   1   -0.12    0.36
 -13   3   1   23.83    1.37
 -11   3   1  146.10    3.43
  -9   3   1  139.17    2.55
  -7   3   1    6.19    0.50
  -5   3   1  103.90    2.00
  -3   3   1    1.49    0.21
  -1   3   1    0.42    0.17
   1   3   1    1.17    0.21
   3   3   1  256.03    3.99
   5   3   1    5.76    0.51
   7   3   1   41.53    1.24
   9   3   1    3.07    0.44
  11   3   1   40.05    1.67
  13   3   1    0.42    0.40
  15   3   1    1.37    0.55
  17   3   1    4.12    1.02
  19   3   1    4.90    1.20
 -18   4   1   -0.35    0.44
 -16   4   1    5.54    0.91
 -14   4   1    5.03    0.82
 -12   4   1   36.70    1.70
 -10   4   1   27.74    1.41
  -8   4   1    0.54    0.31
  -6   4   1  147.91    2.77
  -4   4   1    0.06    0.23
  -2   4   1    0.06    0.23
   0   4   1    0.41    0.25
   2   4   1    1.92    0.37
   4   4   1    1.06    0.34
   6   4   1  126.88    2.62
   8   4   1  102.31    2.37
  10   4   1   26.48    1.58
  12   4   1   11.45    1.18
  14   4   1   -0.14    0.46
  16   4   1    1.41    0.64
 -15   5   1    0.31    0.62
 -13   5   1   14.10    1.38
 -11   5   1   73.66    2.64
  -9   5   1   69.00    2.47
  -7   5   1    0.94    0.51
  -5   5   1   52.67    2.12
  -3   5   1    0.54    0.50
  -1   5   1   -0.10    0.38
   1   5   1    0.28    0.48
   3   5   1  118.74    2.64
   5   5   1    1.71    0.47
   7   5   1   20.41    1.52
   9   5   1    1.01    0.54
  11   5   1   21.00    1.69
  13   5   1    0.40    0.59
  -8   6   1    0.08    0.98
  -6   6   1   70.72    4.28
  -4   6   1    0.46    0.61
  -2   6   1   -0.06    0.53
   0   6   1   -0.53    0.52
   2   6   1    0.57    0.60
   4   6   1    0.23    0.75
   6   6   1   56.69    3.75
   8   6   1   43.05    2.85
  -8  -6   2    9.73    1.92
  -6  -6   2   56.57    3.76
  -4  -6   2    3.88    1.38
  -2  -6   2    6.94    1.57
   0  -6   2    2.54    1.24
 -13  -5   2    0.46    1.06
 -11  -5   2    3.38    1.37
  -9  -5   2    0.24    0.76
  -7  -5   2    0.64    0.75
  -5  -5   2    0.01    0.61
  -3  -5   2  154.49    5.82
  -1  -5   2   20.73    2.18
   1  -5   2   78.02    3.72
   3  -5   2   -0.59    0.61
   5  -5   2    0.68    0.53
   7  -5   2   13.56    1.69
   9  -5   2   29.62    2.30
  11  -5   2   45.92    2.98
 -18  -4   2   45.87    4.58
 -16  -4   2   12.95    2.37
 -14  -4   2   25.43    3.05
 -12  -4   2   10.81    1.85
 -10  -4   2   -0.09    0.58
  -8  -4   2   18.42    2.07
  -6  -4   2  122.41    4.79
  -4  -4   2    9.93    0.86
  -2  -4   2   14.77    0.94
   0  -4   2    7.34    0.74
   2  -4   2   69.48    2.09
   4  -4   2    6.38    0.74
   6  -4   2    0.33    0.40
   8  -4   2   13.55    1.18
  10  -4   2   27.23    2.10
  12  -4   2   46.72    2.83
  14  -4   2   44.90    2.90
 -19  -3   2   19.35    2.87
 -17  -3   2   11.26    2.16
 -15  -3   2   71.13    4.32
 -13  -3   2    0.25    0.67
 -11  -3   2    4.30    0.71
  -9  -3   2    0.46    0.39
  -7  -3   2    0.59    0.36
  -5  -3   2    2.57    0.45
  -3  -3   2  339.48    6.03
  -1  -3   2   53.13    1.16
   1  -3   2  155.82    2.56
   3  -3   2   -0.14    0.17
   5  -3   2    3.71    0.54
   7  -3   2   20.29    1.10
   9  -3   2   60.90    2.07
  11  -3   2   82.64    2.71
  13  -3   2   11.25    1.56
  15  -3   2   42.80    2.69
  17  -3   2   38.13    2.76
 -18  -2   2   73.76    3.65
 -16  -2   2   18.59    1.97
 -14  -2   2   52.33    2.70
 -12  -2   2   17.73    1.67
 -10  -2   2    0.45    0.51
  -8  -2   2   32.25    1.30
  -6  -2   2  251.29    3.50
  -4  -2   2   14.87    0.48
  -2  -2   2   25.17    0.65
   0  -2   2   14.79    0.50
   2  -2   2  139.06    2.20
   4  -2   2   11.77    0.53
   6  -2   2    0.72    0.24
   8  -2   2   32.74    1.08
  10  -2   2   51.03    1.45
  12  -2   2   82.68    2.62
  14  -2   2   57.70    2.97
  16  -2   2    1.62    0.75
  18  -2   2   29.57    2.73
 -23  -1   2   14.50    2.17
 -21  -1   2    4.05    1.25
 -19  -1   2   30.45    2.36
 -17  -1   2   19.04    2.02
 -15  -1   2  114.21    4.38
 -13  -1   2    0.70    0.33
 -11  -1   2    8.90    0.68
  -9  -1   2    0.33    0.22
  -7  -1   2   -0.08    0.16
  -5  -1   2    6.82    0.41
  -3  -1   2  616.93    9.32
  -1  -1   2  109.69    1.66
   1  -1   2  295.83    4.05
   3  -1   2    0.07    0.11
   5  -1   2    5.70    0.38
   7  -1   2   38.16    0.91
   9  -1   2   83.83    1.78
  11  -1   2  123.64    2.45
  13  -1   2   18.86    1.20
  15  -1   2   60.49    2.24
  17  -1   2   47.31    2.83
  19  -1   2    0.12    0.72
 -22   0   2   -0.08    0.93
 -20   0   2   89.78    4.39
 -18   0   2   87.02    2.55
 -16   0   2   21.09    1.18
 -14   0   2   65.11    1.92
 -12   0   2   19.91    0.94
 -10   0   2    0.42    0.16
  -8   0   2   43.35    0.89
  -6   0   2  376.15    4.90
  -4   0   2   21.72    0.55
  -2   0   2   34.65    0.93
   0   0   2   23.41    0.54
   2   0   2  205.44    3.65
   4   0   2   15.75    0.38
   6   0   2    0.72    0.15
   8   0   2   46.77    0.83
  10   0   2   63.96    1.07
  12   0   2  104.12    1.54
  14   0   2   78.77    1.53
  16   0   2    0.66    0.46
  18   0   2   39.88    1.92
 -23   1   2   14.52    2.28
 -21   1   2    4.74    0.82
 -19   1   2   28.05    1.59
 -17   1   2   19.91    1.36
 -15   1   2  114.02    2.89
 -13   1   2    1.19    0.29
 -11   1   2    8.24    0.55
  -9   1   2    0.37    0.20
  -7   1   2    0.17    0.15
  -5   1   2    6.24    0.29
  -3   1   2  609.77    7.73
  -1   1   2  113.84    1.33
   1   1   2  305.15    3.12
   3   1   2    0.19    0.09
   5   1   2    6.18    0.29
   7   1   2   36.94    0.69
   9   1   2   86.18    1.23
  11   1   2  128.02    1.70
  13   1   2   17.59    0.63
  15   1   2   58.28    1.77
  17   1   2   51.28    2.03
  19   1   2    0.53    0.96
 -22   2   2   -0.22    0.51
 -20   2   2   71.08    2.57
 -18   2   2   68.47    2.41
 -16   2   2   18.37    0.99
 -14   2   2   51.96    1.48
 -12   2   2   16.83    0.85
 -10   2   2   -0.09    0.19
  -8   2   2   32.55    0.76
  -6   2   2  247.69    3.11
  -4   2   2   14.50    0.47
  -2   2   2   24.19    0.51
   0   2   2   15.15    0.47
   2   2   2  137.73    1.93
   4   2   2   11.93    0.47
   6   2   2    0.42    0.16
   8   2   2   32.47    0.83
  10   2   2   49.67    1.47
  12   2   2   80.25    2.01
  14   2   2   62.67    2.26
  16   2   2    1.94    0.63
  18   2   2   31.93    2.26
 -19   3   2   19.84    1.59
 -17   3   2   11.25    0.93
 -15   3   2   78.36    2.04
 -13   3   2    0.77    0.33
 -11   3   2    5.16    0.70
  -9   3   2    0.12    0.31
  -7   3   2    0.07    0.21
  -5   3   2    2.92    0.38
  -3   3   2  333.14    4.11
  -1   3   2   51.85    1.06
   1   3   2  156.03    2.24
   3   3   2   -0.03    0.15
   5   3   2    3.70    0.47
   7   3   2   22.35    1.00
   9   3   2   54.02    1.62
  11   3   2   81.79    2.11
  13   3   2   13.04    1.25
  15   3   2   45.48    2.07
  17   3   2   42.13    2.24
 -18   4   2   43.96    1.74
 -16   4   2   12.86    1.04
 -14   4   2   31.08    1.39
 -12   4   2    9.48    0.81
 -10   4   2    0.11    0.35
  -8   4   2   18.99    1.32
  -6   4   2  122.55    2.51
  -4   4   2    8.42    0.68
  -2   4   2   15.34    0.68
   0   4   2    8.34    0.66
   2   4   2   69.26    1.76
   4   4   2    5.50    0.58
   6   4   2    0.67    0.32
   8   4   2   14.79    0.99
  10   4   2   28.49    1.65
  12   4   2   47.03    2.10
  14   4   2   44.30    2.27
  16   4   2   -0.55    1.04
 -15   5   2   43.86    2.19
 -13   5   2   -0.25    0.52
 -11   5   2    2.53    0.70
  -9   5   2   -0.07    0.49
  -7   5   2    0.08    0.46
  -5   5   2    0.83    0.52
  -3   5   2  158.20    4.10
  -1   5   2   21.23    1.60
   1   5   2   72.09    2.61
   3   5   2    0.26    0.34
   5   5   2    1.70    0.48
   7   5   2    8.43    0.86
   9   5   2   29.75    1.80
  11   5   2   45.21    2.34
  -8   6   2    7.93    1.83
  -6   6   2   58.51    3.86
  -4   6   2    5.69    1.04
  -2   6   2    8.39    1.19
   0   6   2    3.66    0.88
   2   6   2   31.91    2.21
   4   6   2    1.62    0.78
   6   6   2    0.84    0.90
  -8  -6   3   20.93    2.67
  -6  -6   3   12.07    2.09
 -15  -5   3    9.10    2.23
 -13  -5   3   -0.18    1.04
 -11  -5   3   40.42    3.19
  -9  -5   3   91.05    4.56
  -7  -5   3    3.75    1.12
  -5  -5   3    2.71    1.00
  -3  -5   3    4.67    1.17
  -1  -5   3    1.12    0.73
   1  -5   3    3.11    0.88
   3  -5   3   12.75    1.61
   5  -5   3  115.74    4.52
   7  -5   3   33.73    2.45
   9  -5   3   24.68    2.46
  11  -5   3    3.14    1.11
 -18  -4   3    8.03    2.25
 -16  -4   3    8.79    2.13
 -14  -4   3   50.34    3.77
 -12  -4   3  101.60    5.00
 -10  -4   3    1.56    0.89
  -8  -4   3   42.71    2.63
  -6  -4   3   19.44    1.19
  -4  -4   3   70.88    2.14
  -2  -4   3    0.83    0.39
   0  -4   3  159.02    3.64
   2  -4   3   17.98    1.11
   4  -4   3   80.71    3.26
   6  -4   3    0.38    0.50
   8  -4   3   11.55    1.57
  10  -4   3   21.82    2.19
  12  -4   3    4.00    1.13
  14  -4   3   21.74    2.42
 -19  -3   3    2.97    1.51
 -17  -3   3   21.47    3.03
 -15  -3   3   13.41    2.31
 -13  -3   3    0.84    0.53
 -11  -3   3   78.33    2.56
  -9  -3   3  171.38    4.00
  -7  -3   3    4.22    0.60
  -5  -3   3    7.55    0.72
  -3  -3   3   14.06    0.64
  -1  -3   3    2.86    0.34
   1  -3   3   13.95    0.65
   3  -3   3   20.91    0.79
   5  -3   3  224.45    3.70
   7  -3   3   61.58    1.99
   9  -3   3   34.56    2.19
  11  -3   3    7.43    1.25
  13  -3   3   -0.77    0.46
  15  -3   3   44.77    2.89
 -20  -2   3   26.15    2.61
 -18  -2   3   20.71    2.20
 -16  -2   3   19.25    2.02
 -14  -2   3   92.55    3.76
 -12  -2   3  168.07    5.48
 -10  -2   3    2.60    0.74
  -8  -2   3   72.81    1.50
  -6  -2   3   42.83    1.02
  -4  -2   3  147.82    2.34
  -2  -2   3    2.44    0.27
   0  -2   3  322.79    5.45
   2  -2   3   38.31    0.95
   4  -2   3  137.08    2.37
   6  -2   3    0.16    0.23
   8  -2   3   12.82    0.93
  10  -2   3   35.56    1.45
  12  -2   3    5.30    0.71
  14  -2   3   29.77    2.19
  16  -2   3    3.13    0.97
  18  -2   3    3.33    1.10
 -23  -1   3    0.45    0.93
 -21  -1   3    2.17    1.02
 -19  -1   3    3.40    1.10
 -17  -1   3   33.16    2.35
 -15  -1   3   23.56    2.16
 -13  -1   3    0.21    0.30
 -11  -1   3  119.14    2.59
  -9  -1   3  278.78    4.86
  -7  -1   3    4.56    0.45
  -5  -1   3   10.78    0.44
  -3  -1   3   26.81    0.74
  -1  -1   3    4.93    0.25
   1  -1   3   27.95    0.81
   3  -1   3   34.19    0.75
   5  -1   3  370.25    4.58
   7  -1   3   97.47    1.69
   9  -1   3   53.86    1.22
  11  -1   3   14.59    1.03
  13  -1   3   -0.20    0.30
  15  -1   3   62.49    3.11
  17  -1   3   38.56    2.60
  19  -1   3    2.05    1.03
 -22   0   3    2.15    1.13
 -20   0   3   30.57    2.83
 -18   0   3   29.10    1.46
 -16   0   3   20.59    1.22
 -14   0   3  112.15    2.79
 -12   0   3  222.19    5.83
 -10   0   3    3.92    0.33
  -8   0   3   92.97    1.64
  -6   0   3   57.76    1.16
  -4   0   3  207.63    3.05
  -2   0   3    3.44    0.32
   0   0   3  466.86    5.44
   2   0   3   56.08    1.06
   4   0   3  183.45    2.57
   6   0   3    0.95    0.19
   8   0   3   15.97    0.57
  10   0   3   48.40    1.06
  12   0   3    7.13    0.50
  14   0   3   42.29    1.35
  16   0   3    1.66    0.74
  18   0   3    3.79    1.09
 -23   1   3    0.46    0.95
 -21   1   3    1.29    0.59
 -19   1   3    7.82    0.97
 -17   1   3   34.05    1.57
 -15   1   3   25.87    1.27
 -13   1   3    0.53    0.25
 -11   1   3  117.54    2.17
  -9   1   3  280.44    4.91
  -7   1   3    5.34    0.32
  -5   1   3   10.26    0.43
  -3   1   3   25.99    0.73
  -1   1   3    5.03    0.31
   1   1   3   29.64    0.66
   3   1   3   36.04    0.69
   5   1   3  377.30    4.07
   7   1   3  103.03    1.51
   9   1   3   54.32    1.06
  11   1   3   15.30    0.64
  13   1   3   -0.04    0.24
  15   1   3   58.26    1.80
 -22   2   3    0.22    0.60
 -20   2   3   28.31    1.86
 -18   2   3   21.47    1.53
 -16   2   3   16.49    1.28
 -14   2   3   86.84    2.00
 -12   2   3  172.47    3.04
 -10   2   3    3.04    0.40
  -8   2   3   70.55    1.28
  -6   2   3   42.70    0.92
  -4   2   3  146.53    2.08
  -2   2   3    2.50    0.24
   0   2   3  331.27    4.04
   2   2   3   39.12    0.91
   4   2   3  141.57    2.12
   6   2   3    0.32    0.19
   8   2   3   13.24    0.63
  10   2   3   39.83    1.37
  12   2   3    4.73    0.62
  14   2   3   32.32    1.77
  16   2   3    2.51    0.73
  18   2   3    4.83    1.24
 -21   3   3    4.23    1.38
 -19   3   3    5.30    0.88
 -17   3   3   25.95    1.71
 -15   3   3   15.99    1.04
 -13   3   3   -0.22    0.27
 -11   3   3   78.61    1.90
  -9   3   3  171.99    3.09
  -7   3   3    3.18    0.34
  -5   3   3    7.10    0.46
  -3   3   3   13.31    0.63
  -1   3   3    2.80    0.32
   1   3   3   14.71    0.63
   3   3   3   20.34    0.72
   5   3   3  227.50    3.93
   7   3   3   62.67    1.77
   9   3   3   39.34    1.42
  11   3   3   10.11    0.91
  13   3   3   -0.13    0.43
  15   3   3   43.39    2.15
  17   3   3   32.43    2.27
 -18   4   3   16.03    1.49
 -16   4   3   10.13    0.96
 -14   4   3   48.87    1.69
 -12   4   3   99.00    2.41
 -10   4   3    1.19    0.48
  -8   4   3   43.34    1.78
  -6   4   3   20.96    1.03
  -4   4   3   68.38    1.75
  -2   4   3    0.45    0.23
   0   4   3  160.13    3.06
   2   4   3   20.83    1.04
   4   4   3   71.48    1.95
   6   4   3    0.19    0.30
   8   4   3    9.22    0.89
  10   4   3   20.75    1.63
  12   4   3    3.39    0.81
  14   4   3   18.54    1.68
 -15   5   3    7.71    1.17
 -13   5   3    0.02    0.58
 -11   5   3   38.36    1.96
  -9   5   3   87.00    2.94
  -7   5   3    2.02    0.63
  -5   5   3    3.01    0.70
  -3   5   3    5.42    0.82
  -1   5   3    1.61    0.59
   1   5   3    3.09    0.73
   3   5   3   13.31    1.05
   5   5   3  106.70    2.71
   7   5   3   32.65    1.60
   9   5   3   20.93    1.75
  -6   6   3    5.88    1.62
  -4   6   3   31.23    3.21
  -2   6   3   -0.41    0.55
   0   6   3   66.76    2.88
   2   6   3    6.74    1.14
   4   6   3   36.93    3.47
 -13  -5   4    2.09    1.32
 -11  -5   4   22.46    2.67
  -9  -5   4   31.96    2.59
  -7  -5   4    1.17    0.86
  -1  -5   4   59.08    3.10
   1  -5   4    0.77    0.70
   3  -5   4    0.14    0.65
   5  -5   4    8.46    1.49
   7  -5   4    4.09    1.11
   9  -5   4    1.05    0.89
 -18  -4   4   23.38    3.37
 -16  -4   4    7.72    1.97
 -14  -4   4   11.58    2.16
 -12  -4   4    1.59    0.96
 -10  -4   4    6.45    0.90
  -8  -4   4    1.33    0.50
  -6  -4   4  143.26    3.51
  -4  -4   4   17.08    1.23
  -2  -4   4   57.61    2.82
   0  -4   4   20.35    1.87
   2  -4   4   16.07    1.17
   4  -4   4   20.16    1.35
   6  -4   4   24.53    2.26
   8  -4   4   56.94    3.13
  10  -4   4   12.38    1.76
  12  -4   4   42.44    2.93
 -19  -3   4    9.80    2.39
 -17  -3   4   65.62    2.83
 -15  -3   4   25.06    1.89
 -13  -3   4    2.30    0.67
 -11  -3   4   44.94    1.87
  -9  -3   4   69.73    2.21
  -7  -3   4    2.03    0.46
  -5  -3   4   75.27    2.12
  -3  -3   4    0.29    0.21
  -1  -3   4  123.45    2.24
   1  -3   4    1.14    0.34
   3  -3   4    2.92    0.51
   5  -3   4   17.52    1.17
   7  -3   4    3.70    0.59
   9  -3   4    2.75    0.58
  11  -3   4   58.19    3.15
  13  -3   4    1.43    0.82
  15  -3   4   30.68    2.85
 -22  -2   4   33.87    3.10
 -20  -2   4    2.01    1.02
 -18  -2   4   29.07    2.27
 -16  -2   4   14.34    1.80
 -14  -2   4   19.03    1.93
 -12  -2   4    1.12    0.65
 -10  -2   4   15.66    1.60
  -8  -2   4    2.03    0.35
  -6  -2   4  262.52    3.95
  -4  -2   4   28.53    0.84
  -2  -2   4  101.10    1.81
   0  -2   4   35.03    0.89
   2  -2   4   29.63    1.15
   4  -2   4   34.83    1.30
   6  -2   4   49.25    1.65
   8  -2   4   90.37    2.49
  10  -2   4   21.18    1.23
  12  -2   4   66.68    2.22
  14  -2   4   13.43    1.76
  16  -2   4   18.53    2.12
 -23  -1   4   19.22    2.44
 -21  -1   4   70.87    3.86
 -19  -1   4   15.88    2.02
 -17  -1   4   97.43    4.29
 -15  -1   4   32.62    2.21
 -13  -1   4    3.41    0.53
 -11  -1   4   71.48    1.94
  -9  -1   4   98.92    2.34
  -7  -1   4    4.37    0.37
  -5  -1   4  117.22    2.47
  -3  -1   4    0.04    0.13
  -1  -1   4  188.07    3.05
   1  -1   4    2.64    0.35
   3  -1   4    6.19    0.52
   5  -1   4   29.61    1.00
   7  -1   4    6.23    0.56
   9  -1   4    4.25    0.52
  11  -1   4   84.67    2.07
  13  -1   4    0.99    0.39
  15  -1   4   36.19    1.66
  17  -1   4    0.79    0.82
 -22   0   4   38.99    2.98
 -20   0   4    4.18    1.23
 -18   0   4   33.00    1.56
 -16   0   4   15.27    1.16
 -14   0   4   24.96    1.21
 -12   0   4    4.37    0.59
 -10   0   4   22.22    1.01
  -8   0   4    2.26    0.31
  -6   0   4  340.26    4.76
  -4   0   4   35.74    0.97
  -2   0   4  132.41    2.85
   0   0   4   49.91    1.06
   2   0   4   42.10    0.99
   4   0   4   48.02    1.12
   6   0   4   64.20    1.37
   8   0   4  116.23    2.09
  10   0   4   25.45    0.93
  12   0   4   77.17    1.91
  14   0   4   17.98    1.07
  16   0   4   20.62    1.47
 -23   1   4   18.68    2.40
 -21   1   4   71.01    2.60
 -19   1   4   15.44    1.34
 -17   1   4  102.01    2.95
 -15   1   4   37.03    1.56
 -13   1   4    4.62    0.64
 -11   1   4   74.32    1.63
  -9   1   4  101.31    1.94
  -7   1   4    4.45    0.35
  -5   1   4  118.74    2.11
  -3   1   4    0.50    0.17
  -1   1   4  193.04    2.61
   1   1   4    2.57    0.27
   3   1   4    7.73    0.43
   5   1   4   30.36    0.84
   7   1   4    6.49    0.42
   9   1   4    4.12    0.39
  11   1   4   88.96    1.84
  13   1   4    1.07    0.34
  15   1   4   35.89    2.05
 -22   2   4   36.02    2.09
 -20   2   4    2.74    0.73
 -18   2   4   26.63    1.76
 -16   2   4   14.62    1.24
 -14   2   4   20.73    1.03
 -12   2   4    2.57    0.42
 -10   2   4   16.44    0.90
  -8   2   4    2.28    0.37
  -6   2   4  263.53    3.45
  -4   2   4   28.32    0.77
  -2   2   4  102.52    1.64
   0   2   4   35.28    1.09
   2   2   4   31.28    0.89
   4   2   4   35.58    0.97
   6   2   4   52.27    1.24
   8   2   4   91.92    1.81
  10   2   4   19.15    1.21
  12   2   4   62.65    1.98
  14   2   4   15.76    1.18
  16   2   4   18.48    1.68
 -21   3   4   51.48    3.54
 -19   3   4   10.93    1.26
 -17   3   4   73.70    2.60
 -15   3   4   25.36    1.26
 -13   3   4    3.59    0.51
 -11   3   4   44.75    1.41
  -9   3   4   62.23    1.65
  -7   3   4    1.44    0.34
  -5   3   4   75.48    1.76
  -3   3   4    0.17    0.23
  -1   3   4  120.23    2.05
   1   3   4    1.15    0.26
   3   3   4    2.96    0.37
   5   3   4   19.68    1.06
   7   3   4    4.08    0.58
   9   3   4    3.48    0.59
  11   3   4   57.06    1.94
  13   3   4    1.13    0.64
  15   3   4   29.67    2.15
 -18   4   4   21.10    1.72
 -16   4   4    7.33    0.82
 -14   4   4   13.34    1.29
 -12   4   4    1.20    0.54
 -10   4   4    8.32    0.99
  -8   4   4    1.74    0.52
  -6   4   4  136.49    3.48
  -4   4   4   17.40    1.02
  -2   4   4   60.92    1.41
   0   4   4   18.15    1.09
   2   4   4   14.52    1.00
   4   4   4   19.06    1.20
   6   4   4   25.16    1.42
   8   4   4   52.08    1.87
  10   4   4   14.36    1.18
  12   4   4   36.92    2.19
 -13   5   4    2.07    0.70
 -11   5   4   23.85    1.76
  -9   5   4   36.59    1.95
  -7   5   4    1.93    0.98
  -5   5   4   36.39    2.76
  -3   5   4    0.35    0.48
  -1   5   4   65.27    2.56
   1   5   4    0.53    0.57
   3   5   4    2.16    0.54
   5   5   4    8.69    0.93
   7   5   4    3.14    0.65
   9   5   4    3.59    1.15
  -2   6   4   31.38    3.21
   0   6   4    9.45    1.97
  -3  -5   5   16.06    1.93
  -1  -5   5   33.49    2.41
   1  -5   5   72.83    3.73
   3  -5   5    2.29    0.94
   5  -5   5   17.18    2.17
 -18  -4   5   14.22    2.61
 -16  -4   5    1.85    1.31
 -14  -4   5   29.25    3.10
 -12  -4   5   19.41    1.59
 -10  -4   5   57.64    2.20
  -8  -4   5   11.93    1.61
  -6  -4   5   14.36    1.71
  -4  -4   5    0.45    0.59
  -2  -4   5   -0.37    0.54
   0  -4   5    7.88    1.30
   2  -4   5   50.07    1.91
   4  -4   5    0.79    0.44
   6  -4   5   73.20    2.51
   8  -4   5   26.25    2.54
  10  -4   5    2.17    0.95
 -19  -3   5    1.53    0.84
 -17  -3   5    4.72    0.98
 -15  -3   5   95.83    3.28
 -13  -3   5   -0.18    0.44
 -11  -3   5   63.09    2.29
  -9  -3   5    6.42    0.81
  -7  -3   5   66.42    2.10
  -5  -3   5   29.42    1.93
  -3  -3   5   31.47    1.31
  -1  -3   5   70.74    2.07
   1  -3   5  131.44    3.16
   3  -3   5    7.26    0.79
   5  -3   5   27.64    1.38
   7  -3   5   26.12    1.36
   9  -3   5    1.11    0.46
  11  -3   5    3.05    0.68
  13  -3   5    6.36    1.36
 -22  -2   5   14.56    2.17
 -20  -2   5   14.30    2.05
 -18  -2   5   23.15    2.44
 -16  -2   5    2.62    0.93
 -14  -2   5   52.04    2.88
 -12  -2   5   26.00    1.96
 -10  -2   5   85.78    3.63
  -8  -2   5   18.21    0.81
  -6  -2   5   22.21    0.81
  -4  -2   5    2.97    0.49
  -2  -2   5    0.34    0.30
   0  -2   5   17.25    0.98
   2  -2   5   86.62    2.30
   4  -2   5    1.25    0.39
   6  -2   5  121.84    3.07
   8  -2   5   45.65    1.75
  10  -2   5    4.97    0.72
  12  -2   5   21.46    1.50
  14  -2   5   33.15    1.73
 -23  -1   5   10.19    1.83
 -21  -1   5    7.27    1.53
 -19  -1   5    4.49    1.18
 -17  -1   5    4.50    1.11
 -15  -1   5  123.44    4.86
 -13  -1   5    1.26    0.41
 -11  -1   5   90.60    2.38
  -9  -1   5   10.39    0.84
  -7  -1   5  103.17    2.01
  -5  -1   5   48.93    1.31
  -3  -1   5   50.55    1.33
  -1  -1   5  107.82    2.21
   1  -1   5  198.61    3.44
   3  -1   5   11.16    0.75
   5  -1   5   42.82    1.32
   7  -1   5   41.22    1.33
   9  -1   5    3.25    0.49
  11  -1   5    2.40    0.49
  13  -1   5    8.77    0.96
  15  -1   5   34.39    1.71
  17  -1   5   32.06    2.91
 -22   0   5    8.26    1.66
 -20   0   5   15.38    2.04
 -18   0   5   22.46    1.38
 -16   0   5    2.60    0.54
 -14   0   5   66.25    2.08
 -12   0   5   34.36    1.37
 -10   0   5  113.10    2.73
  -8   0   5   22.20    0.84
  -6   0   5   30.04    0.97
  -4   0   5    2.82    0.39
  -2   0   5    0.80    0.25
   0   0   5   22.82    0.86
   2   0   5  102.35    1.84
   4   0   5    0.88    0.26
   6   0   5  153.77    2.56
   8   0   5   60.21    1.47
  10   0   5    6.68    0.63
  12   0   5   24.93    1.12
  14   0   5   40.10    1.82
  16   0   5    1.21    0.62
 -21   1   5    7.20    1.02
 -19   1   5    1.84    0.59
 -17   1   5    6.56    0.85
 -15   1   5  132.46    3.35
 -13   1   5    1.41    0.43
 -11   1   5   94.74    1.96
  -9   1   5   11.27    0.70
  -7   1   5  103.39    1.73
  -5   1   5   49.26    1.10
  -3   1   5   49.44    1.11
  -1   1   5  112.67    1.88
   1   1   5  208.94    2.96
   3   1   5   11.07    0.58
   5   1   5   43.87    1.10
   7   1   5   42.74    1.43
   9   1   5    4.15    0.58
  11   1   5    1.45    0.42
  13   1   5    7.61    0.82
  15   1   5   35.29    2.22
 -22   2   5    9.46    1.24
 -20   2   5   14.84    1.38
 -18   2   5   19.71    1.53
 -16   2   5    2.65    0.62
 -14   2   5   53.26    1.94
 -12   2   5   27.73    1.05
 -10   2   5   88.05    1.96
  -8   2   5   18.43    0.84
  -6   2   5   22.63    0.75
  -4   2   5    2.43    0.32
  -2   2   5    0.82    0.31
   0   2   5   16.31    0.96
   2   2   5   85.74    2.01
   4   2   5    1.02    0.34
   6   2   5  124.67    2.67
   8   2   5   45.68    1.29
  10   2   5    4.44    0.66
  12   2   5   19.68    1.75
  14   2   5   35.39    2.19
  16   2   5   -0.29    1.27
 -19   3   5    1.39    0.68
 -17   3   5    5.61    0.92
 -15   3   5   98.30    2.98
 -13   3   5    0.62    0.35
 -11   3   5   63.13    1.72
  -9   3   5    7.45    0.83
  -7   3   5   69.30    2.18
  -5   3   5   30.35    1.14
  -3   3   5   33.71    1.20
  -1   3   5   70.36    1.82
   1   3   5  131.88    2.71
   3   3   5    8.23    0.62
   5   3   5   30.56    1.43
   7   3   5   26.20    1.39
   9   3   5    3.22    0.63
  11   3   5    1.94    0.59
  13   3   5    5.22    1.00
 -16   4   5    1.12    0.88
 -14   4   5   37.01    1.85
 -12   4   5   22.00    1.59
 -10   4   5   56.92    2.18
  -8   4   5    8.85    1.00
  -6   4   5    9.98    1.04
  -4   4   5    1.07    0.39
  -2   4   5    0.46    0.34
   0   4   5    8.15    1.07
   2   4   5   48.07    1.69
   4   4   5    0.72    0.41
   6   4   5   71.51    2.25
   8   4   5   25.71    1.60
  10   4   5    2.71    0.69
 -13   5   5    0.28    0.62
 -11   5   5   33.22    1.94
  -9   5   5    3.01    0.74
  -7   5   5   33.92    3.21
  -5   5   5   10.63    1.88
  -3   5   5   16.86    1.57
  -1   5   5   34.96    2.11
   1   5   5   71.94    2.91
   3   5   5    3.64    0.69
   5   5   5   17.17    1.34
   7   5   5   17.71    2.48
  -7  -5   6   33.98    2.63
  -5  -5   6   49.69    3.15
  -3  -5   6    1.80    1.01
  -1  -5   6    3.92    1.18
   1  -5   6   42.60    3.01
   3  -5   6    2.44    1.06
 -14  -4   6    5.87    1.46
 -12  -4   6   42.40    2.91
 -10  -4   6    6.54    1.30
  -8  -4   6   14.55    1.89
  -6  -4   6   15.08    1.85
  -4  -4   6  114.04    4.64
  -2  -4   6    7.47    1.35
   0  -4   6    0.52    0.69
   2  -4   6   23.70    1.60
   4  -4   6   15.52    1.36
   6  -4   6    1.09    0.56
   8  -4   6   11.53    1.23
 -19  -3   6    4.32    1.01
 -17  -3   6    0.23    0.59
 -15  -3   6    3.38    0.82
 -13  -3   6   32.57    2.45
 -11  -3   6    7.29    1.34
  -9  -3   6   40.09    2.54
  -7  -3   6   53.76    2.83
  -5  -3   6   88.29    3.82
  -3  -3   6    1.71    0.48
  -1  -3   6    6.06    0.73
   1  -3   6   79.83    2.43
   3  -3   6    2.78    0.59
   5  -3   6   33.93    1.63
   7  -3   6    2.83    0.65
   9  -3   6   85.76    2.87
  11  -3   6   21.54    1.67
 -20  -2   6   98.03    4.78
 -18  -2   6   21.02    2.32
 -16  -2   6   42.85    2.78
 -14  -2   6    9.17    1.43
 -12  -2   6   70.88    3.47
 -10  -2   6    6.43    1.17
  -8  -2   6   22.73    1.14
  -6  -2   6   32.09    1.35
  -4  -2   6  186.05    5.41
  -2  -2   6   10.55    0.79
   0  -2   6    2.22    0.43
   2  -2   6   47.41    1.52
   4  -2   6   20.95    1.19
   6  -2   6    2.32    0.54
   8  -2   6   15.62    1.26
  10  -2   6   20.94    1.49
  12  -2   6   26.76    1.75
 -21  -1   6   43.21    3.03
 -19  -1   6    3.61    1.11
 -17  -1   6   -0.19    0.59
 -15  -1   6    6.64    1.29
 -13  -1   6   53.63    1.88
 -11  -1   6    9.67    0.88
  -9  -1   6   60.12    1.90
  -7  -1   6   77.44    2.17
  -5  -1   6  131.08    2.55
  -3  -1   6    2.81    0.44
  -1  -1   6   10.02    0.74
   1  -1   6  126.41    2.57
   3  -1   6    5.02    0.57
   5  -1   6   48.06    1.51
   7  -1   6    3.55    0.51
   9  -1   6  111.95    2.63
  11  -1   6   27.93    1.31
  13  -1   6   24.17    1.63
  15  -1   6   12.10    1.84
 -22   0   6    0.18    0.86
 -20   0   6  106.56    4.87
 -18   0   6   24.05    1.45
 -16   0   6   50.57    1.90
 -14   0   6   11.70    1.02
 -12   0   6   95.55    2.59
 -10   0   6   10.80    0.91
  -8   0   6   29.30    1.04
  -6   0   6   43.09    1.27
  -4   0   6  234.05    3.81
  -2   0   6   13.83    0.80
   0   0   6    1.96    0.36
   2   0   6   63.05    1.59
   4   0   6   24.35    1.01
   6   0   6    3.15    0.46
   8   0   6   20.06    1.04
  10   0   6   24.51    1.49
  12   0   6   27.43    1.62
  14   0   6    1.27    0.61
 -21   1   6   45.12    2.09
 -19   1   6    3.75    0.72
 -17   1   6    0.02    0.41
 -15   1   6    4.25    0.70
 -13   1   6   56.49    1.93
 -11   1   6    9.54    0.88
  -9   1   6   62.43    1.56
  -7   1   6   80.25    1.80
  -5   1   6  128.67    2.17
  -3   1   6    3.10    0.36
  -1   1   6    8.53    0.56
   1   1   6  128.18    2.17
   3   1   6    4.32    0.56
   5   1   6   49.95    1.60
   7   1   6    4.10    0.56
   9   1   6  118.78    2.80
  11   1   6   32.22    1.50
  13   1   6   23.75    1.99
  15   1   6    8.67    1.74
 -20   2   6   94.31    3.16
 -18   2   6   19.08    1.53
 -16   2   6   46.58    1.92
 -14   2   6    9.08    0.94
 -12   2   6   73.92    1.86
 -10   2   6    7.96    0.68
  -8   2   6   24.94    1.01
  -6   2   6   33.68    0.98
  -4   2   6  185.60    3.42
  -2   2   6   11.32    0.85
   0   2   6    1.80    0.42
   2   2   6   48.73    1.55
   4   2   6   22.64    1.08
   6   2   6    2.85    0.51
   8   2   6   18.97    1.19
  10   2   6   20.48    1.84
  12   2   6   25.38    2.06
  14   2   6    2.25    1.25
 -19   3   6    4.84    0.89
 -17   3   6    0.67    0.56
 -15   3   6    3.79    0.73
 -13   3   6   35.92    1.69
 -11   3   6    8.31    0.97
  -9   3   6   43.44    1.78
  -7   3   6   49.59    1.93
  -5   3   6   88.43    2.19
  -3   3   6    1.95    0.43
  -1   3   6    7.03    0.69
   1   3   6   80.15    2.09
   3   3   6    2.66    0.49
   5   3   6   33.14    2.29
   7   3   6    3.42    0.86
   9   3   6   89.32    3.45
  11   3   6   24.17    2.06
 -16   4   6   30.03    2.76
 -14   4   6    5.88    0.97
 -12   4   6   43.45    2.01
 -10   4   6    4.93    0.83
  -8   4   6   19.41    1.49
  -6   4   6   17.59    1.39
  -4   4   6  112.88    2.68
  -2   4   6    9.33    1.15
   0   4   6    1.20    0.60
   2   4   6   28.24    2.05
   4   4   6   14.19    1.59
   6   4   6    1.46    0.76
   8   4   6    9.88    1.46
 -11   5   6    2.95    0.83
  -9   5   6   24.97    1.84
  -7   5   6   37.53    2.95
  -5   5   6   46.06    3.40
  -3   5   6    3.37    1.24
  -1   5   6    3.01    0.91
   1   5   6   42.61    2.52
   3   5   6    1.73    0.83
  -7  -5   7    1.16    1.03
  -5  -5   7    0.75    0.94
  -3  -5   7   -0.69    0.78
 -14  -4   7   25.65    2.68
 -12  -4   7    6.84    1.47
 -10  -4   7   76.26    3.90
  -8  -4   7    8.97    1.57
  -6  -4   7   11.24    1.70
  -4  -4   7    7.29    1.35
  -2  -4   7   32.01    2.44
   0  -4   7   24.07    2.45
   2  -4   7   25.00    2.53
   4  -4   7   50.45    2.21
   6  -4   7    0.16    0.83
 -17  -3   7   55.41    3.43
 -15  -3   7   14.64    2.02
 -13  -3   7   54.94    3.31
 -11  -3   7    2.42    0.92
  -9  -3   7    0.58    0.66
  -7  -3   7    2.75    0.86
  -5  -3   7   -0.13    0.52
  -3  -3   7    0.45    0.42
  -1  -3   7   60.97    2.16
   1  -3   7    0.31    0.41
   3  -3   7   38.06    1.76
   5  -3   7    7.67    0.98
   7  -3   7   29.29    1.87
 -20  -2   7    3.61    1.32
 -18  -2   7   24.76    2.58
 -16  -2   7    2.52    0.96
 -14  -2   7   30.57    2.39
 -12  -2   7   13.77    1.74
 -10  -2   7  113.16    4.63
  -8  -2   7   19.49    1.29
  -6  -2   7   15.08    1.15
  -4  -2   7   15.00    0.98
  -2  -2   7   51.93    1.63
   0  -2   7   32.68    1.35
   2  -2   7   44.77    1.57
   4  -2   7   77.15    2.16
   6  -2   7    0.40    0.42
   8  -2   7    0.70    0.50
  10  -2   7    0.25    0.48
 -21  -1   7    3.44    1.22
 -19  -1   7   -0.60    0.61
 -17  -1   7   76.70    3.97
 -15  -1   7   21.70    2.19
 -13  -1   7   75.19    2.35
 -11  -1   7    1.24    0.45
  -9  -1   7    0.06    0.34
  -7  -1   7    5.00    0.68
  -5  -1   7   -0.13    0.25
  -3  -1   7    0.72    0.32
  -1  -1   7   87.48    2.07
   1  -1   7    0.25    0.28
   3  -1   7   51.67    1.61
   5  -1   7   10.52    0.85
   7  -1   7   37.71    1.66
   9  -1   7    1.89    0.51
  11  -1   7   10.90    0.96
 -20   0   7    2.82    1.06
 -18   0   7   25.53    1.55
 -16   0   7    2.50    0.58
 -14   0   7   45.09    1.80
 -12   0   7   15.76    1.19
 -10   0   7  142.72    3.42
  -8   0   7   22.23    1.27
  -6   0   7   19.69    0.99
  -4   0   7   17.40    0.93
  -2   0   7   59.75    1.60
   0   0   7   41.06    1.30
   2   0   7   53.89    1.54
   4   0   7   86.24    2.10
   6   0   7    0.24    0.31
   8   0   7    1.19    0.54
  10   0   7    0.76    0.48
  12   0   7   15.77    1.42
 -21   1   7    2.81    0.73
 -19   1   7    0.26    0.47
 -17   1   7   80.65    2.64
 -15   1   7   26.69    1.53
 -13   1   7   75.37    2.40
 -11   1   7    1.64    0.49
  -9   1   7   -0.01    0.25
  -7   1   7    6.88    0.63
  -5   1   7    0.00    0.23
  -3   1   7    0.90    0.29
  -1   1   7   84.05    1.73
   1   1   7    0.16    0.29
   3   1   7   52.38    1.70
   5   1   7   10.35    0.91
   7   1   7   40.60    1.62
   9   1   7    2.87    0.60
  11   1   7   12.77    1.24
 -20   2   7    3.47    0.81
 -18   2   7   24.93    1.74
 -16   2   7    2.54    0.65
 -14   2   7   34.40    1.60
 -12   2   7   13.03    1.09
 -10   2   7  121.14    2.56
  -8   2   7   20.18    1.38
  -6   2   7   14.64    1.19
  -4   2   7   13.80    0.99
  -2   2   7   49.20    1.63
   0   2   7   35.50    1.38
   2   2   7   45.40    1.59
   4   2   7   76.44    2.16
   6   2   7    0.79    0.40
   8   2   7    1.37    0.70
  10   2   7    0.77    0.73
 -17   3   7   51.09    3.12
 -15   3   7   20.60    2.17
 -13   3   7   58.43    3.13
 -11   3   7    0.81    0.47
  -9   3   7    0.11    0.41
  -7   3   7    2.91    0.64
  -5   3   7    0.18    0.38
  -3   3   7    0.45    0.35
  -1   3   7   58.71    1.87
   1   3   7    0.03    0.35
   3   3   7   37.62    2.49
   5   3   7    7.56    1.21
   7   3   7   28.83    2.26
   9   3   7    2.61    1.30
 -14   4   7   24.51    2.49
 -12   4   7    8.99    1.13
 -10   4   7   70.41    2.65
  -8   4   7   11.81    1.24
  -6   4   7   10.32    1.13
  -4   4   7    7.66    0.99
  -2   4   7   28.93    2.13
   0   4   7   20.76    1.87
   2   4   7   32.02    3.36
   4   4   7   45.87    2.55
  -1   5   7   35.16    3.63
 -12  -4   8    0.68    0.83
 -10  -4   8   48.54    3.25
  -8  -4   8   15.60    2.05
  -6  -4   8   11.53    1.84
  -4  -4   8   13.21    1.91
  -2  -4   8   24.70    2.55
   0  -4   8    5.70    1.30
 -15  -3   8    8.50    1.60
 -13  -3   8   -0.39    0.71
 -11  -3   8   27.46    2.66
  -9  -3   8    3.02    1.03
  -7  -3   8   60.27    3.41
  -5  -3   8   63.72    3.37
  -3  -3   8   13.89    1.26
  -1  -3   8    9.48    1.08
   1  -3   8    2.15    0.62
   3  -3   8    6.17    0.92
   5  -3   8   24.96    1.78
 -18  -2   8   -0.18    0.74
 -16  -2   8    6.11    1.40
 -14  -2   8    0.69    0.74
 -12  -2   8   -0.18    0.55
 -10  -2   8   66.14    3.46
  -8  -2   8   21.05    1.44
  -6  -2   8   12.12    1.07
  -4  -2   8   28.32    1.43
  -2  -2   8   34.91    1.40
   0  -2   8    8.50    0.84
   2  -2   8   -0.01    0.38
   4  -2   8    2.99    0.65
   6  -2   8   71.41    2.52
   8  -2   8    8.77    1.57
 -19  -1   8   87.25    4.37
 -17  -1   8    2.26    0.98
 -15  -1   8   10.80    1.63
 -13  -1   8    0.80    0.48
 -11  -1   8   41.52    1.77
  -9  -1   8    4.05    0.67
  -7  -1   8   82.61    2.49
  -5  -1   8   94.03    2.25
  -3  -1   8   19.12    1.11
  -1  -1   8   14.18    0.97
   1  -1   8    3.55    0.55
   3  -1   8    7.30    0.74
   5  -1   8   34.30    1.47
   7  -1   8   12.40    1.02
   9  -1   8    0.56    0.48
 -20   0   8   -0.63    0.85
 -18   0   8   -0.01    0.48
 -16   0   8    6.94    0.89
 -14   0   8    0.01    0.40
 -12   0   8    0.05    0.33
 -10   0   8   81.49    2.52
  -8   0   8   27.67    1.36
  -6   0   8   14.90    0.97
  -4   0   8   37.17    1.28
  -2   0   8   40.65    1.36
   0   0   8   13.07    0.90
   2   0   8    0.45    0.33
   4   0   8    2.46    0.62
   6   0   8   81.69    2.84
   8   0   8    9.57    1.13
  10   0   8   69.73    3.50
 -19   1   8   81.17    3.87
 -17   1   8    3.47    0.74
 -15   1   8   11.15    1.14
 -13   1   8    0.47    0.42
 -11   1   8   47.09    1.83
  -9   1   8    3.02    0.59
  -7   1   8   82.45    2.05
  -5   1   8   91.48    2.17
  -3   1   8   16.58    1.34
  -1   1   8   14.27    1.20
   1   1   8    3.76    0.60
   3   1   8    5.72    0.71
   5   1   8   34.17    1.53
   7   1   8   11.78    1.19
   9   1   8    0.13    0.53
 -18   2   8    1.54    0.62
 -16   2   8    6.76    0.93
 -14   2   8    0.43    0.47
 -12   2   8    0.40    0.56
 -10   2   8   70.71    2.43
  -8   2   8   21.15    1.54
  -6   2   8   14.15    1.26
  -4   2   8   27.70    1.39
  -2   2   8   34.85    1.44
   0   2   8   12.42    1.02
   2   2   8   -0.35    0.32
   4   2   8    1.21    0.45
   6   2   8   74.91    2.25
   8   2   8    6.51    1.66
 -15   3   8    6.82    1.40
 -13   3   8   -0.43    0.53
 -11   3   8   31.00    1.79
  -9   3   8    1.69    0.62
  -7   3   8   60.88    2.38
  -5   3   8   64.10    2.42
  -3   3   8   11.85    1.04
  -1   3   8   11.63    1.01
   1   3   8    1.29    0.48
   3   3   8    4.89    1.08
   5   3   8   25.58    2.18
 -12   4   8   -0.56    0.94
 -10   4   8   46.47    2.21
  -8   4   8   15.98    1.49
  -6   4   8   10.36    1.18
  -4   4   8   18.51    1.55
  -2   4   8   22.54    2.88
   0   4   8    5.52    1.75
 -11  -3   9   29.58    2.82
  -9  -3   9    2.52    1.01
  -7  -3   9   12.42    1.83
  -5  -3   9   28.85    2.74
  -3  -3   9    6.14    1.26
  -1  -3   9   16.92    1.47
   1  -3   9   71.87    3.74
 -14  -2   9   -0.08    0.70
 -12  -2   9    0.69    0.76
 -10  -2   9    2.25    0.97
  -8  -2   9    1.49    0.57
  -6  -2   9    1.05    0.52
  -4  -2   9   22.78    1.56
  -2  -2   9   29.84    1.66
   0  -2   9   48.29    1.75
   2  -2   9    8.16    1.02
   4  -2   9   13.80    1.33
 -17  -1   9    2.65    1.10
 -15  -1   9   16.74    2.08
 -13  -1   9   66.36    2.40
 -11  -1   9   43.75    1.87
  -9  -1   9    4.13    0.73
  -7  -1   9   18.88    1.37
  -5  -1   9   43.09    1.80
  -3  -1   9    7.42    0.75
  -1  -1   9   21.67    1.25
   1  -1   9   96.07    2.46
   3  -1   9    1.92    0.51
   5  -1   9   10.42    0.94
 -18   0   9    0.28    0.57
 -16   0   9  131.64    3.61
 -14   0   9   -0.04    0.46
 -12   0   9    0.29    0.48
 -10   0   9    1.36    0.52
  -8   0   9    2.03    0.54
  -6   0   9    3.27    0.63
  -4   0   9   28.65    1.21
  -2   0   9   36.49    1.38
   0   0   9   51.10    2.16
   2   0   9   12.51    1.27
   4   0   9   16.87    1.49
   6   0   9    6.24    0.98
 -17   1   9    1.65    0.65
 -15   1   9   14.95    1.33
 -13   1   9   66.16    2.39
 -11   1   9   38.84    1.75
  -9   1   9    3.01    0.62
  -7   1   9   18.32    1.46
  -5   1   9   40.80    1.88
  -3   1   9    7.21    0.98
  -1   1   9   19.63    1.51
   1   1   9   95.97    3.04
   3   1   9    2.06    0.63
   5   1   9    8.04    1.10
 -16   2   9  113.41    4.84
 -14   2   9    0.00    0.60
 -12   2   9    0.45    0.64
 -10   2   9    1.68    0.72
  -8   2   9    2.09    0.68
  -6   2   9    3.16    0.75
  -4   2   9   27.26    1.84
  -2   2   9   32.07    1.57
   0   2   9   51.23    1.86
   2   2   9   10.23    1.00
   4   2   9   16.06    1.24
 -11   3   9   33.29    2.89
  -9   3   9    4.15    0.85
  -7   3   9   16.39    1.49
  -5   3   9   30.35    1.83
  -3   3   9    5.40    0.94
  -1   3   9   16.03    1.24
   1   3   9   69.00    2.63
 -10  -2  10   70.38    3.76
  -8  -2  10   50.33    2.18
  -6  -2  10    6.45    0.96
  -4  -2  10    1.05    0.55
  -2  -2  10    0.21    0.52
 -13  -1  10   39.25    1.88
 -11  -1  10   -0.19    0.48
  -9  -1  10   12.00    1.17
  -7  -1  10    6.96    0.94
  -5  -1  10   41.10    1.85
  -3  -1  10    0.04    0.43
  -1  -1  10   -0.07    0.40
   1  -1  10    1.61    0.65
 -16   0  10    2.15    0.97
 -14   0  10    6.13    0.95
 -12   0  10    9.62    1.09
 -10   0  10   75.03    2.61
  -8   0  10   59.52    2.24
  -6   0  10    7.32    0.95
  -4   0  10    0.28    0.50
  -2   0  10    0.48    0.51
   0   0  10    4.31    0.86
   2   0  10   12.93    2.23
 -15   1  10    0.50    0.90
 -13   1  10   39.10    2.64
 -11   1  10    0.09    0.61
  -9   1  10   11.45    1.66
  -7   1  10    5.05    1.15
  -5   1  10   41.94    1.99
  -3   1  10   -0.18    0.41
  -1   1  10   -0.29    0.49
   1   1  10    0.16    0.51
 -10   2  10   65.60    3.55
  -8   2  10   54.19    3.13
  -6   2  10    5.65    0.91
  -4   2  10    1.10    0.63
  -2   2  10    0.01    0.50
   0   0   0    0.00    0.00
;
_shelx_hkl_checksum              10609
#END Tags that were not found in dictionaries
loop_
_space_group_symop_operation_xyz
'x, y, z'
'-x, y, -z'
'x+1/2, y+1/2, z'
'-x+1/2, y+1/2, -z'
'-x, -y, -z'
'x, -y, z'
'-x+1/2, -y+1/2, -z'
'x+1/2, -y+1/2, z'
loop_
_atom_site_label
_atom_site_type_symbol
_atom_site_fract_x
_atom_site_fract_y
_atom_site_fract_z
_atom_site_U_iso_or_equiv
_atom_site_adp_type
_atom_site_occupancy
_atom_site_site_symmetry_order
_atom_site_calc_flag
_atom_site_refinement_flags_posn
_atom_site_refinement_flags_adp
_atom_site_refinement_flags_occupancy
Nd1 Nd 0.34651(2) 0.0000 0.05893(4) 0.00722(7) Uani 1 2 d S T P
Nd2 Nd 0.58883(2) 0.0000 0.38109(4) 0.00647(7) Uani 1 2 d S T P
Co Co 0.21867(5) 0.0000 0.62575(10) 0.00773(14) Uani 1 2 d S T P
In In 0.0000 0.0000 0.0000 0.00910(16) Uani 0.965(2) 4 d S T .
Ge1 Ge 0.06685(4) 0.0000 0.65580(8) 0.00696(11) Uani 1 2 d S T P
Ge2 Ge 0.20966(4) 0.0000 0.27642(8) 0.00715(11) Uani 1 2 d S T P
loop_
_atom_site_aniso_label
_atom_site_aniso_U_11
_atom_site_aniso_U_22
_atom_site_aniso_U_33
_atom_site_aniso_U_23
_atom_site_aniso_U_13
_atom_site_aniso_U_12
Nd1 0.00710(13) 0.00713(13) 0.00713(12) 0.000 0.00170(9) 0.000
Nd2 0.00618(13) 0.00585(13) 0.00787(12) 0.000 0.00286(9) 0.000
Co 0.0066(3) 0.0073(3) 0.0091(3) 0.000 0.0021(2) 0.000
In 0.0098(3) 0.0087(3) 0.0095(3) 0.000 0.00406(19) 0.000
Ge1 0.0064(3) 0.0067(3) 0.0077(2) 0.000 0.0019(2) 0.000
Ge2 0.0076(3) 0.0057(3) 0.0085(2) 0.000 0.0030(2) 0.000
loop_
_atom_type_symbol
_atom_type_description
_atom_type_scat_dispersion_real
_atom_type_scat_dispersion_imag
_atom_type_scat_source
Co Co 0.3494 0.9721 'International Tables Vol C Tables 4.2.6.8 and 6.1.1.4'
Ge Ge 0.1547 1.8001 'International Tables Vol C Tables 4.2.6.8 and 6.1.1.4'
In In -0.7276 1.3100 'International Tables Vol C Tables 4.2.6.8 and 6.1.1.4'
Nd Nd -0.1943 3.0179 'International Tables Vol C Tables 4.2.6.8 and 6.1.1.4'
loop_
_geom_angle_atom_site_label_1
_geom_angle_atom_site_label_2
_geom_angle_atom_site_label_3
_geom_angle
_geom_angle_site_symmetry_1
_geom_angle_site_symmetry_3
Ge1 Nd1 Ge1 91.568(16) 7_556 7_546
Ge1 Nd1 Ge2 84.082(15) 7_556 .
Ge1 Nd1 Ge2 84.082(15) 7_546 .
Ge1 Nd1 Ge2 167.584(18) 7_556 7_545
Ge1 Nd1 Ge2 89.887(11) 7_546 7_545
Ge2 Nd1 Ge2 108.333(13) . 7_545
Ge1 Nd1 Ge2 89.887(11) 7_556 7
Ge1 Nd1 Ge2 167.584(18) 7_546 7
Ge2 Nd1 Ge2 108.333(13) . 7
Ge2 Nd1 Ge2 86.108(16) 7_545 7
Ge1 Nd1 Co 134.207(8) 7_556 1_554
Ge1 Nd1 Co 134.207(8) 7_546 1_554
Ge2 Nd1 Co 99.500(19) . 1_554
Ge2 Nd1 Co 45.379(9) 7_545 1_554
Ge2 Nd1 Co 45.379(9) 7 1_554
Ge1 Nd1 In 55.217(11) 7_556 3
Ge1 Nd1 In 110.312(13) 7_546 3
Ge2 Nd1 In 136.009(7) . 3
Ge2 Nd1 In 112.858(13) 7_545 3
Ge2 Nd1 In 60.948(10) 7 3
Co Nd1 In 98.455(12) 1_554 3
Ge1 Nd1 In 110.312(13) 7_556 3_545
Ge1 Nd1 In 55.217(11) 7_546 3_545
Ge2 Nd1 In 136.009(6) . 3_545
Ge2 Nd1 In 60.948(10) 7_545 3_545
Ge2 Nd1 In 112.858(13) 7 3_545
Co Nd1 In 98.455(12) 1_554 3_545
In Nd1 In 79.605(8) 3 3_545
Ge1 Nd1 Co 43.870(16) 7_556 7_556
Ge1 Nd1 Co 99.285(15) 7_546 7_556
Ge2 Nd1 Co 43.092(11) . 7_556
Ge2 Nd1 Co 147.718(18) 7_545 7_556
Ge2 Nd1 Co 90.290(13) 7 7_556
Co Nd1 Co 114.390(14) 1_554 7_556
In Nd1 Co 92.951(10) 3 7_556
In Nd1 Co 147.086(14) 3_545 7_556
Ge1 Nd1 Co 99.285(15) 7_556 7_546
Ge1 Nd1 Co 43.870(16) 7_546 7_546
Ge2 Nd1 Co 43.092(11) . 7_546
Ge2 Nd1 Co 90.290(13) 7_545 7_546
Ge2 Nd1 Co 147.718(18) 7 7_546
Co Nd1 Co 114.390(14) 1_554 7_546
In Nd1 Co 147.086(14) 3 7_546
In Nd1 Co 92.952(10) 3_545 7_546
Co Nd1 Co 75.974(16) 7_556 7_546
Ge1 Nd1 Nd2 114.064(13) 7_556 5_655
Ge1 Nd1 Nd2 114.064(13) 7_546 5_655
Ge2 Nd1 Nd2 152.719(15) . 5_655
Ge2 Nd1 Nd2 54.419(10) 7_545 5_655
Ge2 Nd1 Nd2 54.419(10) 7 5_655
Co Nd1 Nd2 53.220(15) 1_554 5_655
In Nd1 Nd2 58.941(6) 3 5_655
In Nd1 Nd2 58.941(5) 3_545 5_655
Co Nd1 Nd2 141.714(8) 7_556 5_655
Co Nd1 Nd2 141.714(8) 7_546 5_655
Ge1 Nd1 Nd1 139.903(18) 7_556 7_545
Ge1 Nd1 Nd1 84.956(11) 7_546 7_545
Ge2 Nd1 Nd1 55.821(11) . 7_545
Ge2 Nd1 Nd1 52.512(11) 7_545 7_545
Ge2 Nd1 Nd1 101.758(14) 7 7_545
Co Nd1 Nd1 61.692(12) 1_554 7_545
In Nd1 Nd1 160.040(13) 3 7_545
In Nd1 Nd1 100.264(6) 3_545 7_545
Co Nd1 Nd1 97.261(15) 7_556 7_545
Co Nd1 Nd1 52.698(13) 7_546 7_545
Nd2 Nd1 Nd1 103.641(11) 5_655 7_545
Ge1 Nd2 Ge1 91.286(17) 3 3_545
Ge1 Nd2 Co 108.791(15) 3 5_656
Ge1 Nd2 Co 108.791(15) 3_545 5_656
Ge1 Nd2 Ge2 82.191(13) 3 3
Ge1 Nd2 Ge2 148.454(17) 3_545 3
Co Nd2 Ge2 46.474(10) 5_656 3
Ge1 Nd2 Ge2 148.454(17) 3 3_545
Ge1 Nd2 Ge2 82.191(12) 3_545 3_545
Co Nd2 Ge2 46.474(10) 5_656 3_545
Ge2 Nd2 Ge2 87.414(16) 3 3_545
Ge1 Nd2 Co 47.466(17) 3 3
Ge1 Nd2 Co 108.014(17) 3_545 3
Co Nd2 Co 61.395(18) 5_656 3
Ge2 Nd2 Co 46.666(17) 3 3
Ge2 Nd2 Co 105.422(17) 3_545 3
Ge1 Nd2 Co 108.014(17) 3 3_545
Ge1 Nd2 Co 47.466(16) 3_545 3_545
Co Nd2 Co 61.395(18) 5_656 3_545
Ge2 Nd2 Co 105.422(17) 3 3_545
Ge2 Nd2 Co 46.666(17) 3_545 3_545
Co Nd2 Co 87.103(19) 3 3_545
Ge1 Nd2 Ge1 107.236(11) 3 7_546
Ge1 Nd2 Ge1 48.686(18) 3_545 7_546
Co Nd2 Ge1 137.555(8) 5_656 7_546
Ge2 Nd2 Ge1 161.919(17) 3 7_546
Ge2 Nd2 Ge1 91.506(12) 3_545 7_546
Co Nd2 Ge1 149.661(18) 3 7_546
Co Nd2 Ge1 86.637(14) 3_545 7_546
Ge1 Nd2 Ge1 48.686(18) 3 7_556
Ge1 Nd2 Ge1 107.236(11) 3_545 7_556
Co Nd2 Ge1 137.555(8) 5_656 7_556
Ge2 Nd2 Ge1 91.506(12) 3 7_556
Ge2 Nd2 Ge1 161.919(17) 3_545 7_556
Co Nd2 Ge1 86.637(14) 3 7_556
Co Nd2 Ge1 149.661(18) 3_545 7_556
Ge1 Nd2 Ge1 83.960(16) 7_546 7_556
Ge1 Nd2 Ge2 77.993(13) 3 5_656
Ge1 Nd2 Ge2 77.994(13) 3_545 5_656
Co Nd2 Ge2 44.746(17) 5_656 5_656
Ge2 Nd2 Ge2 70.461(14) 3 5_656
Ge2 Nd2 Ge2 70.461(14) 3_545 5_656
Co Nd2 Ge2 43.692(10) 3 5_656
Co Nd2 Ge2 43.692(10) 3_545 5_656
Ge1 Nd2 Ge2 125.970(11) 7_546 5_656
Ge1 Nd2 Ge2 125.970(11) 7_556 5_656
Ge1 Nd2 In 150.600(14) 3 3_545
Ge1 Nd2 In 88.552(9) 3_545 3_545
Co Nd2 In 99.027(12) 5_656 3_545
Ge2 Nd2 In 111.936(12) 3 3_545
Ge2 Nd2 In 60.475(10) 3_545 3_545
Co Nd2 In 157.263(16) 3 3_545
Co Nd2 In 93.347(11) 3_545 3_545
Ge1 Nd2 In 52.865(10) 7_546 3_545
Ge1 Nd2 In 103.589(11) 7_556 3_545
Ge2 Nd2 In 130.440(8) 5_656 3_545
Ge1 Nd2 In 88.552(10) 3 3
Ge1 Nd2 In 150.600(14) 3_545 3
Co Nd2 In 99.027(12) 5_656 3
Ge2 Nd2 In 60.475(10) 3 3
Ge2 Nd2 In 111.936(12) 3_545 3
Co Nd2 In 93.347(11) 3 3
Co Nd2 In 157.263(16) 3_545 3
Ge1 Nd2 In 103.589(11) 7_546 3
Ge1 Nd2 In 52.865(10) 7_556 3
Ge2 Nd2 In 130.440(8) 5_656 3
In Nd2 In 77.646(7) 3_545 3
Ge2 Co Ge2 124.25(4) 7_556 7_546
Ge2 Co Ge1 110.71(2) 7_556 .
Ge2 Co Ge1 110.71(2) 7_546 .
Ge2 Co Ge2 99.96(2) 7_556 .
Ge2 Co Ge2 99.96(2) 7_546 .
Ge1 Co Ge2 109.15(3) . .
Ge2 Co Nd2 68.06(2) 7_556 5_656
Ge2 Co Nd2 68.06(2) 7_546 5_656
Ge1 Co Nd2 176.10(3) . 5_656
Ge2 Co Nd2 74.76(2) . 5_656
Ge2 Co Nd2 160.20(3) 7_556 3_445
Ge2 Co Nd2 73.905(14) 7_546 3_445
Ge1 Co Nd2 63.857(17) . 3_445
Ge2 Co Nd2 66.479(17) . 3_445
Nd2 Co Nd2 118.604(18) 5_656 3_445
Ge2 Co Nd2 73.905(14) 7_556 3_455
Ge2 Co Nd2 160.20(3) 7_546 3_455
Ge1 Co Nd2 63.857(17) . 3_455
Ge2 Co Nd2 66.479(17) . 3_455
Nd2 Co Nd2 118.604(18) 5_656 3_455
Nd2 Co Nd2 87.105(19) 3_445 3_455
Ge2 Co Nd1 67.163(19) 7_556 1_556
Ge2 Co Nd1 67.163(19) 7_546 1_556
Ge1 Co Nd1 105.25(3) . 1_556
Ge2 Co Nd1 145.61(3) . 1_556
Nd2 Co Nd1 70.850(17) 5_656 1_556
Nd2 Co Nd1 132.148(13) 3_445 1_556
Nd2 Co Nd1 132.148(13) 3_455 1_556
Ge2 Co Nd1 58.043(17) 7_556 7_556
Ge2 Co Nd1 123.98(3) 7_546 7_556
Ge1 Co Nd1 57.380(15) . 7_556
Ge2 Co Nd1 136.051(16) . 7_556
Nd2 Co Nd1 119.913(17) 5_656 7_556
Nd2 Co Nd1 121.16(2) 3_445 7_556
Nd2 Co Nd1 70.685(12) 3_455 7_556
Nd1 Co Nd1 65.609(14) 1_556 7_556
Ge2 Co Nd1 123.98(3) 7_556 7_546
Ge2 Co Nd1 58.043(17) 7_546 7_546
Ge1 Co Nd1 57.380(15) . 7_546
Ge2 Co Nd1 136.051(16) . 7_546
Nd2 Co Nd1 119.913(17) 5_656 7_546
Nd2 Co Nd1 70.685(12) 3_445 7_546
Nd2 Co Nd1 121.16(2) 3_455 7_546
Nd1 Co Nd1 65.609(14) 1_556 7_546
Nd1 Co Nd1 75.975(16) 7_556 7_546
Ge1 In Ge1 180.000(18) 5_556 1_554
Ge1 In Nd1 56.232(8) 5_556 3_445
Ge1 In Nd1 123.768(8) 1_554 3_445
Ge1 In Nd1 123.768(8) 5_556 7
Ge1 In Nd1 56.232(8) 1_554 7
Nd1 In Nd1 180.0 3_445 7
Ge1 In Nd1 123.768(8) 5_556 7_545
Ge1 In Nd1 56.232(8) 1_554 7_545
Nd1 In Nd1 100.395(8) 3_445 7_545
Nd1 In Nd1 79.605(8) 7 7_545
Ge1 In Nd1 56.232(8) 5_556 3_455
Ge1 In Nd1 123.768(8) 1_554 3_455
Nd1 In Nd1 79.605(8) 3_445 3_455
Nd1 In Nd1 100.395(8) 7 3_455
Nd1 In Nd1 180.0 7_545 3_455
Ge1 In Nd2 59.841(9) 5_556 3_455
Ge1 In Nd2 120.159(9) 1_554 3_455
Nd1 In Nd2 115.968(7) 3_445 3_455
Nd1 In Nd2 64.032(7) 7 3_455
Nd1 In Nd2 111.393(7) 7_545 3_455
Nd1 In Nd2 68.607(7) 3_455 3_455
Ge1 In Nd2 120.159(9) 5_556 7_545
Ge1 In Nd2 59.841(9) 1_554 7_545
Nd1 In Nd2 64.032(7) 3_445 7_545
Nd1 In Nd2 115.968(7) 7 7_545
Nd1 In Nd2 68.607(7) 7_545 7_545
Nd1 In Nd2 111.393(7) 3_455 7_545
Nd2 In Nd2 180.0 3_455 7_545
Ge1 In Nd2 59.841(9) 5_556 3_445
Ge1 In Nd2 120.159(9) 1_554 3_445
Nd1 In Nd2 68.607(7) 3_445 3_445
Nd1 In Nd2 111.393(7) 7 3_445
Nd1 In Nd2 64.032(7) 7_545 3_445
Nd1 In Nd2 115.968(7) 3_455 3_445
Nd2 In Nd2 77.646(7) 3_455 3_445
Nd2 In Nd2 102.354(7) 7_545 3_445
Ge1 In Nd2 120.159(9) 5_556 7
Ge1 In Nd2 59.841(9) 1_554 7
Nd1 In Nd2 111.393(7) 3_445 7
Nd1 In Nd2 68.607(7) 7 7
Nd1 In Nd2 115.968(7) 7_545 7
Nd1 In Nd2 64.032(7) 3_455 7
Nd2 In Nd2 102.354(7) 3_455 7
Nd2 In Nd2 77.646(7) 7_545 7
Nd2 In Nd2 180.0 3_445 7
Co Ge1 Ge1 119.17(4) . 5_556
Co Ge1 In 132.13(3) . 1_556
Ge1 Ge1 In 108.70(3) 5_556 1_556
Co Ge1 Nd1 78.750(18) . 7_556
Ge1 Ge1 Nd1 132.820(11) 5_556 7_556
In Ge1 Nd1 68.551(12) 1_556 7_556
Co Ge1 Nd1 78.750(18) . 7_546
Ge1 Ge1 Nd1 132.820(11) 5_556 7_546
In Ge1 Nd1 68.551(12) 1_556 7_546
Nd1 Ge1 Nd1 91.568(17) 7_556 7_546
Co Ge1 Nd2 68.677(16) . 3_445
Ge1 Ge1 Nd2 69.871(17) 5_556 3_445
In Ge1 Nd2 133.375(10) 1_556 3_445
Nd1 Ge1 Nd2 147.28(2) 7_556 3_445
Nd1 Ge1 Nd2 79.420(9) 7_546 3_445
Co Ge1 Nd2 68.677(16) . 3_455
Ge1 Ge1 Nd2 69.871(17) 5_556 3_455
In Ge1 Nd2 133.375(10) 1_556 3_455
Nd1 Ge1 Nd2 79.420(9) 7_556 3_455
Nd1 Ge1 Nd2 147.28(2) 7_546 3_455
Nd2 Ge1 Nd2 91.286(17) 3_445 3_455
Co Ge1 Nd2 136.894(10) . 7_546
Ge1 Ge1 Nd2 61.443(16) 5_556 7_546
In Ge1 Nd2 67.294(11) 1_556 7_546
Nd1 Ge1 Nd2 135.68(2) 7_556 7_546
Nd1 Ge1 Nd2 75.919(10) 7_546 7_546
Nd2 Ge1 Nd2 72.765(11) 3_445 7_546
Nd2 Ge1 Nd2 131.314(18) 3_455 7_546
Co Ge1 Nd2 136.894(10) . 7_556
Ge1 Ge1 Nd2 61.443(16) 5_556 7_556
In Ge1 Nd2 67.294(11) 1_556 7_556
Nd1 Ge1 Nd2 75.919(10) 7_556 7_556
Nd1 Ge1 Nd2 135.68(2) 7_546 7_556
Nd2 Ge1 Nd2 131.314(18) 3_445 7_556
Nd2 Ge1 Nd2 72.765(11) 3_455 7_556
Nd2 Ge1 Nd2 83.960(15) 7_546 7_556
Co Ge2 Co 124.25(4) 7_556 7_546
Co Ge2 Co 80.04(2) 7_556 .
Co Ge2 Co 80.04(2) 7_546 .
Co Ge2 Nd1 78.86(2) 7_556 .
Co Ge2 Nd1 78.86(2) 7_546 .
Co Ge2 Nd1 133.89(3) . .
Co Ge2 Nd2 143.74(3) 7_556 3_445
Co Ge2 Nd2 65.466(18) 7_546 3_445
Co Ge2 Nd2 66.855(16) . 3_445
Nd1 Ge2 Nd2 135.211(9) . 3_445
Co Ge2 Nd2 65.466(18) 7_556 3_455
Co Ge2 Nd2 143.74(3) 7_546 3_455
Co Ge2 Nd2 66.855(16) . 3_455
Nd1 Ge2 Nd2 135.211(9) . 3_455
Nd2 Ge2 Nd2 87.415(16) 3_445 3_455
Co Ge2 Nd1 145.44(3) 7_556 7_545
Co Ge2 Nd1 67.457(17) 7_546 7_545
Co Ge2 Nd1 133.898(12) . 7_545
Nd1 Ge2 Nd1 71.666(13) . 7_545
Nd2 Ge2 Nd1 70.180(10) 3_445 7_545
Nd2 Ge2 Nd1 127.184(19) 3_455 7_545
Co Ge2 Nd1 67.457(17) 7_556 7
Co Ge2 Nd1 145.44(3) 7_546 7
Co Ge2 Nd1 133.898(12) . 7
Nd1 Ge2 Nd1 71.666(13) . 7
Nd2 Ge2 Nd1 127.184(19) 3_445 7
Nd2 Ge2 Nd1 70.180(10) 3_455 7
Nd1 Ge2 Nd1 86.108(16) 7_545 7
Co Ge2 Nd2 62.403(18) 7_556 5_656
Co Ge2 Nd2 62.403(18) 7_546 5_656
Co Ge2 Nd2 60.50(2) . 5_656
Nd1 Ge2 Nd2 73.395(15) . 5_656
Nd2 Ge2 Nd2 109.539(14) 3_445 5_656
Nd2 Ge2 Nd2 109.539(14) 3_455 5_656
Nd1 Ge2 Nd2 122.829(13) 7_545 5_656
Nd1 Ge2 Nd2 122.829(13) 7 5_656
loop_
_geom_bond_atom_site_label_1
_geom_bond_atom_site_label_2
_geom_bond_distance
_geom_bond_site_symmetry_2
Nd1 Ge1 3.0017(4) 7_556
Nd1 Ge1 3.0017(4) 7_546
Nd1 Ge2 3.0226(6) .
Nd1 Ge2 3.1514(5) 7_545
Nd1 Ge2 3.1514(5) 7
Nd1 Co 3.1581(8) 1_554
Nd1 In 3.3608(3) 3
Nd1 In 3.3608(3) 3_545
Nd1 Co 3.4955(6) 7_556
Nd1 Co 3.4955(6) 7_546
Nd1 Nd2 3.6016(4) 5_655
Nd1 Nd1 3.6159(5) 7_545
Nd2 Ge1 3.0090(4) 3
Nd2 Ge1 3.0090(4) 3_545
Nd2 Co 3.0536(8) 5_656
Nd2 Ge2 3.1136(5) 3
Nd2 Ge2 3.1136(5) 3_545
Nd2 Co 3.1225(6) 3
Nd2 Co 3.1225(6) 3_545
Nd2 Ge1 3.2165(5) 7_546
Nd2 Ge1 3.2165(5) 7_556
Nd2 Ge2 3.3852(6) 5_656
Nd2 In 3.4317(3) 3_545
Nd2 In 3.4317(2) 3
Co Ge2 2.4338(4) 7_556
Co Ge2 2.4338(4) 7_546
Co Ge1 2.4699(9) .
Co Ge2 2.4699(9) .
Co Nd2 3.0537(8) 5_656
Co Nd2 3.1224(6) 3_445
Co Nd2 3.1224(6) 3_455
Co Nd1 3.1582(8) 1_556
Co Nd1 3.4954(6) 7_556
Co Nd1 3.4954(6) 7_546
In Ge1 2.9657(6) 5_556
In Ge1 2.9657(6) 1_554
In Nd1 3.3608(3) 3_445
In Nd1 3.3608(3) 7
In Nd1 3.3608(3) 7_545
In Nd1 3.3608(3) 3_455
In Nd2 3.4317(3) 3_455
In Nd2 3.4317(3) 7_545
In Nd2 3.4317(3) 3_445
In Nd2 3.4317(3) 7
Ge1 Ge1 2.5731(10) 5_556
Ge1 In 2.9657(6) 1_556
Ge1 Nd1 3.0017(4) 7_556
Ge1 Nd1 3.0017(4) 7_546
Ge1 Nd2 3.0090(4) 3_445
Ge1 Nd2 3.0090(4) 3_455
Ge1 Nd2 3.2165(5) 7_546
Ge1 Nd2 3.2165(5) 7_556
Ge2 Co 2.4338(4) 7_556
Ge2 Co 2.4338(4) 7_546
Ge2 Nd2 3.1136(5) 3_445
Ge2 Nd2 3.1136(5) 3_455
Ge2 Nd1 3.1514(5) 7_545
Ge2 Nd1 3.1514(5) 7
Ge2 Nd2 3.3852(6) 5_656
