#------------------------------------------------------------------------------
#$Date: 2016-03-24 00:14:39 +0200 (Thu, 24 Mar 2016) $
#$Revision: 179528 $
#$URL: svn://www.crystallography.net/cod/cif/4/34/25/4342575.cif $
#------------------------------------------------------------------------------
#
# This file is available in the Crystallography Open Database (COD),
# http://www.crystallography.net/
#
# All data on this site have been placed in the public domain by the
# contributors.
#
data_4342575
loop_
_publ_author_name
'Oliynyk, Anton O.'
'Stoyko, Stanislav S.'
'Mar, Arthur'
_publ_section_title
;
 Many Metals Make the Cut: Quaternary Rare-Earth Germanides RE4M2InGe4 (M
 = Fe, Co, Ni, Ru, Rh, Ir) and RE4RhInGe4 Derived from Excision of Slabs
 in RE2InGe2.
;
_journal_issue                   6
_journal_name_full               'Inorganic chemistry'
_journal_page_first              2780
_journal_page_last               2792
_journal_paper_doi               10.1021/ic502955h
_journal_volume                  54
_journal_year                    2015
_chemical_formula_structural     'Gd4 Ru2 In Ge4'
_chemical_formula_sum            'Gd4 Ge4 In Ru2'
_chemical_formula_weight         1236.32
_chemical_name_common
'gadolinium ruthenium indium germanide (4/2/1/4)'
_chemical_name_systematic
'gadolinium ruthenium indium germanide (4/2/1/4)'
_space_group_crystal_system      monoclinic
_space_group_IT_number           12
_space_group_name_Hall           '-C 2y'
_space_group_name_H-M_alt        'C 1 2/m 1'
_symmetry_space_group_name_Hall  '-C 2y'
_symmetry_space_group_name_H-M   'C 1 2/m 1'
_atom_sites_solution_primary     direct
_atom_sites_solution_secondary   difmap
_audit_creation_method           SHELXL-2013
_cell_angle_alpha                90
_cell_angle_beta                 106.635(4)
_cell_angle_gamma                90
_cell_formula_units_Z            2
_cell_length_a                   15.773(4)
_cell_length_b                   4.2875(11)
_cell_length_c                   7.0393(18)
_cell_measurement_reflns_used    1412
_cell_measurement_temperature    173(2)
_cell_measurement_theta_max      30.94
_cell_measurement_theta_min      5.88
_cell_volume                     456.1(2)
_computing_cell_refinement       'Bruker SAINT 8.27B (Bruker, 2011)'
_computing_data_collection       'Bruker APEX 2 (Bruker, 2008)'
_computing_data_reduction        'Bruker SAINT 8.27B'
_computing_molecular_graphics    'ATOMS 5.1 (Dowty, 1999)'
_computing_publication_material  'Bruker SHELXTL'
_computing_structure_refinement  'Bruker SHELXTL'
_computing_structure_solution    'Bruker SHELXTL'
_diffrn_ambient_temperature      173(2)
_diffrn_measured_fraction_theta_full 1.000
_diffrn_measured_fraction_theta_max 0.989
_diffrn_measurement_device_type  'Bruker PLATFORM/SMART APEX II CCD'
_diffrn_measurement_method       '\w and \f scans'
_diffrn_radiation_type           MoK\a
_diffrn_radiation_wavelength     0.71073
_diffrn_reflns_av_R_equivalents  0.0445
_diffrn_reflns_av_unetI/netI     0.0387
_diffrn_reflns_Laue_measured_fraction_full 1.000
_diffrn_reflns_Laue_measured_fraction_max 0.989
_diffrn_reflns_limit_h_max       24
_diffrn_reflns_limit_h_min       -24
_diffrn_reflns_limit_k_max       6
_diffrn_reflns_limit_k_min       -6
_diffrn_reflns_limit_l_max       10
_diffrn_reflns_limit_l_min       -10
_diffrn_reflns_number            3346
_diffrn_reflns_point_group_measured_fraction_full 1.000
_diffrn_reflns_point_group_measured_fraction_max 0.989
_diffrn_reflns_theta_full        25.242
_diffrn_reflns_theta_max         33.305
_diffrn_reflns_theta_min         2.696
_diffrn_source                   'fine-focus sealed tube'
_exptl_absorpt_coefficient_mu    47.195
_exptl_absorpt_correction_T_max  0.5527
_exptl_absorpt_correction_T_min  0.0636
_exptl_absorpt_correction_type   numerical
_exptl_absorpt_process_details   'Bruker SHELXTL (Sheldrick, 2013)'
_exptl_crystal_colour            grey
_exptl_crystal_density_diffrn    9.002
_exptl_crystal_density_method    'not measured'
_exptl_crystal_description       irregular
_exptl_crystal_F_000             1042
_exptl_crystal_size_max          0.126
_exptl_crystal_size_mid          0.024
_exptl_crystal_size_min          0.021
_refine_diff_density_max         2.762
_refine_diff_density_min         -2.500
_refine_diff_density_rms         0.495
_refine_ls_extinction_coef       0.00063(5)
_refine_ls_extinction_expression Fc^*^=kFc[1+0.001xFc^2^\l^3^/sin(2\q)]^-1/4^
_refine_ls_extinction_method     SHELXL
_refine_ls_goodness_of_fit_ref   1.047
_refine_ls_hydrogen_treatment    undef
_refine_ls_matrix_type           full
_refine_ls_number_parameters     37
_refine_ls_number_reflns         972
_refine_ls_number_restraints     0
_refine_ls_restrained_S_all      1.047
_refine_ls_R_factor_all          0.0353
_refine_ls_R_factor_gt           0.0240
_refine_ls_shift/su_max          0.000
_refine_ls_shift/su_mean         0.000
_refine_ls_structure_factor_coef Fsqd
_refine_ls_weighting_details
'w=1/[\s^2^(Fo^2^)+(0.0139P)^2^] where P=(Fo^2^+2Fc^2^)/3'
_refine_ls_weighting_scheme      calc
_refine_ls_wR_factor_gt          0.0406
_refine_ls_wR_factor_ref         0.0437
_reflns_Friedel_coverage         0.000
_reflns_number_gt                800
_reflns_number_total             972
_reflns_threshold_expression     'I > 2\s(I)'
_cod_data_source_file            ic502955h_si_004.cif
_cod_data_source_block           Gd4Ru2InGe4
_cod_depositor_comments
'Adding full bibliography for 4342570--4342590.cif.'
_cod_database_code               4342575
#BEGIN Tags that were not found in dictionaries:
_shelx_space_group_comment
;
The symmetry employed for this shelxl refinement is uniquely defined
by the following loop, which should always be used as a source of
symmetry information in preference to the above space-group names.
They are only intended as comments.
;
_shelx_estimated_absorpt_t_min   0.066
_shelx_estimated_absorpt_t_max   0.437
_shelxl_version_number           2013-4
_shelx_res_file
;
TITL Gd4Ru2InGe4 C2/m lsf final refinement
CELL 0.71073  15.77270   4.28750   7.03930  90.0000 106.6352  90.0000
ZERR    2.00   0.00410   0.00110   0.00180   0.0000   0.0036   0.0000
LATT  7
SYMM -X, Y, -Z
SFAC GE RU IN GD
UNIT 8 4 2 8
TEMP -100
SIZE 0.021 0.024 0.126

L.S. 4
ACTA

WGHT    0.013900
EXTI    0.000629
FVAR       0.04349
GD1   4    0.348813    0.000000    0.066211    10.50000    0.00722    0.00673 =
         0.00667    0.00000    0.00178    0.00000
GD2   4    0.587715    0.000000    0.383021    10.50000    0.00643    0.00575 =
         0.00757    0.00000    0.00278    0.00000
RU    2    0.219536    0.000000    0.630403    10.50000    0.00618    0.00556 =
         0.00716    0.00000    0.00226    0.00000
IN    3    0.000000    0.000000    0.000000     0.24057    0.00852    0.01071 =
         0.00807    0.00000    0.00319    0.00000
GE1   1    0.064706    0.000000    0.657324    10.50000    0.00640    0.00669 =
         0.00746    0.00000    0.00113    0.00000
GE2   1    0.204461    0.000000    0.265955    10.50000    0.00988    0.00482 =
         0.00771    0.00000    0.00316    0.00000
HKLF 4

REM  Gd4Ru2InGe4 C2/m lsf final refinement
REM R1 =  0.0240 for     800 Fo > 4sig(Fo)  and  0.0353 for all     972 data
REM     37 parameters refined using      0 restraints

END

WGHT      0.0139      0.0000

REM Highest difference peak  2.762,  deepest hole -2.500,  1-sigma level  0.495
Q1    1   0.6202  0.0000  0.2215  10.50000  0.05    2.76
Q2    1   0.1482  0.0000  0.0882  10.50000  0.05    2.32
Q3    1   0.3114  0.0000 -0.0426  10.50000  0.05    2.16
Q4    1   0.4314  0.0000  0.3262  10.50000  0.05    2.00
Q5    1   0.0000 -0.3315  0.0000  10.50000  0.05    1.86
Q6    1   0.0430  0.1831  0.7153  11.00000  0.05    1.84
Q7    1   0.0381  0.0000  0.0473  10.50000  0.05    1.84
Q8    1   0.2982  0.0000  0.3289  10.50000  0.05    1.80
Q9    1   0.1997  0.0000  0.0854  10.50000  0.05    1.80
Q10   1   0.0245  0.0000  0.6796  10.50000  0.05    1.71
Q11   1   0.4171  0.0703 -0.0010  11.00000  0.05    1.69
Q12   1   0.0557  0.0000 -0.0723  10.50000  0.05    1.69
Q13   1   0.3385  0.0000  0.2198  10.50000  0.05    1.67
Q14   1   0.0694  0.0000  0.5279  10.50000  0.05    1.61
Q15   1   0.2477  0.0000  0.0772  10.50000  0.05    1.60
Q16   1   0.1667  0.0000  0.6462  10.50000  0.05    1.53
Q17   1   0.2758  0.1201  0.7237  11.00000  0.05    1.53
Q18   1   0.1680  0.0000  0.4165  10.50000  0.05    1.53
Q19   1   0.2171  0.1680  0.7057  11.00000  0.05    1.53
Q20   1   0.5481  0.0000  0.1573  10.50000  0.05    1.51
;
_shelx_res_checksum              97954
_shelx_hkl_file
;
   2  -2 -10    5.42    2.84
   4  -2 -10   15.50    3.71
   6  -2 -10    1.74    2.18
   8  -2 -10   42.87    4.17
   1  -1 -10   -1.10    1.84
   3  -1 -10   -0.80    1.32
   5  -1 -10   46.45    4.00
   7  -1 -10    6.50    1.93
   9  -1 -10   22.73    3.04
  11  -1 -10    0.09    1.40
  13  -1 -10   13.54    3.67
  -2   0 -10    3.38    2.52
   0   0 -10    2.08    1.64
   2   0 -10    6.65    2.04
   4   0 -10   10.06    3.19
   6   0 -10    4.18    1.73
   8   0 -10   51.22    4.19
  10   0 -10   71.41    5.03
  12   0 -10    1.73    1.63
  14   0 -10    3.72    2.78
  -1   1 -10   -2.03    1.90
   1   1 -10    2.03    1.67
   3   1 -10   -0.01    1.48
   5   1 -10   45.48    4.24
   7   1 -10    7.63    2.27
   9   1 -10   25.99    2.64
  11   1 -10    1.20    1.43
  13   1 -10   12.27    2.41
   2   2 -10    4.10    2.96
   4   2 -10   22.55    4.78
   6   2 -10    0.66    1.92
   8   2 -10   37.61    6.65
  10   2 -10   49.87    7.35
   1  -3  -9    3.43    2.57
   3  -3  -9   -0.35    2.02
   5  -3  -9   14.09    3.62
   7  -3  -9    7.76    1.79
   9  -3  -9    9.88    1.89
  11  -3  -9   34.02    3.04
  13  -3  -9   56.15    7.00
  -4  -2  -9   12.53    2.41
  -2  -2  -9    1.02    1.47
   0  -2  -9   42.15    3.95
   2  -2  -9   32.61    3.52
   4  -2  -9   14.16    2.40
   6  -2  -9    1.32    1.36
   8  -2  -9   11.33    2.22
  10  -2  -9    7.78    2.02
  12  -2  -9    0.02    1.41
  14  -2  -9    0.37    1.48
  -5  -1  -9   19.18    2.84
  -3  -1  -9    2.26    2.01
  -1  -1  -9  106.21    5.15
   1  -1  -9    7.99    1.89
   3  -1  -9    3.56    1.50
   5  -1  -9   21.90    2.71
   7  -1  -9   12.06    2.18
   9  -1  -9    9.57    2.07
  11  -1  -9   47.61    3.98
  13  -1  -9   63.11    4.54
  15  -1  -9   21.40    2.85
  -6   0  -9    5.49    2.86
  -4   0  -9   22.85    2.94
  -2   0  -9    2.31    1.46
   0   0  -9   44.32    3.92
   2   0  -9   38.93    3.46
   4   0  -9   15.41    2.23
   6   0  -9    0.88    1.24
   8   0  -9   10.80    1.95
  10   0  -9    5.03    1.63
  12   0  -9   -0.43    1.22
  14   0  -9    1.65    1.37
  16   0  -9  136.16    5.84
  -5   1  -9   20.02    4.14
  -3   1  -9    0.57    1.42
  -1   1  -9  114.38    5.51
   1   1  -9    6.00    1.85
   3   1  -9    1.37    1.46
   5   1  -9   27.63    3.24
   7   1  -9   11.17    1.85
   9   1  -9   11.93    1.92
  11   1  -9   52.96    3.47
  13   1  -9   72.23    4.85
  15   1  -9   23.71    2.94
  17   1  -9    0.82    1.47
  -2   2  -9   -0.08    2.27
   0   2  -9   31.62    3.67
   2   2  -9   37.99    4.14
   4   2  -9   17.80    2.87
   6   2  -9    0.82    1.75
   8   2  -9   11.30    2.70
  10   2  -9    9.29    2.48
  12   2  -9   -0.33    1.40
  14   2  -9    1.71    1.52
  16   2  -9  119.04    8.08
   1   3  -9    2.65    2.48
   3   3  -9    1.81    2.51
   5   3  -9   13.77    3.50
   7   3  -9    5.35    2.63
   9   3  -9   10.21    2.96
   0  -4  -8   12.91    3.81
   2  -4  -8   22.21    2.97
   4  -4  -8   17.11    2.82
   6  -4  -8   14.57    2.63
   8  -4  -8    6.78    2.15
  10  -4  -8   50.04    4.50
  -5  -3  -8   25.66    3.25
  -3  -3  -8    6.40    1.86
  -1  -3  -8    1.81    1.44
   1  -3  -8    5.18    1.89
   3  -3  -8   35.51    3.46
   5  -3  -8  110.21    5.25
   7  -3  -8   32.06    3.43
   9  -3  -8    0.79    1.19
  11  -3  -8   27.12    2.61
  13  -3  -8   -0.44    1.44
  15  -3  -8    0.45    1.46
  -6  -2  -8   77.11    7.02
  -4  -2  -8   15.07    3.30
  -2  -2  -8    8.13    2.68
   0  -2  -8   10.55    2.70
   2  -2  -8   36.66    4.62
   4  -2  -8   36.56    2.80
   6  -2  -8   16.42    1.94
   8  -2  -8   20.51    2.19
  10  -2  -8   82.06    3.70
  12  -2  -8    2.32    1.15
  14  -2  -8    5.18    1.75
  16  -2  -8    2.08    1.64
  18  -2  -8   -0.52    1.59
  -7  -1  -8    4.88    2.49
  -5  -1  -8   29.70    4.44
  -3  -1  -8    7.80    1.80
  -1  -1  -8    0.53    1.11
   1  -1  -8    4.43    1.46
   3  -1  -8   45.10    3.56
   5  -1  -8  130.47    5.29
   7  -1  -8   50.73    3.86
   9  -1  -8    0.58    1.04
  11  -1  -8   31.05    3.02
  13  -1  -8   -1.20    0.97
  15  -1  -8    1.08    1.25
  17  -1  -8    4.15    2.38
  19  -1  -8  108.13    7.51
  -8   0  -8   -1.39    1.79
  -6   0  -8   75.96    6.98
  -4   0  -8   16.44    2.36
  -2   0  -8   14.37    2.98
   0   0  -8   27.01    2.73
   2   0  -8   36.17    3.05
   4   0  -8   43.56    3.39
   6   0  -8   17.18    2.32
   8   0  -8   23.35    2.65
  10   0  -8   89.29    4.26
  12   0  -8    0.99    1.12
  14   0  -8    3.87    1.42
  16   0  -8    1.02    1.24
  18   0  -8    0.47    1.96
  -9   1  -8   -0.19    1.93
  -7   1  -8    5.26    1.78
  -5   1  -8   33.82    4.81
  -3   1  -8   11.78    2.06
  -1   1  -8    0.28    1.20
   1   1  -8    1.35    1.31
   3   1  -8   43.36    3.87
   5   1  -8  147.75    4.73
   7   1  -8   48.09    3.21
   9   1  -8    0.21    1.00
  11   1  -8   32.47    2.61
  13   1  -8   -0.72    0.95
  15   1  -8    2.27    1.45
  17   1  -8   -0.27    1.28
  -8   2  -8   -0.02    2.30
  -6   2  -8   58.19    6.51
  -4   2  -8    8.42    2.01
  -2   2  -8    6.95    2.07
   0   2  -8   14.69    2.80
   2   2  -8   30.40    3.81
   4   2  -8   37.88    4.24
   6   2  -8   24.96    3.47
   8   2  -8   22.17    2.54
  10   2  -8   81.44    3.94
  12   2  -8    1.84    1.49
  14   2  -8    5.27    1.68
  16   2  -8    0.72    1.42
  18   2  -8   -0.62    1.41
  -3   3  -8    8.79    2.25
  -1   3  -8   -0.66    1.14
   1   3  -8    2.52    2.42
   3   3  -8   29.38    4.43
   5   3  -8  108.42    6.99
   7   3  -8   44.60    4.64
   9   3  -8   -0.25    1.61
  11   3  -8   19.99    3.98
  13   3  -8    1.91    1.68
  15   3  -8    0.26    1.54
   0   4  -8   19.96    4.25
   2   4  -8   16.61    2.73
   4   4  -8   14.71    2.62
   6   4  -8   20.34    3.48
   8   4  -8    8.33    2.45
  -4  -4  -7   43.28    3.99
  -2  -4  -7   32.72    3.51
   0  -4  -7   46.34    4.04
   2  -4  -7    9.98    2.24
   4  -4  -7    1.41    1.45
   6  -4  -7    3.93    1.74
   8  -4  -7   11.74    2.39
  10  -4  -7   77.54    5.29
  12  -4  -7    4.78    1.99
  14  -4  -7   31.42    4.63
  -9  -3  -7    1.33    2.30
  -7  -3  -7   71.34    5.02
  -5  -3  -7   -0.40    1.29
  -3  -3  -7   34.11    3.34
  -1  -3  -7   -0.90    1.04
   1  -3  -7   41.10    3.54
   3  -3  -7    0.50    1.21
   5  -3  -7   -0.06    1.10
   7  -3  -7    7.40    1.84
   9  -3  -7    7.15    1.78
  11  -3  -7    2.45    1.23
  13  -3  -7   51.86    4.09
  15  -3  -7   33.04    3.46
  17  -3  -7   49.34    4.25
  -8  -2  -7    2.14    1.32
  -6  -2  -7    2.31    1.40
  -4  -2  -7   70.41    4.03
  -2  -2  -7   62.71    3.70
   0  -2  -7   61.32    3.68
   2  -2  -7   16.75    2.12
   4  -2  -7    2.22    1.26
   6  -2  -7    5.52    1.57
   8  -2  -7   22.33    2.12
  10  -2  -7  117.92    4.08
  12  -2  -7    6.17    1.30
  14  -2  -7   49.41    3.83
  16  -2  -7    6.96    1.94
  18  -2  -7    5.31    1.85
  20  -2  -7    5.91    2.09
  -7  -1  -7   95.45    6.72
  -5  -1  -7   -0.42    1.04
  -3  -1  -7   39.59    3.29
  -1  -1  -7    5.24    1.38
   1  -1  -7   53.00    3.68
   3  -1  -7   -0.57    0.67
   5  -1  -7    0.64    0.76
   7  -1  -7   12.91    1.50
   9  -1  -7    8.98    1.34
  11  -1  -7    4.54    1.11
  13  -1  -7   65.62    3.01
  15  -1  -7   35.32    3.26
  17  -1  -7   64.95    4.54
  19  -1  -7   -0.98    1.38
  21  -1  -7   -0.20    1.48
 -12   0  -7   -1.46    1.79
 -10   0  -7   -1.65    1.43
  -8   0  -7    1.50    1.30
  -6   0  -7    2.06    1.19
  -4   0  -7   80.24    4.03
  -2   0  -7   69.20    3.64
   0   0  -7   73.97    3.57
   2   0  -7   20.93    2.20
   4   0  -7    4.91    1.35
   6   0  -7    8.08    1.59
   8   0  -7   26.57    2.55
  10   0  -7  147.04    5.12
  12   0  -7    8.19    1.63
  14   0  -7   46.65    3.44
  16   0  -7    5.52    1.51
  18   0  -7    8.58    2.64
  20   0  -7    8.17    3.02
 -11   1  -7   16.66    3.69
  -9   1  -7    0.66    1.19
  -7   1  -7   91.45    4.65
  -5   1  -7    0.92    1.04
  -3   1  -7   39.84    3.46
  -1   1  -7    3.96    1.45
   1   1  -7   45.45    3.81
   3   1  -7    0.26    0.83
   5   1  -7    2.32    1.01
   7   1  -7   13.35    1.69
   9   1  -7    8.33    1.48
  11   1  -7    5.16    1.25
  13   1  -7   55.78    3.81
  15   1  -7   36.67    3.13
  17   1  -7   71.90    5.21
  19   1  -7   -0.85    1.84
 -10   2  -7   -0.10    1.44
  -8   2  -7    1.66    1.36
  -6   2  -7    4.52    1.68
  -4   2  -7   63.94    4.63
  -2   2  -7   66.89    5.05
   0   2  -7   62.11    5.37
   2   2  -7   21.00    3.16
   4   2  -7    2.58    1.67
   6   2  -7    9.14    1.78
   8   2  -7   26.84    2.46
  10   2  -7  121.89    4.20
  12   2  -7    7.66    1.70
  14   2  -7   43.27    3.54
  16   2  -7    4.81    1.64
  18   2  -7    4.30    2.36
  -9   3  -7   -0.42    1.87
  -5   3  -7   -1.03    1.14
  -3   3  -7   34.01    5.45
  -1   3  -7    0.61    1.13
   1   3  -7   34.44    4.05
   3   3  -7   -1.12    1.44
   5   3  -7   -0.57    1.24
   7   3  -7    9.01    2.02
   9   3  -7    5.17    1.71
  11   3  -7    2.54    1.47
  13   3  -7   57.58    4.33
  15   3  -7   32.73    3.28
  17   3  -7   52.02    4.26
  -4   4  -7   40.44    5.79
  -2   4  -7   32.94    5.11
   0   4  -7   43.09    4.15
   2   4  -7    8.05    1.85
   4   4  -7    3.31    1.46
   6   4  -7    2.83    1.72
   8   4  -7   11.60    2.37
  10   4  -7   92.55    7.01
  12   4  -7    7.19    2.77
  14   4  -7   25.94    4.71
   7   5  -7    3.77    3.17
  -1  -5  -6   63.14    4.94
   1  -5  -6    0.51    1.61
   3  -5  -6    1.69    1.66
   5  -5  -6   48.38    4.27
   7  -5  -6   30.25    3.39
   9  -5  -6   12.68    2.55
  -8  -4  -6    2.64    2.36
  -6  -4  -6    0.53    2.11
  -4  -4  -6    5.95    2.70
  -2  -4  -6   21.74    2.75
   0  -4  -6    9.67    2.04
   2  -4  -6    8.31    1.88
   4  -4  -6  123.76    5.46
   6  -4  -6   25.52    3.00
   8  -4  -6    3.61    1.58
  10  -4  -6   13.80    2.32
  12  -4  -6   30.82    3.38
  14  -4  -6    3.39    2.67
 -11  -3  -6    6.03    2.12
  -9  -3  -6   80.51    4.90
  -7  -3  -6    1.59    1.43
  -5  -3  -6   22.21    3.91
  -3  -3  -6    0.66    1.49
  -1  -3  -6  114.78    4.72
   1  -3  -6    6.30    1.47
   3  -3  -6    3.30    1.35
   5  -3  -6   76.42    3.92
   7  -3  -6   54.34    3.93
   9  -3  -6   33.34    2.99
  11  -3  -6    9.82    1.78
  13  -3  -6   55.71    4.05
  15  -3  -6   11.81    2.17
  17  -3  -6    0.77    1.35
  19  -3  -6   -1.35    2.14
 -14  -2  -6    4.50    3.23
 -12  -2  -6   20.65    4.35
 -10  -2  -6   39.36    3.66
  -8  -2  -6    8.59    1.87
  -6  -2  -6   -1.02    0.94
  -4  -2  -6    7.12    2.20
  -2  -2  -6   33.58    2.87
   0  -2  -6   12.17    1.77
   2  -2  -6   15.68    1.98
   4  -2  -6  222.74    6.31
   6  -2  -6   44.51    3.31
   8  -2  -6   10.37    1.71
  10  -2  -6   19.63    1.90
  12  -2  -6   50.51    2.90
  14  -2  -6    2.25    1.21
  16  -2  -6   51.83    3.89
  18  -2  -6   40.76    3.69
  20  -2  -6  102.37    6.83
 -15  -1  -6    9.04    3.37
 -13  -1  -6   43.80    5.56
 -11  -1  -6    7.01    2.36
  -9  -1  -6   87.97    6.17
  -7  -1  -6   -0.08    1.00
  -5  -1  -6   33.26    2.68
  -3  -1  -6    0.87    0.79
  -1  -1  -6  161.10    4.87
   1  -1  -6    6.11    1.22
   3  -1  -6    5.71    1.19
   5  -1  -6  127.86    3.65
   7  -1  -6   77.27    2.84
   9  -1  -6   51.14    2.56
  11  -1  -6   14.54    1.57
  13  -1  -6   78.19    2.93
  15  -1  -6   10.83    1.92
  17  -1  -6    1.42    1.31
  19  -1  -6    4.68    1.66
  21  -1  -6   45.03    4.01
 -14   0  -6    0.84    1.98
 -12   0  -6   31.26    4.43
 -10   0  -6   43.82    5.17
  -8   0  -6   11.56    1.87
  -6   0  -6   -0.04    0.87
  -4   0  -6    9.40    1.48
  -2   0  -6   39.18    2.73
   0   0  -6   11.78    1.64
   2   0  -6   22.84    2.22
   4   0  -6  262.97    5.18
   6   0  -6   55.22    2.32
   8   0  -6   15.41    1.45
  10   0  -6   18.04    1.60
  12   0  -6   65.88    2.62
  14   0  -6    6.88    1.13
  16   0  -6   55.38    3.95
  18   0  -6   45.89    3.79
  20   0  -6  116.51    5.45
  22   0  -6   -0.28    1.48
 -15   1  -6    8.94    3.29
 -13   1  -6   43.01    3.90
 -11   1  -6    7.81    2.62
  -9   1  -6  103.38    4.66
  -7   1  -6   -0.18    0.97
  -5   1  -6   33.81    2.98
  -3   1  -6    0.24    0.98
  -1   1  -6  151.92    5.83
   1   1  -6    6.52    1.16
   3   1  -6    4.67    1.14
   5   1  -6  121.07    3.79
   7   1  -6   75.78    3.47
   9   1  -6   53.29    3.02
  11   1  -6   18.35    1.80
  13   1  -6   72.55    3.52
  15   1  -6   12.49    1.84
  17   1  -6   -0.27    1.41
  19   1  -6    3.35    2.14
  21   1  -6   75.17    6.97
 -12   2  -6   23.53    4.33
 -10   2  -6   28.95    3.10
  -8   2  -6    4.96    1.66
  -6   2  -6    1.09    1.06
  -4   2  -6    4.93    1.19
  -2   2  -6   39.20    3.71
   0   2  -6   11.22    2.24
   2   2  -6   19.37    2.68
   4   2  -6  222.07    5.51
   6   2  -6   47.61    2.89
   8   2  -6   13.03    1.57
  10   2  -6   21.14    1.91
  12   2  -6   49.81    3.51
  14   2  -6    4.15    1.38
  16   2  -6   51.64    3.71
  18   2  -6   35.56    4.96
  20   2  -6  100.31    7.05
 -11   3  -6    4.37    1.79
  -7   3  -6    1.05    1.30
  -5   3  -6   17.24    2.54
  -3   3  -6   -0.72    0.88
  -1   3  -6  109.66    4.18
   1   3  -6   -0.56    1.13
   3   3  -6    3.33    1.50
   5   3  -6   71.77    4.32
   7   3  -6   58.24    3.24
   9   3  -6   35.88    2.57
  11   3  -6   11.98    2.01
  13   3  -6   53.33    3.81
  15   3  -6   14.04    2.26
  17   3  -6    0.73    1.33
  19   3  -6    5.02    2.81
  -8   4  -6    5.58    2.01
  -6   4  -6    0.46    1.53
  -4   4  -6    4.10    1.77
  -2   4  -6   20.32    3.99
   0   4  -6    5.95    1.50
   2   4  -6    9.70    1.68
   4   4  -6  136.75    8.15
   6   4  -6   23.40    2.76
   8   4  -6    9.97    1.99
  10   4  -6   10.63    2.86
  12   4  -6   33.42    3.48
  14   4  -6    1.16    1.58
  16   4  -6   37.22    3.79
  -3   5  -6    1.87    2.61
   1   5  -6    3.81    2.00
   3   5  -6   -0.24    1.45
   5   5  -6   42.66    4.04
   7   5  -6   34.97    3.61
   9   5  -6   24.36    4.53
  -7  -5  -5   15.00    4.37
  -5  -5  -5   18.53    2.98
  -3  -5  -5    3.07    1.84
  -1  -5  -5   75.95    3.97
   1  -5  -5   46.54    3.31
   3  -5  -5    3.64    1.38
   5  -5  -5   24.24    2.55
   7  -5  -5   31.82    3.34
   9  -5  -5    0.31    2.30
  11  -5  -5   31.02    5.27
 -10  -4  -5    2.69    1.87
  -8  -4  -5   24.88    3.24
  -6  -4  -5  143.48    8.29
  -4  -4  -5    4.33    1.55
  -2  -4  -5   23.56    2.74
   0  -4  -5   13.74    1.69
   2  -4  -5    0.32    0.87
   4  -4  -5    0.06    0.87
   6  -4  -5    8.48    1.43
   8  -4  -5   18.03    2.46
  10  -4  -5   77.29    4.38
  12  -4  -5    8.16    1.92
  14  -4  -5   20.53    4.10
  16  -4  -5    7.97    3.31
 -13  -3  -5   26.84    5.05
 -11  -3  -5    1.38    1.53
  -9  -3  -5    1.61    1.51
  -7  -3  -5   26.50    2.97
  -5  -3  -5   29.54    2.94
  -3  -3  -5    9.44    1.73
  -1  -3  -5  134.03    4.76
   1  -3  -5   93.34    3.14
   3  -3  -5    2.79    0.94
   5  -3  -5   53.50    2.65
   7  -3  -5   72.57    2.82
   9  -3  -5    0.92    1.02
  11  -3  -5   61.71    3.66
  13  -3  -5    2.67    1.27
  15  -3  -5   79.38    4.08
  17  -3  -5   -1.54    1.71
  19  -3  -5    3.55    2.39
 -16  -2  -5   -1.02    2.43
 -14  -2  -5   31.45    3.66
 -12  -2  -5   17.42    2.79
 -10  -2  -5   10.81    2.29
  -8  -2  -5   43.51    5.18
  -6  -2  -5  199.61    6.20
  -4  -2  -5    8.04    1.43
  -2  -2  -5   47.97    2.70
   0  -2  -5   16.05    1.42
   2  -2  -5    1.46    0.70
   4  -2  -5    1.12    0.73
   6  -2  -5   19.20    2.08
   8  -2  -5   34.20    2.70
  10  -2  -5  124.15    4.59
  12  -2  -5   23.43    1.87
  14  -2  -5   37.85    3.09
  16  -2  -5    8.96    1.86
  18  -2  -5   17.50    2.41
  20  -2  -5    3.34    2.46
 -15  -1  -5   32.49    5.02
 -13  -1  -5   27.17    4.32
 -11  -1  -5    1.58    1.13
  -9  -1  -5    9.34    1.66
  -3  -1  -5   15.69    1.66
  -1  -1  -5  210.56    4.19
   1  -1  -5  147.14    3.14
   3  -1  -5    7.27    1.23
   5  -1  -5   82.67    3.22
   7  -1  -5  107.49    3.16
   9  -1  -5    5.62    1.01
  11  -1  -5   98.92    3.08
  13  -1  -5    3.99    0.90
  15  -1  -5  117.89    4.60
  17  -1  -5    2.60    1.31
  19  -1  -5    4.50    1.61
  21  -1  -5    3.45    1.71
 -16   0  -5   -1.17    1.22
 -14   0  -5   35.63    4.86
 -12   0  -5   13.72    2.10
 -10   0  -5   18.16    3.14
  -8   0  -5   50.60    3.41
  -6   0  -5  226.80    4.86
  -4   0  -5   11.69    1.48
  -2   0  -5   57.27    2.05
   0   0  -5   24.82    1.43
   2   0  -5    1.57    0.63
   4   0  -5    3.37    0.75
   6   0  -5   23.01    1.56
   8   0  -5   42.61    2.07
  10   0  -5  162.61    3.93
  12   0  -5   24.23    1.80
  14   0  -5   43.83    2.32
  16   0  -5   11.21    1.81
  18   0  -5   16.37    2.31
  20   0  -5    6.96    1.88
  22   0  -5   10.93    2.20
 -15   1  -5   38.59    3.74
 -13   1  -5   32.78    3.26
 -11   1  -5    0.96    1.49
  -9   1  -5    6.39    1.56
  -7   1  -5   37.40    3.03
  -5   1  -5   44.33    3.38
  -3   1  -5   11.46    1.95
  -1   1  -5  216.56    4.87
   1   1  -5  149.73    3.89
   3   1  -5    7.30    1.17
   5   1  -5   77.61    3.18
   7   1  -5  113.07    3.04
   9   1  -5    3.79    0.82
  11   1  -5  102.45    2.77
  13   1  -5    4.21    0.95
  15   1  -5  117.59    3.67
  17   1  -5    1.66    1.32
  19   1  -5    7.16    1.78
  21   1  -5    4.02    1.63
  23   1  -5    3.95    1.85
 -14   2  -5   30.21    3.39
 -12   2  -5   14.79    2.36
 -10   2  -5    8.27    1.83
  -8   2  -5   48.03    3.68
  -6   2  -5  191.61    6.44
  -4   2  -5    8.57    1.31
  -2   2  -5   41.24    3.29
   0   2  -5   17.99    2.22
   2   2  -5    0.84    0.74
   4   2  -5    1.70    0.84
   6   2  -5   18.32    1.60
   8   2  -5   34.23    2.15
  10   2  -5  135.76    3.69
  12   2  -5   18.87    2.14
  14   2  -5   36.55    2.88
  16   2  -5    8.43    1.59
  18   2  -5   13.29    3.01
  20   2  -5    5.13    2.42
 -13   3  -5   19.73    2.87
 -11   3  -5    1.05    1.22
  -9   3  -5    3.91    1.51
  -7   3  -5   21.71    3.71
  -5   3  -5   29.62    2.98
  -3   3  -5    6.86    1.29
  -1   3  -5  136.62    4.30
   1   3  -5   91.06    4.19
   3   3  -5    3.16    1.20
   5   3  -5   54.89    2.65
   7   3  -5   66.22    2.84
   9   3  -5    2.98    0.92
  11   3  -5   68.29    3.52
  13   3  -5    2.81    1.17
  15   3  -5   83.46    4.17
  17   3  -5    1.00    1.25
  19   3  -5    5.81    2.58
 -12   4  -5    6.99    3.10
 -10   4  -5    2.57    1.62
  -8   4  -5   30.73    4.78
  -4   4  -5    5.54    1.72
  -2   4  -5   26.87    2.31
   0   4  -5   10.22    1.58
   2   4  -5    1.24    0.92
   4   4  -5    2.47    1.21
   6   4  -5    8.59    1.74
   8   4  -5   20.74    2.45
  10   4  -5   81.07    4.22
  12   4  -5   11.20    2.12
  14   4  -5   19.75    2.73
  16   4  -5    9.74    2.16
  18   4  -5   14.05    3.54
  -5   5  -5   16.57    2.71
  -3   5  -5    5.45    2.06
  -1   5  -5   68.59    4.87
   1   5  -5   45.45    4.00
   3   5  -5    1.10    1.40
   5   5  -5   24.80    3.00
   7   5  -5   39.31    3.67
   9   5  -5    3.10    2.06
  11   5  -5   37.69    5.36
   0  -6  -4   22.86    3.26
   2  -6  -4   24.87    5.12
   4  -6  -4    5.75    3.49
  -9  -5  -4   -2.23    2.55
  -7  -5  -4   -1.06    1.58
  -5  -5  -4    8.41    2.16
  -3  -5  -4    0.16    1.38
  -1  -5  -4   -0.81    1.33
   1  -5  -4   57.06    3.50
   3  -5  -4    0.03    1.09
   5  -5  -4   55.36    3.46
   7  -5  -4    0.77    1.52
   9  -5  -4   12.56    2.49
  11  -5  -4   26.03    3.32
  13  -5  -4    0.88    1.83
 -12  -4  -4   48.38    4.71
 -10  -4  -4    3.66    1.99
  -8  -4  -4   30.10    3.33
  -6  -4  -4   28.23    3.05
  -4  -4  -4   12.22    2.04
  -2  -4  -4   32.26    3.09
   0  -4  -4   34.62    3.10
   2  -4  -4   48.79    2.86
   4  -4  -4   11.08    1.53
   6  -4  -4  117.64    3.89
   8  -4  -4    0.22    0.85
  10  -4  -4    4.10    1.22
  12  -4  -4    1.76    1.48
  14  -4  -4   31.15    3.47
  16  -4  -4   14.93    3.69
  18  -4  -4   10.30    3.51
 -15  -3  -4   17.70    4.72
 -13  -3  -4   -0.98    2.50
 -11  -3  -4  107.51    7.75
  -9  -3  -4   -1.22    1.50
  -7  -3  -4   -1.25    0.84
  -5  -3  -4   15.54    2.09
  -3  -3  -4    0.79    0.95
  -1  -3  -4   -0.33    0.79
   1  -3  -4  109.23    4.01
   3  -3  -4    0.63    0.71
   5  -3  -4   99.11    3.18
   7  -3  -4    5.09    1.04
   9  -3  -4   28.31    2.09
  11  -3  -4   52.26    2.68
  13  -3  -4    4.82    1.18
  15  -3  -4   38.74    3.60
  17  -3  -4   59.65    6.47
  19  -3  -4   31.23    5.19
 -16  -2  -4   54.95    4.93
 -14  -2  -4    2.36    1.94
 -12  -2  -4   75.81    5.27
 -10  -2  -4    1.32    1.58
  -8  -2  -4   55.57    4.19
  -6  -2  -4   59.80    3.48
  -4  -2  -4   22.30    1.67
  -2  -2  -4   58.28    2.03
   0  -2  -4   68.38    2.71
   2  -2  -4   90.77    2.61
   4  -2  -4   28.80    1.73
   6  -2  -4  210.02    4.36
   8  -2  -4    1.59    0.75
  10  -2  -4   12.29    1.34
  12  -2  -4   12.15    1.43
  14  -2  -4   45.59    2.74
  16  -2  -4   23.70    2.25
  18  -2  -4   20.16    2.42
  20  -2  -4    8.98    3.26
  22  -2  -4   40.79    6.07
 -17  -1  -4    9.72    3.20
 -15  -1  -4   18.59    2.57
 -13  -1  -4    0.14    0.98
 -11  -1  -4  129.55    4.98
  -9  -1  -4    1.52    0.71
  -3  -1  -4    0.55    0.92
  -1  -1  -4    0.73    0.55
   1  -1  -4  177.16    3.37
   3  -1  -4    1.69    0.51
   5  -1  -4  158.17    4.29
   7  -1  -4    9.35    0.86
   9  -1  -4   49.70    1.70
  11  -1  -4   82.96    2.36
  13  -1  -4    6.96    1.29
  15  -1  -4   52.90    2.81
  17  -1  -4   69.07    3.89
  19  -1  -4   40.23    3.41
  21  -1  -4   74.61    4.40
  23  -1  -4    3.86    2.76
 -18   0  -4    1.42    1.40
 -16   0  -4   54.03    4.17
 -14   0  -4    3.13    1.82
 -12   0  -4   88.50    4.01
 -10   0  -4    4.22    1.17
  -8   0  -4   70.22    2.51
  -6   0  -4   68.72    3.01
  -4   0  -4   21.78    2.89
  -2   0  -4   73.53    2.80
   0   0  -4   84.06    2.21
   2   0  -4  125.60    2.80
   4   0  -4   32.61    1.46
   6   0  -4  277.76    4.82
   8   0  -4    1.50    0.46
  10   0  -4   16.13    1.10
  12   0  -4   12.77    1.10
  14   0  -4   48.81    1.93
  16   0  -4   26.12    2.58
  18   0  -4   19.96    2.52
  20   0  -4    9.77    2.00
  22   0  -4   40.75    3.70
  24   0  -4    8.31    3.04
 -17   1  -4    8.87    2.01
 -15   1  -4   18.99    2.56
 -13   1  -4    0.83    1.06
 -11   1  -4  122.54    4.90
  -9   1  -4    1.02    0.91
  -7   1  -4    1.14    0.69
  -5   1  -4   24.42    2.42
  -3   1  -4    0.13    0.59
  -1   1  -4    0.24    0.56
   1   1  -4  175.73    3.86
   3   1  -4    1.54    0.63
   5   1  -4  161.93    3.07
   7   1  -4    9.15    0.92
   9   1  -4   46.55    1.72
  11   1  -4   83.12    2.27
  13   1  -4    7.03    1.08
  15   1  -4   48.09    2.41
  17   1  -4   71.03    3.71
  19   1  -4   38.52    3.42
  21   1  -4   72.44    4.91
  23   1  -4    5.94    1.93
 -16   2  -4   53.44    4.26
 -14   2  -4    2.94    1.44
 -12   2  -4   81.46    4.22
 -10   2  -4    2.33    1.12
  -8   2  -4   56.99    3.46
  -6   2  -4   54.12    2.53
  -4   2  -4   20.96    1.72
  -2   2  -4   52.15    2.93
   0   2  -4   69.62    2.19
   2   2  -4   97.70    2.70
   4   2  -4   22.39    1.58
   6   2  -4  213.44    4.44
   8   2  -4    1.20    0.59
  10   2  -4   12.66    1.17
  12   2  -4   10.80    1.37
  14   2  -4   45.55    2.72
  16   2  -4   24.06    2.04
  18   2  -4   11.81    2.13
  20   2  -4    8.56    2.05
  22   2  -4   41.39    4.13
 -15   3  -4    6.88    2.14
 -13   3  -4    2.55    1.49
 -11   3  -4   98.72    6.38
  -9   3  -4    1.48    1.07
  -7   3  -4    0.16    0.94
  -5   3  -4   14.81    2.07
  -3   3  -4    0.53    0.68
  -1   3  -4   -0.73    0.56
   1   3  -4  113.88    3.50
   3   3  -4    0.46    0.67
   5   3  -4  104.35    3.09
   7   3  -4    5.64    1.00
   9   3  -4   32.95    2.07
  11   3  -4   55.94    3.53
  13   3  -4    3.98    1.28
  15   3  -4   35.28    3.04
  17   3  -4   55.38    3.91
  19   3  -4   42.04    5.37
 -12   4  -4   53.50    3.67
 -10   4  -4    3.02    1.57
  -8   4  -4   26.42    3.03
  -6   4  -4   29.01    3.07
  -4   4  -4    8.05    1.77
  -2   4  -4   35.26    2.45
   0   4  -4   40.00    2.57
   2   4  -4   50.22    2.68
   4   4  -4   13.19    1.93
   6   4  -4  128.14    4.78
   8   4  -4    2.21    0.90
  10   4  -4    5.13    1.45
  12   4  -4    4.18    1.54
  14   4  -4   29.69    3.13
  16   4  -4   17.34    2.53
  18   4  -4   15.11    2.47
  -9   5  -4    0.78    1.73
  -7   5  -4    0.31    1.59
  -5   5  -4    5.09    1.80
  -3   5  -4   -1.03    1.26
  -1   5  -4    1.52    1.42
   1   5  -4   54.73    4.10
   3   5  -4    0.53    1.21
   5   5  -4   62.21    4.41
   7   5  -4    0.50    1.17
   9   5  -4   12.63    3.22
  11   5  -4   22.20    4.01
  13   5  -4    0.74    1.52
   2   6  -4   22.38    3.10
   4   6  -4    5.73    2.16
  -2  -6  -3    9.22    2.40
   0  -6  -3   58.81    5.03
   2  -6  -3    4.45    2.21
   4  -6  -3   50.55    4.74
   6  -6  -3    7.33    2.31
   8  -6  -3   19.46    3.30
  -9  -5  -3   29.62    3.68
  -7  -5  -3   18.08    2.82
  -5  -5  -3  114.87    7.93
  -3  -5  -3    5.14    1.70
  -1  -5  -3    5.51    1.77
   1  -5  -3    2.66    1.51
   3  -5  -3    2.37    1.13
   5  -5  -3    4.51    1.81
   7  -5  -3    0.55    1.34
   9  -5  -3  105.08    5.35
  11  -5  -3   52.54    4.41
  13  -5  -3    1.58    1.77
  15  -5  -3    4.50    2.26
 -14  -4  -3   10.26    5.10
 -12  -4  -3    8.89    2.25
 -10  -4  -3   29.07    3.40
  -8  -4  -3    8.61    1.92
  -6  -4  -3    0.16    0.99
  -4  -4  -3   76.37    3.88
  -2  -4  -3   21.61    2.46
   0  -4  -3  139.11    5.11
   2  -4  -3    1.62    1.09
   4  -4  -3  104.44    3.43
   6  -4  -3   27.20    2.10
   8  -4  -3   39.66    2.56
  10  -4  -3    0.61    1.21
  12  -4  -3   75.92    5.00
  14  -4  -3   57.44    4.58
  16  -4  -3    8.62    2.26
  18  -4  -3   22.84    3.24
 -17  -3  -3   26.06    4.12
 -15  -3  -3   25.76    3.98
 -13  -3  -3   -0.48    1.81
 -11  -3  -3    6.04    1.92
  -9  -3  -3   48.55    3.81
  -7  -3  -3   51.32    3.49
  -5  -3  -3  248.90    5.34
  -3  -3  -3    6.80    1.03
  -1  -3  -3   18.77    1.96
   1  -3  -3    5.23    1.25
   3  -3  -3   10.29    1.22
   5  -3  -3    6.87    1.07
   7  -3  -3    1.70    0.78
   9  -3  -3  212.88    4.80
  11  -3  -3   92.59    3.13
  13  -3  -3    0.33    1.07
  15  -3  -3    6.86    1.82
  17  -3  -3   34.84    3.87
  19  -3  -3    4.14    2.15
  21  -3  -3   -1.46    5.33
 -18  -2  -3    5.38    2.18
 -16  -2  -3   -0.77    1.46
 -14  -2  -3   23.30    3.21
 -12  -2  -3   14.30    2.53
 -10  -2  -3   43.23    3.78
  -8  -2  -3   17.93    2.22
  -6  -2  -3    0.24    0.58
  -4  -2  -3  131.15    2.86
  -2  -2  -3   42.42    1.22
   0  -2  -3  283.27    4.55
   2  -2  -3    8.77    0.94
   4  -2  -3  199.89    3.94
   6  -2  -3   44.94    1.84
   8  -2  -3   69.01    2.37
  10  -2  -3   10.23    1.19
  12  -2  -3  140.34    3.70
  14  -2  -3  106.51    3.40
  16  -2  -3   19.78    1.96
  18  -2  -3   25.83    3.63
  20  -2  -3   21.43    3.02
  22  -2  -3    2.97    2.09
 -19  -1  -3    7.94    2.22
 -17  -1  -3   35.82    3.42
 -15  -1  -3   38.79    3.39
 -13  -1  -3    1.47    1.15
 -11  -1  -3   10.29    1.65
  -9  -1  -3   82.28    2.70
  -7  -1  -3   72.30    3.92
  -1  -1  -3   33.42    1.56
   1  -1  -3    6.80    0.50
   3  -1  -3   17.89    0.99
   5  -1  -3   11.63    0.92
   7  -1  -3    3.15    0.64
   9  -1  -3  315.13    4.70
  11  -1  -3  141.90    2.94
  13  -1  -3    1.95    0.84
  15  -1  -3   12.10    1.58
  17  -1  -3   32.46    2.43
  19  -1  -3    9.16    1.50
  21  -1  -3    2.88    1.70
  23  -1  -3    0.33    2.25
 -20   0  -3   28.91    4.81
 -18   0  -3    4.76    1.77
 -16   0  -3    0.64    1.05
 -14   0  -3   35.92    2.94
 -12   0  -3   17.26    2.03
 -10   0  -3   64.20    2.37
  -8   0  -3   20.13    1.80
  -6   0  -3    1.47    0.98
   0   0  -3  399.12    5.86
   2   0  -3   11.73    0.87
   4   0  -3  271.98    4.41
   6   0  -3   67.84    1.53
   8   0  -3   89.11    2.01
  10   0  -3    8.12    0.82
  12   0  -3  171.02    3.31
  14   0  -3  127.54    3.67
  16   0  -3   20.31    1.90
  18   0  -3   36.37    2.58
  20   0  -3   27.51    2.39
  22   0  -3    1.22    1.33
 -19   1  -3   12.27    3.25
 -17   1  -3   40.79    3.68
 -15   1  -3   27.08    2.73
 -13   1  -3   -0.06    0.85
 -11   1  -3   10.07    1.26
  -9   1  -3   76.07    3.23
  -7   1  -3   74.97    2.41
  -5   1  -3  391.79    5.34
  -3   1  -3   15.82    1.03
  -1   1  -3   34.65    1.39
   1   1  -3    5.88    0.70
   3   1  -3   19.64    0.90
   5   1  -3   11.66    0.85
   7   1  -3    2.91    0.53
   9   1  -3  312.65    4.07
  11   1  -3  138.18    2.92
  13   1  -3    1.13    0.53
  15   1  -3   11.94    1.44
  17   1  -3   37.02    2.57
  19   1  -3   10.52    1.61
  21   1  -3    4.15    1.40
  23   1  -3   -0.49    1.29
 -18   2  -3    3.12    1.62
 -16   2  -3   -0.53    1.14
 -14   2  -3   28.39    3.03
 -12   2  -3   11.39    1.47
 -10   2  -3   49.50    3.12
  -8   2  -3   12.32    1.66
  -6   2  -3    0.00    0.50
  -4   2  -3  133.60    3.31
  -2   2  -3   43.29    1.99
   0   2  -3  273.50    4.62
   2   2  -3    7.74    0.86
   4   2  -3  200.43    3.16
   6   2  -3   54.33    1.57
   8   2  -3   71.28    1.97
  10   2  -3    9.03    0.90
  12   2  -3  135.31    3.73
  14   2  -3  104.69    3.40
  16   2  -3   18.22    1.72
  18   2  -3   33.51    3.33
  20   2  -3   22.54    2.94
  22   2  -3    0.67    1.58
 -17   3  -3   28.28    3.51
 -15   3  -3   30.82    3.46
 -13   3  -3    0.30    1.10
 -11   3  -3    4.88    1.16
  -9   3  -3   47.51    3.44
  -7   3  -3   42.68    3.20
  -5   3  -3  248.96    5.22
  -3   3  -3    6.77    1.01
  -1   3  -3   15.87    1.47
   1   3  -3    3.98    0.89
   3   3  -3    9.54    0.94
   5   3  -3    4.08    0.84
   7   3  -3    0.38    0.60
   9   3  -3  206.95    3.86
  11   3  -3   99.28    3.28
  13   3  -3    0.35    0.71
  15   3  -3   10.12    1.47
  17   3  -3   30.14    2.50
  19   3  -3    4.78    1.69
  21   3  -3    7.45    3.36
 -14   4  -3   14.48    2.66
 -12   4  -3    7.33    1.49
 -10   4  -3   33.29    2.76
  -8   4  -3    7.69    1.74
  -6   4  -3   -0.76    0.91
  -4   4  -3   77.48    2.99
  -2   4  -3   17.35    1.67
   0   4  -3  141.12    4.96
   2   4  -3    3.19    0.91
   4   4  -3  100.34    4.02
   6   4  -3   29.06    2.08
   8   4  -3   43.88    2.57
  10   4  -3    3.49    1.31
  12   4  -3   70.34    4.08
  14   4  -3   68.61    4.06
  16   4  -3   18.50    2.47
  18   4  -3   21.79    4.21
 -11   5  -3    3.27    1.97
  -9   5  -3   39.57    5.56
  -7   5  -3   30.91    3.43
  -5   5  -3  146.78    8.40
  -3   5  -3    1.08    1.32
  -1   5  -3    4.86    1.52
   1   5  -3    1.23    1.19
   3   5  -3    5.33    1.51
   5   5  -3    3.12    1.42
   7   5  -3    2.73    1.28
   9   5  -3  105.62    6.97
  11   5  -3   61.83    4.50
  13   5  -3   -0.67    1.27
  15   5  -3    2.98    1.71
  -2   6  -3    4.85    2.98
   0   6  -3   64.89    4.95
   2   6  -3    1.50    1.62
   4   6  -3   56.13    4.59
   6   6  -3    9.27    3.17
  -6  -6  -2    3.44    2.85
  -4  -6  -2    5.04    2.08
  -2  -6  -2   29.51    3.62
   0  -6  -2    3.34    1.80
   2  -6  -2    8.02    2.27
   4  -6  -2    8.74    2.45
   6  -6  -2   62.75    5.17
   8  -6  -2    1.45    1.85
  10  -6  -2    0.79    2.62
 -11  -5  -2   33.23    5.89
  -9  -5  -2   19.58    2.98
  -7  -5  -2   13.54    2.32
  -5  -5  -2    0.95    1.36
  -3  -5  -2    1.27    1.25
  -1  -5  -2   94.92    4.67
   1  -5  -2   36.26    3.41
   3  -5  -2  111.36    5.14
   5  -5  -2    1.15    1.25
   7  -5  -2   -0.66    1.17
   9  -5  -2    0.64    1.33
  11  -5  -2    2.62    1.71
  13  -5  -2    3.08    1.80
  15  -5  -2   47.50    4.66
 -16  -4  -2    5.19    3.86
 -14  -4  -2   43.43    4.91
 -12  -4  -2   41.64    4.28
 -10  -4  -2   58.98    4.38
  -8  -4  -2   33.32    2.62
  -6  -4  -2    4.73    1.14
  -4  -4  -2    1.79    0.90
  -2  -4  -2   68.93    2.67
   0  -4  -2    4.76    1.37
   2  -4  -2   12.45    1.83
   4  -4  -2   17.09    1.65
   6  -4  -2  140.03    3.84
   8  -4  -2   12.77    2.07
  10  -4  -2    3.98    1.45
  12  -4  -2    5.00    1.60
  14  -4  -2   17.29    2.61
  16  -4  -2   30.16    3.53
  18  -4  -2   21.65    5.51
 -17  -3  -2   50.10    5.59
 -15  -3  -2   82.33    6.63
 -13  -3  -2    0.09    1.43
 -11  -3  -2   63.01    4.62
  -9  -3  -2   44.06    3.46
  -7  -3  -2   28.03    2.50
  -5  -3  -2    4.52    0.95
  -3  -3  -2   -0.38    0.56
  -1  -3  -2  221.14    4.35
   1  -3  -2   78.78    2.39
   3  -3  -2  252.36    4.77
   5  -3  -2    4.27    0.70
   7  -3  -2   -0.49    0.49
   9  -3  -2    0.14    0.63
  11  -3  -2    4.08    1.26
  13  -3  -2    4.21    1.42
  15  -3  -2   81.53    4.77
  17  -3  -2    5.84    1.90
  19  -3  -2   10.02    2.86
  21  -3  -2    0.86    2.20
 -18  -2  -2   28.01    3.66
 -16  -2  -2    6.68    2.20
 -14  -2  -2   69.59    3.60
 -12  -2  -2   66.17    3.29
 -10  -2  -2   84.24    3.04
  -8  -2  -2   71.72    2.47
  -6  -2  -2   10.27    1.00
  -4  -2  -2    2.46    0.50
  -2  -2  -2  142.85    2.97
   0  -2  -2   10.58    0.85
   2  -2  -2   23.93    1.08
   4  -2  -2   31.34    1.14
   6  -2  -2  266.16    3.94
   8  -2  -2   19.61    1.17
  10  -2  -2    5.51    0.80
  12  -2  -2   10.74    1.04
  14  -2  -2   30.97    1.80
  16  -2  -2   54.27    3.09
  18  -2  -2   48.21    3.45
  20  -2  -2   77.66    5.84
  22  -2  -2   -0.95    1.59
 -21  -1  -2    3.34    2.65
 -19  -1  -2    0.98    1.58
 -17  -1  -2   63.64    4.45
 -15  -1  -2  110.20    4.72
 -13  -1  -2   -0.29    0.84
 -11  -1  -2  107.49    4.07
  -9  -1  -2   68.46    2.23
  -7  -1  -2   41.36    1.67
  -5  -1  -2    7.44    0.95
  -3  -1  -2    1.07    0.73
  -1  -1  -2  392.01    5.47
   1  -1  -2  154.74    2.39
   3  -1  -2  459.79    6.31
   5  -1  -2   12.41    0.68
   7  -1  -2    0.29    0.32
   9  -1  -2   -0.15    0.31
  11  -1  -2    6.90    0.86
  13  -1  -2    5.64    0.91
  15  -1  -2  120.21    3.81
  17  -1  -2   11.56    1.49
  19  -1  -2   15.68    2.52
  21  -1  -2    0.03    1.35
  23  -1  -2   32.37    3.73
 -20   0  -2    9.29    2.13
 -18   0  -2   26.64    3.07
 -16   0  -2    4.41    1.35
 -14   0  -2   80.79    3.68
 -12   0  -2   92.41    3.48
 -10   0  -2   96.27    2.62
  -8   0  -2   87.18    2.37
  -6   0  -2   14.95    1.32
   0   0  -2   16.82    0.87
   2   0  -2   29.24    1.06
   4   0  -2   47.43    1.18
   6   0  -2  368.89    4.81
   8   0  -2   24.29    1.11
  10   0  -2    8.21    0.75
  12   0  -2   13.64    0.97
  14   0  -2   37.33    2.32
  16   0  -2   49.37    2.64
  18   0  -2   53.81    2.86
  20   0  -2  103.39    3.83
  22   0  -2   -0.21    1.39
  24   0  -2    2.15    2.51
 -19   1  -2    0.51    1.26
 -17   1  -2   63.86    4.06
 -15   1  -2  110.29    4.69
 -13   1  -2    0.16    0.83
 -11   1  -2  102.97    3.02
  -9   1  -2   68.82    2.34
  -7   1  -2   42.50    1.47
  -5   1  -2    8.73    0.79
  -3   1  -2    1.52    0.34
  -1   1  -2  388.73    5.37
   1   1  -2  158.11    2.72
   3   1  -2  462.26    5.46
   5   1  -2   13.09    0.76
   7   1  -2   -0.55    0.24
   9   1  -2    0.13    0.28
  11   1  -2    7.42    0.79
  13   1  -2    6.66    0.82
  15   1  -2  120.82    3.83
  17   1  -2    7.63    1.37
  19   1  -2    9.16    1.58
  21   1  -2    1.25    1.15
  23   1  -2   30.80    2.91
 -20   2  -2   12.25    3.56
 -18   2  -2   24.28    3.03
 -16   2  -2    5.86    1.70
 -14   2  -2   66.10    4.41
 -12   2  -2   77.91    2.88
 -10   2  -2   80.45    2.80
  -8   2  -2   74.04    3.10
  -6   2  -2    8.48    0.88
  -4   2  -2    2.81    0.58
  -2   2  -2  141.60    2.26
   0   2  -2   11.17    0.75
   2   2  -2   22.83    1.25
   4   2  -2   31.21    1.07
   6   2  -2  266.63    3.94
   8   2  -2   20.36    1.11
  10   2  -2    5.26    0.91
  12   2  -2    8.04    1.10
  14   2  -2   33.07    2.17
  16   2  -2   51.17    3.15
  18   2  -2   46.87    3.24
  20   2  -2   95.54    4.26
  22   2  -2    0.54    1.44
 -17   3  -2   51.71    4.50
 -15   3  -2   84.06    4.70
 -13   3  -2    2.01    0.95
 -11   3  -2   68.38    2.94
  -9   3  -2   41.20    3.03
  -7   3  -2   22.35    2.25
  -5   3  -2    5.84    0.90
  -3   3  -2    0.65    0.59
  -1   3  -2  212.64    4.46
   1   3  -2   81.90    2.04
   3   3  -2  256.34    4.08
   5   3  -2    4.90    0.59
   7   3  -2   -0.19    0.45
   9   3  -2    0.92    0.66
  11   3  -2    5.50    1.06
  13   3  -2    0.85    0.80
  15   3  -2   81.90    3.43
  17   3  -2    4.69    1.65
  19   3  -2   10.04    2.18
  21   3  -2    7.19    3.45
 -16   4  -2    2.90    2.64
 -14   4  -2   45.63    4.05
 -12   4  -2   43.18    3.08
 -10   4  -2   41.98    2.86
  -8   4  -2   35.33    3.26
  -6   4  -2    6.47    1.53
  -4   4  -2    1.74    0.78
  -2   4  -2   70.59    2.69
   0   4  -2    3.62    0.90
   2   4  -2   11.93    1.70
   4   4  -2   19.15    1.63
   6   4  -2  130.38    3.69
   8   4  -2    8.62    1.02
  10   4  -2    2.67    0.91
  12   4  -2    5.66    1.23
  14   4  -2   20.40    2.10
  16   4  -2   31.66    2.77
  18   4  -2   24.77    3.52
 -13   5  -2    1.59    2.42
 -11   5  -2   33.72    3.64
  -9   5  -2   26.08    3.12
  -7   5  -2    7.73    1.90
  -5   5  -2    0.66    1.28
  -3   5  -2   -0.30    0.99
  -1   5  -2  100.74    4.62
   1   5  -2   43.95    3.54
   3   5  -2  113.92    4.83
   5   5  -2    3.23    1.28
   7   5  -2    1.45    1.18
   9   5  -2    0.50    1.18
  11   5  -2    1.71    1.41
  13   5  -2    0.71    1.41
  15   5  -2   65.07    4.77
  -4   6  -2   -0.48    2.42
  -2   6  -2   37.51    5.57
   0   6  -2    3.77    1.74
   2   6  -2    3.59    1.75
   4   6  -2   10.39    2.24
   6   6  -2   57.56    6.56
  -8  -6  -1   39.82    6.20
  -6  -6  -1   69.68    5.36
  -4  -6  -1    4.93    2.08
  -2  -6  -1    2.61    1.79
   0  -6  -1    3.10    1.92
   2  -6  -1    3.62    2.87
   4  -6  -1   -1.05    2.14
   6  -6  -1   52.53    6.83
   8  -6  -1   -0.07    2.58
 -13  -5  -1    1.31    1.65
 -11  -5  -1   38.84    3.33
  -9  -5  -1   -1.33    1.00
  -7  -5  -1   26.22    2.44
  -5  -5  -1    3.21    1.12
  -3  -5  -1   93.48    4.48
  -1  -5  -1    2.16    1.33
   1  -5  -1    1.08    1.16
   3  -5  -1    4.55    1.56
   5  -5  -1   79.46    4.49
   7  -5  -1    3.40    1.60
   9  -5  -1   53.25    4.24
  11  -5  -1   73.46    5.17
  13  -5  -1    7.04    2.16
 -16  -4  -1    1.29    2.33
 -14  -4  -1    0.22    1.56
 -12  -4  -1   26.15    3.25
 -10  -4  -1   13.20    2.23
  -8  -4  -1   80.27    3.27
  -6  -4  -1  139.33    4.10
  -4  -4  -1    9.89    1.32
  -2  -4  -1    0.16    0.62
   0  -4  -1    1.23    0.76
   2  -4  -1    1.20    0.71
   4  -4  -1    0.00    0.55
   6  -4  -1  134.60    3.77
   8  -4  -1   -0.51    0.92
  10  -4  -1   59.65    4.07
  12  -4  -1   61.46    4.44
  14  -4  -1    4.29    1.70
  16  -4  -1   12.19    2.49
  18  -4  -1   -0.15    1.71
 -19  -3  -1   -0.56    2.19
 -17  -3  -1   -0.29    2.10
 -15  -3  -1    2.90    1.94
 -13  -3  -1   -0.44    1.24
 -11  -3  -1   59.91    4.25
  -9  -3  -1    0.14    0.90
  -7  -3  -1   47.63    3.13
  -5  -3  -1   11.06    1.51
  -3  -3  -1  199.72    4.26
  -1  -3  -1    2.33    0.70
   1  -3  -1    0.40    0.56
   3  -3  -1   10.83    1.11
   5  -3  -1  155.29    2.99
   7  -3  -1    7.24    0.86
   9  -3  -1  100.57    3.16
  11  -3  -1  167.73    4.45
  13  -3  -1   15.53    1.75
  15  -3  -1    5.71    1.38
  17  -3  -1    0.09    1.49
  19  -3  -1   29.46    3.90
  21  -3  -1   43.84    6.06
 -20  -2  -1  107.54    6.48
 -18  -2  -1   10.72    1.94
 -16  -2  -1    1.38    1.19
 -14  -2  -1    0.41    0.98
 -12  -2  -1   45.22    2.79
 -10  -2  -1   21.92    1.78
  -8  -2  -1  165.63    3.76
  -6  -2  -1  265.92    4.63
  -4  -2  -1   16.41    0.93
  -2  -2  -1    0.45    0.39
   0  -2  -1    4.58    0.62
   2  -2  -1   -0.38    0.34
   4  -2  -1   -0.17    0.32
   6  -2  -1  247.44    3.75
   8  -2  -1    1.37    0.51
  10  -2  -1   99.43    2.34
  12  -2  -1  100.03    3.31
  14  -2  -1    4.30    1.03
  16  -2  -1   17.93    2.10
  18  -2  -1   -0.82    1.00
  20  -2  -1    0.45    1.22
  22  -2  -1   14.42    2.87
 -21  -1  -1    3.36    1.73
 -19  -1  -1    1.86    1.35
 -17  -1  -1    0.95    1.07
 -15  -1  -1    1.44    1.09
 -13  -1  -1    0.01    0.81
 -11  -1  -1  100.61    2.77
  -9  -1  -1    0.24    0.43
  -7  -1  -1   75.40    1.91
  -5  -1  -1   21.55    0.92
  -3  -1  -1  377.39    5.24
  -1  -1  -1    8.92    0.73
   1  -1  -1    0.55    0.31
   3  -1  -1   23.21    0.76
   5  -1  -1  267.99    3.58
   7  -1  -1   13.27    0.85
   9  -1  -1  155.77    2.93
  11  -1  -1  253.28    4.37
  13  -1  -1   19.56    1.42
  15  -1  -1    3.87    0.86
  17  -1  -1    2.26    1.06
  19  -1  -1   48.43    4.16
  21  -1  -1   60.10    4.81
  23  -1  -1   17.41    4.15
 -22   0  -1    1.65    2.25
 -20   0  -1  113.28    5.43
 -18   0  -1    8.84    1.68
 -16   0  -1    0.99    0.81
 -14   0  -1    0.89    0.70
 -12   0  -1   53.79    2.64
 -10   0  -1   25.24    1.25
  -8   0  -1  223.25    3.82
  -6   0  -1  370.50    5.40
  -4   0  -1   23.03    1.14
   0   0  -1    6.80    0.41
   2   0  -1    0.00    0.18
   4   0  -1    0.17    0.29
   6   0  -1  349.38    4.55
   8   0  -1    2.97    0.43
  10   0  -1  126.52    2.37
  12   0  -1  116.39    3.28
  14   0  -1    5.12    1.04
  16   0  -1   20.64    2.11
  18   0  -1    1.96    0.92
  20   0  -1    1.46    1.34
  22   0  -1   19.12    2.89
 -21   1  -1   -0.90    1.27
 -19   1  -1    0.81    1.04
 -17   1  -1    0.36    0.91
 -15   1  -1    2.79    1.13
 -13   1  -1    0.81    0.85
 -11   1  -1   95.24    2.70
  -9   1  -1   -0.33    0.40
  -7   1  -1   73.78    2.08
  -5   1  -1   24.39    0.91
  -3   1  -1  373.39    5.31
  -1   1  -1    8.09    0.62
   1   1  -1    0.45    0.25
   3   1  -1   23.29    0.78
   5   1  -1  266.55    3.13
   7   1  -1   11.38    0.78
   9   1  -1  158.24    2.95
  11   1  -1  255.37    4.25
  13   1  -1   21.91    1.38
  15   1  -1    5.52    1.16
  17   1  -1    3.00    1.12
  19   1  -1   56.10    3.46
  21   1  -1   69.95    3.69
  23   1  -1   14.94    3.92
 -20   2  -1  104.85    5.33
 -18   2  -1   10.66    2.10
 -16   2  -1    1.70    1.07
 -14   2  -1    1.51    1.08
 -12   2  -1   46.08    2.36
 -10   2  -1   20.51    1.63
  -8   2  -1  162.54    3.75
  -6   2  -1  256.84    5.96
  -4   2  -1   14.95    1.02
  -2   2  -1    0.03    0.25
   0   2  -1    3.86    0.44
   2   2  -1    0.40    0.25
   4   2  -1    0.15    0.23
   6   2  -1  251.20    3.74
   8   2  -1    1.66    0.43
  10   2  -1   94.07    2.79
  12   2  -1  100.99    2.72
  14   2  -1    1.96    0.71
  16   2  -1   17.81    2.03
  18   2  -1    1.73    1.14
  20   2  -1    3.74    1.33
  22   2  -1   13.68    2.10
 -19   3  -1    0.45    1.43
 -17   3  -1    1.92    1.41
 -15   3  -1    1.21    1.13
 -13   3  -1    0.86    0.80
 -11   3  -1   67.85    2.79
  -9   3  -1    0.86    0.70
  -7   3  -1   50.55    3.02
  -5   3  -1   12.62    1.22
  -3   3  -1  207.89    4.23
  -1   3  -1    3.26    0.58
   1   3  -1    0.27    0.39
   3   3  -1   10.10    0.81
   5   3  -1  149.96    2.99
   7   3  -1    5.41    0.75
   9   3  -1   97.93    3.08
  11   3  -1  164.20    4.33
  13   3  -1   16.98    1.70
  15   3  -1    3.28    1.02
  17   3  -1    2.08    1.42
  19   3  -1   38.11    3.69
 -16   4  -1    1.42    1.37
 -14   4  -1    0.97    1.00
 -12   4  -1   25.59    2.28
 -10   4  -1   12.11    1.56
  -8   4  -1   81.05    3.14
  -6   4  -1  127.74    4.96
  -4   4  -1    7.74    1.10
  -2   4  -1    0.34    0.63
   0   4  -1    2.17    0.77
   2   4  -1    0.47    0.61
   4   4  -1    0.60    0.61
   6   4  -1  123.84    3.54
   8   4  -1    1.72    0.79
  10   4  -1   60.14    2.98
  12   4  -1   54.30    3.17
  14   4  -1    2.68    1.06
  16   4  -1   10.05    1.65
  18   4  -1   -0.81    1.48
 -13   5  -1   -0.01    1.48
 -11   5  -1   32.97    3.55
  -9   5  -1    0.01    1.21
  -7   5  -1   24.33    2.80
  -5   5  -1    1.99    1.27
  -3   5  -1   93.94    4.30
  -1   5  -1    2.80    1.15
   1   5  -1   -0.76    0.83
   3   5  -1    2.70    1.28
   5   5  -1   74.45    3.21
   7   5  -1    0.30    1.15
   9   5  -1   44.25    3.62
  11   5  -1   76.70    4.42
  13   5  -1   11.22    2.12
  15   5  -1    1.30    2.04
  -6   6  -1   78.65    8.26
  -4   6  -1    3.77    2.93
  -2   6  -1    1.70    1.50
   0   6  -1   -1.02    1.26
   2   6  -1   -0.01    1.35
   4   6  -1    0.52    1.40
   6   6  -1   54.50    6.27
   8   6  -1    0.10    1.86
  -8  -6   0    4.04    3.41
  -6  -6   0    1.21    2.87
  -4  -6   0   -0.98    2.28
  -2  -6   0    2.68    2.36
   2  -6   0   -1.12    2.11
   4  -6   0    2.11    2.57
   6  -6   0   -1.82    2.30
 -15  -5   0   34.44    6.44
 -13  -5   0   18.24    2.62
 -11  -5   0   13.70    1.99
  -9  -5   0   20.87    2.30
  -7  -5   0   34.39    2.71
  -5  -5   0   86.91    3.50
  -3  -5   0   14.49    1.82
  -1  -5   0    5.24    1.20
   1  -5   0    6.64    1.33
   3  -5   0   14.67    1.82
   5  -5   0   78.32    4.40
   7  -5   0   32.65    4.96
   9  -5   0   21.57    4.30
  11  -5   0    9.58    3.37
  13  -5   0    8.14    3.36
 -16  -4   0   38.09    4.26
 -14  -4   0   94.40    5.58
 -12  -4   0   16.31    2.53
 -10  -4   0    3.80    1.38
  -8  -4   0    6.81    1.26
  -6  -4   0    3.22    0.99
  -4  -4   0    6.13    1.12
  -2  -4   0   -0.51    0.67
   0  -4   0  483.77    8.29
   2  -4   0    2.16    0.84
   4  -4   0    5.48    1.06
   6  -4   0    2.12    0.91
   8  -4   0    8.63    1.31
  10  -4   0    2.86    1.04
  12  -4   0   11.71    1.63
  14  -4   0   95.76    4.11
  16  -4   0   38.95    4.03
 -19  -3   0    6.25    2.67
 -17  -3   0   58.46    5.34
 -15  -3   0   41.81    4.06
 -13  -3   0   16.41    2.37
 -11  -3   0   16.67    2.07
  -9  -3   0   44.00    3.14
  -7  -3   0   62.89    3.01
  -5  -3   0  165.30    4.73
  -3  -3   0   32.48    1.31
  -1  -3   0    7.50    0.72
   1  -3   0    8.69    0.77
   3  -3   0   34.01    1.40
   5  -3   0  166.16    2.68
   7  -3   0   66.10    2.44
   9  -3   0   49.32    2.67
  11  -3   0   17.90    1.78
  13  -3   0   19.59    2.00
  15  -3   0   42.18    3.11
  17  -3   0   71.27    4.25
  19  -3   0    4.83    1.72
 -20  -2   0   15.27    2.23
 -18  -2   0    1.95    1.29
 -16  -2   0   59.23    3.67
 -14  -2   0  155.89    4.74
 -12  -2   0   29.83    2.19
 -10  -2   0    8.43    1.15
  -8  -2   0   14.74    1.22
  -6  -2   0    7.70    0.85
  -4  -2   0   11.49    0.86
  -2  -2   0    3.00    0.41
   0  -2   0  988.95   10.76
   2  -2   0    3.29    0.45
   4  -2   0   12.18    0.67
   6  -2   0    7.83    0.57
   8  -2   0   10.97    0.80
  10  -2   0    8.99    1.21
  12  -2   0   26.00    2.12
  14  -2   0  166.41    4.92
  16  -2   0   50.99    3.45
  18  -2   0    0.22    1.10
  20  -2   0   16.07    2.26
  22  -2   0    2.18    2.64
 -21  -1   0   36.22    3.68
 -19  -1   0    9.46    1.94
 -17  -1   0   96.30    4.44
 -15  -1   0   66.32    3.42
 -13  -1   0   25.71    2.36
 -11  -1   0   25.27    1.55
  -9  -1   0   74.05    2.01
  -7  -1   0  116.25    2.33
  -5  -1   0  310.29    4.37
  -3  -1   0   61.07    1.42
  -1  -1   0   12.90    0.60
   1  -1   0   11.83    0.54
   3  -1   0   63.97    1.08
   5  -1   0  306.74    3.98
   7  -1   0  119.45    2.19
   9  -1   0   73.85    1.88
  11  -1   0   23.98    1.42
  13  -1   0   27.06    1.69
  15  -1   0   65.90    3.14
  17  -1   0   91.27    3.76
  19  -1   0   12.00    1.81
  21  -1   0   29.35    3.51
 -22   0   0    1.39    1.49
 -20   0   0   18.85    2.69
 -18   0   0    0.34    0.98
 -16   0   0   66.65    2.76
 -14   0   0  185.80    4.44
 -12   0   0   34.86    2.00
 -10   0   0   10.47    0.73
  -8   0   0   14.11    0.78
  -6   0   0   10.12    0.57
  -4   0   0   12.57    0.56
  -2   0   0    4.49    0.35
   2   0   0    4.93    0.33
   4   0   0   13.40    0.53
   6   0   0   11.62    0.55
   8   0   0   16.14    0.71
  10   0   0    9.66    0.66
  12   0   0   35.08    1.81
  14   0   0  188.82    4.88
  16   0   0   66.87    3.03
  18   0   0   -0.86    1.03
  20   0   0   13.58    2.39
  22   0   0   -0.28    1.54
 -21   1   0   30.98    3.48
 -19   1   0   11.24    1.66
 -17   1   0  100.20    3.60
 -15   1   0   66.99    3.36
 -13   1   0   33.23    2.55
 -11   1   0   27.56    1.51
  -9   1   0   68.81    2.06
  -7   1   0  109.86    2.52
  -5   1   0  310.91    3.86
  -3   1   0   64.44    1.38
  -1   1   0   13.19    0.55
   1   1   0   12.49    0.47
   3   1   0   63.58    1.23
   5   1   0  312.88    3.57
   7   1   0  117.09    2.32
   9   1   0   72.75    1.95
  11   1   0   25.00    1.35
  13   1   0   28.87    2.23
  15   1   0   62.35    3.12
  17   1   0   90.89    3.61
  19   1   0   11.61    1.73
  21   1   0   28.15    3.56
 -22   2   0   -2.21    2.11
 -20   2   0   16.48    2.42
 -18   2   0    0.42    1.08
 -16   2   0   57.29    4.03
 -14   2   0  156.18    5.34
 -12   2   0   28.61    1.90
 -10   2   0    7.92    1.04
  -8   2   0   12.54    0.82
  -6   2   0    8.51    0.67
  -4   2   0   12.85    0.93
  -2   2   0    2.63    0.40
   0   2   0  974.80   10.74
   2   2   0    2.72    0.33
   4   2   0   10.84    0.75
   6   2   0    7.67    0.68
   8   2   0    9.50    0.79
  10   2   0    7.27    0.91
  12   2   0   28.65    1.75
  14   2   0  159.45    3.79
  16   2   0   47.82    3.19
  18   2   0    0.25    1.08
  20   2   0   14.37    2.09
  22   2   0    0.48    2.22
 -19   3   0    7.57    1.99
 -17   3   0   71.45    4.89
 -15   3   0   48.97    3.78
 -13   3   0   21.54    1.96
 -11   3   0   14.37    1.50
  -9   3   0   45.10    2.30
  -7   3   0   66.57    1.93
  -5   3   0  169.68    3.16
  -3   3   0   34.82    1.34
  -1   3   0    9.31    0.80
   1   3   0    8.61    0.74
   3   3   0   31.66    1.21
   5   3   0  165.43    3.21
   7   3   0   65.65    1.97
   9   3   0   47.43    2.39
  11   3   0   24.16    1.92
  13   3   0   19.83    1.83
  15   3   0   43.21    2.79
  17   3   0   68.91    4.76
  19   3   0    7.28    2.05
 -18   4   0    1.14    2.37
 -16   4   0   38.92    3.73
 -14   4   0   96.07    3.77
 -12   4   0   16.57    1.88
 -10   4   0    3.21    1.30
  -8   4   0    5.88    1.42
  -6   4   0    5.55    1.01
  -4   4   0    7.29    0.96
  -2   4   0    1.39    0.69
   0   4   0  486.47    8.08
   2   4   0    2.87    0.78
   4   4   0    6.29    1.02
   6   4   0    2.99    0.83
   8   4   0    6.63    1.16
  10   4   0    3.12    1.00
  12   4   0   15.99    1.86
  14   4   0   96.49    3.99
  16   4   0   33.71    3.58
  18   4   0    0.19    2.59
 -13   5   0   10.30    2.21
 -11   5   0   10.14    2.13
  -9   5   0   16.68    2.50
  -7   5   0   30.90    3.22
  -5   5   0   80.36    4.08
  -3   5   0   13.73    1.98
  -1   5   0    5.16    1.44
   1   5   0    7.10    1.53
   3   5   0   12.56    1.60
   5   5   0   75.72    3.11
   7   5   0   31.77    3.06
   9   5   0   22.15    2.66
  11   5   0    7.52    1.86
  13   5   0    8.11    1.72
  15   5   0   17.72    3.02
  -8   6   0    6.77    3.07
  -6   6   0    3.77    2.68
  -4   6   0    6.96    2.91
  -2   6   0    2.00    1.45
   0   6   0  235.24    7.91
   2   6   0    0.66    1.32
   4   6   0    2.19    1.52
   6   6   0    2.17    2.08
   8   6   0    1.26    2.41
 -10  -6   1   32.79    5.39
  -8  -6   1   -1.25    1.68
  -6  -6   1   63.60    4.87
  -4  -6   1    0.76    1.59
  -2  -6   1   -0.90    1.33
   0  -6   1    4.51    1.83
   2  -6   1    0.57    2.28
   4  -6   1    3.92    2.82
   6  -6   1   53.97    6.89
 -15  -5   1    4.72    2.29
 -13  -5   1    7.19    1.86
 -11  -5   1   83.94    4.50
  -9  -5   1   52.46    3.36
  -7  -5   1    0.30    1.23
  -5  -5   1   75.15    4.06
  -3  -5   1    6.17    1.66
  -1  -5   1   -0.61    1.00
   1  -5   1    0.43    1.16
   3  -5   1   90.45    4.44
   5  -5   1    5.54    1.72
   7  -5   1   31.00    3.24
   9  -5   1   -0.86    1.24
  11  -5   1   38.67    3.93
  13  -5   1    2.22    2.70
 -18  -4   1   -0.02    1.73
 -16  -4   1   12.97    2.57
 -14  -4   1   -0.12    1.33
 -12  -4   1   53.86    4.04
 -10  -4   1   57.06    3.98
  -8  -4   1    0.32    0.80
  -6  -4   1  125.52    3.74
  -4  -4   1   -0.51    0.64
  -2  -4   1   -0.37    0.65
   0  -4   1    1.60    0.75
   2  -4   1    0.23    0.66
   4  -4   1    9.77    1.31
   6  -4   1  139.73    3.91
   8  -4   1   89.27    2.73
  10  -4   1   13.06    2.16
  12  -4   1   24.41    2.93
  14  -4   1    1.10    1.48
  16  -4   1    1.33    1.90
 -19  -3   1   32.73    4.04
 -17  -3   1    2.92    1.74
 -15  -3   1    3.20    1.42
 -13  -3   1   18.17    1.89
 -11  -3   1  166.25    4.35
  -9  -3   1  100.33    3.07
  -7  -3   1    6.79    1.01
  -5  -3   1  149.94    3.45
  -3  -3   1    7.81    0.80
  -1  -3   1    0.39    0.43
   1  -3   1    4.00    0.64
   3  -3   1  201.32    3.55
   5  -3   1   11.86    1.03
   7  -3   1   49.67    1.86
   9  -3   1   -0.34    0.52
  11  -3   1   61.90    2.88
  13  -3   1    0.85    0.92
  15  -3   1    2.70    1.17
  17  -3   1   -0.19    1.18
  19  -3   1    3.23    2.33
 -22  -2   1   14.24    2.88
 -20  -2   1    4.62    1.51
 -18  -2   1   -0.22    1.00
 -16  -2   1   17.06    1.99
 -14  -2   1    3.28    1.02
 -12  -2   1   97.29    3.25
 -10  -2   1  100.87    2.97
  -8  -2   1    1.87    0.64
  -6  -2   1  248.11    4.39
  -4  -2   1    0.24    0.38
  -2  -2   1    0.03    0.28
   0  -2   1    3.98    0.47
   2  -2   1    0.45    0.33
   4  -2   1   16.25    0.96
   6  -2   1  259.38    4.17
   8  -2   1  163.71    3.35
  10  -2   1   21.11    1.78
  12  -2   1   42.08    2.68
  14  -2   1    0.18    0.88
  16  -2   1    0.51    0.99
  18  -2   1   11.69    1.97
  20  -2   1  105.70    6.09
 -23  -1   1   14.39    3.72
 -21  -1   1   65.36    4.80
 -19  -1   1   51.71    4.06
 -17  -1   1    3.30    1.26
 -15  -1   1    5.64    1.35
 -13  -1   1   20.40    1.56
 -11  -1   1  251.71    4.71
  -9  -1   1  165.73    3.24
  -7  -1   1   14.19    0.90
  -5  -1   1  270.73    3.51
  -3  -1   1   22.20    0.73
  -1  -1   1    0.38    0.28
   1  -1   1    9.64    0.50
   3  -1   1  383.07    4.70
   5  -1   1   23.48    0.73
   7  -1   1   72.55    1.95
   9  -1   1    0.05    0.40
  11  -1   1   93.94    2.55
  13  -1   1    1.21    0.90
  15  -1   1    1.38    0.95
  17  -1   1    0.96    0.94
  19  -1   1   -0.44    0.92
  21  -1   1    5.36    1.93
 -22   0   1   13.58    2.44
 -20   0   1    2.69    1.41
 -18   0   1    0.78    1.05
 -16   0   1   22.46    1.91
 -14   0   1    4.77    0.97
 -12   0   1  120.42    3.15
 -10   0   1  119.76    2.91
  -8   0   1    3.36    0.41
  -6   0   1  346.82    4.26
  -4   0   1    0.14    0.25
  -2   0   1   -0.07    0.15
   0   0   1    7.38    0.31
   2   0   1    0.18    0.19
   4   0   1   23.50    0.66
   6   0   1  368.88    4.39
   8   0   1  216.15    3.13
  10   0   1   24.92    1.12
  12   0   1   53.12    2.00
  14   0   1    1.21    0.66
  16   0   1   -0.02    0.81
  18   0   1   12.52    2.28
  20   0   1  108.11    5.58
  22   0   1   -0.80    2.30
 -23   1   1   18.59    4.33
 -21   1   1   71.11    4.01
 -19   1   1   56.25    3.37
 -17   1   1    4.10    1.08
 -15   1   1    4.92    1.01
 -13   1   1   24.87    2.23
 -11   1   1  253.12    4.65
  -9   1   1  162.28    3.26
  -7   1   1   13.30    0.72
  -5   1   1  265.92    3.99
  -3   1   1   22.02    0.73
  -1   1   1    0.22    0.26
   1   1   1    8.41    0.46
   3   1   1  376.31    3.73
   5   1   1   22.81    0.87
   7   1   1   75.49    1.60
   9   1   1    0.71    0.37
  11   1   1   95.52    2.60
  13   1   1    0.71    0.82
  15   1   1    4.30    1.15
  17   1   1   -0.24    0.78
  19   1   1    0.03    1.04
  21   1   1    2.16    1.59
 -22   2   1   18.51    2.43
 -20   2   1   -0.10    1.06
 -18   2   1    0.21    1.07
 -16   2   1   18.32    2.22
 -14   2   1    3.89    1.15
 -12   2   1  104.02    3.05
 -10   2   1   96.74    2.81
  -8   2   1    2.58    0.52
  -6   2   1  245.81    3.71
  -4   2   1    0.56    0.31
  -2   2   1    0.32    0.23
   0   2   1    3.27    0.42
   2   2   1   -0.04    0.22
   4   2   1   14.90    0.93
   6   2   1  265.51    4.05
   8   2   1  164.39    3.07
  10   2   1   22.05    1.51
  12   2   1   43.18    2.10
  14   2   1    0.23    0.93
  16   2   1    1.05    1.04
  18   2   1    9.95    1.74
  20   2   1   94.66    4.53
 -21   3   1   52.86    6.64
 -19   3   1   37.29    3.84
 -17   3   1    1.54    1.33
 -15   3   1    5.39    1.47
 -13   3   1   14.04    1.56
 -11   3   1  167.89    4.27
  -9   3   1  100.70    3.05
  -7   3   1    6.51    0.79
  -5   3   1  152.82    2.93
  -3   3   1    9.76    0.70
  -1   3   1    0.78    0.43
   1   3   1    2.59    0.51
   3   3   1  208.33    4.22
   5   3   1   12.14    1.05
   7   3   1   47.07    1.84
   9   3   1    0.42    0.60
  11   3   1   63.41    2.71
  13   3   1    1.10    0.84
  15   3   1    1.95    1.26
  17   3   1    1.00    1.29
  19   3   1    0.71    1.49
 -18   4   1   -0.16    1.95
 -16   4   1   14.43    3.53
 -14   4   1    2.31    1.40
 -12   4   1   56.18    3.87
 -10   4   1   59.74    3.94
  -8   4   1    0.17    0.85
  -6   4   1  127.87    3.64
  -4   4   1    0.35    0.63
  -2   4   1   -0.21    0.50
   0   4   1    2.64    0.77
   2   4   1    0.58    0.58
   4   4   1    8.89    1.21
   6   4   1  136.59    3.81
   8   4   1   88.43    3.33
  10   4   1   13.42    1.68
  12   4   1   25.69    2.29
  14   4   1    1.21    1.06
  16   4   1    0.96    1.48
 -15   5   1    3.45    2.74
 -13   5   1    8.42    2.11
 -11   5   1   81.48    4.86
  -9   5   1   51.81    4.10
  -7   5   1    2.27    1.37
  -5   5   1   74.96    3.91
  -3   5   1    3.84    1.32
  -1   5   1    0.14    0.95
   1   5   1    1.92    0.93
   3   5   1   97.12    3.52
   5   5   1    3.53    1.09
   7   5   1   31.92    3.10
   9   5   1   -0.06    1.13
  11   5   1   32.07    3.30
  13   5   1    1.11    1.28
  -8   6   1   -1.53    2.25
  -6   6   1   54.85    6.82
  -4   6   1   -0.13    2.35
  -2   6   1   -0.58    1.39
   0   6   1   -0.85    1.32
   2   6   1    1.82    1.55
   4   6   1    8.53    2.08
   6   6   1   76.52    5.31
   8   6   1   52.90    6.30
  -8  -6   2    5.36    2.13
  -6  -6   2   64.25    4.99
  -4  -6   2   11.17    2.46
  -2  -6   2    6.98    2.03
   0  -6   2    1.72    1.60
   2  -6   2   31.28    3.58
   4  -6   2    1.56    1.76
   6  -6   2    4.18    2.91
 -15  -5   2   61.08    7.11
 -13  -5   2    1.87    1.77
 -11  -5   2   -0.11    1.47
  -9  -5   2    0.12    1.37
  -7  -5   2    0.77    1.29
  -5  -5   2    2.31    1.36
  -3  -5   2  117.32    4.98
  -1  -5   2   34.22    3.17
   1  -5   2   97.77    4.57
   3  -5   2    2.42    1.33
   5  -5   2    2.28    1.37
   7  -5   2   14.38    2.34
   9  -5   2   24.11    3.14
  11  -5   2   40.69    4.08
  13  -5   2    1.20    2.59
 -18  -4   2   31.52    3.79
 -16  -4   2   27.93    3.35
 -14  -4   2   16.91    2.53
 -12  -4   2    3.96    1.55
 -10  -4   2    4.66    1.38
  -8  -4   2    9.45    1.34
  -6  -4   2  132.36    3.78
  -4  -4   2   17.15    2.16
  -2  -4   2   14.97    1.95
   0  -4   2    4.64    0.97
   2  -4   2   68.02    2.62
   4  -4   2    2.30    0.85
   6  -4   2    4.66    1.11
   8  -4   2   36.96    2.63
  10  -4   2   50.17    3.18
  12  -4   2   41.36    3.92
  14  -4   2   45.94    4.48
  16  -4   2    0.73    2.54
 -21  -3   2   -1.99    3.23
 -19  -3   2   10.49    2.46
 -17  -3   2    4.76    1.42
 -15  -3   2   89.25    3.58
 -13  -3   2    5.78    1.22
 -11  -3   2    6.96    1.16
  -9  -3   2    1.36    0.71
  -7  -3   2    0.70    0.63
  -5  -3   2    5.39    0.91
  -3  -3   2  262.58    4.15
  -1  -3   2   79.67    2.02
   1  -3   2  212.35    3.67
   3  -3   2    0.12    0.47
   5  -3   2    6.06    0.80
   7  -3   2   25.80    1.58
   9  -3   2   40.36    2.15
  11  -3   2   63.17    3.26
  13  -3   2   -0.92    1.23
  15  -3   2   79.72    5.96
  17  -3   2   54.17    5.50
 -22  -2   2   -1.17    1.29
 -20  -2   2   80.31    4.30
 -18  -2   2   48.08    3.33
 -16  -2   2   50.71    3.16
 -14  -2   2   30.00    2.27
 -12  -2   2   14.46    1.46
 -10  -2   2    8.21    1.05
  -8  -2   2   20.25    1.14
  -6  -2   2  265.84    3.93
  -4  -2   2   31.45    1.15
  -2  -2   2   23.37    0.87
   0  -2   2   11.66    0.67
   2  -2   2  136.81    2.45
   4  -2   2    1.06    0.43
   6  -2   2   11.11    0.98
   8  -2   2   66.06    2.14
  10  -2   2   79.47    2.56
  12  -2   2   73.45    3.24
  14  -2   2   67.11    3.61
  16  -2   2    3.00    1.30
  18  -2   2   19.26    2.32
 -23  -1   2   26.35    3.34
 -21  -1   2   -0.32    1.20
 -19  -1   2    9.55    1.82
 -17  -1   2    9.37    1.74
 -15  -1   2  121.05    4.53
 -13  -1   2    6.66    0.97
 -11  -1   2    7.08    0.90
  -9  -1   2    0.29    0.46
  -7  -1   2   -0.27    0.28
  -5  -1   2   11.83    0.71
  -3  -1   2  456.77    5.40
  -1  -1   2  154.27    2.35
   1  -1   2  391.31    4.93
   3  -1   2    1.51    0.35
   5  -1   2    9.42    0.56
   7  -1   2   39.41    1.18
   9  -1   2   68.98    1.77
  11  -1   2  102.30    3.74
  13  -1   2   -0.24    0.80
  15  -1   2  108.48    4.05
  17  -1   2   59.57    3.61
  19  -1   2   -0.43    1.01
  21  -1   2    1.92    2.23
 -22   0   2   -0.52    1.22
 -20   0   2   98.41    4.74
 -18   0   2   61.42    3.04
 -16   0   2   51.16    2.75
 -14   0   2   39.59    2.11
 -12   0   2   12.05    1.20
 -10   0   2    6.79    0.70
  -8   0   2   25.61    1.11
  -6   0   2  365.03    4.66
  -4   0   2   45.66    1.12
  -2   0   2   29.18    0.86
   0   0   2   16.63    0.63
   2   0   2  202.59    2.10
   4   0   2    3.15    0.34
   6   0   2   10.65    0.68
   8   0   2   90.04    1.76
  10   0   2   97.02    2.54
  12   0   2   85.05    2.52
  14   0   2   86.81    3.40
  16   0   2    7.60    1.40
  18   0   2   27.68    3.18
  20   0   2    8.21    2.16
 -23   1   2   30.88    3.47
 -21   1   2    0.18    0.99
 -19   1   2   14.55    1.77
 -17   1   2   12.67    1.47
 -15   1   2  125.68    3.70
 -13   1   2    7.03    1.03
 -11   1   2    8.55    0.83
  -9   1   2    0.31    0.41
  -7   1   2    0.17    0.31
  -5   1   2   10.35    0.69
  -3   1   2  457.26    5.52
  -1   1   2  152.21    2.07
   1   1   2  387.11    3.92
   3   1   2    1.75    0.27
   5   1   2    9.52    0.59
   7   1   2   40.91    1.30
   9   1   2   67.19    1.66
  11   1   2  103.33    2.74
  13   1   2    1.58    0.84
  15   1   2  117.55    3.84
  17   1   2   69.38    3.40
  19   1   2   -0.91    1.16
 -22   2   2    0.68    1.58
 -20   2   2   95.05    4.93
 -18   2   2   44.65    2.92
 -16   2   2   49.80    3.66
 -14   2   2   32.33    2.79
 -12   2   2   10.96    1.28
 -10   2   2    5.06    0.93
  -8   2   2   21.62    1.23
  -6   2   2  259.95    3.98
  -4   2   2   30.87    1.09
  -2   2   2   22.76    0.73
   0   2   2    9.18    0.73
   2   2   2  138.88    2.27
   4   2   2    2.30    0.42
   6   2   2    9.42    0.70
   8   2   2   68.25    2.04
  10   2   2   82.40    2.53
  12   2   2   75.64    2.64
  14   2   2   68.40    3.50
  16   2   2    6.33    1.45
  18   2   2   24.47    3.33
 -21   3   2   -1.77    2.13
 -19   3   2    6.75    1.91
 -17   3   2   10.05    2.01
 -15   3   2   92.67    4.33
 -13   3   2    4.99    1.10
 -11   3   2    4.34    0.96
  -9   3   2    0.41    0.64
  -7   3   2   -0.52    0.43
  -5   3   2    5.82    0.86
  -3   3   2  257.32    4.20
  -1   3   2   80.17    2.09
   1   3   2  217.49    3.69
   3   3   2    0.42    0.61
   5   3   2    4.86    0.78
   7   3   2   23.60    1.54
   9   3   2   41.13    2.53
  11   3   2   68.16    2.91
  13   3   2    0.24    0.79
  15   3   2   76.17    5.02
  17   3   2   54.54    4.49
 -18   4   2   22.58    4.34
 -16   4   2   26.28    4.54
 -14   4   2   19.09    2.60
 -12   4   2    5.20    1.55
 -10   4   2    3.06    1.25
  -8   4   2   11.52    1.87
  -6   4   2  127.62    3.75
  -4   4   2   15.63    1.29
  -2   4   2   12.88    1.17
   0   4   2    3.83    0.95
   2   4   2   63.60    2.61
   4   4   2    0.53    0.72
   6   4   2    7.12    1.19
   8   4   2   37.91    2.63
  10   4   2   48.59    3.12
  12   4   2   42.98    3.06
  14   4   2   44.19    3.16
 -15   5   2   47.39    4.39
 -13   5   2   -0.23    1.39
 -11   5   2    1.75    1.48
  -9   5   2   -0.87    1.10
  -7   5   2    0.76    1.17
  -5   5   2   -0.07    1.07
  -3   5   2  118.42    5.01
  -1   5   2   37.29    2.64
   1   5   2  105.66    3.72
   3   5   2    0.06    0.83
   5   5   2    2.89    1.15
   7   5   2    9.24    1.88
   9   5   2   17.49    2.63
  11   5   2   34.59    3.59
  -6   6   2   59.66    7.22
  -4   6   2   12.75    2.42
  -2   6   2    4.03    1.82
   0   6   2    0.86    1.42
   2   6   2   31.28    4.88
   4   6   2    0.78    1.60
   6   6   2    3.12    2.46
  -8  -6   3   16.85    4.39
  -6  -6   3    7.96    2.29
  -4  -6   3   44.80    4.25
  -2  -6   3   -0.49    1.52
   0  -6   3   61.79    4.99
   2  -6   3    6.23    2.23
   4  -6   3   30.37    3.70
 -15  -5   3   -0.12    2.70
 -13  -5   3   -0.64    1.45
 -11  -5   3   54.44    4.39
  -9  -5   3  103.34    5.00
  -7  -5   3    1.48    1.41
  -5  -5   3    0.03    1.20
  -3  -5   3    1.17    1.42
  -1  -5   3    1.65    1.34
   1  -5   3    3.85    1.45
   3  -5   3    1.36    1.39
   5  -5   3  128.24    5.58
   7  -5   3   24.73    3.12
   9  -5   3   28.91    3.51
  11  -5   3    0.99    1.83
 -18  -4   3   18.72    4.43
 -16  -4   3   21.63    2.93
 -14  -4   3   64.32    4.55
 -12  -4   3   87.24    4.26
 -10  -4   3    7.81    1.68
  -8  -4   3   40.34    3.25
  -6  -4   3   28.09    2.12
  -4  -4   3   99.39    3.25
  -2  -4   3    2.90    0.92
   0  -4   3  144.36    4.02
   2  -4   3   17.66    1.74
   4  -4   3   70.06    2.92
   6  -4   3    0.12    0.82
   8  -4   3    7.50    1.41
  10  -4   3   32.87    2.75
  12  -4   3    7.14    2.19
  14  -4   3   22.17    3.49
 -19  -3   3    7.44    1.66
 -17  -3   3   25.88    2.37
 -15  -3   3    4.20    1.21
 -13  -3   3    0.51    0.89
 -11  -3   3   98.02    3.22
  -9  -3   3  201.29    4.63
  -7  -3   3    2.04    0.76
  -5  -3   3    8.07    0.91
  -3  -3   3    8.96    0.93
  -1  -3   3    4.30    0.89
   1  -3   3   18.81    1.55
   3  -3   3    7.64    1.12
   5  -3   3  247.47    5.44
   7  -3   3   45.04    2.66
   9  -3   3   50.59    3.05
  11  -3   3    6.81    1.40
  13  -3   3    0.28    1.43
  15  -3   3   26.16    3.93
  17  -3   3   24.73    4.02
 -22  -2   3    2.84    1.81
 -20  -2   3   26.81    2.65
 -18  -2   3   32.05    2.60
 -16  -2   3   21.02    2.04
 -14  -2   3  101.52    3.42
 -12  -2   3  136.27    3.71
 -10  -2   3    9.69    1.13
  -8  -2   3   70.41    1.93
  -6  -2   3   53.55    1.59
  -4  -2   3  200.08    3.34
  -2  -2   3    7.75    0.73
   0  -2   3  280.77    4.32
   2  -2   3   40.44    1.58
   4  -2   3  129.52    2.66
   6  -2   3   -0.48    0.49
   8  -2   3   14.38    1.27
  10  -2   3   54.19    2.43
  12  -2   3   14.49    1.98
  14  -2   3   24.18    3.41
  16  -2   3    2.99    1.66
  18  -2   3    3.27    1.95
 -23  -1   3    0.50    1.70
 -21  -1   3    5.25    1.78
 -19  -1   3    5.73    1.66
 -17  -1   3   35.86    3.11
 -15  -1   3   16.28    1.98
 -13  -1   3    0.51    0.64
 -11  -1   3  141.10    3.41
  -9  -1   3  316.96    4.61
  -7  -1   3    2.52    0.45
  -5  -1   3   10.77    0.65
  -3  -1   3   18.27    0.83
  -1  -1   3    5.74    0.57
   1  -1   3   33.93    1.19
   3  -1   3   13.80    0.79
   5  -1   3  388.92    5.14
   7  -1   3   76.43    2.36
   9  -1   3   81.17    2.64
  11  -1   3    7.88    1.11
  13  -1   3    1.07    0.86
  15  -1   3   30.77    2.62
  17  -1   3   36.82    2.93
  19  -1   3    5.13    1.89
 -24   0   3   16.53    4.10
 -22   0   3    3.51    1.59
 -20   0   3   27.65    2.99
 -18   0   3   38.64    2.61
 -16   0   3   21.41    1.86
 -14   0   3  132.45    3.57
 -12   0   3  170.78    3.87
 -10   0   3   10.67    0.92
  -8   0   3   86.00    1.99
  -6   0   3   65.79    1.60
  -4   0   3  268.29    3.77
  -2   0   3   10.43    0.69
   0   0   3  394.38    4.22
   2   0   3   55.79    1.05
   4   0   3  168.83    2.12
   6   0   3   -0.40    0.28
   8   0   3   17.73    1.01
  10   0   3   62.70    2.16
  12   0   3   14.48    1.68
  14   0   3   30.43    2.41
  16   0   3   -0.63    0.84
  18   0   3    6.82    1.92
  20   0   3   40.98    5.52
 -23   1   3    1.39    2.23
 -21   1   3    4.62    1.77
 -19   1   3    7.13    1.39
 -17   1   3   35.62    2.46
 -15   1   3   16.95    1.62
 -13   1   3    0.00    0.56
 -11   1   3  140.12    2.85
  -9   1   3  318.29    4.55
  -7   1   3    2.36    0.38
  -5   1   3   10.65    0.80
  -3   1   3   17.19    0.96
  -1   1   3    6.23    0.54
   1   1   3   35.80    0.97
   3   1   3   14.30    0.67
   5   1   3  393.75    3.95
   7   1   3   74.70    1.50
   9   1   3   78.73    1.92
  11   1   3   10.59    1.21
  13   1   3    1.34    0.82
  15   1   3   33.87    2.52
  17   1   3   32.02    3.27
  19   1   3   11.04    2.27
 -22   2   3    1.13    1.55
 -20   2   3   27.05    2.98
 -18   2   3   28.56    2.99
 -16   2   3   20.30    2.45
 -14   2   3   99.43    3.26
 -12   2   3  138.53    3.69
 -10   2   3    8.13    0.92
  -8   2   3   71.47    1.99
  -6   2   3   48.99    1.55
  -4   2   3  196.20    3.23
  -2   2   3    8.41    0.58
   0   2   3  278.68    3.54
   2   2   3   41.82    1.47
   4   2   3  132.44    2.47
   6   2   3    1.10    0.47
   8   2   3   14.85    1.26
  10   2   3   50.00    2.47
  12   2   3   11.82    1.36
  14   2   3   28.82    2.52
  16   2   3    0.00    1.07
  18   2   3    3.79    1.48
 -21   3   3    0.62    2.56
 -19   3   3    6.39    1.90
 -17   3   3   30.68    3.14
 -15   3   3   10.83    1.90
 -13   3   3    0.27    0.79
 -11   3   3   96.47    3.15
  -9   3   3  203.98    4.78
  -7   3   3    0.70    0.69
  -5   3   3    7.79    1.08
  -3   3   3    9.38    0.98
  -1   3   3    3.64    0.66
   1   3   3   19.32    1.27
   3   3   3    5.68    1.00
   5   3   3  252.88    4.74
   7   3   3   44.74    2.24
   9   3   3   52.50    2.96
  11   3   3    7.09    1.31
  13   3   3    0.38    0.94
  15   3   3   22.27    2.84
  17   3   3   30.34    4.70
 -18   4   3   15.40    3.87
 -16   4   3    9.89    3.07
 -14   4   3   60.08    4.39
 -12   4   3   81.15    4.24
 -10   4   3    4.19    1.40
  -8   4   3   37.05    2.52
  -6   4   3   25.72    2.07
  -4   4   3   91.50    3.19
  -2   4   3    3.69    1.00
   0   4   3  143.74    4.14
   2   4   3   15.68    1.68
   4   4   3   70.35    2.91
   6   4   3    1.19    0.85
   8   4   3   10.27    1.93
  10   4   3   30.18    2.58
  12   4   3    8.85    1.66
  14   4   3   19.11    2.81
 -15   5   3    4.34    2.80
 -13   5   3   -1.18    1.31
 -11   5   3   40.56    3.82
  -9   5   3  108.92    5.17
  -7   5   3   -0.26    1.96
  -5   5   3    2.71    1.41
  -3   5   3    2.65    1.30
  -1   5   3    2.00    1.09
   1   5   3    6.83    1.43
   3   5   3    4.12    1.22
   5   5   3  132.74    4.46
   7   5   3   27.41    3.19
   9   5   3   33.69    3.49
  11   5   3    0.19    2.03
  -6   6   3    4.48    3.13
  -4   6   3   48.89    4.50
  -2   6   3    2.35    1.73
   0   6   3   76.62    5.32
   2   6   3    4.62    1.52
   4   6   3   37.21    5.66
  -2  -6   4   25.26    4.74
   0  -6   4   21.11    4.53
   2  -6   4   22.95    4.83
 -13  -5   4   -0.16    1.93
 -11  -5   4   27.70    4.64
  -9  -5   4   10.67    3.15
  -7  -5   4   -0.45    1.28
  -5  -5   4   59.43    4.30
  -3  -5   4   -0.78    1.18
  -1  -5   4   58.43    4.25
   1  -5   4   -1.22    1.19
   3  -5   4    0.78    1.40
   5  -5   4    6.38    1.94
   7  -5   4    0.96    1.54
   9  -5   4    1.03    1.90
 -18  -4   4    8.55    3.31
 -16  -4   4   13.59    3.53
 -14  -4   4   19.09    3.81
 -12  -4   4    6.04    2.48
 -10  -4   4    5.17    1.25
  -8  -4   4    1.88    0.96
  -6  -4   4  124.14    3.85
  -4  -4   4   11.76    1.48
  -2  -4   4   50.31    2.84
   0  -4   4   40.95    2.58
   2  -4   4   30.53    2.28
   4  -4   4   12.37    1.57
   6  -4   4   29.51    2.46
   8  -4   4   35.20    2.81
  10  -4   4    4.69    1.46
  12  -4   4   48.69    3.72
 -21  -3   4   51.35    6.65
 -19  -3   4   34.24    3.68
 -17  -3   4   66.14    4.73
 -15  -3   4   41.07    3.55
 -13  -3   4    5.28    1.51
 -11  -3   4   51.77    2.60
  -9  -3   4   29.06    2.03
  -7  -3   4    4.58    0.94
  -5  -3   4  103.82    2.68
  -3  -3   4    0.71    0.55
  -1  -3   4  107.58    2.80
   1  -3   4    0.39    0.67
   3  -3   4    0.65    0.69
   5  -3   4   11.48    1.47
   7  -3   4    0.27    0.80
   9  -3   4    0.61    0.87
  11  -3   4   84.20    4.01
  13  -3   4   -0.38    1.18
  15  -3   4   16.83    3.35
 -22  -2   4   35.27    3.86
 -20  -2   4   11.66    2.33
 -18  -2   4   24.72    2.93
 -16  -2   4   20.02    2.47
 -14  -2   4   45.73    2.63
 -12  -2   4   10.57    1.25
 -10  -2   4   12.61    1.09
  -8  -2   4    0.67    0.50
  -6  -2   4  211.59    3.66
  -4  -2   4   26.52    1.41
  -2  -2   4   91.37    2.23
   0  -2   4   66.77    1.98
   2  -2   4   57.28    1.95
   4  -2   4   20.93    1.49
   6  -2   4   55.40    2.59
   8  -2   4   54.26    3.15
  10  -2   4    3.19    1.11
  12  -2   4   76.12    3.75
  14  -2   4    2.32    1.83
  16  -2   4   51.52    4.66
 -23  -1   4    4.15    1.93
 -21  -1   4   70.40    4.92
 -19  -1   4   48.19    3.83
 -17  -1   4   66.80    3.79
 -15  -1   4   54.21    2.49
 -13  -1   4    5.88    1.02
 -11  -1   4   81.78    2.15
  -9  -1   4   48.65    1.39
  -7  -1   4   10.31    0.72
  -5  -1   4  158.08    2.48
  -3  -1   4    1.10    0.39
  -1  -1   4  179.29    2.85
   1  -1   4    0.14    0.39
   3  -1   4   -0.27    0.34
   5  -1   4   24.61    1.26
   7  -1   4   -0.13    0.51
   9  -1   4    2.20    0.72
  11  -1   4  127.61    3.52
  13  -1   4    0.33    1.12
  15  -1   4   19.77    2.75
  17  -1   4    9.17    2.11
 -22   0   4   33.59    5.04
 -20   0   4   12.44    2.17
 -18   0   4   24.16    2.11
 -16   0   4   24.46    1.97
 -14   0   4   49.48    2.28
 -12   0   4   13.30    1.14
 -10   0   4   15.03    1.14
  -8   0   4    1.44    0.49
  -6   0   4  268.67    4.11
  -4   0   4   32.79    1.21
  -2   0   4  118.18    2.41
   0   0   4   86.58    1.64
   2   0   4   78.71    1.51
   4   0   4   27.43    0.99
   6   0   4   71.37    1.47
   8   0   4   69.46    1.63
  10   0   4    2.24    0.75
  12   0   4   80.76    3.21
  14   0   4    4.87    1.21
  16   0   4   57.13    3.54
  18   0   4    1.39    1.25
 -23   1   4    8.90    3.21
 -21   1   4   73.69    5.21
 -19   1   4   48.19    4.06
 -17   1   4   71.24    3.88
 -15   1   4   55.54    3.76
 -13   1   4    6.81    0.82
 -11   1   4   84.45    2.18
  -9   1   4   45.45    1.43
  -7   1   4    9.43    0.62
  -5   1   4  159.87    3.06
  -3   1   4    1.55    0.44
  -1   1   4  179.30    2.80
   1   1   4    0.12    0.34
   3   1   4    0.37    0.33
   5   1   4   26.33    1.07
   7   1   4   -0.03    0.38
   9   1   4    1.13    0.55
  11   1   4  121.86    3.34
  13   1   4    1.17    0.92
  15   1   4   15.39    2.40
  17   1   4    9.41    2.08
 -22   2   4   48.83    4.58
 -20   2   4    6.43    1.95
 -18   2   4   20.96    2.71
 -16   2   4   22.23    2.60
 -14   2   4   46.07    2.70
 -12   2   4    9.40    1.21
 -10   2   4   12.88    1.16
  -8   2   4    0.59    0.50
  -6   2   4  209.03    3.71
  -4   2   4   27.78    1.30
  -2   2   4   90.57    1.94
   0   2   4   67.29    1.61
   2   2   4   59.32    2.00
   4   2   4   20.69    1.23
   6   2   4   58.81    2.14
   8   2   4   56.45    2.33
  10   2   4    2.42    0.80
  12   2   4   74.46    3.40
  14   2   4    4.75    1.33
  16   2   4   48.49    3.41
 -19   3   4   37.81    5.63
 -17   3   4   57.93    6.57
 -15   3   4   34.30    3.18
 -13   3   4    2.87    1.24
 -11   3   4   48.87    3.54
  -9   3   4   28.01    2.15
  -7   3   4    4.48    1.00
  -5   3   4  102.70    3.23
  -3   3   4   -0.11    0.61
  -1   3   4  113.41    2.86
   1   3   4   -0.44    0.48
   3   3   4    0.54    0.72
   5   3   4   15.96    1.66
   7   3   4    0.09    0.67
   9   3   4    1.30    0.90
  11   3   4   98.93    4.67
  13   3   4   -0.28    1.18
  15   3   4   10.73    2.26
 -16   4   4   18.53    4.07
 -14   4   4   31.08    3.40
 -12   4   4    3.64    1.52
 -10   4   4    2.59    1.39
  -8   4   4    0.00    0.83
  -6   4   4  124.20    3.99
  -4   4   4   11.19    1.43
  -2   4   4   42.54    2.69
   0   4   4   35.42    2.48
   2   4   4   30.86    2.38
   4   4   4    8.17    1.43
   6   4   4   28.64    2.34
   8   4   4   27.38    3.01
  10   4   4    1.98    1.45
  12   4   4   52.02    4.48
 -15   5   4   16.61    4.23
 -13   5   4    2.47    1.72
 -11   5   4   30.83    3.42
  -9   5   4   14.86    2.46
  -7   5   4   -0.66    1.42
  -5   5   4   53.63    6.28
  -3   5   4    2.15    1.47
  -1   5   4   55.36    3.46
   1   5   4   -0.30    0.95
   3   5   4   -0.84    0.97
   5   5   4    2.96    1.56
   7   5   4    0.41    1.38
   9   5   4   -1.64    2.07
  -4   6   4    1.77    2.54
   0   6   4   19.01    3.04
   2   6   4   17.39    3.94
 -11  -5   5   25.86    4.72
  -9  -5   5    2.59    2.26
  -7  -5   5   25.59    4.37
  -5  -5   5   22.08    4.27
  -3  -5   5    1.13    1.92
  -1  -5   5   38.62    5.32
   1  -5   5   79.83    7.61
   3  -5   5    5.02    2.56
   5  -5   5   14.69    3.57
   7  -5   5   15.41    4.00
 -16  -4   5   10.60    3.38
 -14  -4   5   26.14    3.09
 -12  -4   5   15.50    2.40
 -10  -4   5   83.77    4.33
  -8  -4   5   20.79    2.53
  -6  -4   5    6.97    1.62
  -4  -4   5    1.01    1.05
  -2  -4   5    1.27    0.99
   0  -4   5    9.37    1.42
   2  -4   5   30.36    2.40
   4  -4   5    6.03    1.38
   6  -4   5  121.04    4.42
   8  -4   5   23.88    2.53
  10  -4   5    6.09    1.72
 -19  -3   5    8.13    2.10
 -17  -3   5    0.85    1.36
 -15  -3   5   91.67    4.84
 -13  -3   5    2.51    1.27
 -11  -3   5   69.09    3.68
  -9  -3   5    2.26    1.15
  -7  -3   5   70.46    2.87
  -5  -3   5   51.78    2.85
  -3  -3   5    4.27    1.02
  -1  -3   5   91.71    2.69
   1  -3   5  136.88    3.43
   3  -3   5    9.71    1.36
   5  -3   5   30.60    2.28
   7  -3   5   26.06    2.34
   9  -3   5    4.11    1.43
  11  -3   5    1.82    1.35
  13  -3   5   21.12    2.63
 -22  -2   5   18.17    2.85
 -20  -2   5    7.73    2.11
 -18  -2   5   15.42    2.39
 -16  -2   5   12.04    2.04
 -14  -2   5   30.93    2.88
 -12  -2   5   22.49    2.36
 -10  -2   5  132.58    3.73
  -8  -2   5   34.03    2.15
  -6  -2   5   19.70    1.64
  -4  -2   5    2.23    0.76
  -2  -2   5    0.63    0.61
   0  -2   5   18.17    1.34
   2  -2   5   49.88    2.16
   4  -2   5    5.24    0.96
   6  -2   5  203.51    5.39
   8  -2   5   40.73    3.03
  10  -2   5   10.39    1.68
  12  -2   5   13.72    2.05
  14  -2   5   32.97    3.82
  16  -2   5   -0.54    2.49
 -21  -1   5    2.98    1.68
 -19  -1   5    6.66    1.75
 -17  -1   5    1.26    1.18
 -15  -1   5  106.73    3.55
 -13  -1   5    4.00    0.98
 -11  -1   5  101.06    2.68
  -9  -1   5    4.26    0.81
  -7  -1   5  100.25    2.70
  -5  -1   5   81.57    2.38
  -3  -1   5    6.39    0.87
  -1  -1   5  141.03    2.86
   1  -1   5  206.14    4.02
   3  -1   5   16.31    1.33
   5  -1   5   44.62    2.25
   7  -1   5   43.39    2.32
   9  -1   5    4.64    1.18
  11  -1   5    3.35    1.14
  13  -1   5   31.60    3.38
  15  -1   5   39.85    3.91
 -22   0   5   10.65    3.30
 -20   0   5    8.43    2.79
 -18   0   5   19.85    2.46
 -16   0   5   11.18    1.84
 -14   0   5   47.15    2.40
 -12   0   5   29.62    1.71
 -10   0   5  164.54    3.35
  -8   0   5   40.24    1.66
  -6   0   5   24.24    1.28
  -4   0   5    1.67    0.53
  -2   0   5    1.82    0.57
   0   0   5   22.53    1.12
   2   0   5   59.45    1.74
   4   0   5   10.86    0.85
   6   0   5  236.98    3.25
   8   0   5   58.01    1.99
  10   0   5   15.37    1.44
  12   0   5   16.21    2.32
  14   0   5   36.53    3.47
  16   0   5    1.71    1.51
 -23   1   5    2.27    2.63
 -21   1   5    3.01    1.72
 -19   1   5    5.05    1.76
 -17   1   5    3.03    1.32
 -15   1   5  122.93    4.73
 -13   1   5    3.71    0.99
 -11   1   5   91.55    3.08
  -9   1   5    4.97    0.96
  -7   1   5  100.83    2.65
  -5   1   5   78.89    2.28
  -3   1   5    8.57    0.90
  -1   1   5  146.97    2.81
   1   1   5  211.27    3.60
   3   1   5   15.13    0.93
   5   1   5   47.02    1.38
   7   1   5   42.36    1.50
   9   1   5    8.31    0.77
  11   1   5    4.52    1.03
  13   1   5   29.40    3.08
  15   1   5   41.08    3.76
  17   1   5   20.45    4.23
 -22   2   5   10.43    2.41
 -20   2   5    8.91    2.21
 -18   2   5   14.91    2.47
 -16   2   5   10.81    1.97
 -14   2   5   37.99    2.51
 -12   2   5   22.59    1.89
 -10   2   5  137.76    3.27
  -8   2   5   33.62    1.81
  -6   2   5   18.87    1.33
  -4   2   5    1.14    0.58
  -2   2   5    1.04    0.68
   0   2   5   16.77    1.37
   2   2   5   52.06    2.11
   4   2   5    8.99    1.06
   6   2   5  199.26    4.38
   8   2   5   45.56    2.79
  10   2   5   11.43    1.57
  12   2   5   14.28    2.20
  14   2   5   38.45    3.56
 -19   3   5    5.69    2.62
 -17   3   5    0.99    1.93
 -15   3   5   84.66    4.49
 -13   3   5    4.42    1.39
 -11   3   5   65.28    3.83
  -9   3   5    1.78    0.87
  -7   3   5   68.91    3.02
  -5   3   5   50.18    2.69
  -3   3   5    4.00    0.99
  -1   3   5   89.44    2.75
   1   3   5  131.51    4.05
   3   3   5   10.03    1.45
   5   3   5   37.31    2.65
   7   3   5   31.84    3.03
   9   3   5    3.27    1.15
  11   3   5    2.11    1.19
  13   3   5   30.05    3.34
 -16   4   5    6.88    2.86
 -14   4   5   25.61    3.13
 -12   4   5    9.99    2.05
 -10   4   5   80.54    4.29
  -8   4   5   22.29    2.18
  -6   4   5    7.32    1.37
  -4   4   5    0.42    0.78
  -2   4   5    0.68    1.09
   0   4   5    9.68    1.57
   2   4   5   25.05    2.30
   4   4   5    3.98    1.33
   6   4   5  127.43    7.70
   8   4   5   27.60    3.17
  10   4   5    6.21    2.02
 -13   5   5   -0.07    1.70
 -11   5   5   39.12    3.93
  -9   5   5    0.13    2.20
  -7   5   5   37.74    3.84
  -5   5   5   26.61    3.29
  -3   5   5    1.76    1.54
  -1   5   5   41.69    5.45
   1   5   5   82.48    4.92
   3   5   5    4.53    1.51
   5   5   5   12.82    2.47
  -9  -5   6   18.65    4.13
  -7  -5   6   25.95    4.81
  -5  -5   6   40.11    5.61
  -3  -5   6    2.30    2.38
  -1  -5   6    4.30    2.49
   1  -5   6   64.21    4.92
   3  -5   6   -1.25    2.16
 -16  -4   6   30.76    3.53
 -14  -4   6    3.82    1.69
 -12  -4   6   35.64    3.55
 -10  -4   6    9.54    2.03
  -8  -4   6    8.54    1.90
  -6  -4   6   31.81    3.21
  -4  -4   6  135.80    5.53
  -2  -4   6    8.13    1.82
   0  -4   6    6.97    1.67
   2  -4   6   18.75    2.37
   4  -4   6    7.60    1.88
   6  -4   6   -0.22    1.32
   8  -4   6    5.70    2.02
 -19  -3   6    1.10    1.62
 -17  -3   6    2.32    1.48
 -15  -3   6    8.82    2.01
 -13  -3   6   52.65    4.06
 -11  -3   6   10.13    1.81
  -9  -3   6   37.90    3.26
  -7  -3   6   51.16    3.02
  -5  -3   6   83.42    3.27
  -3  -3   6    1.46    0.87
  -1  -3   6    4.04    1.04
   1  -3   6  105.35    3.83
   3  -3   6    2.86    1.17
   5  -3   6   20.23    2.54
   7  -3   6    0.65    1.10
   9  -3   6   73.11    5.13
  11  -3   6   10.42    2.33
 -20  -2   6  108.67    5.41
 -18  -2   6   43.12    3.81
 -16  -2   6   49.19    3.81
 -14  -2   6    3.42    1.24
 -12  -2   6   48.78    2.88
 -10  -2   6   18.88    1.77
  -8  -2   6   11.05    1.40
  -6  -2   6   44.24    2.38
  -4  -2   6  206.65    4.95
  -2  -2   6   14.06    1.52
   0  -2   6   10.84    1.41
   2  -2   6   37.20    2.47
   4  -2   6    8.84    1.30
   6  -2   6    0.12    0.97
   8  -2   6    4.68    2.09
  10  -2   6   36.34    3.02
  12  -2   6   29.51    2.80
  14  -2   6    1.74    2.90
 -21  -1   6   48.47    5.96
 -19  -1   6    4.15    2.25
 -17  -1   6    0.40    1.60
 -15  -1   6   11.86    1.52
 -13  -1   6   76.99    2.88
 -11  -1   6   15.57    1.40
  -9  -1   6   51.89    2.30
  -7  -1   6   77.00    2.49
  -5  -1   6  119.62    3.08
  -3  -1   6    4.62    0.85
  -1  -1   6    6.89    0.96
   1  -1   6  163.96    4.18
   3  -1   6    0.74    0.70
   5  -1   6   26.51    2.12
   7  -1   6    0.23    0.67
   9  -1   6  102.21    3.82
  11  -1   6    9.24    1.58
  13  -1   6   51.20    4.27
  15  -1   6   14.34    3.87
 -22   0   6    1.37    2.22
 -20   0   6  110.32    5.32
 -18   0   6   45.41    3.81
 -16   0   6   60.10    4.14
 -14   0   6    5.13    1.42
 -12   0   6   57.97    2.90
 -10   0   6   21.85    1.87
  -8   0   6   12.65    1.43
  -6   0   6   50.71    2.56
  -4   0   6  258.39    4.50
  -2   0   6   23.05    1.49
   0   0   6   11.62    1.15
   2   0   6   47.18    2.04
   4   0   6    9.65    1.11
   6   0   6    0.31    0.57
   8   0   6   11.43    1.34
  10   0   6   46.77    3.01
  12   0   6   29.76    3.12
  14   0   6    3.93    1.76
 -23   1   6    0.53    2.65
 -21   1   6   50.27    4.47
 -19   1   6    4.20    1.61
 -17   1   6    1.28    1.16
 -15   1   6   16.83    2.22
 -13   1   6   80.13    3.10
 -11   1   6   15.44    1.65
  -9   1   6   48.83    2.51
  -7   1   6   75.05    2.78
  -5   1   6  120.54    3.11
  -3   1   6    3.46    0.80
  -1   1   6    7.23    0.99
   1   1   6  164.57    3.72
   3   1   6    0.56    0.59
   5   1   6   32.82    1.45
   7   1   6    1.22    0.51
   9   1   6  108.66    2.82
  11   1   6    6.50    1.40
  13   1   6   41.51    5.43
  15   1   6   11.11    3.49
 -20   2   6   99.45    5.34
 -18   2   6   43.54    3.84
 -16   2   6   47.59    3.82
 -14   2   6    4.50    1.12
 -12   2   6   55.52    2.80
 -10   2   6   16.19    1.43
  -8   2   6   12.53    1.60
  -6   2   6   48.90    2.70
  -4   2   6  213.69    5.33
  -2   2   6   16.21    1.74
   0   2   6   12.47    1.59
   2   2   6   39.21    2.22
   4   2   6    7.55    1.11
   6   2   6    0.96    0.98
   8   2   6    9.95    1.55
  10   2   6   36.18    3.31
  12   2   6   32.20    3.28
  14   2   6    5.21    2.98
 -19   3   6    1.16    2.10
 -17   3   6    1.25    1.94
 -15   3   6   11.04    2.24
 -13   3   6   50.43    4.04
 -11   3   6   11.43    1.68
  -9   3   6   40.14    2.84
  -7   3   6   49.54    3.07
  -5   3   6   86.73    3.35
  -3   3   6    2.31    0.96
  -1   3   6    3.40    1.04
   1   3   6  110.47    4.01
   3   3   6   -0.72    0.90
   5   3   6   20.45    2.20
   7   3   6    0.25    1.20
   9   3   6   75.73    5.04
  11   3   6    7.84    2.98
 -16   4   6   23.66    4.71
 -14   4   6    0.98    1.61
 -12   4   6   33.19    3.65
 -10   4   6    8.04    2.09
  -8   4   6    8.91    1.64
  -6   4   6   23.64    2.30
  -4   4   6  143.84    6.20
  -2   4   6    9.16    1.98
   0   4   6    4.73    1.71
   2   4   6   19.91    2.10
   4   4   6    5.07    1.46
   6   4   6   -0.12    1.35
   8   4   6    8.88    2.32
 -11   5   6    5.14    3.03
  -9   5   6   22.40    5.02
  -7   5   6   35.45    4.14
  -5   5   6   47.38    4.61
  -3   5   6    5.35    2.17
  -1   5   6    2.52    1.81
   1   5   6   66.58    5.32
   3   5   6    0.94    2.74
  -3  -5   7   -0.42    2.21
 -14  -4   7   35.55    3.79
 -12  -4   7    3.70    1.73
 -10  -4   7   81.92    4.94
  -8  -4   7   12.73    2.19
  -6  -4   7    3.51    1.64
  -4  -4   7    1.56    1.43
  -2  -4   7   11.15    2.15
   0  -4   7   39.37    3.75
   2  -4   7   47.22    4.12
   4  -4   7   43.39    4.09
 -17  -3   7   56.10    4.59
 -15  -3   7   27.71    3.22
 -13  -3   7   48.68    3.98
 -11  -3   7    3.42    1.44
  -9  -3   7    4.26    1.49
  -7  -3   7    8.52    1.51
  -5  -3   7    1.06    0.90
  -3  -3   7   -0.49    0.77
  -1  -3   7   37.57    2.78
   1  -3   7    0.97    0.89
   3  -3   7   32.67    3.21
   5  -3   7   -0.05    1.18
   7  -3   7   78.38    7.67
 -18  -2   7    6.78    2.67
 -16  -2   7    5.19    1.66
 -14  -2   7   46.26    3.65
 -12  -2   7    6.39    1.29
 -10  -2   7  126.13    3.97
  -8  -2   7   22.96    2.03
  -6  -2   7    5.39    1.09
  -4  -2   7    2.17    0.90
  -2  -2   7   16.04    1.73
   0  -2   7   65.90    3.18
   2  -2   7   66.12    3.36
   4  -2   7   66.95    3.69
   6  -2   7    1.77    1.34
   8  -2   7   -0.03    1.20
  10  -2   7    0.17    1.38
 -19  -1   7    1.16    2.11
 -17  -1   7   63.58    6.42
 -15  -1   7   41.26    3.56
 -13  -1   7   69.55    4.01
 -11  -1   7    6.85    1.43
  -9  -1   7    5.59    1.30
  -7  -1   7   12.93    1.31
  -5  -1   7    0.43    0.61
  -3  -1   7    0.56    0.62
  -1  -1   7   52.65    2.65
   1  -1   7    2.78    0.92
   3  -1   7   47.07    2.87
   5  -1   7    0.23    0.81
   7  -1   7   96.79    3.77
   9  -1   7   -0.79    1.10
  11  -1   7    7.98    2.13
 -20   0   7    7.62    2.06
 -18   0   7   10.29    2.07
 -16   0   7    4.65    1.54
 -14   0   7   56.01    3.90
 -12   0   7   11.56    1.49
 -10   0   7  143.42    4.33
  -8   0   7   24.03    2.06
  -6   0   7    8.80    1.36
  -4   0   7    3.05    1.00
  -2   0   7   20.76    1.90
   0   0   7   70.66    3.04
   2   0   7   73.10    3.00
   4   0   7   75.16    2.75
   6   0   7    2.02    0.97
   8   0   7    0.75    0.95
  10   0   7    0.97    1.36
  12   0   7   -0.71    2.05
 -21   1   7    1.61    1.69
 -19   1   7   -0.29    1.22
 -17   1   7   63.81    4.53
 -15   1   7   38.67    3.40
 -13   1   7   71.07    3.22
 -11   1   7    3.56    1.07
  -9   1   7    6.51    1.20
  -7   1   7   11.86    1.49
  -5   1   7    0.12    0.72
  -3   1   7    0.01    0.64
  -1   1   7   51.31    2.40
   1   1   7    3.65    0.85
   3   1   7   48.23    2.54
   5   1   7    0.08    0.87
   7   1   7  100.19    3.82
 -18   2   7    3.90    2.34
 -16   2   7    8.50    2.84
 -14   2   7   38.15    3.65
 -12   2   7    4.54    1.61
 -10   2   7  115.37    5.14
  -8   2   7   21.78    2.17
  -6   2   7    7.34    1.38
  -4   2   7    2.34    1.02
  -2   2   7   15.68    1.83
   0   2   7   62.69    3.30
   2   2   7   58.11    3.22
   4   2   7   61.86    4.74
   6   2   7    2.47    1.23
   8   2   7    2.07    1.47
 -17   3   7   42.03    5.94
 -15   3   7   28.87    3.48
 -13   3   7   48.94    4.21
 -11   3   7    2.74    1.26
  -9   3   7    5.64    1.39
  -7   3   7   10.31    1.65
  -5   3   7   -0.46    0.81
  -3   3   7   -0.50    0.81
  -1   3   7   38.28    2.85
   1   3   7    2.84    1.66
   3   3   7   29.69    3.44
   5   3   7    0.09    1.18
   7   3   7   81.12    5.28
   9   3   7    0.35    1.58
 -14   4   7   23.39    3.38
 -12   4   7    2.37    1.84
 -10   4   7   82.64    4.32
  -8   4   7    9.70    1.77
  -6   4   7    4.18    1.30
  -4   4   7    2.47    1.71
  -2   4   7   10.16    2.29
   0   4   7   47.90    4.49
   2   4   7   39.79    4.27
   4   4   7   40.46    3.46
 -10  -4   8   53.35    4.59
  -8  -4   8   11.27    2.33
  -6  -4   8    9.20    2.13
  -4  -4   8   22.56    2.96
  -2  -4   8   20.70    2.95
   0  -4   8   10.89    3.30
 -15  -3   8    3.68    2.44
 -13  -3   8    0.31    1.44
 -11  -3   8   29.29    3.23
  -9  -3   8   -1.23    1.05
  -7  -3   8   43.34    3.09
  -5  -3   8  106.86    4.12
  -3  -3   8   36.63    2.82
  -1  -3   8    4.25    1.38
   1  -3   8   -0.07    1.05
   3  -3   8    5.30    1.78
   5  -3   8   27.72    3.28
 -18  -2   8    0.64    2.33
 -16  -2   8    2.16    2.10
 -14  -2   8    3.71    2.23
 -12  -2   8    2.65    1.35
 -10  -2   8   78.46    4.28
  -8  -2   8   18.94    1.97
  -6  -2   8   18.91    1.90
  -4  -2   8   32.34    2.47
  -2  -2   8   34.01    2.60
   0  -2   8   21.33    2.10
   2  -2   8    9.50    1.58
   4  -2   8   11.15    1.75
   6  -2   8   61.75    4.63
   8  -2   8    1.34    2.36
 -19  -1   8   86.18    8.09
 -17  -1   8    0.98    1.39
 -15  -1   8    0.53    1.21
 -13  -1   8    0.37    1.20
 -11  -1   8   33.87    2.70
  -9  -1   8   -0.43    0.79
  -7  -1   8   45.47    3.07
  -5  -1   8  140.71    4.54
  -3  -1   8   45.22    3.64
  -1  -1   8    6.71    1.56
   1  -1   8    0.00    0.92
   3  -1   8   10.01    1.93
   5  -1   8   32.43    2.70
   7  -1   8    7.69    1.62
   9  -1   8    1.52    1.63
 -20   0   8    1.94    1.61
 -18   0   8    1.55    1.43
 -16   0   8    2.43    1.41
 -14   0   8    6.00    1.61
 -12   0   8    1.82    0.98
 -10   0   8   83.58    3.62
  -8   0   8   24.25    2.26
  -6   0   8   23.11    2.17
  -4   0   8   41.22    2.84
  -2   0   8   38.46    2.67
   0   0   8   26.75    2.30
   2   0   8   14.80    1.81
   4   0   8   14.61    1.84
   6   0   8   77.26    4.58
   8   0   8    0.74    1.37
  10   0   8  106.34    7.47
 -19   1   8   97.96    7.68
 -17   1   8    1.78    1.33
 -15   1   8    4.00    1.50
 -13   1   8    0.73    0.98
 -11   1   8   36.56    2.72
  -9   1   8   -0.49    0.78
  -7   1   8   56.79    3.05
  -5   1   8  144.24    4.49
  -3   1   8   44.52    2.89
  -1   1   8    6.05    1.62
   1   1   8    0.49    1.10
   3   1   8   13.54    2.20
   5   1   8   27.72    3.12
   7   1   8    9.94    3.29
 -18   2   8    3.95    2.69
 -16   2   8   -0.83    1.72
 -14   2   8    3.38    1.83
 -12   2   8    2.84    1.62
 -10   2   8   75.84    4.72
  -8   2   8   14.07    2.40
  -6   2   8   18.65    2.16
  -4   2   8   36.92    2.94
  -2   2   8   32.39    2.63
   0   2   8   18.60    2.17
   2   2   8   12.14    1.86
   4   2   8    7.21    2.13
   6   2   8   64.53    5.02
 -15   3   8    0.87    1.84
 -13   3   8    2.11    1.64
 -11   3   8   28.80    2.67
  -9   3   8    0.22    1.09
  -7   3   8   37.58    3.09
  -5   3   8  102.79    4.32
  -3   3   8   38.83    3.10
  -1   3   8    3.81    1.72
   1   3   8    0.92    1.71
   3   3   8    8.61    2.40
   5   3   8   21.27    3.25
 -10   4   8   43.40    4.17
  -8   4   8   10.59    1.96
  -6   4   8   17.19    3.03
  -4   4   8   21.91    3.39
  -2   4   8   15.89    3.03
   0   4   8    6.33    3.87
 -11  -3   9   32.82    5.13
  -9  -3   9    9.01    3.02
  -7  -3   9    5.53    1.87
  -5  -3   9   22.88    2.42
  -3  -3   9    1.20    1.19
  -1  -3   9    6.16    1.56
   1  -3   9   85.94    6.63
 -14  -2   9    0.55    2.07
 -12  -2   9   -0.62    1.30
 -10  -2   9    5.20    1.77
  -8  -2   9    8.05    1.96
  -6  -2   9    0.17    1.14
  -4  -2   9   17.74    2.68
  -2  -2   9   35.98    3.65
   0  -2   9   42.10    3.94
   2  -2   9    3.71    1.68
 -17  -1   9   -0.21    1.49
 -15  -1   9   20.79    2.97
 -13  -1   9   66.64    4.83
 -11  -1   9   48.76    4.08
  -9  -1   9    7.84    1.89
  -7  -1   9   11.14    2.11
  -5  -1   9   27.49    3.04
  -3  -1   9    5.56    1.58
  -1  -1   9    8.12    1.92
   1  -1   9  106.90    5.19
   3  -1   9   -0.26    1.27
   5  -1   9   17.79    2.69
 -18   0   9    0.49    1.52
 -16   0   9  145.29    6.26
 -14   0   9    1.53    1.41
 -12   0   9    0.91    1.11
 -10   0   9    4.93    1.40
  -8   0   9   12.76    1.86
  -6   0   9    0.60    0.99
  -4   0   9   16.57    2.02
  -2   0   9   42.88    3.07
   0   0   9   45.15    3.15
   2   0   9    1.88    1.16
   4   0   9   22.37    2.79
   6   0   9   14.01    3.43
 -17   1   9   -0.96    1.42
 -15   1   9   27.06    3.12
 -13   1   9   67.85    3.71
 -11   1   9   47.25    3.29
  -9   1   9   13.02    2.34
  -7   1   9    7.62    1.99
  -5   1   9   22.83    2.94
  -3   1   9    2.12    1.36
  -1   1   9   12.11    2.31
   1   1   9  117.66    5.58
   3   1   9    2.17    1.55
   5   1   9   13.38    2.45
 -14   2   9   -0.87    1.50
 -12   2   9   -0.63    1.27
 -10   2   9    7.68    2.23
  -8   2   9    7.56    2.09
  -6   2   9    3.08    1.59
  -4   2   9   18.97    2.89
  -2   2   9   37.06    3.06
   0   2   9   37.22    3.15
   2   2   9    2.49    1.79
   4   2   9   19.42    3.22
 -11   3   9   33.65    3.88
  -9   3   9   14.50    2.62
  -7   3   9   11.28    2.01
  -5   3   9   19.39    2.44
  -3   3   9    1.33    1.79
  -1   3   9    5.79    2.34
 -12  -2  10    5.48    3.09
 -10  -2  10   52.09    6.59
  -8  -2  10   46.27    6.07
  -6  -2  10    3.34    1.77
 -13  -1  10   15.26    2.69
 -11  -1  10    4.26    1.76
  -9  -1  10   23.45    3.05
  -7  -1  10    7.35    2.00
  -5  -1  10   49.90    4.27
  -3  -1  10    0.81    1.39
  -1  -1  10    2.84    1.71
   1  -1  10   -1.72    1.94
 -14   0  10   -0.19    2.34
 -12   0  10    3.34    1.37
 -10   0  10   71.08    4.22
  -8   0  10   52.65    3.59
  -6   0  10    4.83    1.45
  -4   0  10   22.79    2.47
  -2   0  10    7.59    1.66
   0   0  10    1.42    1.70
 -13   1  10   16.68    4.43
 -11   1  10    3.74    1.86
  -9   1  10   28.07    3.50
  -7   1  10    8.70    2.25
  -5   1  10   43.30    4.20
  -3   1  10   -0.41    1.37
  -1   1  10    0.65    1.67
   1   1  10   -1.38    1.84
  -8   2  10   42.47    5.81
  -6   2  10    1.04    1.85
  -4   2  10   20.63    4.07
  -2   2  10   10.24    2.95
   0   0   0    0.00    0.00
;
_shelx_hkl_checksum              25337
#END Tags that were not found in dictionaries
loop_
_space_group_symop_operation_xyz
'x, y, z'
'-x, y, -z'
'x+1/2, y+1/2, z'
'-x+1/2, y+1/2, -z'
'-x, -y, -z'
'x, -y, z'
'-x+1/2, -y+1/2, -z'
'x+1/2, -y+1/2, z'
loop_
_atom_site_label
_atom_site_type_symbol
_atom_site_fract_x
_atom_site_fract_y
_atom_site_fract_z
_atom_site_U_iso_or_equiv
_atom_site_adp_type
_atom_site_occupancy
_atom_site_site_symmetry_order
_atom_site_calc_flag
_atom_site_refinement_flags_posn
_atom_site_refinement_flags_adp
_atom_site_refinement_flags_occupancy
Gd1 Gd 0.34881(3) 0.0000 0.06621(6) 0.00692(10) Uani 1 2 d S T P
Gd2 Gd 0.58772(3) 0.0000 0.38302(6) 0.00642(10) Uani 1 2 d S T P
Ru Ru 0.21954(4) 0.0000 0.63040(9) 0.00622(13) Uani 1 2 d S T P
In In 0.0000 0.0000 0.0000 0.0089(2) Uani 0.962(3) 4 d S T .
Ge1 Ge 0.06471(6) 0.0000 0.65732(13) 0.00703(17) Uani 1 2 d S T P
Ge2 Ge 0.20446(6) 0.0000 0.26595(13) 0.00734(17) Uani 1 2 d S T P
loop_
_atom_site_aniso_label
_atom_site_aniso_U_11
_atom_site_aniso_U_22
_atom_site_aniso_U_33
_atom_site_aniso_U_23
_atom_site_aniso_U_13
_atom_site_aniso_U_12
Gd1 0.00722(18) 0.00673(18) 0.00667(18) 0.000 0.00178(14) 0.000
Gd2 0.00643(18) 0.00575(18) 0.00757(18) 0.000 0.00278(14) 0.000
Ru 0.0062(3) 0.0056(3) 0.0072(3) 0.000 0.0023(2) 0.000
In 0.0085(4) 0.0107(4) 0.0081(4) 0.000 0.0032(3) 0.000
Ge1 0.0064(4) 0.0067(4) 0.0075(4) 0.000 0.0011(3) 0.000
Ge2 0.0099(4) 0.0048(4) 0.0077(4) 0.000 0.0032(3) 0.000
loop_
_atom_type_symbol
_atom_type_description
_atom_type_scat_dispersion_real
_atom_type_scat_dispersion_imag
_atom_type_scat_source
Ge Ge 0.1547 1.8001 'International Tables Vol C Tables 4.2.6.8 and 6.1.1.4'
Ru Ru -1.2594 0.8363 'International Tables Vol C Tables 4.2.6.8 and 6.1.1.4'
In In -0.7276 1.3100 'International Tables Vol C Tables 4.2.6.8 and 6.1.1.4'
Gd Gd -0.1653 3.9035 'International Tables Vol C Tables 4.2.6.8 and 6.1.1.4'
loop_
_geom_angle_atom_site_label_1
_geom_angle_atom_site_label_2
_geom_angle_atom_site_label_3
_geom_angle
_geom_angle_site_symmetry_1
_geom_angle_site_symmetry_3
Ge1 Gd1 Ge1 93.07(3) 7_556 7_546
Ge1 Gd1 Ge2 87.74(3) 7_556 .
Ge1 Gd1 Ge2 87.74(3) 7_546 .
Ge1 Gd1 Ge2 166.29(3) 7_556 7_545
Ge1 Gd1 Ge2 88.25(3) 7_546 7_545
Ge2 Gd1 Ge2 105.96(2) . 7_545
Ge1 Gd1 Ge2 88.25(3) 7_556 7
Ge1 Gd1 Ge2 166.29(3) 7_546 7
Ge2 Gd1 Ge2 105.96(2) . 7
Ge2 Gd1 Ge2 87.31(3) 7_545 7
Ge1 Gd1 Ru 133.435(16) 7_556 1_554
Ge1 Gd1 Ru 133.435(16) 7_546 1_554
Ge2 Gd1 Ru 95.14(3) . 1_554
Ge2 Gd1 Ru 46.275(17) 7_545 1_554
Ge2 Gd1 Ru 46.275(17) 7 1_554
Ge1 Gd1 In 53.99(2) 7_556 3
Ge1 Gd1 In 110.16(2) 7_546 3
Ge2 Gd1 In 137.246(13) . 3
Ge2 Gd1 In 112.86(2) 7_545 3
Ge2 Gd1 In 60.100(19) 7 3
Ru Gd1 In 98.783(18) 1_554 3
Ge1 Gd1 In 110.16(2) 7_556 3_545
Ge1 Gd1 In 53.99(2) 7_546 3_545
Ge2 Gd1 In 137.246(13) . 3_545
Ge2 Gd1 In 60.100(19) 7_545 3_545
Ge2 Gd1 In 112.86(2) 7 3_545
Ru Gd1 In 98.783(18) 1_554 3_545
In Gd1 In 79.94(2) 3 3_545
Ge1 Gd1 Ru 45.61(2) 7_556 7_556
Ge1 Gd1 Ru 102.28(3) 7_546 7_556
Ge2 Gd1 Ru 44.608(14) . 7_556
Ge2 Gd1 Ru 147.07(2) 7_545 7_556
Ge2 Gd1 Ru 88.38(2) 7 7_556
Ru Gd1 Ru 112.09(2) 1_554 7_556
In Gd1 Ru 92.881(18) 3 7_556
In Gd1 Ru 149.058(17) 3_545 7_556
Ge1 Gd1 Ru 102.28(3) 7_556 7_546
Ge1 Gd1 Ru 45.61(2) 7_546 7_546
Ge2 Gd1 Ru 44.608(14) . 7_546
Ge2 Gd1 Ru 88.38(2) 7_545 7_546
Ge2 Gd1 Ru 147.07(2) 7 7_546
Ru Gd1 Ru 112.09(2) 1_554 7_546
In Gd1 Ru 149.058(17) 3 7_546
In Gd1 Ru 92.881(18) 3_545 7_546
Ru Gd1 Ru 77.87(2) 7_556 7_546
Ge1 Gd1 Gd2 112.88(2) 7_556 5_655
Ge1 Gd1 Gd2 112.88(2) 7_546 5_655
Ge2 Gd1 Gd2 148.87(2) . 5_655
Ge2 Gd1 Gd2 54.458(19) 7_545 5_655
Ge2 Gd1 Gd2 54.458(19) 7 5_655
Ru Gd1 Gd2 53.73(2) 1_554 5_655
In Gd1 Gd2 58.994(9) 3 5_655
In Gd1 Gd2 58.994(9) 3_545 5_655
Ru Gd1 Gd2 140.484(12) 7_556 5_655
Ru Gd1 Gd2 140.484(12) 7_546 5_655
Ge1 Gd1 Gd1 142.03(3) 7_556 7_545
Ge1 Gd1 Gd1 86.67(2) 7_546 7_545
Ge2 Gd1 Gd1 54.30(2) . 7_545
Ge2 Gd1 Gd1 51.654(18) 7_545 7_545
Ge2 Gd1 Gd1 100.64(2) 7 7_545
Ru Gd1 Gd1 59.290(16) 1_554 7_545
In Gd1 Gd1 157.981(19) 3 7_545
In Gd1 Gd1 100.25(2) 3_545 7_545
Ru Gd1 Gd1 97.37(2) 7_556 7_545
Ru Gd1 Gd1 52.797(17) 7_546 7_545
Gd2 Gd1 Gd1 101.961(18) 5_655 7_545
Ge1 Gd2 Ge1 92.16(3) 3 3_545
Ge1 Gd2 Ru 109.02(2) 3 5_656
Ge1 Gd2 Ru 109.02(2) 3_545 5_656
Ge1 Gd2 Ge2 82.29(2) 3 3
Ge1 Gd2 Ge2 150.01(3) 3_545 3
Ru Gd2 Ge2 47.156(17) 5_656 3
Ge1 Gd2 Ge2 150.01(3) 3 3_545
Ge1 Gd2 Ge2 82.29(2) 3_545 3_545
Ru Gd2 Ge2 47.156(17) 5_656 3_545
Ge2 Gd2 Ge2 87.94(3) 3 3_545
Ge1 Gd2 Ru 48.19(2) 3 3
Ge1 Gd2 Ru 108.42(3) 3_545 3
Ru Gd2 Ru 60.854(19) 5_656 3
Ge2 Gd2 Ru 47.46(2) 3 3
Ge2 Gd2 Ru 105.72(3) 3_545 3
Ge1 Gd2 Ru 108.42(3) 3 3_545
Ge1 Gd2 Ru 48.19(2) 3_545 3_545
Ru Gd2 Ru 60.854(19) 5_656 3_545
Ge2 Gd2 Ru 105.72(3) 3 3_545
Ge2 Gd2 Ru 47.46(2) 3_545 3_545
Ru Gd2 Ru 86.01(3) 3 3_545
Ge1 Gd2 Ge1 108.35(2) 3 7_546
Ge1 Gd2 Ge1 48.80(3) 3_545 7_546
Ru Gd2 Ge1 136.828(16) 5_656 7_546
Ge2 Gd2 Ge1 160.01(3) 3 7_546
Ge2 Gd2 Ge1 90.08(3) 3_545 7_546
Ru Gd2 Ge1 151.00(2) 3 7_546
Ru Gd2 Ge1 87.30(2) 3_545 7_546
Ge1 Gd2 Ge1 48.80(3) 3 7_556
Ge1 Gd2 Ge1 108.35(2) 3_545 7_556
Ru Gd2 Ge1 136.828(16) 5_656 7_556
Ge2 Gd2 Ge1 90.08(3) 3 7_556
Ge2 Gd2 Ge1 160.01(3) 3_545 7_556
Ru Gd2 Ge1 87.30(2) 3 7_556
Ru Gd2 Ge1 151.00(2) 3_545 7_556
Ge1 Gd2 Ge1 85.02(3) 7_546 7_556
Ge1 Gd2 In 150.23(2) 3 3_545
Ge1 Gd2 In 87.88(2) 3_545 3_545
Ru Gd2 In 99.023(15) 5_656 3_545
Ge2 Gd2 In 111.30(2) 3 3_545
Ge2 Gd2 In 59.39(2) 3_545 3_545
Ru Gd2 In 157.012(17) 3 3_545
Ru Gd2 In 93.643(19) 3_545 3_545
Ge1 Gd2 In 51.633(18) 7_546 3_545
Ge1 Gd2 In 103.20(2) 7_556 3_545
Ge1 Gd2 In 87.88(2) 3 3
Ge1 Gd2 In 150.23(2) 3_545 3
Ru Gd2 In 99.023(15) 5_656 3
Ge2 Gd2 In 59.39(2) 3 3
Ge2 Gd2 In 111.29(2) 3_545 3
Ru Gd2 In 93.643(19) 3 3
Ru Gd2 In 157.012(17) 3_545 3
Ge1 Gd2 In 103.20(2) 7_546 3
Ge1 Gd2 In 51.633(18) 7_556 3
In Gd2 In 77.84(2) 3_545 3
Ge1 Gd2 Ge2 78.77(2) 3 5_656
Ge1 Gd2 Ge2 78.77(2) 3_545 5_656
Ru Gd2 Ge2 44.34(2) 5_656 5_656
Ge2 Gd2 Ge2 71.24(3) 3 5_656
Ge2 Gd2 Ge2 71.24(3) 3_545 5_656
Ru Gd2 Ge2 43.149(13) 3 5_656
Ru Gd2 Ge2 43.149(13) 3_545 5_656
Ge1 Gd2 Ge2 126.63(2) 7_546 5_656
Ge1 Gd2 Ge2 126.63(2) 7_556 5_656
In Gd2 Ge2 130.146(13) 3_545 5_656
In Gd2 Ge2 130.146(13) 3 5_656
Ge2 Ru Ge2 121.04(5) 7_556 7_546
Ge2 Ru Ge1 112.35(3) 7_556 .
Ge2 Ru Ge1 112.35(3) 7_546 .
Ge2 Ru Ge2 101.46(3) 7_556 .
Ge2 Ru Ge2 101.46(3) 7_546 .
Ge1 Ru Ge2 105.58(4) . .
Ge2 Ru Gd2 66.83(2) 7_556 5_656
Ge2 Ru Gd2 66.83(2) 7_546 5_656
Ge1 Ru Gd2 177.53(3) . 5_656
Ge2 Ru Gd2 76.89(3) . 5_656
Ge2 Ru Gd2 161.20(3) 7_556 3_445
Ge2 Ru Gd2 76.06(3) 7_546 3_445
Ge1 Ru Gd2 62.41(2) . 3_445
Ge2 Ru Gd2 65.12(2) . 3_445
Gd2 Ru Gd2 119.146(19) 5_656 3_445
Ge2 Ru Gd2 76.06(3) 7_556 3_455
Ge2 Ru Gd2 161.20(3) 7_546 3_455
Ge1 Ru Gd2 62.41(2) . 3_455
Ge2 Ru Gd2 65.12(2) . 3_455
Gd2 Ru Gd2 119.146(19) 5_656 3_455
Gd2 Ru Gd2 86.01(3) 3_445 3_455
Ge2 Ru Ru 124.19(4) 7_556 7_546
Ge2 Ru Ru 51.37(3) 7_546 7_546
Ge1 Ru Ru 120.78(3) . 7_546
Ge2 Ru Ru 50.09(2) . 7_546
Gd2 Ru Ru 60.74(2) 5_656 7_546
Gd2 Ru Ru 58.40(2) 3_445 7_546
Gd2 Ru Ru 113.93(3) 3_455 7_546
Ge2 Ru Ru 51.37(3) 7_556 7_556
Ge2 Ru Ru 124.19(4) 7_546 7_556
Ge1 Ru Ru 120.78(3) . 7_556
Ge2 Ru Ru 50.09(2) . 7_556
Gd2 Ru Ru 60.74(2) 5_656 7_556
Gd2 Ru Ru 113.93(3) 3_445 7_556
Gd2 Ru Ru 58.40(2) 3_455 7_556
Ru Ru Ru 85.90(4) 7_546 7_556
Ge2 Ru Gd1 65.69(2) 7_556 1_556
Ge2 Ru Gd1 65.69(2) 7_546 1_556
Ge1 Ru Gd1 107.39(3) . 1_556
Ge2 Ru Gd1 147.03(3) . 1_556
Gd2 Ru Gd1 70.14(2) 5_656 1_556
Gd2 Ru Gd1 132.727(15) 3_445 1_556
Gd2 Ru Gd1 132.727(15) 3_455 1_556
Ru Ru Gd1 110.27(3) 7_546 1_556
Ru Ru Gd1 110.27(3) 7_556 1_556
Ge2 Ru Gd1 58.79(2) 7_556 7_556
Ge2 Ru Gd1 125.16(3) 7_546 7_556
Ge1 Ru Gd1 57.489(18) . 7_556
Ge2 Ru Gd1 133.32(2) . 7_556
Gd2 Ru Gd1 120.846(18) 5_656 7_556
Gd2 Ru Gd1 119.87(3) 3_445 7_556
Gd2 Ru Gd1 68.95(2) 3_455 7_556
Ru Ru Gd1 175.95(2) 7_546 7_556
Ru Ru Gd1 98.12(2) 7_556 7_556
Gd1 Ru Gd1 67.91(2) 1_556 7_556
Ge2 Ru Gd1 125.16(3) 7_556 7_546
Ge2 Ru Gd1 58.79(2) 7_546 7_546
Ge1 Ru Gd1 57.489(18) . 7_546
Ge2 Ru Gd1 133.32(2) . 7_546
Gd2 Ru Gd1 120.846(18) 5_656 7_546
Gd2 Ru Gd1 68.95(2) 3_445 7_546
Gd2 Ru Gd1 119.87(3) 3_455 7_546
Ru Ru Gd1 98.12(2) 7_546 7_546
Ru Ru Gd1 175.95(2) 7_556 7_546
Gd1 Ru Gd1 67.91(2) 1_556 7_546
Gd1 Ru Gd1 77.87(2) 7_556 7_546
Ge1 In Ge1 180.00(3) 5_556 1_554
Ge1 In Gd1 56.183(14) 5_556 3_445
Ge1 In Gd1 123.817(14) 1_554 3_445
Ge1 In Gd1 123.817(14) 5_556 7
Ge1 In Gd1 56.183(14) 1_554 7
Gd1 In Gd1 180.0 3_445 7
Ge1 In Gd1 123.817(14) 5_556 7_545
Ge1 In Gd1 56.183(14) 1_554 7_545
Gd1 In Gd1 100.05(2) 3_445 7_545
Gd1 In Gd1 79.95(2) 7 7_545
Ge1 In Gd1 56.183(14) 5_556 3_455
Ge1 In Gd1 123.817(14) 1_554 3_455
Gd1 In Gd1 79.95(2) 3_445 3_455
Gd1 In Gd1 100.05(2) 7 3_455
Gd1 In Gd1 180.0 7_545 3_455
Ge1 In Gd2 59.880(19) 5_556 3_455
Ge1 In Gd2 120.120(19) 1_554 3_455
Gd1 In Gd2 115.948(15) 3_445 3_455
Gd1 In Gd2 64.052(16) 7 3_455
Gd1 In Gd2 111.694(16) 7_545 3_455
Gd1 In Gd2 68.306(16) 3_455 3_455
Ge1 In Gd2 120.120(19) 5_556 7_545
Ge1 In Gd2 59.880(19) 1_554 7_545
Gd1 In Gd2 64.052(16) 3_445 7_545
Gd1 In Gd2 115.948(15) 7 7_545
Gd1 In Gd2 68.306(16) 7_545 7_545
Gd1 In Gd2 111.694(16) 3_455 7_545
Gd2 In Gd2 180.000(10) 3_455 7_545
Ge1 In Gd2 59.880(19) 5_556 3_445
Ge1 In Gd2 120.120(19) 1_554 3_445
Gd1 In Gd2 68.306(16) 3_445 3_445
Gd1 In Gd2 111.694(16) 7 3_445
Gd1 In Gd2 64.052(16) 7_545 3_445
Gd1 In Gd2 115.948(15) 3_455 3_445
Gd2 In Gd2 77.84(2) 3_455 3_445
Gd2 In Gd2 102.16(2) 7_545 3_445
Ge1 In Gd2 120.120(19) 5_556 7
Ge1 In Gd2 59.880(19) 1_554 7
Gd1 In Gd2 111.694(16) 3_445 7
Gd1 In Gd2 68.306(16) 7 7
Gd1 In Gd2 115.948(15) 7_545 7
Gd1 In Gd2 64.052(16) 3_455 7
Gd2 In Gd2 102.16(2) 3_455 7
Gd2 In Gd2 77.84(2) 7_545 7
Gd2 In Gd2 180.0 3_445 7
Ru Ge1 Ge1 119.38(5) . 5_556
Ru Ge1 In 130.67(4) . 1_556
Ge1 Ge1 In 109.94(5) 5_556 1_556
Ru Ge1 Gd1 76.90(2) . 7_556
Ge1 Ge1 Gd1 132.620(18) 5_556 7_556
In Ge1 Gd1 69.83(2) 1_556 7_556
Ru Ge1 Gd1 76.90(2) . 7_546
Ge1 Ge1 Gd1 132.620(18) 5_556 7_546
In Ge1 Gd1 69.83(2) 1_556 7_546
Gd1 Ge1 Gd1 93.07(3) 7_556 7_546
Ru Ge1 Gd2 69.39(2) . 3_445
Ge1 Ge1 Gd2 69.63(3) 5_556 3_445
In Ge1 Gd2 133.056(17) 1_556 3_445
Gd1 Ge1 Gd2 146.23(3) 7_556 3_445
Gd1 Ge1 Gd2 77.62(2) 7_546 3_445
Ru Ge1 Gd2 69.39(2) . 3_455
Ge1 Ge1 Gd2 69.63(3) 5_556 3_455
In Ge1 Gd2 133.056(17) 1_556 3_455
Gd1 Ge1 Gd2 77.62(2) 7_556 3_455
Gd1 Ge1 Gd2 146.23(3) 7_546 3_455
Gd2 Ge1 Gd2 92.16(3) 3_445 3_455
Ru Ge1 Gd2 136.386(17) . 7_546
Ge1 Ge1 Gd2 61.57(3) 5_556 7_546
In Ge1 Gd2 68.49(2) 1_556 7_546
Gd1 Ge1 Gd2 138.12(3) 7_556 7_546
Gd1 Ge1 Gd2 76.33(2) 7_546 7_546
Gd2 Ge1 Gd2 71.65(2) 3_445 7_546
Gd2 Ge1 Gd2 131.20(3) 3_455 7_546
Ru Ge1 Gd2 136.386(17) . 7_556
Ge1 Ge1 Gd2 61.57(3) 5_556 7_556
In Ge1 Gd2 68.49(2) 1_556 7_556
Gd1 Ge1 Gd2 76.33(2) 7_556 7_556
Gd1 Ge1 Gd2 138.12(3) 7_546 7_556
Gd2 Ge1 Gd2 131.20(3) 3_445 7_556
Gd2 Ge1 Gd2 71.65(2) 3_455 7_556
Gd2 Ge1 Gd2 85.02(3) 7_546 7_556
Ru Ge2 Ru 121.04(5) 7_556 7_546
Ru Ge2 Ru 78.54(3) 7_556 .
Ru Ge2 Ru 78.54(3) 7_546 .
Ru Ge2 Gd1 76.61(3) 7_556 .
Ru Ge2 Gd1 76.61(3) 7_546 .
Ru Ge2 Gd1 128.12(4) . .
Ru Ge2 Gd2 143.34(4) 7_556 3_445
Ru Ge2 Gd2 66.01(2) 7_546 3_445
Ru Ge2 Gd2 67.43(2) . 3_445
Gd1 Ge2 Gd2 135.719(15) . 3_445
Ru Ge2 Gd2 66.01(2) 7_556 3_455
Ru Ge2 Gd2 143.34(4) 7_546 3_455
Ru Ge2 Gd2 67.43(2) . 3_455
Gd1 Ge2 Gd2 135.719(15) . 3_455
Gd2 Ge2 Gd2 87.94(3) 3_445 3_455
Ru Ge2 Gd1 145.88(4) 7_556 7_545
Ru Ge2 Gd1 68.04(2) 7_546 7_545
Ru Ge2 Gd1 134.125(18) . 7_545
Gd1 Ge2 Gd1 74.04(2) . 7_545
Gd2 Ge2 Gd1 70.62(2) 3_445 7_545
Gd2 Ge2 Gd1 128.81(3) 3_455 7_545
Ru Ge2 Gd1 68.04(2) 7_556 7
Ru Ge2 Gd1 145.88(4) 7_546 7
Ru Ge2 Gd1 134.125(18) . 7
Gd1 Ge2 Gd1 74.04(2) . 7
Gd2 Ge2 Gd1 128.81(3) 3_445 7
Gd2 Ge2 Gd1 70.62(2) 3_455 7
Gd1 Ge2 Gd1 87.31(3) 7_545 7
Ru Ge2 Gd2 60.79(2) 7_556 5_656
Ru Ge2 Gd2 60.79(2) 7_546 5_656
Ru Ge2 Gd2 58.78(3) . 5_656
Gd1 Ge2 Gd2 69.34(3) . 5_656
Gd2 Ge2 Gd2 108.76(3) 3_445 5_656
Gd2 Ge2 Gd2 108.76(3) 3_455 5_656
Gd1 Ge2 Gd2 121.95(2) 7_545 5_656
Gd1 Ge2 Gd2 121.95(2) 7 5_656
loop_
_geom_bond_atom_site_label_1
_geom_bond_atom_site_label_2
_geom_bond_distance
_geom_bond_site_symmetry_2
Gd1 Ge1 2.9536(8) 7_556
Gd1 Ge1 2.9536(8) 7_546
Gd1 Ge2 2.9990(11) .
Gd1 Ge2 3.1055(9) 7_545
Gd1 Ge2 3.1055(9) 7
Gd1 Ru 3.1603(10) 1_554
Gd1 In 3.3370(7) 3
Gd1 In 3.3370(7) 3_545
Gd1 Ru 3.4113(8) 7_556
Gd1 Ru 3.4113(8) 7_546
Gd1 Gd2 3.5798(10) 5_655
Gd1 Gd1 3.6766(10) 7_545
Gd2 Ge1 2.9761(8) 3
Gd2 Ge1 2.9761(8) 3_545
Gd2 Ru 3.0685(11) 5_656
Gd2 Ge2 3.0878(8) 3
Gd2 Ge2 3.0878(8) 3_545
Gd2 Ru 3.1429(7) 3
Gd2 Ru 3.1429(7) 3_545
Gd2 Ge1 3.1725(9) 7_546
Gd2 Ge1 3.1725(9) 7_556
Gd2 In 3.4123(7) 3_545
Gd2 In 3.4123(7) 3
Gd2 Ge2 3.4947(12) 5_656
Ru Ge2 2.4626(7) 7_556
Ru Ge2 2.4626(7) 7_546
Ru Ge1 2.5029(12) .
Ru Ge2 2.5078(13) .
Ru Gd2 3.0685(11) 5_656
Ru Gd2 3.1429(7) 3_445
Ru Gd2 3.1429(7) 3_455
Ru Ru 3.1464(10) 7_546
Ru Ru 3.1464(10) 7_556
Ru Gd1 3.1603(10) 1_556
Ru Gd1 3.4113(8) 7_556
Ru Gd1 3.4113(8) 7_546
In Ge1 2.8757(10) 5_556
In Ge1 2.8757(10) 1_554
In Gd1 3.3370(7) 3_445
In Gd1 3.3370(7) 7
In Gd1 3.3370(7) 7_545
In Gd1 3.3370(7) 3_455
In Gd2 3.4122(7) 3_455
In Gd2 3.4122(7) 7_545
In Gd2 3.4122(7) 3_445
In Gd2 3.4122(7) 7
Ge1 Ge1 2.5463(18) 5_556
Ge1 In 2.8757(10) 1_556
Ge1 Gd1 2.9536(8) 7_556
Ge1 Gd1 2.9536(8) 7_546
Ge1 Gd2 2.9761(8) 3_445
Ge1 Gd2 2.9761(8) 3_455
Ge1 Gd2 3.1725(9) 7_546
Ge1 Gd2 3.1725(9) 7_556
Ge2 Ru 2.4626(7) 7_556
Ge2 Ru 2.4626(7) 7_546
Ge2 Gd2 3.0878(8) 3_445
Ge2 Gd2 3.0878(8) 3_455
Ge2 Gd1 3.1055(9) 7_545
Ge2 Gd1 3.1055(9) 7
Ge2 Gd2 3.4947(12) 5_656
