#------------------------------------------------------------------------------
#$Date: 2016-03-24 00:14:39 +0200 (Thu, 24 Mar 2016) $
#$Revision: 179528 $
#$URL: svn://www.crystallography.net/cod/cif/4/34/25/4342584.cif $
#------------------------------------------------------------------------------
#
# This file is available in the Crystallography Open Database (COD),
# http://www.crystallography.net/
#
# All data on this site have been placed in the public domain by the
# contributors.
#
data_4342584
loop_
_publ_author_name
'Oliynyk, Anton O.'
'Stoyko, Stanislav S.'
'Mar, Arthur'
_publ_section_title
;
 Many Metals Make the Cut: Quaternary Rare-Earth Germanides RE4M2InGe4 (M
 = Fe, Co, Ni, Ru, Rh, Ir) and RE4RhInGe4 Derived from Excision of Slabs
 in RE2InGe2.
;
_journal_issue                   6
_journal_name_full               'Inorganic chemistry'
_journal_page_first              2780
_journal_page_last               2792
_journal_paper_doi               10.1021/ic502955h
_journal_volume                  54
_journal_year                    2015
_chemical_formula_structural     'Sm4 Fe2 In Ge4'
_chemical_formula_sum            'Fe2 Ge4 In Sm4'
_chemical_formula_weight         1118.28
_chemical_name_common            'samarium iron indium germanide (4/2/1/4)'
_chemical_name_systematic        'samarium iron indium germanide (4/2/1/4)'
_space_group_crystal_system      monoclinic
_space_group_IT_number           12
_space_group_name_Hall           '-C 2y'
_space_group_name_H-M_alt        'C 1 2/m 1'
_symmetry_space_group_name_Hall  '-C 2y'
_symmetry_space_group_name_H-M   'C 1 2/m 1'
_atom_sites_solution_primary     direct
_atom_sites_solution_secondary   difmap
_audit_creation_method           SHELXL-2013
_cell_angle_alpha                90
_cell_angle_beta                 107.011(3)
_cell_angle_gamma                90
_cell_formula_units_Z            2
_cell_length_a                   15.770(4)
_cell_length_b                   4.2745(11)
_cell_length_c                   7.1211(17)
_cell_measurement_reflns_used    2356
_cell_measurement_temperature    173(2)
_cell_measurement_theta_max      32.90
_cell_measurement_theta_min      4.96
_cell_volume                     459.0(2)
_computing_cell_refinement       'Bruker SAINT 8.27B (Bruker, 2011)'
_computing_data_collection       'Bruker APEX 2 (Bruker, 2008)'
_computing_data_reduction        'Bruker SAINT 8.27B'
_computing_molecular_graphics    'ATOMS 5.1 (Dowty, 1999)'
_computing_publication_material  'Bruker SHELXTL'
_computing_structure_refinement  'Bruker SHELXTL'
_computing_structure_solution    'Bruker SHELXTL'
_diffrn_ambient_temperature      173(2)
_diffrn_measured_fraction_theta_full 1.000
_diffrn_measured_fraction_theta_max 0.972
_diffrn_measurement_device_type  'Bruker PLATFORM/SMART APEX II CCD'
_diffrn_measurement_method       '\w and \f scans'
_diffrn_radiation_type           MoK\a
_diffrn_radiation_wavelength     0.71073
_diffrn_reflns_av_R_equivalents  0.0315
_diffrn_reflns_av_unetI/netI     0.0281
_diffrn_reflns_Laue_measured_fraction_full 1.000
_diffrn_reflns_Laue_measured_fraction_max 0.972
_diffrn_reflns_limit_h_max       23
_diffrn_reflns_limit_h_min       -24
_diffrn_reflns_limit_k_max       6
_diffrn_reflns_limit_k_min       -6
_diffrn_reflns_limit_l_max       10
_diffrn_reflns_limit_l_min       -10
_diffrn_reflns_number            3275
_diffrn_reflns_point_group_measured_fraction_full 1.000
_diffrn_reflns_point_group_measured_fraction_max 0.972
_diffrn_reflns_theta_full        25.242
_diffrn_reflns_theta_max         33.264
_diffrn_reflns_theta_min         2.701
_diffrn_source                   'fine-focus sealed tube'
_exptl_absorpt_coefficient_mu    43.454
_exptl_absorpt_correction_T_max  0.5206
_exptl_absorpt_correction_T_min  0.1503
_exptl_absorpt_correction_type   numerical
_exptl_absorpt_process_details   'Bruker SHELXTL (Sheldrick, 2013)'
_exptl_crystal_colour            grey
_exptl_crystal_density_diffrn    8.091
_exptl_crystal_density_method    'not measured'
_exptl_crystal_description       irregular
_exptl_crystal_F_000             954
_exptl_crystal_size_max          0.110
_exptl_crystal_size_mid          0.027
_exptl_crystal_size_min          0.024
_refine_diff_density_max         1.545
_refine_diff_density_min         -2.156
_refine_diff_density_rms         0.352
_refine_ls_extinction_coef       0.00104(8)
_refine_ls_extinction_expression Fc^*^=kFc[1+0.001xFc^2^\l^3^/sin(2\q)]^-1/4^
_refine_ls_extinction_method     SHELXL
_refine_ls_goodness_of_fit_ref   1.073
_refine_ls_hydrogen_treatment    undef
_refine_ls_matrix_type           full
_refine_ls_number_parameters     37
_refine_ls_number_reflns         959
_refine_ls_number_restraints     0
_refine_ls_restrained_S_all      1.073
_refine_ls_R_factor_all          0.0254
_refine_ls_R_factor_gt           0.0199
_refine_ls_shift/su_max          0.001
_refine_ls_shift/su_mean         0.000
_refine_ls_structure_factor_coef Fsqd
_refine_ls_weighting_details
'w=1/[\s^2^(Fo^2^)+(0.0168P)^2^+0.3043P] where P=(Fo^2^+2Fc^2^)/3'
_refine_ls_weighting_scheme      calc
_refine_ls_wR_factor_gt          0.0396
_refine_ls_wR_factor_ref         0.0412
_reflns_Friedel_coverage         0.000
_reflns_number_gt                842
_reflns_number_total             959
_reflns_threshold_expression     'I > 2\s(I)'
_cod_data_source_file            ic502955h_si_002.cif
_cod_data_source_block           Sm4Fe2InGe4
_cod_depositor_comments
'Adding full bibliography for 4342570--4342590.cif.'
_cod_database_code               4342584
#BEGIN Tags that were not found in dictionaries:
_shelx_space_group_comment
;
The symmetry employed for this shelxl refinement is uniquely defined
by the following loop, which should always be used as a source of
symmetry information in preference to the above space-group names.
They are only intended as comments.
;
_shelx_estimated_absorpt_t_min   0.087
_shelx_estimated_absorpt_t_max   0.422
_shelxl_version_number           2013-4
_shelx_res_file
;
TITL Sm4Fe4InGe4 C2/m lsf final refinement
CELL 0.71073  15.76960   4.27450   7.12110  90.0000 107.0105  90.0000
ZERR    2.00   0.00380   0.00110   0.00170   0.0000   0.0033   0.0000
LATT  7
SYMM -X, Y, -Z
SFAC FE GE IN SM
UNIT 4 8 2 8
TEMP -100
SIZE 0.024 0.027 0.11

L.S. 4
ACTA

WGHT    0.016800    0.304300
EXTI    0.001036
FVAR       0.05014
SM1   4    0.347721    0.000000    0.062545    10.50000    0.00633    0.00620 =
         0.00600    0.00000    0.00130    0.00000
SM2   4    0.587982    0.000000    0.379202    10.50000    0.00611    0.00555 =
         0.00668    0.00000    0.00260    0.00000
FE    1    0.218436    0.000000    0.628500    10.50000    0.00602    0.00523 =
         0.00711    0.00000    0.00168    0.00000
IN    3    0.000000    0.000000    0.000000     0.24111    0.00830    0.00786 =
         0.00726    0.00000    0.00353    0.00000
GE1   2    0.066197    0.000000    0.655567    10.50000    0.00606    0.00580 =
         0.00641    0.00000    0.00163    0.00000
GE2   2    0.207482    0.000000    0.272173    10.50000    0.00884    0.00463 =
         0.00756    0.00000    0.00378    0.00000
HKLF 4

REM  Sm4Fe4InGe4 C2/m lsf final refinement
REM R1 =  0.0199 for     842 Fo > 4sig(Fo)  and  0.0254 for all     959 data
REM     37 parameters refined using      0 restraints

END

WGHT      0.0168      0.3043

REM Highest difference peak  1.545,  deepest hole -2.156,  1-sigma level  0.352
Q1    1   0.5480  0.0000  0.4295  10.50000  0.05    1.55
Q2    1   0.3179  0.0000  0.1293  10.50000  0.05    1.45
Q3    1   0.3848  0.1135  0.1426  11.00000  0.05    1.39
Q4    1   0.2617  0.0000  0.1324  10.50000  0.05    1.29
Q5    1   0.1389  0.0000  0.6922  10.50000  0.05    1.29
Q6    1   0.5499 -0.1056  0.3061  11.00000  0.05    1.28
Q7    1   0.3074  0.0766 -0.0176  11.00000  0.05    1.27
Q8    1   0.1597  0.0000  0.8039  10.50000  0.05    1.17
Q9    1   0.2426  0.0000  0.2336  10.50000  0.05    1.11
Q10   1   0.0810  0.1841  0.1050  11.00000  0.05    1.09
Q11   1   0.1973  0.0000  0.3522  10.50000  0.05    1.09
Q12   1   0.2265  0.3243  0.5858  11.00000  0.05    1.07
Q13   1   0.4220  0.0000  0.0805  10.50000  0.05    1.05
Q14   1   0.6193 -0.1007  0.4653  11.00000  0.05    1.01
Q15   1   0.2730  0.2442  0.0720  11.00000  0.05    1.00
Q16   1   0.2575  0.0714  0.0153  11.00000  0.05    0.97
Q17   1   0.2536  0.0000  0.5627  10.50000  0.05    0.96
Q18   1   0.1418  0.1764  0.6479  11.00000  0.05    0.96
Q19   1   0.6229 -0.2275  0.2590  11.00000  0.05    0.95
Q20   1   0.1323  0.1551  0.1836  11.00000  0.05    0.94
;
_shelx_res_checksum              28963
_shelx_hkl_file
;
   2  -2 -10    0.73    1.44
   4  -2 -10    4.80    1.46
   6  -2 -10    6.77    1.59
   8  -2 -10   81.44    4.19
  10  -2 -10   68.07    5.69
  -1  -1 -10   -0.72    1.88
   1  -1 -10    0.97    1.73
   3  -1 -10   -0.81    1.50
   5  -1 -10   45.47    5.14
   7  -1 -10    4.45    1.40
   9  -1 -10   18.23    2.31
  11  -1 -10    0.87    1.12
  13  -1 -10   44.74    3.38
  15  -1 -10    1.94    1.89
  -2   0 -10   13.79    3.42
   0   0 -10    9.77    3.07
   2   0 -10   -0.56    1.76
   4   0 -10    2.72    2.16
   6   0 -10    5.68    2.24
   8   0 -10   94.76    6.56
  10   0 -10   74.25    5.75
  12   0 -10    8.49    2.39
  14   0 -10    4.22    2.02
  16   0 -10   -0.86    1.60
  -1   1 -10    1.91    0.89
   1   1 -10    0.65    0.75
   3   1 -10    1.72    2.08
   5   1 -10   52.24    5.70
   7   1 -10    5.61    2.34
   9   1 -10   12.95    2.92
  11   1 -10    0.42    1.56
  13   1 -10   50.85    4.44
   2   2 -10    0.25    0.79
   4   2 -10    4.79    1.13
   6   2 -10    5.09    1.07
   8   2 -10   87.60    4.23
  10   2 -10   72.17    3.91
  12   2 -10    9.09    1.71
   1  -3  -9   14.96    1.97
   3  -3  -9   13.20    1.89
   5  -3  -9   23.69    2.50
   7  -3  -9   14.74    2.05
   9  -3  -9    3.38    1.25
  11  -3  -9   38.73    4.32
  -2  -2  -9    2.02    2.04
   0  -2  -9   49.46    3.83
   2  -2  -9   50.68    4.01
   4  -2  -9   27.80    3.44
   6  -2  -9    2.66    1.18
   8  -2  -9    2.84    1.19
  10  -2  -9    2.99    1.22
  12  -2  -9    0.12    1.03
  14  -2  -9   -0.24    1.00
  16  -2  -9  155.83    5.52
  -5  -1  -9   17.31    3.57
  -3  -1  -9    3.89    2.44
  -1  -1  -9  131.14    8.15
   1  -1  -9   17.27    3.45
   3  -1  -9   15.08    1.95
   5  -1  -9   29.84    2.66
   7  -1  -9   18.00    2.10
   9  -1  -9    3.96    1.21
  11  -1  -9   53.92    3.13
  13  -1  -9   74.25    3.70
  15  -1  -9   23.53    2.38
  17  -1  -9    0.25    1.47
  -4   0  -9   23.97    4.11
  -2   0  -9    3.72    2.34
   0   0  -9   53.34    5.85
   2   0  -9   62.70    5.50
   4   0  -9   29.07    4.18
   6   0  -9    2.63    1.56
   8   0  -9    2.53    1.72
  10   0  -9    1.86    1.50
  12   0  -9   -0.67    1.20
  14   0  -9    1.05    1.41
  -5   1  -9   17.21    2.07
  -3   1  -9    7.62    1.21
  -1   1  -9  125.46    4.28
   1   1  -9   18.43    1.72
   3   1  -9   16.17    1.54
   5   1  -9   36.23    2.07
   7   1  -9   20.67    1.73
   9   1  -9    3.28    0.91
  11   1  -9   56.85    2.54
  13   1  -9   76.08    3.05
  -4   2  -9   26.27    2.65
  -2   2  -9    1.42    0.94
   0   2  -9   46.66    2.65
   2   2  -9   49.90    2.62
   4   2  -9   33.13    2.14
   6   2  -9    1.99    0.76
   8   2  -9    2.57    0.98
  10   2  -9    4.40    1.20
  12   2  -9   -0.78    0.70
  14   2  -9   -0.13    0.95
  16   2  -9  161.67    6.51
   1   3  -9   16.66    2.07
   3   3  -9   16.37    2.08
   5   3  -9   26.53    2.62
   7   3  -9   20.45    2.23
   9   3  -9    2.99    1.11
  11   3  -9   42.34    3.06
   2  -4  -8   29.18    2.73
   4  -4  -8   19.15    2.31
   6  -4  -8   14.28    2.10
   8  -4  -8   13.31    1.97
  10  -4  -8   64.84    3.55
  -3  -3  -8    7.73    2.50
  -1  -3  -8    1.38    1.07
   1  -3  -8    9.49    1.63
   3  -3  -8   16.88    2.06
   5  -3  -8   95.86    4.32
   7  -3  -8   61.94    3.42
   9  -3  -8    5.73    1.06
  11  -3  -8   36.08    2.32
  13  -3  -8    1.06    0.92
  15  -3  -8    7.53    1.45
  -4  -2  -8    7.92    2.54
  -2  -2  -8    0.77    0.92
   0  -2  -8   16.33    1.91
   2  -2  -8   45.66    2.92
   4  -2  -8   28.01    2.50
   6  -2  -8   18.63    2.10
   8  -2  -8   18.50    2.06
  10  -2  -8   93.70    3.25
  12  -2  -8    0.39    0.61
  14  -2  -8    0.40    0.67
  16  -2  -8    8.28    1.42
  18  -2  -8    1.92    1.01
  -5  -1  -8   34.31    4.60
  -3  -1  -8   12.86    2.96
  -1  -1  -8    1.11    1.68
   1  -1  -8   13.71    1.72
   3  -1  -8   23.59    2.24
   5  -1  -8  126.94    6.50
   7  -1  -8   85.59    3.80
   9  -1  -8    6.40    1.27
  11  -1  -8   47.83    2.75
  13  -1  -8   -0.16    0.59
  15  -1  -8   13.55    1.41
  17  -1  -8    3.37    1.09
  19  -1  -8  107.84    3.95
 -10   0  -8  108.56    5.06
  -8   0  -8    1.92    1.04
  -6   0  -8  105.95    4.42
  -4   0  -8    9.84    1.26
  -2   0  -8    0.80    0.50
   0   0  -8   19.83    1.55
   2   0  -8   59.90    2.36
   4   0  -8   34.85    1.78
   6   0  -8   24.63    1.33
   8   0  -8   24.48    2.29
  10   0  -8  111.76    4.32
  12   0  -8    0.38    0.77
  14   0  -8    0.17    0.76
  16   0  -8   10.47    1.55
  -9   1  -8    0.81    1.00
  -7   1  -8   21.13    2.25
  -5   1  -8   35.07    2.42
  -3   1  -8   12.85    1.43
  -1   1  -8    2.57    0.81
   1   1  -8   15.29    1.44
   3   1  -8   23.67    1.57
   5   1  -8  142.55    4.25
   7   1  -8   88.49    3.10
   9   1  -8    7.34    1.03
  11   1  -8   45.63    2.17
  13   1  -8   -0.12    0.55
  15   1  -8   15.50    1.95
  17   1  -8    3.60    1.20
  19   1  -8  104.27    5.09
  -8   2  -8    0.83    1.02
  -6   2  -8   93.54    4.37
  -4   2  -8    6.52    1.37
  -2   2  -8    1.35    0.78
   0   2  -8   16.41    1.70
   2   2  -8   47.22    2.48
   4   2  -8   29.45    1.89
   6   2  -8   20.41    1.75
   8   2  -8   22.89    2.12
  10   2  -8  100.96    4.31
  12   2  -8   -0.21    0.65
  14   2  -8    0.81    0.87
  16   2  -8    8.77    1.29
  18   2  -8    2.16    0.98
  -5   3  -8   27.80    2.77
  -3   3  -8    8.86    1.67
  -1   3  -8    2.03    1.03
   1   3  -8    8.11    1.47
   3   3  -8   16.91    2.00
   5   3  -8   99.27    4.56
   7   3  -8   64.62    3.45
   9   3  -8    5.61    1.27
  11   3  -8   33.58    2.00
  13   3  -8    0.57    0.78
  15   3  -8   10.04    1.46
  17   3  -8    3.64    1.94
   2   4  -8   29.93    2.86
   4   4  -8   20.01    2.36
   6   4  -8   16.07    2.10
   8   4  -8   14.46    1.44
  10   4  -8   66.34    4.25
  12   4  -8   -0.85    1.28
  -4  -4  -7   66.31    5.52
  -2  -4  -7   36.99    4.57
   0  -4  -7   37.31    2.94
   2  -4  -7   30.38    2.69
   4  -4  -7   12.56    1.80
   6  -4  -7    7.79    1.17
   8  -4  -7   17.72    1.60
  10  -4  -7   79.40    3.06
  12  -4  -7   10.81    1.59
  14  -4  -7   37.24    4.15
  -7  -3  -7   37.03    4.60
  -5  -3  -7    2.02    1.78
  -3  -3  -7   41.51    4.80
  -1  -3  -7    5.76    1.28
   1  -3  -7   60.42    3.11
   3  -3  -7    1.13    0.87
   5  -3  -7    1.49    0.87
   7  -3  -7    6.47    1.00
   9  -3  -7    0.54    0.58
  11  -3  -7    1.55    0.73
  13  -3  -7   84.13    3.63
  15  -3  -7   21.95    2.11
  17  -3  -7   71.66    3.42
  -6  -2  -7    3.08    1.79
  -4  -2  -7   92.52    3.77
  -2  -2  -7   44.59    2.65
   0  -2  -7   59.82    2.95
   2  -2  -7   48.66    2.72
   4  -2  -7   23.43    2.15
   6  -2  -7   10.32    1.49
   8  -2  -7   30.87    1.78
  10  -2  -7  133.34    3.84
  12  -2  -7   15.74    1.43
  14  -2  -7   47.97    2.61
  16  -2  -7    5.39    1.08
  18  -2  -7   29.15    2.25
  20  -2  -7    2.74    0.96
 -11  -1  -7   19.60    2.33
  -9  -1  -7    4.77    1.30
  -7  -1  -7   57.61    2.61
  -5  -1  -7    8.25    2.44
  -3  -1  -7   74.21    5.57
  -1  -1  -7    5.92    1.19
   1  -1  -7   86.25    3.66
   3  -1  -7    0.72    0.76
   5  -1  -7   -0.16    0.62
   7  -1  -7    8.24    1.34
   9  -1  -7    0.11    0.51
  11  -1  -7    2.69    0.68
  13  -1  -7  108.55    3.26
  15  -1  -7   28.79    1.58
  17  -1  -7   97.35    3.55
  19  -1  -7   -0.26    0.71
  21  -1  -7    3.21    1.40
 -12   0  -7   12.57    2.08
 -10   0  -7    3.74    1.26
  -8   0  -7    0.91    0.83
  -6   0  -7    3.82    0.91
  -4   0  -7  108.55    3.56
  -2   0  -7   61.50    2.38
   0   0  -7   64.55    2.41
   2   0  -7   58.18    2.20
   4   0  -7   27.09    1.28
   6   0  -7   15.98    1.12
   8   0  -7   37.32    1.57
  10   0  -7  170.46    3.87
  12   0  -7   18.78    1.26
  14   0  -7   54.84    1.47
  16   0  -7    5.89    0.68
  18   0  -7   33.43    2.25
  20   0  -7    3.73    1.53
  22   0  -7    0.23    1.19
 -11   1  -7   21.73    2.54
  -9   1  -7    1.67    1.00
  -7   1  -7   62.89    3.28
  -5   1  -7    6.04    1.03
  -3   1  -7   68.59    2.77
  -1   1  -7    6.96    1.00
   1   1  -7   88.99    3.06
   3   1  -7    0.35    0.49
   5   1  -7    0.83    0.48
   7   1  -7    7.96    0.97
   9   1  -7    0.04    0.45
  11   1  -7    2.46    0.57
  13   1  -7  112.94    2.97
  15   1  -7   26.82    1.86
  17   1  -7   96.37    3.40
  19   1  -7    0.56    0.78
  21   1  -7    2.38    1.35
 -10   2  -7    1.58    1.05
  -8   2  -7   -0.25    0.78
  -6   2  -7    2.81    1.00
  -4   2  -7   95.07    3.49
  -2   2  -7   49.80    2.50
   0   2  -7   54.85    2.67
   2   2  -7   51.75    2.47
   4   2  -7   23.17    1.58
   6   2  -7   13.21    1.02
   8   2  -7   29.19    1.48
  10   2  -7  133.40    3.75
  12   2  -7   15.13    1.41
  14   2  -7   49.24    2.34
  16   2  -7    4.18    0.99
  18   2  -7   27.89    2.19
  20   2  -7    4.07    1.15
  -7   3  -7   47.23    3.06
  -5   3  -7    2.13    1.05
  -3   3  -7   50.21    3.03
  -1   3  -7    4.56    1.14
   1   3  -7   63.37    2.27
   3   3  -7    0.55    0.47
   5   3  -7    0.60    0.48
   7   3  -7    5.73    0.85
   9   3  -7   -0.15    0.50
  11   3  -7    1.47    0.67
  13   3  -7   80.26    3.11
  15   3  -7   20.62    1.87
  17   3  -7   66.99    3.16
  -4   4  -7   60.86    3.70
  -2   4  -7   30.08    1.99
   0   4  -7   34.11    1.80
   2   4  -7   29.82    1.94
   4   4  -7   14.21    1.38
   6   4  -7   10.53    1.15
   8   4  -7   18.64    1.59
  10   4  -7   83.95    3.13
  12   4  -7    9.66    1.35
  14   4  -7   25.11    3.26
  -1  -5  -6   55.59    5.01
   1  -5  -6    4.46    1.34
   3  -5  -6    4.57    1.36
   5  -5  -6   53.53    2.53
   7  -5  -6   39.71    2.31
   9  -5  -6   32.51    2.23
  -8  -4  -6   14.34    3.03
  -6  -4  -6    1.38    1.47
  -4  -4  -6   10.62    2.56
  -2  -4  -6   27.06    3.75
   0  -4  -6    2.94    1.06
   2  -4  -6   14.36    1.77
   4  -4  -6  136.55    3.88
   6  -4  -6   25.12    1.77
   8  -4  -6   23.09    1.70
  10  -4  -6    3.64    0.87
  12  -4  -6   46.62    2.68
  14  -4  -6    7.83    1.39
  16  -4  -6   35.18    4.02
  -9  -3  -6  116.02    7.07
  -7  -3  -6    3.47    1.72
  -5  -3  -6   32.43    3.90
  -3  -3  -6    2.46    0.91
  -1  -3  -6   96.87    3.84
   1  -3  -6    8.78    1.30
   3  -3  -6    6.49    1.20
   5  -3  -6   94.21    2.93
   7  -3  -6   68.26    2.48
   9  -3  -6   49.33    2.05
  11  -3  -6    9.80    1.12
  13  -3  -6   47.06    2.51
  15  -3  -6    5.15    1.09
  17  -3  -6   -0.06    0.56
  19  -3  -6    8.49    1.39
  -8  -2  -6   22.22    3.26
  -6  -2  -6    1.05    1.27
  -4  -2  -6   17.27    1.70
  -2  -2  -6   56.84    2.72
   0  -2  -6    4.40    1.01
   2  -2  -6   27.76    2.14
   4  -2  -6  222.38    6.47
   6  -2  -6   45.80    1.89
   8  -2  -6   33.39    1.68
  10  -2  -6    8.08    0.97
  12  -2  -6   81.62    2.69
  14  -2  -6   10.06    1.04
  16  -2  -6   52.80    2.08
  18  -2  -6   32.28    2.14
  20  -2  -6  115.03    6.22
 -15  -1  -6   15.53    2.33
 -13  -1  -6   50.68    3.28
 -11  -1  -6   14.14    1.91
  -9  -1  -6  155.73    5.71
  -7  -1  -6    0.22    0.57
  -5  -1  -6   53.26    2.21
  -3  -1  -6    8.18    0.78
  -1  -1  -6  140.04    3.19
   1  -1  -6   11.66    0.83
   3  -1  -6    8.57    0.71
   5  -1  -6  133.91    4.55
   7  -1  -6  107.21    3.01
   9  -1  -6   68.28    2.30
  11  -1  -6   14.75    0.98
  13  -1  -6   67.42    1.90
  15  -1  -6    8.12    0.90
  17  -1  -6   -0.37    0.44
  19  -1  -6    8.06    1.01
  21  -1  -6   53.82    2.68
 -14   0  -6    3.60    1.41
 -12   0  -6   35.27    3.08
 -10   0  -6   45.50    2.92
  -8   0  -6   28.31    2.46
  -6   0  -6    0.94    0.58
  -4   0  -6   19.40    1.50
  -2   0  -6   68.07    2.42
   0   0  -6    6.37    0.77
   2   0  -6   29.78    1.30
   4   0  -6  260.27    5.08
   6   0  -6   57.26    1.78
   8   0  -6   40.62    1.27
  10   0  -6   10.43    0.61
  12   0  -6   99.24    1.66
  14   0  -6   16.31    0.74
  16   0  -6   66.34    1.86
  18   0  -6   34.48    1.64
  20   0  -6  129.01    6.13
  22   0  -6    0.42    0.79
 -13   1  -6   45.16    3.38
 -11   1  -6   19.42    2.31
  -9   1  -6  148.84    5.93
  -7   1  -6    1.43    0.79
  -5   1  -6   52.98    2.36
  -3   1  -6    6.18    0.92
  -1   1  -6  138.33    4.10
   1   1  -6   11.42    1.11
   3   1  -6    8.05    0.67
   5   1  -6  136.02    2.96
   7   1  -6  106.70    2.52
   9   1  -6   68.89    1.98
  11   1  -6   14.80    0.90
  13   1  -6   66.84    2.02
  15   1  -6    5.66    0.76
  17   1  -6   -0.08    0.45
  19   1  -6    7.86    1.25
  21   1  -6   54.00    2.74
 -12   2  -6   26.04    2.82
 -10   2  -6   38.30    2.79
  -8   2  -6   22.49    2.27
  -6   2  -6   -0.95    0.45
  -4   2  -6   18.59    1.62
  -2   2  -6   55.38    1.76
   0   2  -6    5.44    0.64
   2   2  -6   24.90    1.13
   4   2  -6  228.73    4.54
   6   2  -6   48.87    1.78
   8   2  -6   33.92    1.53
  10   2  -6    7.27    0.89
  12   2  -6   74.12    2.72
  14   2  -6   11.68    1.03
  16   2  -6   53.36    2.02
  18   2  -6   29.24    1.77
  20   2  -6  117.57    4.32
 -11   3  -6   11.95    1.98
  -9   3  -6  114.91    5.27
  -7   3  -6    1.43    0.66
  -5   3  -6   37.58    1.76
  -3   3  -6    5.20    0.77
  -1   3  -6   95.55    2.93
   1   3  -6    8.35    0.90
   3   3  -6    6.67    0.81
   5   3  -6   92.41    2.85
   7   3  -6   68.69    2.40
   9   3  -6   42.84    1.91
  11   3  -6    7.06    1.00
  13   3  -6   46.11    2.21
  15   3  -6    4.35    1.00
  17   3  -6    0.65    0.72
  19   3  -6    5.42    1.21
  -8   4  -6   12.58    1.44
  -6   4  -6    0.19    0.61
  -4   4  -6   11.86    1.27
  -2   4  -6   30.27    1.93
   0   4  -6    4.51    0.78
   2   4  -6   14.28    1.28
   4   4  -6  133.96    3.89
   6   4  -6   24.74    1.70
   8   4  -6   20.78    1.61
  10   4  -6    3.02    0.82
  12   4  -6   52.44    2.44
  14   4  -6    6.86    1.14
  16   4  -6   33.86    2.53
  -3   5  -6    2.83    0.87
  -1   5  -6   57.37    2.53
   1   5  -6    3.28    0.90
   3   5  -6    4.84    0.96
   5   5  -6   54.89    2.45
   7   5  -6   47.19    2.27
   9   5  -6   28.77    2.12
  -5  -5  -5   18.99    3.41
  -3  -5  -5   11.33    2.54
  -1  -5  -5   78.24    5.62
   1  -5  -5   47.90    2.89
   3  -5  -5   15.68    1.93
   5  -5  -5   15.65    1.46
   7  -5  -5   45.96    2.17
   9  -5  -5    5.50    0.96
  11  -5  -5   48.15    2.88
 -10  -4  -5    4.57    2.08
  -8  -4  -5   30.47    3.91
  -6  -4  -5  102.15    6.32
  -4  -4  -5   -0.75    0.89
  -2  -4  -5   66.37    3.09
   0  -4  -5   11.44    1.48
   2  -4  -5    0.66    0.50
   4  -4  -5    0.82    0.51
   6  -4  -5   11.10    1.15
   8  -4  -5   11.88    1.19
  10  -4  -5   70.73    2.54
  12  -4  -5   24.06    2.08
  14  -4  -5   48.54    2.69
  16  -4  -5    2.00    0.97
  18  -4  -5   15.20    2.71
  -9  -3  -5    4.53    1.78
  -7  -3  -5   45.59    3.75
  -5  -3  -5   31.82    3.58
  -3  -3  -5   18.65    1.72
  -1  -3  -5  142.30    4.71
   1  -3  -5   94.82    3.55
   3  -3  -5   32.71    1.50
   5  -3  -5   34.34    1.62
   7  -3  -5   86.82    2.63
   9  -3  -5   10.98    1.09
  11  -3  -5   74.88    2.51
  13  -3  -5    0.75    0.48
  15  -3  -5  104.47    3.14
  17  -3  -5    5.40    0.89
  19  -3  -5    0.59    0.78
 -16  -2  -5   -0.27    1.19
 -14  -2  -5   44.14    3.11
 -12  -2  -5   19.61    2.23
 -10  -2  -5   10.76    1.57
  -8  -2  -5   47.82    2.11
  -6  -2  -5  173.11    4.54
  -4  -2  -5    0.42    0.59
  -2  -2  -5  103.20    3.56
   0  -2  -5   17.38    1.57
   2  -2  -5    0.66    0.61
   4  -2  -5    2.58    0.59
   6  -2  -5   25.94    1.36
   8  -2  -5   19.10    1.31
  10  -2  -5  112.99    2.59
  12  -2  -5   38.36    1.42
  14  -2  -5   75.18    2.37
  16  -2  -5    4.09    0.75
  18  -2  -5   24.61    1.98
  20  -2  -5   22.68    2.86
  22  -2  -5   15.33    2.51
 -15  -1  -5   46.73    3.43
 -13  -1  -5   17.36    2.19
 -11  -1  -5    1.99    0.95
  -9  -1  -5    3.62    0.97
  -7  -1  -5   61.03    2.34
  -5  -1  -5   47.20    1.55
  -3  -1  -5   23.71    1.14
  -1  -1  -5  234.35    4.50
   1  -1  -5  160.02    3.27
   3  -1  -5   51.82    1.44
   5  -1  -5   60.30    1.42
   7  -1  -5  138.47    2.62
   9  -1  -5   17.58    0.76
  11  -1  -5  113.44    2.47
  13  -1  -5    1.12    0.37
  15  -1  -5  156.16    3.18
  17  -1  -5    9.26    0.98
  19  -1  -5    3.01    0.69
  21  -1  -5   11.63    1.21
  23  -1  -5    8.47    1.87
 -16   0  -5   -0.30    1.07
 -14   0  -5   56.77    3.49
 -12   0  -5   17.49    2.14
 -10   0  -5    7.49    1.32
  -8   0  -5   53.00    2.78
  -6   0  -5  191.84    5.17
  -4   0  -5    0.56    0.48
  -2   0  -5  121.65    3.44
   0   0  -5   17.99    0.94
   2   0  -5    0.68    0.25
   4   0  -5    4.04    0.43
   6   0  -5   34.06    1.08
   8   0  -5   27.69    0.71
  10   0  -5  148.03    2.09
  12   0  -5   44.39    1.00
  14   0  -5   90.21    1.58
  16   0  -5    2.06    0.49
  18   0  -5   29.53    1.55
  20   0  -5   19.77    1.74
  22   0  -5   21.39    1.88
 -15   1  -5   49.32    3.52
 -13   1  -5   18.03    2.32
 -11   1  -5    1.78    1.05
  -9   1  -5    4.43    1.16
  -7   1  -5   53.56    1.94
  -5   1  -5   45.16    1.49
  -3   1  -5   26.87    1.07
  -1   1  -5  235.78    4.44
   1   1  -5  163.76    3.21
   3   1  -5   52.69    1.45
   5   1  -5   60.29    1.29
   7   1  -5  137.23    2.47
   9   1  -5   17.37    0.70
  11   1  -5  112.38    1.86
  13   1  -5    1.50    0.39
  15   1  -5  152.00    3.00
  17   1  -5    6.40    0.83
  19   1  -5    1.76    0.62
  21   1  -5    9.76    1.37
  23   1  -5    9.70    2.03
 -14   2  -5   46.38    3.44
 -12   2  -5   18.92    2.42
 -10   2  -5   12.30    1.23
  -8   2  -5   44.40    1.88
  -6   2  -5  168.62    4.20
  -4   2  -5    0.39    0.38
  -2   2  -5  101.14    2.46
   0   2  -5   15.31    0.95
   2   2  -5    0.26    0.32
   4   2  -5    2.57    0.49
   6   2  -5   26.43    1.22
   8   2  -5   22.89    1.07
  10   2  -5  117.87    2.71
  12   2  -5   38.24    1.51
  14   2  -5   71.79    2.26
  16   2  -5    2.66    0.67
  18   2  -5   23.16    1.58
  20   2  -5   18.93    1.90
  22   2  -5   11.32    2.28
 -13   3  -5   11.59    1.49
 -11   3  -5    1.32    0.75
  -9   3  -5    2.50    0.77
  -7   3  -5   42.08    1.89
  -5   3  -5   35.19    1.64
  -3   3  -5   14.51    1.16
  -1   3  -5  153.25    3.84
   1   3  -5   99.46    2.80
   3   3  -5   31.77    1.42
   5   3  -5   35.75    1.56
   7   3  -5   80.70    2.57
   9   3  -5   12.47    1.12
  11   3  -5   76.57    2.24
  13   3  -5    0.44    0.45
  15   3  -5  107.40    3.10
  17   3  -5    6.53    0.99
  19   3  -5    1.90    1.05
 -10   4  -5    5.49    1.06
  -8   4  -5   27.17    1.93
  -6   4  -5  102.22    3.34
  -4   4  -5   -0.41    0.47
  -2   4  -5   66.71    2.44
   0   4  -5    6.67    0.85
   2   4  -5    0.65    0.44
   4   4  -5    1.23    0.53
   6   4  -5   11.07    1.13
   8   4  -5   12.67    1.21
  10   4  -5   67.89    2.62
  12   4  -5   22.51    1.78
  14   4  -5   49.88    2.42
  16   4  -5    2.39    0.80
  18   4  -5   20.52    3.06
  -7   5  -5   30.20    2.91
  -5   5  -5   22.42    1.80
  -3   5  -5    9.65    1.20
  -1   5  -5   85.05    3.05
   1   5  -5   49.04    2.21
   3   5  -5   17.05    1.47
   5   5  -5   15.05    1.42
   7   5  -5   44.07    2.16
   9   5  -5    4.95    0.97
  11   5  -5   40.01    2.53
  13   5  -5   -0.45    0.89
   2  -6  -4   32.34    3.71
   4  -6  -4   13.71    2.75
   6  -6  -4   89.08    5.93
  -9  -5  -4    0.88    1.53
  -7  -5  -4    3.07    1.85
  -5  -5  -4   12.65    2.64
  -3  -5  -4    0.06    1.04
  -1  -5  -4    0.09    0.74
   1  -5  -4   75.96    3.40
   3  -5  -4   -0.26    0.70
   5  -5  -4   51.18    2.14
   7  -5  -4    0.15    0.57
   9  -5  -4   36.34    2.40
  11  -5  -4   24.23    2.17
  13  -5  -4    3.41    1.12
 -10  -4  -4    7.73    2.06
  -8  -4  -4   76.47    5.03
  -6  -4  -4   30.71    3.67
  -4  -4  -4   23.36    3.10
  -2  -4  -4   17.97    1.72
   0  -4  -4   27.40    2.10
   2  -4  -4   72.74    2.35
   4  -4  -4   25.52    1.47
   6  -4  -4  151.45    3.84
   8  -4  -4    1.01    0.53
  10  -4  -4    7.17    1.12
  12  -4  -4    0.93    0.67
  14  -4  -4   19.00    1.48
  16  -4  -4    8.49    1.09
  18  -4  -4   24.84    2.24
  -9  -3  -4   -0.35    0.84
  -7  -3  -4    7.50    1.77
  -5  -3  -4   24.99    2.89
  -3  -3  -4    0.20    0.55
  -1  -3  -4    0.30    0.50
   1  -3  -4  146.62    3.54
   3  -3  -4    0.52    0.40
   5  -3  -4   91.20    2.59
   7  -3  -4    1.46    0.51
   9  -3  -4   74.40    2.33
  11  -3  -4   51.63    1.61
  13  -3  -4    4.05    0.70
  15  -3  -4   32.26    1.69
  17  -3  -4   82.86    3.34
  19  -3  -4   22.67    2.07
 -16  -2  -4   37.77    3.32
 -14  -2  -4   11.51    1.85
 -12  -2  -4  104.00    4.54
 -10  -2  -4   11.91    1.23
  -8  -2  -4  109.35    3.31
  -6  -2  -4   57.44    1.68
  -4  -2  -4   40.73    1.31
  -2  -2  -4   34.55    1.12
   0  -2  -4   46.34    2.05
   2  -2  -4  130.05    3.07
   4  -2  -4   46.57    1.61
   6  -2  -4  282.38    5.66
   8  -2  -4    3.26    0.47
  10  -2  -4   20.55    1.02
  12  -2  -4    4.08    0.63
  14  -2  -4   25.74    1.39
  16  -2  -4   12.99    1.11
  18  -2  -4   41.00    2.21
  20  -2  -4    5.97    1.12
  22  -2  -4   46.05    3.60
 -17  -1  -4    1.62    1.15
 -15  -1  -4   33.15    3.03
 -13  -1  -4    3.31    1.18
 -11  -1  -4  114.18    4.70
  -9  -1  -4    1.05    0.59
  -7  -1  -4    7.91    0.93
  -5  -1  -4   43.77    1.43
  -3  -1  -4    1.88    0.41
  -1  -1  -4    0.22    0.27
   1  -1  -4  237.95    4.35
   3  -1  -4    0.49    0.18
   5  -1  -4  149.78    2.64
   7  -1  -4    5.16    0.40
   9  -1  -4  120.71    1.88
  11  -1  -4   80.47    1.68
  13  -1  -4    8.11    0.69
  15  -1  -4   47.61    1.49
  17  -1  -4  111.48    3.01
  19  -1  -4   30.26    1.66
  21  -1  -4   89.54    3.54
  23  -1  -4   20.15    1.98
 -18   0  -4   -1.13    1.05
 -16   0  -4   40.49    3.49
 -14   0  -4   11.76    1.87
 -12   0  -4  125.50    5.14
 -10   0  -4   12.09    1.06
  -8   0  -4  132.61    2.94
  -6   0  -4   71.80    1.83
  -4   0  -4   49.15    1.35
  -2   0  -4   46.51    1.17
   0   0  -4   64.84    1.28
   2   0  -4  169.51    2.76
   4   0  -4   62.89    1.36
   6   0  -4  363.17    4.07
   8   0  -4    3.00    0.29
  10   0  -4   24.51    0.69
  12   0  -4    6.15    0.44
  14   0  -4   32.44    1.06
  16   0  -4   16.78    1.02
  18   0  -4   40.75    1.70
  20   0  -4    5.40    1.03
  22   0  -4   54.51    2.62
 -17   1  -4    1.15    1.27
 -15   1  -4   44.86    3.14
 -13   1  -4    3.03    0.80
 -11   1  -4  116.42    3.39
  -9   1  -4    1.12    0.51
  -7   1  -4    7.07    0.71
  -5   1  -4   47.45    1.46
  -3   1  -4    2.09    0.43
  -1   1  -4    0.36    0.24
   1   1  -4  244.45    4.31
   3   1  -4    0.33    0.18
   5   1  -4  155.92    2.56
   7   1  -4    4.98    0.37
   9   1  -4  119.92    1.84
  11   1  -4   79.45    1.56
  13   1  -4    8.65    0.68
  15   1  -4   44.96    1.42
  17   1  -4  104.74    3.75
  19   1  -4   29.54    1.62
  21   1  -4   87.92    2.78
  23   1  -4   19.69    1.51
 -16   2  -4   33.16    2.43
 -14   2  -4   12.76    1.45
 -12   2  -4  103.53    3.42
 -10   2  -4   10.94    1.11
  -8   2  -4  109.20    3.16
  -6   2  -4   55.29    1.98
  -4   2  -4   38.21    1.49
  -2   2  -4   32.67    1.31
   0   2  -4   45.46    1.53
   2   2  -4  129.52    2.42
   4   2  -4   47.43    1.26
   6   2  -4  282.72    4.86
   8   2  -4    3.37    0.50
  10   2  -4   19.98    1.07
  12   2  -4    6.05    0.72
  14   2  -4   27.51    1.45
  16   2  -4   15.16    1.24
  18   2  -4   41.95    2.56
  20   2  -4    4.47    1.16
  22   2  -4   41.88    2.89
 -15   3  -4   31.15    2.38
 -13   3  -4    3.96    1.05
 -11   3  -4   85.69    3.07
  -9   3  -4   -0.23    0.50
  -7   3  -4    6.29    0.86
  -5   3  -4   29.05    1.44
  -3   3  -4    0.57    0.41
  -1   3  -4    0.08    0.34
   1   3  -4  150.31    3.69
   3   3  -4    0.21    0.27
   5   3  -4   95.95    2.17
   7   3  -4    2.28    0.44
   9   3  -4   74.22    2.04
  11   3  -4   49.53    1.75
  13   3  -4    6.29    0.82
  15   3  -4   30.19    1.66
  17   3  -4   82.16    2.79
  19   3  -4   19.22    2.13
 -12   4  -4   69.10    4.07
 -10   4  -4    6.17    1.10
  -8   4  -4   60.56    3.41
  -6   4  -4   33.29    1.71
  -4   4  -4   17.55    1.37
  -2   4  -4   18.24    1.35
   0   4  -4   24.89    1.43
   2   4  -4   73.04    2.45
   4   4  -4   26.85    1.39
   6   4  -4  151.84    3.28
   8   4  -4    1.18    0.43
  10   4  -4    9.23    0.90
  12   4  -4    2.65    0.63
  14   4  -4   15.21    1.29
  16   4  -4    8.76    1.16
  18   4  -4   30.39    3.87
  -7   5  -4    5.33    1.01
  -5   5  -4   11.44    1.29
  -3   5  -4    0.11    0.57
  -1   5  -4    0.49    0.58
   1   5  -4   72.14    2.68
   3   5  -4    0.60    0.55
   5   5  -4   49.20    2.16
   7   5  -4    0.48    0.56
   9   5  -4   36.70    1.97
  11   5  -4   26.50    1.99
  13   5  -4    2.89    0.79
  15   5  -4   19.83    3.31
  -2  -6  -3   15.84    2.95
   0  -6  -3   83.12    3.79
   2  -6  -3   -0.34    0.80
   4  -6  -3   37.48    2.84
   6  -6  -3    8.94    1.54
 -11  -5  -3    5.97    2.18
  -9  -5  -3   38.69    4.26
  -7  -5  -3   34.49    4.00
  -5  -5  -3  155.43    7.90
  -3  -5  -3   11.45    2.36
  -1  -5  -3    3.43    0.97
   1  -5  -3    1.60    0.75
   3  -5  -3    5.95    1.09
   5  -5  -3    3.75    0.74
   7  -5  -3    2.40    0.68
   9  -5  -3  104.68    3.89
  11  -5  -3   49.68    2.60
  13  -5  -3    0.26    0.78
 -12  -4  -3    4.85    1.85
 -10  -4  -3   22.34    3.13
  -8  -4  -3   11.82    2.21
  -6  -4  -3    0.53    0.97
  -4  -4  -3   93.62    3.39
  -2  -4  -3   34.30    1.91
   0  -4  -3  179.52    4.09
   2  -4  -3    0.73    0.40
   4  -4  -3   80.23    2.40
   6  -4  -3   25.21    1.40
   8  -4  -3   54.32    1.96
  10  -4  -3    1.94    0.69
  12  -4  -3  116.79    3.17
  14  -4  -3   67.10    2.41
  16  -4  -3   13.16    1.27
  18  -4  -3   12.18    1.64
 -17  -3  -3   43.40    3.69
 -15  -3  -3   43.24    3.03
 -13  -3  -3   -0.56    0.83
 -11  -3  -3   14.22    1.41
  -9  -3  -3   62.00    2.36
  -7  -3  -3   51.15    3.42
  -5  -3  -3  277.73    6.91
  -3  -3  -3   22.97    1.53
  -1  -3  -3   11.27    0.87
   1  -3  -3    2.86    0.51
   3  -3  -3   14.51    0.99
   5  -3  -3    8.11    0.76
   7  -3  -3    3.75    0.58
   9  -3  -3  203.38    3.71
  11  -3  -3   85.74    2.41
  13  -3  -3    0.47    0.42
  15  -3  -3   22.15    1.46
  17  -3  -3   29.86    1.77
  19  -3  -3    8.08    1.30
 -18  -2  -3   10.34    2.06
 -16  -2  -3    0.31    0.98
 -14  -2  -3   37.03    2.68
 -12  -2  -3    6.69    1.31
 -10  -2  -3   48.31    2.03
  -8  -2  -3   20.22    1.38
  -6  -2  -3    0.34    0.35
  -4  -2  -3  167.22    3.35
  -2  -2  -3   64.43    1.55
   0  -2  -3  355.35    5.32
   2  -2  -3    2.09    0.40
   4  -2  -3  162.07    3.47
   6  -2  -3   46.48    1.23
   8  -2  -3   96.75    2.06
  10  -2  -3    2.43    0.39
  12  -2  -3  199.47    4.14
  14  -2  -3  113.26    2.91
  16  -2  -3   20.30    1.31
  18  -2  -3   24.74    1.92
  20  -2  -3   25.04    2.04
  22  -2  -3    3.43    0.98
 -19  -1  -3    4.49    1.45
 -17  -1  -3   58.01    3.66
 -15  -1  -3   54.34    3.31
 -13  -1  -3    0.53    0.55
 -11  -1  -3   20.10    1.38
  -9  -1  -3   87.88    2.23
  -7  -1  -3   83.77    2.01
  -5  -1  -3  421.98    6.14
  -3  -1  -3   38.94    0.90
  -1  -1  -3   23.24    0.80
   1  -1  -3    5.22    0.32
   3  -1  -3   27.36    0.68
   5  -1  -3   12.91    0.47
   7  -1  -3    7.27    0.46
   9  -1  -3  317.12    4.96
  11  -1  -3  139.52    2.33
  13  -1  -3    0.66    0.35
  15  -1  -3   31.84    1.46
  17  -1  -3   36.51    1.58
  19  -1  -3   10.28    1.04
  21  -1  -3    3.94    0.79
  23  -1  -3    0.07    0.76
 -18   0  -3    9.31    1.81
 -16   0  -3    0.55    0.67
 -14   0  -3   40.73    1.97
 -12   0  -3    7.94    0.95
 -10   0  -3   55.10    2.01
  -8   0  -3   22.08    1.04
  -6   0  -3    0.71    0.32
  -4   0  -3  210.42    4.85
  -2   0  -3   84.81    1.73
   0   0  -3  503.04    6.98
   2   0  -3    3.79    0.30
   4   0  -3  232.84    2.65
   6   0  -3   61.27    0.97
   8   0  -3  125.10    1.71
  10   0  -3    3.78    0.32
  12   0  -3  240.70    4.11
  14   0  -3  138.85    2.78
  16   0  -3   23.75    1.14
  18   0  -3   30.50    1.46
  20   0  -3   29.35    2.09
  22   0  -3    4.18    0.99
 -19   1  -3    5.78    1.20
 -17   1  -3   55.83    2.66
 -15   1  -3   51.42    2.38
 -13   1  -3    0.69    0.58
 -11   1  -3   16.08    1.29
  -9   1  -3   90.74    2.64
  -7   1  -3   79.60    1.97
  -5   1  -3  422.71    7.17
  -3   1  -3   38.53    0.86
  -1   1  -3   23.16    0.80
   1   1  -3    4.71    0.29
   3   1  -3   25.70    0.70
   5   1  -3   12.25    0.43
   7   1  -3    7.65    0.39
   9   1  -3  320.29    4.28
  11   1  -3  130.62    2.52
  13   1  -3    0.28    0.33
  15   1  -3   33.42    1.57
  17   1  -3   33.75    1.65
  19   1  -3    9.25    1.02
  21   1  -3    2.42    0.68
  23   1  -3    0.61    0.75
 -18   2  -3   12.00    1.64
 -16   2  -3   -1.02    0.73
 -14   2  -3   37.67    2.16
 -12   2  -3    5.55    0.93
 -10   2  -3   50.67    2.05
  -8   2  -3   17.90    0.92
  -6   2  -3    1.05    0.33
  -4   2  -3  173.95    3.10
  -2   2  -3   60.39    1.38
   0   2  -3  365.85    5.71
   2   2  -3    2.48    0.32
   4   2  -3  164.78    2.95
   6   2  -3   46.79    0.98
   8   2  -3   99.15    1.83
  10   2  -3    2.90    0.41
  12   2  -3  193.26    3.42
  14   2  -3  115.30    2.51
  16   2  -3   20.18    1.37
  18   2  -3   23.98    1.57
  20   2  -3   23.66    2.15
  22   2  -3    3.04    1.08
 -17   3  -3   45.82    2.99
 -15   3  -3   40.85    2.63
 -13   3  -3   -0.44    0.64
 -11   3  -3   13.16    1.32
  -9   3  -3   61.38    2.32
  -7   3  -3   48.18    1.92
  -5   3  -3  279.14    4.90
  -3   3  -3   22.94    0.90
  -1   3  -3   11.86    0.71
   1   3  -3    2.80    0.40
   3   3  -3   14.40    0.80
   5   3  -3    7.91    0.63
   7   3  -3    4.55    0.52
   9   3  -3  200.58    3.98
  11   3  -3   84.39    2.34
  13   3  -3    0.39    0.43
  15   3  -3   23.19    1.57
  17   3  -3   23.75    2.30
  19   3  -3    7.48    1.46
 -14   4  -3   22.02    2.01
 -12   4  -3    3.55    0.92
 -10   4  -3   30.95    1.87
  -8   4  -3   11.07    1.16
  -6   4  -3   -0.42    0.45
  -4   4  -3   92.51    2.85
  -2   4  -3   32.57    1.20
   0   4  -3  182.77    3.54
   2   4  -3    0.80    0.36
   4   4  -3   80.95    2.05
   6   4  -3   23.94    1.17
   8   4  -3   53.46    1.73
  10   4  -3    0.98    0.45
  12   4  -3  110.94    3.03
  14   4  -3   65.45    2.38
  16   4  -3   11.84    1.30
  18   4  -3   13.40    2.01
  -9   5  -3   33.19    3.37
  -7   5  -3   26.58    2.87
  -5   5  -3  149.49    6.50
  -3   5  -3   13.91    1.28
  -1   5  -3    2.42    0.65
   1   5  -3    1.11    0.54
   3   5  -3    4.63    0.67
   5   5  -3    2.62    0.59
   7   5  -3    2.53    0.60
   9   5  -3  104.54    2.87
  11   5  -3   44.94    1.89
  13   5  -3    1.35    0.68
  15   5  -3   15.43    1.79
  -2   6  -3   13.07    2.22
   0   6  -3   80.97    4.64
   2   6  -3    0.33    0.95
   4   6  -3   38.21    3.56
   6   6  -3    4.71    1.57
  -4  -6  -2    1.22    1.43
  -2  -6  -2   45.17    4.10
   0  -6  -2    3.21    1.09
   2  -6  -2    9.56    1.41
   4  -6  -2    5.95    1.30
   6  -6  -2   62.46    4.38
 -13  -5  -2    6.18    2.02
 -11  -5  -2   65.07    4.88
  -9  -5  -2   31.78    3.81
  -7  -5  -2   14.99    2.65
  -5  -5  -2    1.87    1.17
  -3  -5  -2    0.71    0.63
  -1  -5  -2   92.41    5.30
   1  -5  -2   30.45    2.23
   3  -5  -2  173.34    5.37
   5  -5  -2    2.12    1.07
   7  -5  -2   -0.45    0.50
   9  -5  -2   -0.02    0.81
  11  -5  -2    4.45    1.05
  13  -5  -2   -0.14    0.70
 -12  -4  -2   42.57    3.59
 -10  -4  -2   48.41    3.58
  -8  -4  -2   23.82    2.92
  -6  -4  -2   -0.39    0.75
  -4  -4  -2    6.04    0.93
  -2  -4  -2   93.14    4.90
   0  -4  -2    7.38    0.75
   2  -4  -2   20.12    1.39
   4  -4  -2    9.33    1.07
   6  -4  -2  140.70    4.19
   8  -4  -2   23.62    1.57
  10  -4  -2   -0.02    0.45
  12  -4  -2   13.95    1.47
  14  -4  -2   33.49    1.80
  16  -4  -2   23.62    1.67
  18  -4  -2   53.03    2.92
 -17  -3  -2   54.35    3.55
 -15  -3  -2   73.73    3.95
 -13  -3  -2    9.98    1.59
 -11  -3  -2  111.40    3.52
  -9  -3  -2   60.98    2.31
  -7  -3  -2   24.14    1.39
  -5  -3  -2    4.14    0.52
  -3  -3  -2    0.37    0.30
  -1  -3  -2  194.65    3.97
   1  -3  -2   68.48    1.87
   3  -3  -2  387.70    8.93
   5  -3  -2    2.47    0.55
   7  -3  -2    0.60    0.34
   9  -3  -2    0.38    0.34
  11  -3  -2    8.90    1.06
  13  -3  -2    0.57    0.45
  15  -3  -2   85.39    2.60
  17  -3  -2   21.59    1.93
  19  -3  -2   27.99    2.29
 -18  -2  -2   37.86    3.48
 -16  -2  -2    5.39    0.99
 -14  -2  -2   89.05    4.21
 -12  -2  -2   73.60    3.57
 -10  -2  -2   68.68    2.39
  -8  -2  -2   46.10    1.82
  -6  -2  -2   -0.18    0.28
  -4  -2  -2   11.48    0.69
  -2  -2  -2  178.08    3.29
   0  -2  -2   14.17    0.70
   2  -2  -2   36.85    1.13
   4  -2  -2   16.26    0.64
   6  -2  -2  278.28    4.39
   8  -2  -2   44.81    1.18
  10  -2  -2    0.35    0.28
  12  -2  -2   23.62    1.15
  14  -2  -2   56.09    1.63
  16  -2  -2   31.71    1.62
  18  -2  -2   67.42    2.50
  20  -2  -2   96.61    3.95
  22  -2  -2   -0.33    0.64
 -19  -1  -2    1.00    0.76
 -17  -1  -2   62.18    2.65
 -15  -1  -2   94.32    3.22
 -13  -1  -2   10.42    1.12
 -11  -1  -2  153.31    4.03
  -9  -1  -2   92.27    2.72
  -7  -1  -2   38.20    1.47
  -5  -1  -2    7.83    0.53
  -3  -1  -2    0.65    0.24
  -1  -1  -2  352.50    5.79
   1  -1  -2  140.95    2.15
   3  -1  -2  662.05    9.54
   5  -1  -2    5.27    0.37
   7  -1  -2    0.17    0.17
   9  -1  -2    0.31    0.21
  11  -1  -2   11.21    0.70
  13  -1  -2    1.90    0.41
  15  -1  -2  121.35    3.07
  17  -1  -2   29.91    1.47
  19  -1  -2   31.45    1.72
  21  -1  -2    1.41    0.63
  23  -1  -2   24.61    3.22
 -20   0  -2    0.87    0.85
 -18   0  -2   40.62    2.32
 -16   0  -2    4.23    0.92
 -14   0  -2  102.11    3.35
 -12   0  -2   93.15    2.94
 -10   0  -2   86.86    2.64
  -8   0  -2   62.18    1.71
  -6   0  -2   -0.26    0.25
  -4   0  -2   14.27    0.61
  -2   0  -2  250.43    4.12
   0   0  -2   21.66    0.52
   2   0  -2   49.67    0.75
   4   0  -2   26.36    0.50
   6   0  -2  378.02    4.83
   8   0  -2   56.08    0.95
  10   0  -2    0.09    0.22
  12   0  -2   29.06    0.91
  14   0  -2   70.18    1.78
  16   0  -2   39.43    1.34
  18   0  -2   90.73    2.61
  20   0  -2  102.20    5.45
  22   0  -2    0.53    0.70
 -21   1  -2    4.78    1.78
 -19   1  -2    0.67    0.87
 -17   1  -2   60.30    2.70
 -15   1  -2   91.89    3.23
 -13   1  -2   12.67    1.23
 -11   1  -2  162.09    4.10
  -9   1  -2   91.13    2.65
  -7   1  -2   38.03    1.13
  -5   1  -2    6.52    0.50
  -3   1  -2    0.27    0.16
  -1   1  -2  360.26    4.87
   1   1  -2  139.17    2.08
   3   1  -2  681.88    8.66
   5   1  -2    5.27    0.32
   7   1  -2    0.21    0.15
   9   1  -2    0.29    0.18
  11   1  -2   11.44    0.59
  13   1  -2    1.25    0.36
  15   1  -2  119.74    3.07
  17   1  -2   26.62    1.59
  19   1  -2   36.77    1.80
  21   1  -2    1.99    0.66
  23   1  -2   27.39    2.17
 -20   2  -2    3.30    1.77
 -18   2  -2   35.14    2.58
 -16   2  -2    4.43    0.85
 -14   2  -2   92.17    2.69
 -12   2  -2   81.13    2.29
 -10   2  -2   70.42    1.95
  -8   2  -2   48.10    1.44
  -6   2  -2    0.25    0.28
  -4   2  -2   13.08    0.65
  -2   2  -2  180.33    3.12
   0   2  -2   14.91    0.41
   2   2  -2   35.21    0.93
   4   2  -2   17.86    0.50
   6   2  -2  276.66    3.97
   8   2  -2   43.43    1.09
  10   2  -2    0.23    0.26
  12   2  -2   24.30    1.03
  14   2  -2   56.17    1.95
  16   2  -2   32.63    1.66
  18   2  -2   72.78    2.48
  20   2  -2   93.75    2.97
  22   2  -2   -0.02    0.58
 -17   3  -2   49.62    2.90
 -15   3  -2   71.35    3.08
 -13   3  -2    8.77    0.95
 -11   3  -2  112.07    2.77
  -9   3  -2   63.94    1.83
  -7   3  -2   23.68    1.02
  -5   3  -2    3.21    0.46
  -3   3  -2    0.79    0.32
  -1   3  -2  194.66    3.50
   1   3  -2   66.44    1.58
   3   3  -2  381.63    6.29
   5   3  -2    2.15    0.40
   7   3  -2    0.18    0.31
   9   3  -2    0.05    0.34
  11   3  -2    9.08    0.86
  13   3  -2    0.90    0.51
  15   3  -2   83.88    3.59
  17   3  -2   19.50    2.08
  19   3  -2   27.48    2.49
 -14   4  -2   59.66    4.26
 -12   4  -2   46.49    2.27
 -10   4  -2   43.02    2.63
  -8   4  -2   23.67    1.20
  -6   4  -2    0.13    0.36
  -4   4  -2    5.41    0.60
  -2   4  -2   91.57    2.18
   0   4  -2    6.02    0.60
   2   4  -2   21.60    0.96
   4   4  -2    7.45    0.66
   6   4  -2  138.64    3.03
   8   4  -2   21.55    1.22
  10   4  -2   -0.13    0.37
  12   4  -2   12.39    1.10
  14   4  -2   32.55    1.90
  16   4  -2   21.38    2.26
  18   4  -2   48.53    3.50
  -9   5  -2   27.07    3.04
  -7   5  -2    9.48    1.84
  -5   5  -2    1.41    0.67
  -3   5  -2    0.07    0.55
  -1   5  -2   86.99    2.98
   1   5  -2   29.15    1.64
   3   5  -2  178.74    4.76
   5   5  -2    0.97    0.58
   7   5  -2    0.02    0.41
   9   5  -2   -0.13    0.43
  11   5  -2    3.89    0.75
  13   5  -2    0.92    0.63
  15   5  -2   64.78    4.79
  -4   6  -2    2.40    1.31
  -2   6  -2   48.22    3.47
   0   6  -2    4.01    0.95
   2   6  -2   13.38    1.47
   4   6  -2    5.83    1.09
   6   6  -2   61.83    2.80
   8   6  -2   10.05    1.38
  -6  -6  -1   62.53    4.90
  -4  -6  -1    4.93    1.80
  -2  -6  -1    2.55    1.46
   0  -6  -1    0.10    1.17
   2  -6  -1   -0.52    1.04
   4  -6  -1    0.60    1.22
 -13  -5  -1    1.15    1.48
 -11  -5  -1   26.99    3.52
  -9  -5  -1    0.68    1.10
  -7  -5  -1   38.69    3.40
  -5  -5  -1    4.25    1.54
  -3  -5  -1  130.40    6.72
  -1  -5  -1    1.21    1.02
   1  -5  -1    0.13    0.83
   3  -5  -1   -0.44    0.93
   5  -5  -1   57.44    3.77
   7  -5  -1    0.64    0.78
   9  -5  -1   84.75    4.77
  11  -5  -1   91.13    5.37
  13  -5  -1   11.96    2.33
 -16  -4  -1    1.48    1.22
 -14  -4  -1   -0.15    0.77
 -12  -4  -1   26.71    1.93
 -10  -4  -1   32.40    1.77
  -8  -4  -1  148.02    6.70
  -6  -4  -1  140.21    6.49
  -4  -4  -1    3.21    1.13
  -2  -4  -1    5.48    1.38
   0  -4  -1    0.54    0.71
   2  -4  -1    0.57    0.42
   4  -4  -1    0.68    0.45
   6  -4  -1  176.92    4.93
   8  -4  -1    0.50    0.39
  10  -4  -1   41.85    2.08
  12  -4  -1   50.74    2.41
  14  -4  -1   11.23    1.47
  16  -4  -1    6.07    1.25
  18  -4  -1    0.91    0.90
 -19  -3  -1    7.77    1.75
 -17  -3  -1    9.67    1.79
 -15  -3  -1    0.07    0.78
 -13  -3  -1    0.13    0.57
 -11  -3  -1   49.09    2.12
  -9  -3  -1    1.52    0.55
  -7  -3  -1   62.98    2.18
  -5  -3  -1   13.22    0.81
  -3  -3  -1  310.38    7.11
  -1  -3  -1    1.46    0.40
   1  -3  -1    1.15    0.36
   3  -3  -1    1.99    0.48
   5  -3  -1  125.83    2.78
   7  -3  -1    3.68    0.52
   9  -3  -1  162.14    4.38
  11  -3  -1  181.55    5.00
  13  -3  -1   28.36    1.84
  15  -3  -1    1.09    0.65
  17  -3  -1    0.57    0.65
  19  -3  -1   24.56    2.14
 -20  -2  -1   97.71    3.68
 -18  -2  -1   30.81    2.18
 -16  -2  -1    4.83    1.22
 -14  -2  -1    1.52    0.84
 -12  -2  -1   32.83    1.60
 -10  -2  -1   51.66    1.92
  -8  -2  -1  241.43    5.62
  -6  -2  -1  275.34    4.87
  -4  -2  -1    5.41    0.44
  -2  -2  -1    5.36    0.51
   0  -2  -1    0.29    0.24
   2  -2  -1   -0.01    0.21
   4  -2  -1    0.21    0.20
   6  -2  -1  338.88    6.00
   8  -2  -1    0.34    0.25
  10  -2  -1   74.58    2.51
  12  -2  -1   91.94    2.49
  14  -2  -1   13.60    1.16
  16  -2  -1   10.56    1.12
  18  -2  -1   -0.27    0.49
  20  -2  -1    4.64    0.87
  22  -2  -1   26.00    2.30
 -21  -1  -1    1.36    0.88
 -19  -1  -1    8.37    1.26
 -17  -1  -1    8.67    1.13
 -15  -1  -1    0.75    0.58
 -13  -1  -1    1.59    0.76
 -11  -1  -1   72.53    2.28
  -9  -1  -1    3.42    0.54
  -7  -1  -1   91.28    2.43
  -5  -1  -1   23.42    0.71
  -3  -1  -1  525.99    8.58
  -1  -1  -1    2.55    0.21
   1  -1  -1    1.20    0.27
   3  -1  -1    5.38    0.37
   5  -1  -1  230.22    3.51
   7  -1  -1    8.04    0.44
   9  -1  -1  259.82    4.79
  11  -1  -1  274.23    5.31
  13  -1  -1   33.66    1.14
  15  -1  -1    1.73    0.54
  17  -1  -1    0.27    0.42
  19  -1  -1   35.29    1.74
  21  -1  -1   74.23    2.63
  23  -1  -1   34.08    3.66
 -22   0  -1    0.10    1.22
 -20   0  -1  106.65    3.92
 -18   0  -1   35.82    2.35
 -16   0  -1    1.36    0.66
 -14   0  -1    1.22    0.61
 -12   0  -1   42.16    1.89
 -10   0  -1   62.20    2.14
  -8   0  -1  317.71    5.46
  -6   0  -1  364.63    6.08
  -4   0  -1    6.67    0.43
  -2   0  -1    5.92    0.34
   0   0  -1    1.14    0.15
   2   0  -1    0.52    0.08
   4   0  -1    0.16    0.13
   6   0  -1  442.82    5.69
   8   0  -1    0.22    0.18
  10   0  -1   91.56    1.94
  12   0  -1  108.34    2.28
  14   0  -1   12.38    0.83
  16   0  -1   13.92    1.05
  18   0  -1   -0.46    0.33
  20   0  -1    3.78    0.89
  22   0  -1   23.93    2.03
 -21   1  -1    2.16    1.07
 -19   1  -1    9.03    1.34
 -17   1  -1    8.43    1.22
 -15   1  -1    0.38    0.59
 -13   1  -1    0.03    0.53
 -11   1  -1   69.30    2.42
  -9   1  -1    3.18    0.61
  -7   1  -1   91.40    2.40
  -5   1  -1   24.88    0.95
  -3   1  -1  548.79    8.15
  -1   1  -1    2.28    0.23
   1   1  -1    1.52    0.18
   3   1  -1    5.43    0.28
   5   1  -1  232.45    2.97
   7   1  -1    6.76    0.36
   9   1  -1  253.32    4.05
  11   1  -1  276.99    4.50
  13   1  -1   36.54    1.20
  15   1  -1    2.78    0.60
  17   1  -1    1.40    0.51
  19   1  -1   36.65    1.83
  21   1  -1   80.15    3.26
  23   1  -1   32.39    3.32
 -20   2  -1   93.72    4.10
 -18   2  -1   30.19    2.00
 -16   2  -1    3.97    0.84
 -14   2  -1    0.67    0.57
 -12   2  -1   32.81    1.48
 -10   2  -1   46.47    1.54
  -8   2  -1  242.70    4.39
  -6   2  -1  280.97    4.73
  -4   2  -1    5.10    0.43
  -2   2  -1    4.86    0.38
   0   2  -1    0.37    0.14
   2   2  -1    0.56    0.15
   4   2  -1    0.22    0.16
   6   2  -1  335.79    4.77
   8   2  -1    0.24    0.24
  10   2  -1   74.61    1.70
  12   2  -1   85.89    2.41
  14   2  -1   13.81    1.12
  16   2  -1    7.74    0.92
  18   2  -1    0.88    0.56
  20   2  -1    2.48    0.75
  22   2  -1   23.95    2.06
 -19   3  -1    3.69    1.28
 -17   3  -1    7.36    1.13
 -15   3  -1    0.12    0.62
 -13   3  -1    0.46    0.53
 -11   3  -1   51.68    1.74
  -9   3  -1    2.27    0.48
  -7   3  -1   59.67    1.63
  -5   3  -1   13.33    0.78
  -3   3  -1  304.57    5.14
  -1   3  -1    1.05    0.23
   1   3  -1    1.18    0.24
   3   3  -1    2.17    0.29
   5   3  -1  128.42    2.19
   7   3  -1    4.41    0.44
   9   3  -1  166.84    2.91
  11   3  -1  185.72    3.32
  13   3  -1   28.86    1.48
  15   3  -1    2.54    0.67
  17   3  -1   -0.05    0.55
  19   3  -1   27.40    2.45
 -16   4  -1    1.86    1.51
 -14   4  -1   -0.01    0.81
 -12   4  -1   18.63    1.73
 -10   4  -1   27.88    1.75
  -8   4  -1  137.72    3.96
  -6   4  -1  139.82    2.99
  -4   4  -1    2.68    0.45
  -2   4  -1    4.40    0.53
   0   4  -1    0.42    0.31
   2   4  -1    0.67    0.33
   4   4  -1    0.18    0.29
   6   4  -1  173.88    3.56
   8   4  -1    0.47    0.38
  10   4  -1   44.38    1.63
  12   4  -1   51.80    2.42
  14   4  -1    9.53    1.39
  16   4  -1    4.80    1.36
  18   4  -1    0.18    1.05
 -13   5  -1   -1.24    1.06
 -11   5  -1   27.35    2.13
  -9   5  -1    0.89    0.74
  -7   5  -1   32.17    1.97
  -5   5  -1    3.82    0.86
  -3   5  -1  139.38    4.03
  -1   5  -1    1.34    0.60
   1   5  -1    1.79    0.62
   3   5  -1    0.50    0.53
   5   5  -1   58.98    2.43
   7   5  -1    0.51    0.56
   9   5  -1   77.04    3.02
  11   5  -1   89.55    3.54
  13   5  -1   10.46    1.58
  15   5  -1    0.88    1.72
  -6   6  -1   66.36    2.92
  -4   6  -1    2.52    0.87
  -2   6  -1    0.95    0.77
   0   6  -1   -0.35    0.64
   2   6  -1    0.26    0.66
   4   6  -1    0.58    0.71
   6   6  -1   86.34    3.33
   8   6  -1    0.25    0.71
  -6  -6   0    2.78    1.63
  -4  -6   0    9.57    2.33
  -2  -6   0   -1.03    1.08
   0  -6   0  225.57   10.22
   2  -6   0   -0.62    1.04
   4  -6   0    5.60    1.86
 -13  -5   0   20.62    3.07
 -11  -5   0   11.69    2.39
  -9  -5   0   26.31    3.24
  -7  -5   0   28.74    3.30
  -5  -5   0   70.04    4.56
  -3  -5   0   24.27    2.94
  -1  -5   0    3.16    1.26
   1  -5   0    4.69    1.38
   3  -5   0   25.91    2.84
   5  -5   0   76.81    4.34
   7  -5   0   30.99    3.15
   9  -5   0   27.18    3.11
  11  -5   0   10.79    2.25
  13  -5   0   13.23    2.56
 -18  -4   0    0.00    0.99
 -16  -4   0   44.63    3.13
 -14  -4   0  107.16    3.76
 -12  -4   0   35.63    1.92
 -10  -4   0    4.14    0.82
  -8  -4   0    9.84    1.06
  -6  -4   0    0.71    0.82
  -4  -4   0   12.22    1.87
  -2  -4   0   -0.39    0.69
   0  -4   0  491.46   17.20
   2  -4   0   -0.16    0.36
   4  -4   0   14.45    1.25
   6  -4   0    3.93    0.71
   8  -4   0    7.18    0.93
  10  -4   0    5.34    0.91
  12  -4   0   35.33    2.03
  14  -4   0  109.83    4.05
  16  -4   0   45.61    2.84
 -19  -3   0    5.77    1.62
 -17  -3   0   85.87    4.38
 -15  -3   0   69.88    3.81
 -13  -3   0   27.10    1.70
 -11  -3   0   14.70    1.26
  -9  -3   0   47.50    1.91
  -7  -3   0   65.95    3.46
  -5  -3   0  151.72    6.40
  -3  -3   0   55.97    1.73
  -1  -3   0   10.03    0.74
   1  -3   0    9.48    0.84
   3  -3   0   53.81    1.94
   5  -3   0  167.84    3.37
   7  -3   0   61.66    1.70
   9  -3   0   44.98    1.93
  11  -3   0   15.97    1.40
  13  -3   0   27.99    1.99
  15  -3   0   68.74    3.00
  17  -3   0   87.24    3.56
  19  -3   0    6.58    1.24
 -20  -2   0   25.56    2.06
 -18  -2   0    0.52    0.85
 -16  -2   0   58.12    3.37
 -14  -2   0  164.18    6.17
 -12  -2   0   56.52    2.06
 -10  -2   0   10.28    0.94
  -8  -2   0   15.65    1.09
  -6  -2   0    6.71    1.04
  -4  -2   0   23.40    1.55
  -2  -2   0    0.26    0.19
   0  -2   0  925.91   20.09
   2  -2   0    0.15    0.18
   4  -2   0   21.61    0.77
   6  -2   0    6.53    0.52
   8  -2   0   15.63    0.75
  10  -2   0    7.51    0.92
  12  -2   0   53.89    1.88
  14  -2   0  169.83    4.14
  16  -2   0   63.74    2.44
  18  -2   0    0.13    0.50
  20  -2   0   21.00    1.67
 -21  -1   0   36.16    2.53
 -19  -1   0    6.42    1.12
 -17  -1   0  115.83    3.65
 -15  -1   0  100.30    4.49
 -13  -1   0   39.45    2.36
 -11  -1   0   22.69    1.19
  -9  -1   0   75.81    2.13
  -7  -1   0  104.73    2.63
  -5  -1   0  311.41    6.14
  -3  -1   0   94.34    3.73
  -1  -1   0   16.74    0.59
   1  -1   0   17.18    0.51
   3  -1   0  109.52    2.02
   5  -1   0  304.05    4.42
   7  -1   0  106.85    2.30
   9  -1   0   76.51    2.01
  11  -1   0   22.63    1.16
  13  -1   0   34.11    1.52
  15  -1   0  105.79    2.93
  17  -1   0  103.02    2.99
  19  -1   0    9.97    1.04
  21  -1   0   35.03    1.91
 -22   0   0    0.98    0.85
 -20   0   0   28.07    2.20
 -18   0   0    1.23    0.70
 -16   0   0   72.04    2.83
 -14   0   0  201.31    5.21
 -12   0   0   63.34    2.34
 -10   0   0   12.22    1.05
  -8   0   0   20.37    0.76
  -6   0   0    9.32    0.45
  -4   0   0   29.32    1.26
  -2   0   0    0.14    0.14
   2   0   0    0.32    0.09
   4   0   0   28.18    0.72
   6   0   0    8.00    0.48
   8   0   0   19.50    0.78
  10   0   0   11.39    0.71
  12   0   0   67.29    1.94
  14   0   0  206.14    4.32
  16   0   0   73.13    2.23
  18   0   0    0.48    0.48
  20   0   0   30.20    2.17
  22   0   0    0.23    0.69
 -21   1   0   43.19    2.81
 -19   1   0    5.85    1.18
 -17   1   0  102.66    3.65
 -15   1   0  105.40    3.48
 -13   1   0   35.31    1.78
 -11   1   0   20.98    1.45
  -9   1   0   73.13    2.25
  -7   1   0  107.19    2.61
  -5   1   0  294.82    5.80
  -3   1   0  108.06    1.85
  -1   1   0   17.54    0.47
   1   1   0   16.78    0.39
   3   1   0  109.82    1.45
   5   1   0  293.73    4.19
   7   1   0  105.63    2.77
   9   1   0   73.06    1.96
  11   1   0   23.09    0.94
  13   1   0   35.15    1.19
  15   1   0  107.54    2.87
  17   1   0  103.10    2.91
  19   1   0    8.71    1.24
  21   1   0   35.70    2.46
 -22   2   0    0.44    1.03
 -20   2   0   25.48    1.92
 -18   2   0    1.21    0.76
 -16   2   0   59.82    2.43
 -14   2   0  169.14    4.04
 -12   2   0   56.87    1.87
 -10   2   0    9.63    0.80
  -8   2   0   16.71    0.85
  -6   2   0    6.56    0.50
  -4   2   0   24.51    0.74
  -2   2   0    0.17    0.17
   0   2   0  989.90   12.45
   2   2   0    0.34    0.15
   4   2   0   23.26    0.53
   6   2   0    7.08    0.46
   8   2   0   14.96    0.89
  10   2   0   10.09    0.84
  12   2   0   52.34    1.85
  14   2   0  170.25    3.96
  16   2   0   65.01    2.26
  18   2   0    1.46    0.63
  20   2   0   25.83    1.74
 -19   3   0    5.98    1.61
 -17   3   0   75.34    3.72
 -15   3   0   75.81    2.56
 -13   3   0   27.18    1.57
 -11   3   0   15.00    1.05
  -9   3   0   48.02    1.48
  -7   3   0   58.74    1.56
  -5   3   0  163.89    3.05
  -3   3   0   55.99    1.17
  -1   3   0   10.23    0.51
   1   3   0   10.06    0.51
   3   3   0   55.15    1.19
   5   3   0  163.74    2.68
   7   3   0   59.06    1.39
   9   3   0   46.74    1.53
  11   3   0   14.63    1.07
  13   3   0   24.58    1.53
  15   3   0   72.33    2.49
  17   3   0   86.28    2.86
  19   3   0    7.58    1.09
 -18   4   0    2.37    1.96
 -16   4   0   52.44    4.70
 -14   4   0  107.32    4.01
 -12   4   0   29.12    2.12
 -10   4   0    5.09    0.90
  -8   4   0    6.82    0.94
  -6   4   0    3.94    0.54
  -4   4   0   11.93    0.84
  -2   4   0    0.08    0.27
   0   4   0  527.52    8.55
   2   4   0    0.12    0.31
   4   4   0   13.72    0.73
   6   4   0    3.03    0.42
   8   4   0    7.55    0.74
  10   4   0    2.34    0.72
  12   4   0   33.50    2.34
  14   4   0  112.54    4.23
  16   4   0   42.98    3.18
 -15   5   0   40.34    4.10
 -13   5   0   14.16    2.43
 -11   5   0    6.00    1.18
  -9   5   0   21.97    1.82
  -7   5   0   25.64    1.85
  -5   5   0   74.11    2.73
  -3   5   0   25.80    1.75
  -1   5   0    6.20    0.94
   1   5   0    6.22    0.91
   3   5   0   25.04    1.72
   5   5   0   75.43    2.75
   7   5   0   26.61    1.88
   9   5   0   20.07    1.76
  11   5   0    7.68    1.27
  13   5   0   16.95    1.96
  -8   6   0    2.11    0.92
  -6   6   0    1.33    0.82
  -4   6   0    7.10    1.18
  -2   6   0   -0.53    0.62
   0   6   0  234.06    6.20
   2   6   0    0.25    0.65
   4   6   0    6.52    1.14
   6   6   0    1.77    0.81
   8   6   0    3.35    1.46
  -8  -6   1   -0.46    1.20
  -6  -6   1   76.32    5.54
  -4  -6   1    1.28    1.46
  -2  -6   1   -0.20    1.29
   0  -6   1    1.24    1.36
   2  -6   1    1.20    1.30
   4  -6   1    2.40    1.43
 -15  -5   1    1.51    1.54
 -13  -5   1   10.18    2.28
 -11  -5   1   98.33    5.66
  -9  -5   1   85.14    5.15
  -7  -5   1   -0.21    0.90
  -5  -5   1   52.25    3.90
  -3  -5   1   -0.15    0.90
  -1  -5   1    1.99    1.17
   1  -5   1    0.31    0.95
   3  -5   1  145.09    6.51
   5  -5   1    5.07    1.44
   7  -5   1   35.02    3.00
   9  -5   1    1.04    1.10
  11  -5   1   30.75    3.58
  13  -5   1   -0.32    0.99
 -18  -4   1   -0.18    1.00
 -16  -4   1    4.76    1.34
 -14  -4   1    8.03    1.17
 -12  -4   1   48.57    2.26
 -10  -4   1   47.55    3.34
  -8  -4   1    0.46    0.82
  -6  -4   1  181.11    7.49
  -4  -4   1    0.15    0.72
  -2  -4   1    0.56    0.72
   0  -4   1    1.09    0.79
   2  -4   1    3.56    0.69
   4  -4   1    2.15    0.64
   6  -4   1  147.01    4.27
   8  -4   1  141.08    6.34
  10  -4   1   25.41    2.91
  12  -4   1   21.74    2.86
  14  -4   1    0.35    1.03
  16  -4   1    3.74    1.52
 -19  -3   1   30.38    3.00
 -17  -3   1    0.83    0.87
 -15  -3   1    1.05    0.80
 -13  -3   1   27.26    1.66
 -11  -3   1  182.02    4.77
  -9  -3   1  163.35    6.65
  -7  -3   1    4.58    1.19
  -5  -3   1  124.66    5.40
  -3  -3   1    2.85    0.89
  -1  -3   1    0.70    0.35
   1  -3   1    0.69    0.37
   3  -3   1  314.09    5.62
   5  -3   1   12.97    0.81
   7  -3   1   62.32    1.74
   9  -3   1    1.77    0.60
  11  -3   1   45.71    2.20
  13  -3   1   -0.17    0.48
  15  -3   1   -0.22    0.56
  17  -3   1    3.79    1.02
  19  -3   1    4.41    1.16
 -22  -2   1   22.84    3.06
 -20  -2   1    2.27    1.19
 -18  -2   1    0.17    0.77
 -16  -2   1    9.57    1.55
 -14  -2   1   14.01    1.69
 -12  -2   1   88.71    2.73
 -10  -2   1   73.42    2.36
  -8  -2   1    0.43    0.54
  -6  -2   1  307.80   11.04
  -4  -2   1    0.26    0.38
  -2  -2   1    0.41    0.21
   0  -2   1    0.11    0.23
   2  -2   1    5.65    0.42
   4  -2   1    5.43    0.46
   6  -2   1  285.43    5.15
   8  -2   1  250.58    4.70
  10  -2   1   48.99    2.06
  12  -2   1   31.54    1.49
  14  -2   1    0.07    0.47
  16  -2   1    3.10    0.75
  18  -2   1   28.43    1.88
  20  -2   1   88.65    3.71
 -21  -1   1   73.90    3.16
 -19  -1   1   38.47    2.25
 -17  -1   1   -0.34    0.61
 -15  -1   1    1.78    0.81
 -13  -1   1   35.52    2.21
 -11  -1   1  280.85    6.11
  -9  -1   1  253.13    5.55
  -7  -1   1    7.13    0.87
  -5  -1   1  233.56    7.54
  -3  -1   1    5.60    0.74
  -1  -1   1    1.45    0.26
   1  -1   1    2.39    0.25
   3  -1   1  549.43    9.02
   5  -1   1   23.13    0.65
   7  -1   1   93.32    1.73
   9  -1   1    3.36    0.55
  11  -1   1   72.47    2.20
  13  -1   1    0.62    0.43
  15  -1   1    0.47    0.45
  17  -1   1    9.71    1.02
  19  -1   1    6.92    0.92
  21  -1   1   -0.13    0.57
 -22   0   1   32.00    2.39
 -20   0   1    4.48    1.03
 -18   0   1   -0.03    0.56
 -16   0   1   13.67    1.37
 -14   0   1   12.21    1.22
 -12   0   1  107.80    3.19
 -10   0   1   92.88    2.34
  -8   0   1   -0.17    0.19
  -6   0   1  462.92    8.80
   0   0   1    0.91    0.13
   2   0   1    5.84    0.36
   4   0   1    7.36    0.49
   6   0   1  370.29    6.31
   8   0   1  307.96    6.85
  10   0   1   61.31    1.79
  12   0   1   40.92    1.51
  14   0   1    0.03    0.38
  16   0   1    3.17    0.61
  18   0   1   35.26    1.67
  20   0   1  112.59    3.93
  22   0   1    0.03    1.14
 -23   1   1   33.01    3.54
 -21   1   1   81.35    3.46
 -19   1   1   35.27    2.44
 -17   1   1    0.11    0.61
 -15   1   1    1.10    0.65
 -13   1   1   32.63    1.83
 -11   1   1  271.89    6.21
  -9   1   1  251.78    5.54
  -7   1   1    8.19    0.70
  -5   1   1  234.17    3.78
  -3   1   1    5.92    0.31
  -1   1   1    1.15    0.19
   1   1   1    2.48    0.23
   3   1   1  551.06    7.38
   5   1   1   23.05    0.68
   7   1   1   91.41    1.79
   9   1   1    4.06    0.44
  11   1   1   70.15    1.73
  13   1   1    0.18    0.30
  15   1   1    0.41    0.36
  17   1   1    9.04    1.22
  19   1   1    5.16    1.06
  21   1   1    1.00    0.79
 -22   2   1   28.05    2.40
 -20   2   1    3.18    0.97
 -18   2   1    0.48    0.66
 -16   2   1    8.80    1.09
 -14   2   1   13.59    1.15
 -12   2   1   86.43    2.38
 -10   2   1   76.92    1.98
  -8   2   1    0.29    0.29
  -6   2   1  347.09    5.42
  -4   2   1    0.22    0.18
  -2   2   1    0.62    0.14
   0   2   1    0.54    0.15
   2   2   1    5.22    0.32
   4   2   1    5.43    0.36
   6   2   1  282.13    4.23
   8   2   1  250.99    3.96
  10   2   1   46.39    1.63
  12   2   1   31.47    1.47
  14   2   1    0.14    0.47
  16   2   1    3.31    0.68
  18   2   1   29.78    1.82
  20   2   1   94.32    3.76
 -19   3   1   23.80    2.81
 -17   3   1   -0.10    1.03
 -15   3   1    3.98    1.12
 -13   3   1   27.90    2.06
 -11   3   1  183.83    4.88
  -9   3   1  162.71    4.24
  -7   3   1    4.22    0.46
  -5   3   1  126.22    2.62
  -3   3   1    1.81    0.26
  -1   3   1    0.58    0.21
   1   3   1    0.50    0.23
   3   3   1  307.42    4.03
   5   3   1   13.74    0.81
   7   3   1   61.40    1.72
   9   3   1    1.74    0.45
  11   3   1   49.00    1.80
  13   3   1    0.66    0.51
  15   3   1    0.60    0.61
  17   3   1    7.58    1.27
  19   3   1    3.53    1.11
 -18   4   1    0.22    1.18
 -16   4   1    7.44    1.57
 -14   4   1    6.67    1.27
 -12   4   1   45.07    2.28
 -10   4   1   40.90    1.98
  -8   4   1    0.40    0.38
  -6   4   1  177.94    3.62
  -4   4   1    0.25    0.34
  -2   4   1    0.41    0.33
   0   4   1    0.56    0.34
   2   4   1    4.75    0.56
   4   4   1    2.69    0.48
   6   4   1  141.24    3.10
   8   4   1  139.41    3.20
  10   4   1   30.11    1.50
  12   4   1   21.30    1.50
  14   4   1    0.44    0.74
  16   4   1    1.32    0.94
 -15   5   1    0.52    1.55
 -13   5   1   12.20    1.64
 -11   5   1   90.01    4.85
  -9   5   1   77.95    3.02
  -7   5   1    1.13    0.64
  -5   5   1   62.86    2.43
  -3   5   1    0.47    0.56
  -1   5   1    0.35    0.49
   1   5   1    0.29    0.51
   3   5   1  136.05    3.96
   5   5   1    5.45    0.92
   7   5   1   35.18    1.90
   9   5   1    1.11    0.93
  11   5   1   36.60    3.62
  13   5   1    1.69    1.37
  -8   6   1    0.72    0.85
  -6   6   1   83.20    3.26
  -4   6   1    0.12    0.68
  -2   6   1    0.56    0.71
   0   6   1   -0.63    0.63
   2   6   1    1.66    1.25
   4   6   1    2.59    1.28
   6   6   1   64.69    4.23
  -6  -6   2   60.88    4.87
  -4  -6   2    2.59    1.60
  -2  -6   2   12.72    2.68
   0  -6   2    4.08    1.78
   2  -6   2   51.17    4.07
 -15  -5   2   52.82    4.31
 -13  -5   2    0.62    0.77
 -11  -5   2    6.68    1.87
  -9  -5   2   -1.24    0.89
  -7  -5   2    0.44    0.98
  -5  -5   2    0.01    0.98
  -3  -5   2  178.22    8.13
  -1  -5   2   31.34    3.32
   1  -5   2   88.21    4.98
   3  -5   2    0.95    0.98
   9  -5   2   41.01    4.14
  11  -5   2   70.59    4.93
 -16  -4   2   22.27    2.54
 -14  -4   2   34.99    2.13
 -12  -4   2   13.59    2.19
 -10  -4   2   -0.40    0.78
  -8  -4   2   20.16    2.61
  -6  -4   2  139.88    6.52
  -4  -4   2    9.82    1.74
  -2  -4   2   17.32    2.27
   0  -4   2    6.79    1.46
   2  -4   2   96.70    3.17
   4  -4   2    7.11    1.00
   6  -4   2    0.55    0.51
   8  -4   2   26.46    2.94
  10  -4   2   40.76    3.33
  12  -4   2   43.30    3.58
  14  -4   2   59.94    4.34
 -19  -3   2   28.86    2.89
 -17  -3   2   18.23    2.22
 -15  -3   2   91.87    3.11
 -13  -3   2    1.78    0.60
 -11  -3   2    8.72    1.56
  -9  -3   2    0.22    0.71
  -7  -3   2    0.01    0.66
  -5  -3   2    1.33    0.80
  -3  -3   2  379.37   13.25
  -1  -3   2   68.05    2.22
   1  -3   2  191.31    5.00
   3  -3   2    0.59    0.45
   5  -3   2    4.75    0.54
   7  -3   2   26.45    1.15
   9  -3   2   61.73    2.46
  11  -3   2  104.91    3.68
  13  -3   2    7.14    1.10
  15  -3   2   66.23    3.12
  17  -3   2   43.71    2.82
 -22  -2   2    0.19    0.98
 -20  -2   2   93.23    4.78
 -18  -2   2   76.45    3.98
 -16  -2   2   32.51    2.37
 -14  -2   2   57.12    2.20
 -12  -2   2   23.55    1.38
 -10  -2   2   -0.65    0.47
  -8  -2   2   41.38    2.49
  -6  -2   2  268.59    9.48
  -4  -2   2   18.36    0.76
  -2  -2   2   36.27    1.33
   0  -2   2   15.94    0.91
   2  -2   2  186.77    3.43
   4  -2   2   12.20    0.70
   6  -2   2    0.07    0.27
   8  -2   2   49.25    2.00
  10  -2   2   71.76    2.61
  12  -2   2   75.81    2.91
  14  -2   2   90.36    2.73
  16  -2   2    3.74    0.96
  18  -2   2   35.09    2.55
  20  -2   2    5.07    1.65
 -23  -1   2   28.92    2.28
 -21  -1   2    0.43    0.71
 -19  -1   2   35.72    3.07
 -17  -1   2   28.01    2.60
 -15  -1   2  121.71    4.82
 -13  -1   2    2.00    0.51
 -11  -1   2   11.71    0.90
  -9  -1   2    1.00    0.52
  -7  -1   2   -0.31    0.35
  -5  -1   2    5.43    0.43
  -3  -1   2  662.63   14.07
  -1  -1   2  136.76    3.40
   1  -1   2  342.38    7.14
   3  -1   2    0.17    0.27
   5  -1   2    6.06    0.50
   7  -1   2   39.67    1.06
   9  -1   2   92.21    2.39
  11  -1   2  152.73    3.57
  13  -1   2    8.34    0.89
  15  -1   2   96.13    2.80
  17  -1   2   55.09    2.17
  19  -1   2   -0.34    0.64
  21  -1   2    3.88    1.52
 -22   0   2    0.00    0.73
 -20   0   2  111.69    3.89
 -18   0   2   90.66    3.32
 -16   0   2   37.33    1.92
 -14   0   2   64.24    2.50
 -12   0   2   30.99    1.90
 -10   0   2   -0.01    0.26
  -8   0   2   58.50    2.29
  -2   0   2   49.25    1.25
   0   0   2   21.57    0.52
   2   0   2  249.31    4.16
   4   0   2   15.09    0.68
   6   0   2   -0.15    0.24
   8   0   2   68.93    1.84
  10   0   2   87.50    2.31
  12   0   2   92.37    2.49
  14   0   2  109.44    2.87
  16   0   2    4.64    0.70
  18   0   2   43.39    1.85
  20   0   2    2.11    1.25
 -23   1   2   28.12    2.36
 -21   1   2    1.74    0.93
 -19   1   2   33.80    2.41
 -17   1   2   28.85    2.09
 -15   1   2  121.72    3.81
 -13   1   2    2.70    0.75
 -11   1   2   10.29    1.08
  -9   1   2    0.43    0.42
  -7   1   2    0.16    0.33
  -5   1   2    5.92    0.39
  -3   1   2  673.75    8.63
  -1   1   2  138.28    2.92
   1   1   2  355.38    4.89
   3   1   2    0.57    0.20
   5   1   2    6.25    0.43
   7   1   2   38.84    1.06
   9   1   2   93.09    1.98
  11   1   2  158.64    2.97
  13   1   2    9.95    0.90
  15   1   2   88.79    2.62
  17   1   2   59.15    2.67
  19   1   2    0.19    0.67
  21   1   2    3.47    1.54
 -22   2   2    0.25    1.05
 -20   2   2   89.94    4.12
 -18   2   2   76.48    2.74
 -16   2   2   28.83    1.82
 -14   2   2   55.77    2.04
 -12   2   2   24.69    1.37
 -10   2   2   -0.22    0.37
  -8   2   2   44.65    1.22
  -6   2   2  270.24    5.73
  -4   2   2   16.71    0.67
  -2   2   2   36.44    0.96
   0   2   2   13.31    0.56
   2   2   2  181.45    2.81
   4   2   2   11.90    0.56
   6   2   2    0.42    0.26
   8   2   2   48.47    1.31
  10   2   2   69.01    2.05
  12   2   2   76.59    2.32
  14   2   2   92.73    2.72
  16   2   2    3.25    0.93
  18   2   2   39.44    2.45
  20   2   2    2.61    1.51
 -19   3   2   18.36    2.45
 -17   3   2   18.41    2.21
 -15   3   2   86.31    3.64
 -13   3   2    0.07    0.67
 -11   3   2    7.42    1.00
  -9   3   2    0.27    0.42
  -7   3   2    0.15    0.39
  -5   3   2    2.95    0.45
  -3   3   2  396.31    6.48
  -1   3   2   66.12    1.62
   1   3   2  197.94    3.58
   3   3   2    0.39    0.26
   5   3   2    3.59    0.40
   7   3   2   24.90    1.08
   9   3   2   64.17    1.99
  11   3   2  112.07    3.59
  13   3   2    8.62    1.22
  15   3   2   68.90    3.08
  17   3   2   49.87    2.87
 -18   4   2   48.23    3.80
 -16   4   2   26.28    2.50
 -14   4   2   37.83    2.55
 -12   4   2   15.01    1.50
 -10   4   2    0.90    0.44
  -8   4   2   23.46    1.20
  -6   4   2  140.50    3.07
  -4   4   2    9.24    0.76
  -2   4   2   21.42    1.02
   0   4   2    6.99    0.66
   2   4   2   91.73    2.25
   4   4   2    5.66    0.64
   6   4   2    0.66    0.40
   8   4   2   23.64    1.67
  10   4   2   42.15    2.08
  12   4   2   47.53    2.37
  14   4   2   63.88    2.96
  16   4   2    1.77    1.05
 -15   5   2   60.54    4.19
 -13   5   2    0.13    0.66
 -11   5   2    3.90    0.80
  -9   5   2    0.57    0.50
  -7   5   2    0.50    0.47
  -5   5   2    0.56    0.46
  -3   5   2  183.69    4.80
  -1   5   2   32.17    1.35
   1   5   2   92.29    3.08
   3   5   2    0.65    0.58
   5   5   2    2.03    0.74
   7   5   2    9.76    1.79
   9   5   2   31.92    3.21
  11   5   2   59.62    4.24
 -10   6   2   -0.59    1.10
  -8   6   2    7.04    1.76
  -6   6   2   57.92    3.94
  -4   6   2    9.09    1.87
  -2   6   2    9.21    1.86
   0   6   2    1.39    1.14
   2   6   2   42.53    3.88
   4   6   2    4.87    1.50
  -6  -6   3    6.80    2.25
  -4  -6   3   37.40    4.45
  -2  -6   3   -1.47    1.13
   0  -6   3   91.39    5.86
   2  -6   3   14.61    2.74
 -15  -5   3   13.22    1.65
 -13  -5   3    1.91    1.40
 -11  -5   3   41.54    3.75
  -9  -5   3  106.49    6.23
  -7  -5   3    3.29    1.50
  -5  -5   3    3.88    1.64
  -3  -5   3    7.78    2.01
  -1  -5   3    1.11    1.23
   1  -5   3    4.64    1.57
   3  -5   3   10.63    2.14
   9  -5   3   32.68    3.83
  11  -5   3    2.58    1.59
 -18  -4   3   13.32    2.13
 -16  -4   3   13.15    1.50
 -14  -4   3   70.04    4.54
 -12  -4   3  116.61    6.14
 -10  -4   3   -0.21    0.89
  -8  -4   3   58.62    3.88
  -6  -4   3   27.42    3.09
  -4  -4   3   81.33    4.70
  -2  -4   3    0.80    0.98
   0  -4   3  178.51    7.67
   2  -4   3   33.70    2.74
   4  -4   3   99.73    3.43
   6  -4   3    0.71    0.86
   8  -4   3   11.13    2.05
  10  -4   3   26.97    3.32
  12  -4   3    6.32    1.78
  14  -4   3   22.00    3.16
 -19  -3   3    6.15    1.49
 -17  -3   3   26.80    2.69
 -15  -3   3   24.50    1.80
 -13  -3   3    1.03    0.81
 -11  -3   3   87.14    4.52
  -9  -3   3  204.46    8.19
  -7  -3   3    4.11    1.23
  -5  -3   3    8.85    1.56
  -3  -3   3   12.96    1.88
  -1  -3   3    2.56    0.64
   1  -3   3   13.47    1.23
   3  -3   3   21.94    1.49
   5  -3   3  291.94    7.10
   7  -3   3   52.45    3.36
   9  -3   3   60.35    3.84
  11  -3   3   11.28    1.95
  13  -3   3    0.15    0.85
  15  -3   3   30.68    3.51
 -22  -2   3    2.85    1.35
 -20  -2   3   25.61    2.73
 -18  -2   3   26.82    2.60
 -16  -2   3   21.89    2.20
 -14  -2   3  118.26    3.46
 -12  -2   3  180.84    7.33
 -10  -2   3    3.39    1.00
  -8  -2   3   94.64    4.47
  -6  -2   3   43.99    1.56
  -4  -2   3  164.06    4.17
  -2  -2   3    2.75    0.54
   0  -2   3  362.01    8.37
   2  -2   3   65.70    1.62
   4  -2   3  171.68    3.54
   6  -2   3    1.03    0.41
   8  -2   3   19.84    1.52
  10  -2   3   43.90    2.14
  12  -2   3    5.28    0.92
  14  -2   3   35.16    2.25
  16  -2   3    1.36    0.76
  18  -2   3   10.82    1.56
 -23  -1   3    0.21    0.77
 -21  -1   3    2.70    0.87
 -19  -1   3   11.25    1.78
 -17  -1   3   36.23    2.49
 -15  -1   3   30.41    2.18
 -13  -1   3    0.40    0.39
 -11  -1   3  138.36    5.35
  -9  -1   3  326.55   10.77
  -7  -1   3    7.04    0.66
  -5  -1   3   12.89    0.81
  -3  -1   3   27.16    0.80
  -1  -1   3    5.22    0.41
   1  -1   3   22.48    0.95
   3  -1   3   36.27    1.38
   5  -1   3  432.68    7.16
   7  -1   3   81.97    2.01
   9  -1   3   87.11    2.31
  11  -1   3   16.14    1.14
  13  -1   3    0.09    0.51
  15  -1   3   49.37    2.43
  17  -1   3   66.20    4.04
  19  -1   3    6.41    1.22
 -24   0   3   32.65    3.31
 -22   0   3    4.13    1.06
 -20   0   3   27.59    2.10
 -18   0   3   32.52    1.96
 -16   0   3   22.91    1.68
 -14   0   3  132.53    4.99
 -12   0   3  244.70    5.49
 -10   0   3    3.32    0.74
  -4   0   3  239.95    6.61
  -2   0   3    3.36    0.26
   0   0   3  501.64    7.91
   2   0   3   86.89    1.75
   4   0   3  213.02    3.90
   6   0   3   -0.13    0.30
   8   0   3   21.85    1.09
  10   0   3   58.82    1.84
  12   0   3    6.61    0.79
  14   0   3   41.23    1.68
  16   0   3    0.81    0.63
  18   0   3    9.97    1.37
 -23   1   3    0.54    0.90
 -21   1   3    3.22    1.04
 -19   1   3   12.15    1.48
 -17   1   3   37.84    2.18
 -15   1   3   38.32    2.07
 -13   1   3    1.21    0.66
 -11   1   3  129.62    3.72
  -9   1   3  321.12    6.81
  -7   1   3    6.90    0.52
  -5   1   3   12.47    0.73
  -3   1   3   26.66    0.69
  -1   1   3    4.54    0.37
   1   1   3   24.14    0.77
   3   1   3   37.78    1.07
   5   1   3  429.65    7.21
   7   1   3   78.48    2.02
   9   1   3   89.02    2.33
  11   1   3   18.74    1.20
  13   1   3    0.23    0.43
  15   1   3   53.32    2.46
  17   1   3   52.72    3.73
  19   1   3    4.71    1.55
 -22   2   3    2.30    1.14
 -20   2   3   23.84    2.44
 -18   2   3   21.02    2.17
 -16   2   3   14.49    1.76
 -14   2   3  110.37    3.97
 -12   2   3  198.56    5.31
 -10   2   3    2.11    0.63
  -8   2   3   98.22    2.68
  -6   2   3   45.16    1.25
  -4   2   3  165.06    2.97
  -2   2   3    2.88    0.33
   0   2   3  365.48    5.18
   2   2   3   62.98    1.29
   4   2   3  169.76    2.85
   6   2   3    0.36    0.31
   8   2   3   19.21    1.04
  10   2   3   49.30    1.66
  12   2   3    6.97    1.03
  14   2   3   36.60    2.24
  16   2   3    1.03    0.80
  18   2   3   12.01    1.59
 -19   3   3    6.68    1.65
 -17   3   3   28.55    2.63
 -15   3   3   28.17    2.32
 -13   3   3   -1.04    0.53
 -11   3   3   88.21    2.91
  -9   3   3  196.40    4.83
  -7   3   3    4.78    0.55
  -5   3   3    8.29    0.66
  -3   3   3   14.41    0.81
  -1   3   3    2.52    0.40
   1   3   3   12.04    0.65
   3   3   3   24.38    1.01
   5   3   3  272.04    5.19
   7   3   3   55.08    2.10
   9   3   3   57.35    2.35
  11   3   3   12.20    1.34
  13   3   3    0.15    0.66
  15   3   3   39.74    2.73
  17   3   3   39.45    2.90
 -18   4   3   17.34    3.23
 -16   4   3   11.22    1.71
 -14   4   3   72.28    3.12
 -12   4   3  117.82    3.07
 -10   4   3    1.11    0.46
  -8   4   3   55.56    1.75
  -6   4   3   19.99    1.15
  -4   4   3   82.93    2.10
  -2   4   3    0.88    0.50
   0   4   3  175.79    4.55
   2   4   3   31.21    1.59
   4   4   3   93.55    3.02
   6   4   3    0.54    0.52
   8   4   3   13.12    1.32
  10   4   3   31.45    2.13
  12   4   3    3.52    1.02
  14   4   3   27.49    2.31
 -15   5   3   12.80    1.67
 -13   5   3   -0.04    0.63
 -11   5   3   43.72    1.85
  -9   5   3   99.77    3.45
  -7   5   3    3.63    0.81
  -5   5   3    5.43    0.91
  -3   5   3    6.59    0.93
  -1   5   3    0.83    0.63
   1   5   3    3.43    0.80
   3   5   3   14.32    1.43
   5   5   3  154.72    4.58
   7   5   3   27.26    2.07
   9   5   3   36.15    2.44
  11   5   3    6.87    1.73
  -6   6   3    8.01    1.75
  -4   6   3   37.75    3.50
  -2   6   3    0.22    0.95
   0   6   3   79.55    4.75
   2   6   3   11.12    2.12
  -2  -6   4   36.49    4.46
   0  -6   4   17.02    3.08
 -13  -5   4    2.47    1.61
 -11  -5   4   21.02    3.35
  -9  -5   4   36.10    4.18
  -7  -5   4    1.30    1.32
  -5  -5   4   44.21    3.93
  -3  -5   4   -1.08    0.98
  -1  -5   4   75.92    5.01
   1  -5   4   -0.10    1.15
   3  -5   4    0.14    1.16
 -18  -4   4   26.24    2.88
 -16  -4   4   10.08    2.25
 -14  -4   4   17.75    2.65
 -12  -4   4    2.90    1.37
 -10  -4   4    7.85    1.87
  -8  -4   4    0.46    0.96
  -6  -4   4  159.36    7.53
  -4  -4   4   27.02    3.23
  -2  -4   4   76.12    4.64
   0  -4   4   25.46    3.04
   2  -4   4   19.09    2.57
   4  -4   4   24.69    2.00
   6  -4   4   32.84    3.46
   8  -4   4   70.73    4.63
  10  -4   4    4.50    1.60
  12  -4   4   67.43    4.83
 -19  -3   4   20.85    2.49
 -17  -3   4   80.41    4.19
 -15  -3   4   31.90    2.81
 -13  -3   4    6.91    1.66
 -11  -3   4   49.55    3.41
  -9  -3   4   75.75    4.38
  -7  -3   4    0.40    0.81
  -5  -3   4   95.17    5.02
  -3  -3   4    1.65    0.94
  -1  -3   4  153.64    4.51
   1  -3   4    0.04    0.50
   3  -3   4    1.16    0.58
   5  -3   4   32.08    1.76
   7  -3   4    4.60    1.35
   9  -3   4   -0.46    0.71
  11  -3   4   80.23    4.93
  13  -3   4    4.11    1.46
  15  -3   4   26.74    3.41
 -22  -2   4   38.55    3.55
 -20  -2   4    7.08    1.50
 -18  -2   4   43.53    2.90
 -16  -2   4   10.43    1.56
 -14  -2   4   25.23    2.20
 -12  -2   4    5.70    1.31
 -10  -2   4   19.52    2.29
  -8  -2   4    0.92    0.85
  -6  -2   4  284.53    6.85
  -4  -2   4   51.09    2.00
  -2  -2   4  129.86    3.81
   0  -2   4   47.44    2.02
   2  -2   4   32.34    1.75
   4  -2   4   37.13    1.90
   6  -2   4   59.15    1.88
   8  -2   4  107.87    3.57
  10  -2   4    8.93    1.19
  12  -2   4  104.06    3.80
  14  -2   4   10.30    1.42
  16  -2   4   27.45    3.41
 -23  -1   4   21.90    1.98
 -21  -1   4   86.91    4.60
 -19  -1   4   24.56    2.51
 -17  -1   4  114.50    4.80
 -15  -1   4   47.02    2.67
 -13  -1   4    5.87    1.25
 -11  -1   4   74.10    3.83
  -9  -1   4  119.95    3.38
  -7  -1   4    5.05    0.82
  -5  -1   4  153.21    3.41
  -3  -1   4    0.39    0.23
  -1  -1   4  235.36    5.14
   1  -1   4    0.28    0.32
   3  -1   4    1.41    0.48
   5  -1   4   45.82    1.84
   7  -1   4   10.90    1.06
   9  -1   4    0.68    0.54
  11  -1   4  120.19    3.86
  13  -1   4    3.63    0.88
  15  -1   4   32.76    2.31
  17  -1   4    1.76    0.87
 -24   0   4   14.33    2.23
 -22   0   4   49.93    2.59
 -20   0   4    7.91    1.18
 -18   0   4   39.83    2.18
 -16   0   4   17.15    1.86
 -14   0   4   31.33    2.07
 -12   0   4    7.37    1.12
  -6   0   4  367.85   10.21
  -4   0   4   60.38    1.34
  -2   0   4  167.29    3.86
   0   0   4   64.77    1.34
   2   0   4   48.47    1.25
   4   0   4   53.99    1.48
   6   0   4   73.82    1.95
   8   0   4  128.68    5.13
  10   0   4   11.35    1.21
  12   0   4  119.10    3.93
  14   0   4   13.16    1.98
  16   0   4   33.06    2.33
  18   0   4   -0.46    0.69
 -23   1   4   24.73    3.28
 -21   1   4   83.33    5.27
 -19   1   4   33.41    2.28
 -17   1   4  115.18    3.73
 -15   1   4   45.99    2.26
 -13   1   4    9.28    1.11
 -11   1   4   82.67    2.74
  -9   1   4  122.13    2.61
  -7   1   4    5.28    0.65
  -5   1   4  152.12    2.76
  -3   1   4    0.36    0.15
  -1   1   4  236.62    4.19
   1   1   4    0.07    0.22
   3   1   4    2.14    0.40
   5   1   4   45.33    1.41
   7   1   4    7.49    0.73
   9   1   4    1.60    0.51
  11   1   4  110.71    3.68
  13   1   4    3.40    0.79
  15   1   4   36.82    2.14
  17   1   4    1.11    1.06
 -22   2   4   35.53    2.88
 -20   2   4    6.11    1.43
 -18   2   4   39.51    2.93
 -16   2   4   13.55    1.74
 -14   2   4   24.66    2.06
 -12   2   4    5.48    0.93
 -10   2   4   19.83    1.34
  -8   2   4    3.33    0.47
  -6   2   4  283.70    4.86
  -4   2   4   46.85    1.21
  -2   2   4  127.42    3.17
   0   2   4   48.93    1.38
   2   2   4   35.93    1.19
   4   2   4   39.07    1.31
   6   2   4   58.80    1.73
   8   2   4  111.03    2.73
  10   2   4   10.46    0.96
  12   2   4  106.81    3.70
  14   2   4   12.21    2.01
  16   2   4   35.20    3.56
 -19   3   4   19.88    2.45
 -17   3   4   83.36    3.84
 -15   3   4   29.48    2.31
 -13   3   4    3.39    0.87
 -11   3   4   48.66    1.67
  -9   3   4   75.42    2.02
  -7   3   4    1.82    0.42
  -5   3   4   94.84    2.79
  -3   3   4    0.69    0.43
  -1   3   4  153.44    3.23
   1   3   4    0.47    0.34
   3   3   4    1.79    0.41
   5   3   4   28.19    1.20
   7   3   4    5.42    0.85
   9   3   4    0.85    0.62
  11   3   4   84.50    3.23
  13   3   4    3.24    1.00
  15   3   4   25.17    3.05
 -18   4   4   28.31    4.27
 -16   4   4    8.93    1.14
 -14   4   4   16.04    1.32
 -12   4   4    2.38    0.64
 -10   4   4    8.26    1.07
  -8   4   4    1.98    0.64
  -6   4   4  151.43    4.16
  -4   4   4   27.10    1.58
  -2   4   4   70.67    2.54
   0   4   4   28.64    1.23
   2   4   4   19.57    1.49
   4   4   4   21.76    1.60
   6   4   4   32.84    1.79
   8   4   4   66.26    2.73
  10   4   4    5.72    1.12
  12   4   4   65.55    3.12
 -13   5   4    2.00    0.95
 -11   5   4   26.31    2.02
  -9   5   4   36.25    2.11
  -7   5   4    0.95    0.62
  -5   5   4   46.56    2.24
  -3   5   4    0.22    0.56
  -1   5   4   76.22    2.90
   1   5   4   -0.23    0.57
   3   5   4    0.76    0.68
   5   5   4   13.43    1.46
   7   5   4    3.04    0.93
   9   5   4    1.06    0.79
 -11  -5   5   42.32    4.70
  -9  -5   5    5.26    1.96
  -7  -5   5   46.02    4.95
  -5  -5   5   17.89    3.21
  -3  -5   5   11.90    2.64
  -1  -5   5   56.85    4.62
   1  -5   5   83.89    5.65
 -16  -4   5    2.71    1.42
 -14  -4   5   45.18    3.95
 -12  -4   5   23.54    3.22
 -10  -4   5   62.09    4.60
  -8  -4   5   10.90    2.24
  -6  -4   5   10.82    2.24
  -4  -4   5    1.25    1.14
  -2  -4   5   -0.38    0.95
   0  -4   5    9.48    2.13
   2  -4   5   69.31    4.46
   4  -4   5    0.14    0.72
   6  -4   5  106.06    6.01
   8  -4   5   23.42    3.31
  10  -4   5    6.53    2.09
 -19  -3   5    1.33    1.00
 -15  -3   5  112.92    5.78
 -13  -3   5   -0.54    0.86
 -11  -3   5   78.87    4.63
  -9  -3   5    7.87    1.83
  -7  -3   5   86.11    5.02
  -5  -3   5   31.76    3.51
  -3  -3   5   30.96    3.48
  -1  -3   5   95.32    3.58
   1  -3   5  150.69    4.85
   3  -3   5   17.02    1.68
   5  -3   5   36.44    2.12
   7  -3   5   42.04    3.37
   9  -3   5    3.98    1.44
  11  -3   5    1.64    1.31
  13  -3   5   12.48    2.42
 -20  -2   5   18.90    2.36
 -18  -2   5   21.42    2.36
 -14  -2   5   72.76    4.22
 -12  -2   5   43.38    3.15
 -10  -2   5  113.38    5.59
  -8  -2   5   21.77    2.60
  -6  -2   5   26.39    1.65
  -4  -2   5    3.08    0.77
  -2  -2   5   -0.23    0.50
   0  -2   5   15.91    1.53
   2  -2   5  105.91    3.72
   4  -2   5    1.81    0.71
   6  -2   5  178.87    5.23
   8  -2   5   40.30    3.22
  10  -2   5    7.23    1.68
  12  -2   5   19.14    2.71
 -23  -1   5   12.08    2.06
 -21  -1   5   10.16    1.79
 -19  -1   5    1.52    0.96
 -17  -1   5   10.40    1.56
 -15  -1   5  159.91    6.55
 -13  -1   5    1.06    0.81
 -11  -1   5  107.92    3.37
  -9  -1   5   18.27    1.58
  -7  -1   5  138.36    3.32
  -5  -1   5   60.12    1.76
  -3  -1   5   49.60    1.59
  -1  -1   5  155.64    3.80
   1  -1   5  233.61    5.38
   3  -1   5   24.89    1.35
   5  -1   5   47.27    1.95
   7  -1   5   61.74    2.44
   9  -1   5    6.03    0.95
  11  -1   5    2.39    0.69
  13  -1   5   16.71    1.65
  15  -1   5   51.92    2.70
  17  -1   5   25.23    3.11
 -22   0   5   15.85    1.67
 -20   0   5   18.44    1.71
 -18   0   5   25.83    1.85
 -16   0   5    3.25    0.95
 -14   0   5   92.10    3.81
  -8   0   5   28.23    1.61
  -6   0   5   34.63    1.02
  -4   0   5    3.13    0.34
  -2   0   5    0.41    0.33
   0   0   5   18.77    1.09
   2   0   5  128.11    3.39
   4   0   5    0.85    0.48
   6   0   5  206.06    5.16
   8   0   5   55.57    2.28
  10   0   5    9.93    1.18
  12   0   5   25.43    1.96
  14   0   5   50.22    2.59
  16   0   5    1.08    0.89
 -23   1   5    8.13    2.13
 -21   1   5   10.25    2.23
 -19   1   5    1.10    1.24
 -17   1   5    5.78    1.77
 -15   1   5  153.24    4.77
 -13   1   5    2.57    0.78
 -11   1   5  111.55    2.60
  -9   1   5   16.58    0.99
  -7   1   5  138.54    2.73
  -5   1   5   55.90    1.51
  -3   1   5   50.26    1.35
  -1   1   5  154.79    3.06
   1   1   5  227.72    4.24
   3   1   5   24.08    1.34
   5   1   5   47.68    1.96
   7   1   5   58.33    2.33
   9   1   5    5.19    0.90
  11   1   5    0.69    0.62
  13   1   5   20.36    2.54
  15   1   5   47.99    3.69
 -22   2   5   15.66    3.02
 -20   2   5   14.65    1.89
 -18   2   5   21.51    2.18
 -16   2   5    6.01    1.19
 -14   2   5   77.62    3.06
 -12   2   5   39.97    1.91
 -10   2   5  114.44    2.62
  -8   2   5   21.27    1.18
  -6   2   5   25.22    1.21
  -4   2   5    3.01    0.54
  -2   2   5    0.07    0.30
   0   2   5   14.23    0.88
   2   2   5  106.33    2.44
   4   2   5    0.94    0.40
   6   2   5  167.70    3.70
   8   2   5   46.98    2.11
  10   2   5    7.90    1.12
  12   2   5   26.01    2.91
  14   2   5   43.21    3.45
 -21   3   5    7.30    2.58
 -19   3   5    1.15    1.14
 -17   3   5    6.08    1.34
 -15   3   5  101.50    5.23
 -13   3   5    1.30    0.57
 -11   3   5   67.97    2.58
  -9   3   5   11.78    1.11
  -7   3   5   86.97    2.73
  -5   3   5   37.60    1.64
  -3   3   5   30.96    1.48
  -1   3   5   96.64    2.43
   1   3   5  154.74    3.35
   3   3   5   17.92    1.11
   5   3   5   36.49    1.45
   7   3   5   37.55    1.90
   9   3   5    2.41    0.81
  11   3   5    4.68    1.46
  13   3   5   10.29    2.06
 -16   4   5    1.79    0.90
 -14   4   5   49.46    2.49
 -12   4   5   23.22    1.81
 -10   4   5   65.81    2.64
  -8   4   5   12.40    1.25
  -6   4   5   10.74    1.15
  -4   4   5    1.26    0.57
  -2   4   5    0.03    0.40
   0   4   5    8.35    0.86
   2   4   5   63.16    2.49
   4   4   5    0.86    0.60
   6   4   5  101.68    3.51
   8   4   5   27.94    2.07
  10   4   5    7.04    1.25
 -11   5   5   43.63    2.49
  -9   5   5    6.66    1.09
  -7   5   5   44.10    2.28
  -5   5   5   17.24    1.60
  -3   5   5   15.40    1.52
  -1   5   5   50.11    2.39
   1   5   5   88.24    3.28
   3   5   5    8.98    1.28
   5   5   5   22.50    1.93
   7   5   5   25.53    3.00
  -9  -5   6   19.19    3.50
  -7  -5   6   36.49    4.67
  -5  -5   6   40.95    4.97
  -3  -5   6    2.62    1.89
  -1  -5   6    6.22    2.31
   1  -5   6   63.87    4.92
 -16  -4   6   38.18    4.31
 -14  -4   6    8.89    2.29
 -12  -4   6   49.27    4.19
 -10  -4   6    4.39    1.70
  -8  -4   6   22.23    3.30
  -6  -4   6   30.81    3.91
  -4  -4   6  124.34    7.38
  -2  -4   6    9.02    2.47
   0  -4   6    4.82    1.95
   2  -4   6   26.61    3.57
   6  -4   6    1.09    1.43
   8  -4   6   13.23    2.65
 -19  -3   6    7.99    1.76
 -17  -3   6    0.11    1.20
 -15  -3   6    4.41    1.63
 -13  -3   6   41.84    3.51
 -11  -3   6    9.82    2.14
  -9  -3   6   48.28    3.86
  -7  -3   6   75.95    5.02
  -5  -3   6   94.71    5.87
  -3  -3   6    6.19    1.95
  -1  -3   6   10.18    1.50
   1  -3   6   99.76    3.98
   3  -3   6    4.90    1.16
   5  -3   6   27.36    3.35
   7  -3   6    1.42    1.30
   9  -3   6  118.79    6.49
  11  -3   6   10.67    2.27
 -20  -2   6  115.37    5.48
 -18  -2   6   32.15    2.98
 -16  -2   6   52.55    3.72
 -14  -2   6   11.98    2.11
 -12  -2   6   81.40    4.69
 -10  -2   6    6.96    1.69
  -8  -2   6   34.02    3.08
  -6  -2   6   50.02    2.38
  -4  -2   6  225.23    6.51
  -2  -2   6   24.62    1.87
   0  -2   6    4.97    1.08
   2  -2   6   54.41    2.76
   4  -2   6   18.03    1.88
   6  -2   6    0.70    0.81
   8  -2   6   19.58    2.61
  10  -2   6   28.73    3.31
  12  -2   6   15.95    2.65
 -21  -1   6   53.66    3.44
 -19  -1   6   11.37    1.79
 -17  -1   6   -0.42    0.64
 -15  -1   6    6.35    1.51
 -13  -1   6   69.39    4.06
 -11  -1   6   13.63    1.30
  -9  -1   6   69.40    3.50
  -7  -1   6  102.80    4.53
  -5  -1   6  136.06    5.50
  -3  -1   6    9.56    1.45
  -1  -1   6   13.16    1.74
   1  -1   6  148.52    6.05
   3  -1   6    5.52    1.30
   5  -1   6   49.58    3.33
   7  -1   6    0.66    0.61
   9  -1   6  150.00    4.66
  11  -1   6   10.42    2.02
 -22   0   6    1.52    1.34
 -20   0   6  127.76    6.29
 -18   0   6   34.77    2.01
 -16   0   6   67.67    3.37
 -10   0   6   10.65    0.77
  -8   0   6   37.66    1.57
  -6   0   6   56.81    1.95
  -4   0   6  262.73    5.95
  -2   0   6   30.76    1.41
   0   0   6    4.20    0.68
   2   0   6   69.78    2.40
   4   0   6   22.77    1.46
   6   0   6    0.24    0.49
   8   0   6   29.43    1.86
  10   0   6   42.65    2.29
  12   0   6   28.94    2.21
  14   0   6    2.46    0.97
 -21   1   6   53.17    2.76
 -19   1   6   12.44    1.54
 -17   1   6    0.28    0.60
 -15   1   6    4.85    0.97
 -13   1   6   63.18    2.53
 -11   1   6   14.83    1.15
  -9   1   6   64.22    2.12
  -7   1   6  104.84    2.40
  -5   1   6  137.70    3.72
  -3   1   6    8.22    0.89
  -1   1   6   11.03    1.04
   1   1   6  144.60    3.94
   3   1   6    5.74    0.86
   5   1   6   52.79    2.21
   7   1   6    0.85    0.57
   9   1   6  159.49    4.79
  11   1   6   20.27    2.55
  13   1   6   52.58    3.78
  15   1   6   12.21    2.30
 -20   2   6  113.94    6.07
 -18   2   6   33.09    3.42
 -16   2   6   52.11    3.42
 -14   2   6   12.71    1.29
 -12   2   6   79.32    2.71
 -10   2   6    7.27    0.88
  -8   2   6   34.52    1.54
  -6   2   6   45.67    1.51
  -4   2   6  226.51    4.41
  -2   2   6   23.37    1.07
   0   2   6    3.26    0.69
   2   2   6   53.40    2.20
   4   2   6   16.86    1.43
   6   2   6    0.41    0.55
   8   2   6   25.51    1.91
  10   2   6   37.93    2.18
  12   2   6   26.67    3.06
 -19   3   6    6.55    1.20
 -17   3   6   -0.56    0.65
 -15   3   6    4.62    0.93
 -13   3   6   44.11    2.13
 -11   3   6   11.02    1.18
  -9   3   6   47.80    2.01
  -7   3   6   73.24    2.51
  -5   3   6   93.30    2.50
  -3   3   6    6.10    0.71
  -1   3   6    6.99    0.74
   1   3   6  102.76    2.61
   3   3   6    6.74    0.98
   5   3   6   38.51    1.99
   7   3   6    0.98    0.67
   9   3   6  114.31    5.76
  11   3   6   10.36    2.09
 -16   4   6   38.09    3.77
 -14   4   6    6.43    1.16
 -12   4   6   50.17    2.41
 -10   4   6    5.67    0.97
  -8   4   6   22.08    1.70
  -6   4   6   21.55    1.69
  -4   4   6  136.16    3.37
  -2   4   6   15.28    1.16
   0   4   6    3.95    0.71
   2   4   6   33.14    1.55
   4   4   6    9.13    1.23
   6   4   6   -0.11    0.94
   8   4   6   14.01    2.26
  -9   5   6   29.29    2.21
  -7   5   6   40.68    2.24
  -5   5   6   49.51    2.04
  -3   5   6    4.94    1.02
  -1   5   6    4.08    1.01
   1   5   6   56.03    2.67
   3   5   6    1.66    1.19
 -14  -4   7   28.44    3.82
 -12  -4   7    8.63    2.33
 -10  -4   7   81.50    5.87
  -8  -4   7   17.82    3.30
  -6  -4   7    9.58    2.62
  -4  -4   7    9.48    2.70
  -2  -4   7   29.55    4.38
   0  -4   7   37.52    4.73
   2  -4   7   25.50    3.91
 -17  -3   7   66.78    4.66
 -15  -3   7   22.07    3.13
 -13  -3   7   83.97    5.37
 -11  -3   7    1.54    1.29
  -9  -3   7    0.00    1.08
  -7  -3   7    6.75    2.12
  -5  -3   7    0.22    1.30
  -3  -3   7    1.27    1.63
  -1  -3   7   61.27    5.39
   1  -3   7    4.69    1.32
   3  -3   7   57.14    3.18
   5  -3   7    3.25    1.60
   7  -3   7   39.29    4.22
   9  -3   7    2.17    1.53
 -20  -2   7    3.23    1.27
 -16  -2   7    5.95    1.78
 -14  -2   7   47.02    3.66
 -12  -2   7   17.62    2.66
 -10  -2   7  131.86    6.84
  -8  -2   7   29.25    3.56
  -6  -2   7   17.72    3.00
  -4  -2   7   22.01    2.07
  -2  -2   7   48.68    2.93
   0  -2   7   57.39    3.27
   2  -2   7   49.30    2.97
   4  -2   7  100.93    4.13
   6  -2   7    3.10    1.40
   8  -2   7    1.72    1.21
  10  -2   7    0.89    1.22
 -21  -1   7    3.27    1.41
 -19  -1   7    0.13    0.85
 -15  -1   7   28.78    3.11
 -13  -1   7  110.07    5.70
  -9  -1   7   -0.26    0.64
  -7  -1   7    8.14    1.46
  -5  -1   7    0.07    0.67
  -3  -1   7   -0.06    0.65
  -1  -1   7   80.54    4.32
   1  -1   7    6.29    1.45
   3  -1   7   68.77    4.07
   5  -1   7    6.21    1.58
   7  -1   7   56.43    4.02
   9  -1   7    0.95    1.03
  11  -1   7   16.93    2.72
 -22   0   7    1.84    1.47
 -20   0   7    4.15    1.55
 -14   0   7   59.46    2.29
 -12   0   7   20.43    1.47
 -10   0   7  163.46    4.41
  -8   0   7   36.37    1.63
  -6   0   7   17.17    1.26
  -4   0   7   26.57    1.41
  -2   0   7   59.96    2.18
   0   0   7   69.40    2.46
   2   0   7   57.93    2.33
   4   0   7  114.92    3.63
   6   0   7    2.76    0.77
   8   0   7   -0.07    0.59
  10   0   7    2.46    0.90
  12   0   7   16.61    1.77
 -21   1   7    6.01    1.68
 -19   1   7   -0.08    0.97
 -17   1   7   96.90    4.87
 -15   1   7   27.10    1.82
 -13   1   7  105.00    3.26
 -11   1   7    2.93    0.94
  -9   1   7    0.25    0.46
  -7   1   7    8.60    0.99
  -5   1   7   -0.22    0.38
  -3   1   7    1.29    0.52
  -1   1   7   91.33    2.96
   1   1   7    6.80    0.94
   3   1   7   69.94    2.69
   5   1   7    5.74    0.97
   7   1   7   58.41    2.63
   9   1   7    4.01    0.97
  11   1   7   16.74    1.79
 -20   2   7    2.28    0.91
 -18   2   7   30.38    2.18
 -16   2   7    4.40    0.92
 -14   2   7   50.90    2.25
 -12   2   7   17.11    1.40
 -10   2   7  135.95    5.46
  -8   2   7   28.65    1.67
  -6   2   7   13.55    1.30
  -4   2   7   24.45    1.70
  -2   2   7   50.41    2.18
   0   2   7   59.90    2.45
   2   2   7   52.36    2.28
   4   2   7   91.54    3.35
   6   2   7    1.77    0.74
   8   2   7    0.15    0.72
  10   2   7    1.55    0.89
 -17   3   7   66.42    3.01
 -15   3   7   23.77    1.93
 -13   3   7   81.36    3.07
 -11   3   7    1.40    0.69
  -9   3   7   -0.39    0.50
  -7   3   7    4.77    0.73
  -5   3   7    0.74    0.59
  -3   3   7    0.22    0.53
  -1   3   7   63.19    2.62
   1   3   7    5.96    0.99
   3   3   7   50.31    2.43
   5   3   7    2.33    0.83
   7   3   7   41.83    3.28
 -14   4   7   32.33    3.36
 -12   4   7   11.12    1.39
 -10   4   7   84.11    3.16
  -8   4   7   17.31    1.37
  -6   4   7    9.44    1.01
  -4   4   7   13.22    1.16
  -2   4   7   32.42    2.10
   0   4   7   36.94    2.10
   2   4   7   30.84    3.12
   4   4   7   59.64    4.01
  -5   5   7   -0.21    0.77
  -3   5   7   -1.09    0.99
  -8  -4   8   17.06    3.55
  -6  -4   8   14.08    3.55
  -4  -4   8   12.57    3.67
  -2  -4   8   23.83    4.50
   0  -4   8   11.69    3.45
 -17  -3   8    4.43    1.82
 -15  -3   8    9.29    2.28
 -13  -3   8   -0.76    1.17
 -11  -3   8   28.88    3.93
  -9  -3   8    5.43    2.18
  -7  -3   8   55.30    6.07
  -5  -3   8  101.57    7.62
  -3  -3   8   22.91    4.63
  -1  -3   8   16.33    4.02
   1  -3   8    0.59    1.17
   3  -3   8    6.43    2.00
   5  -3   8   24.78    3.40
 -16  -2   8    8.73    2.13
 -14  -2   8    1.24    1.29
 -12  -2   8   -0.94    0.84
 -10  -2   8   86.72    5.59
  -8  -2   8   22.49    3.42
  -6  -2   8   21.11    3.51
  -4  -2   8   30.47    2.62
  -2  -2   8   47.90    3.02
   0  -2   8   16.92    2.09
   2  -2   8   -0.57    0.91
   4  -2   8    5.62    1.79
   8  -2   8    0.37    1.22
 -15  -1   8   12.94    2.33
 -13  -1   8    0.09    0.94
  -9  -1   8    9.90    1.76
  -7  -1   8   87.42    4.69
  -5  -1   8  138.47    6.35
  -3  -1   8   26.05    2.86
  -1  -1   8   14.00    2.07
   1  -1   8    3.04    1.19
   3  -1   8   15.03    2.29
   5  -1   8   29.41    3.31
   7  -1   8   17.84    2.69
   9  -1   8   -0.27    1.02
 -14   0   8    1.05    0.96
 -12   0   8    0.08    0.72
 -10   0   8  110.95    5.41
  -8   0   8   24.79    2.71
  -6   0   8   25.50    2.69
  -4   0   8   34.10    2.72
  -2   0   8   56.66    3.65
   0   0   8   18.20    2.48
   2   0   8    0.08    0.74
   4   0   8   10.61    1.99
   6   0   8   97.60    5.57
   8   0   8    3.04    1.37
 -19   1   8  104.39    5.17
 -17   1   8    3.03    1.21
 -15   1   8   13.31    1.40
 -13   1   8    0.33    0.54
 -11   1   8   46.24    2.13
  -9   1   8    6.94    0.98
  -7   1   8   87.12    3.04
  -5   1   8  139.26    4.14
  -3   1   8   27.36    1.71
  -1   1   8   15.07    1.41
   1   1   8    2.07    0.71
   3   1   8   11.43    1.34
   5   1   8   35.07    2.17
   7   1   8   22.32    1.98
   9   1   8   -0.09    0.75
 -18   2   8    1.34    1.12
 -16   2   8    8.69    1.68
 -14   2   8   -0.29    0.74
 -12   2   8   -0.05    0.58
 -10   2   8   99.44    3.46
  -8   2   8   22.03    1.78
  -6   2   8   20.33    1.65
  -4   2   8   29.48    2.04
  -2   2   8   45.44    2.23
   0   2   8   16.05    1.54
   2   2   8    0.56    0.62
   4   2   8    8.08    1.20
   6   2   8   85.68    3.50
   8   2   8    1.56    0.92
 -15   3   8   11.98    2.11
 -13   3   8   -0.08    0.90
 -11   3   8   29.46    2.22
  -9   3   8    5.95    1.07
  -7   3   8   70.04    2.96
  -5   3   8  104.02    3.71
  -3   3   8   19.37    1.76
  -1   3   8    9.38    1.27
   1   3   8   -0.11    0.65
   3   3   8   10.25    1.42
   5   3   8   27.79    2.27
 -10   4   8   72.04    4.84
  -8   4   8   14.47    1.65
  -6   4   8   16.49    1.73
  -4   4   8   17.59    1.79
  -2   4   8   27.96    2.22
   0   4   8   12.73    2.31
 -11  -3   9   39.39    4.78
  -9  -3   9    2.98    1.95
  -7  -3   9   13.63    3.40
  -5  -3   9   16.89    4.21
  -3  -3   9   11.53    3.89
  -1  -3   9   15.49    4.15
   1  -3   9   90.63    7.36
 -16  -2   9  143.12    7.74
 -14  -2   9    1.06    1.35
 -12  -2   9   -0.48    1.00
 -10  -2   9    4.93    1.71
  -8  -2   9    1.01    1.39
  -6  -2   9    1.22    1.63
  -4  -2   9   26.90    4.24
  -2  -2   9   49.37    3.23
   0  -2   9   44.05    3.13
   2  -2   9    2.80    1.23
   4  -2   9   20.81    3.07
 -15  -1   9   26.78    3.50
 -13  -1   9   75.95    5.10
  -9  -1   9    4.01    1.46
  -7  -1   9   24.02    2.88
  -5  -1   9   41.56    3.34
  -3  -1   9   14.50    2.27
  -1  -1   9   25.39    2.99
   1  -1   9  114.13    6.25
   3  -1   9    3.17    1.46
   5  -1   9   17.16    2.71
 -12   0   9   -0.83    0.88
 -10   0   9    3.94    1.29
  -8   0   9    4.07    1.43
  -6   0   9    5.65    1.48
  -4   0   9   33.60    3.40
  -2   0   9   65.23    4.30
   0   0   9   50.08    3.68
   2   0   9    0.73    1.05
   4   0   9   28.30    3.32
   6   0   9    5.02    1.71
 -17   1   9    3.15    1.45
 -15   1   9   26.39    3.16
 -13   1   9   71.86    4.62
 -11   1   9   55.99    3.90
  -9   1   9    3.62    1.37
  -7   1   9   21.48    1.73
  -5   1   9   38.40    2.16
  -3   1   9   14.67    1.45
  -1   1   9   18.61    1.70
   1   1   9  129.37    4.28
   3   1   9    5.70    1.13
   5   1   9   11.87    1.50
 -16   2   9  147.57    4.97
 -14   2   9   -0.13    0.66
 -12   2   9   -0.15    0.65
 -10   2   9    2.61    0.86
  -8   2   9    4.28    0.97
  -6   2   9    2.96    0.87
  -4   2   9   27.49    2.10
  -2   2   9   48.72    2.45
   0   2   9   53.75    2.61
   2   2   9    1.28    0.80
   4   2   9   23.35    2.07
 -11   3   9   41.51    2.61
  -9   3   9    3.18    0.99
  -7   3   9   14.52    1.64
  -5   3   9   26.59    2.14
  -3   3   9   12.06    1.51
  -1   3   9   12.31    1.60
   1   3   9   97.39    5.64
  -8  -2  10   77.59    6.02
  -6  -2  10    5.42    2.34
  -4  -2  10    5.71    2.32
  -2  -2  10   -0.05    1.11
 -13  -1  10   48.35    4.22
  -7  -1  10    3.72    1.58
  -5  -1  10   50.77    3.89
  -3  -1  10    2.52    1.42
  -1  -1  10    1.30    1.37
   1  -1  10    2.99    1.67
 -12   0  10    8.54    1.89
 -10   0  10   80.30    4.87
  -8   0  10   93.32    5.39
  -6   0  10    3.16    1.47
  -4   0  10    3.76    1.50
  -2   0  10    2.38    1.36
   0   0  10    6.37    1.84
 -15   1  10    0.63    1.13
 -13   1  10   41.74    3.70
 -11   1  10    0.82    1.09
  -9   1  10   18.76    2.78
  -7   1  10    6.46    1.70
  -5   1  10   50.97    3.91
  -3   1  10    1.15    1.23
  -1   1  10   -1.13    0.95
 -12   2  10    7.52    1.81
 -10   2  10   69.29    4.17
  -8   2  10   82.10    3.45
  -6   2  10    4.03    1.06
  -4   2  10    4.42    1.09
  -2   2  10    0.54    1.20
   0   2  10    8.10    1.85
   0   0   0    0.00    0.00
;
_shelx_hkl_checksum              70377
#END Tags that were not found in dictionaries
loop_
_space_group_symop_operation_xyz
'x, y, z'
'-x, y, -z'
'x+1/2, y+1/2, z'
'-x+1/2, y+1/2, -z'
'-x, -y, -z'
'x, -y, z'
'-x+1/2, -y+1/2, -z'
'x+1/2, -y+1/2, z'
loop_
_atom_site_label
_atom_site_type_symbol
_atom_site_fract_x
_atom_site_fract_y
_atom_site_fract_z
_atom_site_U_iso_or_equiv
_atom_site_adp_type
_atom_site_occupancy
_atom_site_site_symmetry_order
_atom_site_calc_flag
_atom_site_refinement_flags_posn
_atom_site_refinement_flags_adp
_atom_site_refinement_flags_occupancy
Sm1 Sm 0.34772(2) 0.0000 0.06255(4) 0.00629(8) Uani 1 2 d S T P
Sm2 Sm 0.58798(2) 0.0000 0.37920(4) 0.00596(8) Uani 1 2 d S T P
Fe Fe 0.21844(6) 0.0000 0.62850(13) 0.00617(16) Uani 1 2 d S T P
In In 0.0000 0.0000 0.0000 0.00754(18) Uani 0.964(3) 4 d S T .
Ge1 Ge 0.06620(4) 0.0000 0.65557(9) 0.00613(13) Uani 1 2 d S T P
Ge2 Ge 0.20748(4) 0.0000 0.27217(10) 0.00672(13) Uani 1 2 d S T P
loop_
_atom_site_aniso_label
_atom_site_aniso_U_11
_atom_site_aniso_U_22
_atom_site_aniso_U_33
_atom_site_aniso_U_23
_atom_site_aniso_U_13
_atom_site_aniso_U_12
Sm1 0.00633(13) 0.00620(14) 0.00600(14) 0.000 0.00130(10) 0.000
Sm2 0.00611(14) 0.00555(14) 0.00668(14) 0.000 0.00260(11) 0.000
Fe 0.0060(4) 0.0052(4) 0.0071(4) 0.000 0.0017(3) 0.000
In 0.0083(3) 0.0079(3) 0.0073(3) 0.000 0.0035(2) 0.000
Ge1 0.0061(3) 0.0058(3) 0.0064(3) 0.000 0.0016(2) 0.000
Ge2 0.0088(3) 0.0046(3) 0.0076(3) 0.000 0.0038(2) 0.000
loop_
_atom_type_symbol
_atom_type_description
_atom_type_scat_dispersion_real
_atom_type_scat_dispersion_imag
_atom_type_scat_source
Fe Fe 0.3463 0.8444 'International Tables Vol C Tables 4.2.6.8 and 6.1.1.4'
Ge Ge 0.1547 1.8001 'International Tables Vol C Tables 4.2.6.8 and 6.1.1.4'
In In -0.7276 1.3100 'International Tables Vol C Tables 4.2.6.8 and 6.1.1.4'
Sm Sm -0.1638 3.4418 'International Tables Vol C Tables 4.2.6.8 and 6.1.1.4'
loop_
_geom_angle_atom_site_label_1
_geom_angle_atom_site_label_2
_geom_angle_atom_site_label_3
_geom_angle
_geom_angle_site_symmetry_1
_geom_angle_site_symmetry_3
Ge1 Sm1 Ge1 91.88(3) 7_556 7_546
Ge1 Sm1 Ge2 85.51(2) 7_556 .
Ge1 Sm1 Ge2 85.51(2) 7_546 .
Ge1 Sm1 Ge2 167.213(19) 7_556 7_545
Ge1 Sm1 Ge2 89.64(2) 7_546 7_545
Ge2 Sm1 Ge2 107.269(18) . 7_545
Ge1 Sm1 Ge2 89.64(2) 7_556 7
Ge1 Sm1 Ge2 167.213(19) 7_546 7
Ge2 Sm1 Ge2 107.269(18) . 7
Ge2 Sm1 Ge2 86.15(3) 7_545 7
Ge1 Sm1 Fe 134.054(13) 7_556 1_554
Ge1 Sm1 Fe 134.054(14) 7_546 1_554
Ge2 Sm1 Fe 97.33(3) . 1_554
Ge2 Sm1 Fe 45.588(14) 7_545 1_554
Ge2 Sm1 Fe 45.588(14) 7 1_554
Ge1 Sm1 In 54.989(17) 7_556 3
Ge1 Sm1 In 110.23(2) 7_546 3
Ge2 Sm1 In 136.688(11) . 3
Ge2 Sm1 In 112.709(18) 7_545 3
Ge2 Sm1 In 60.799(16) 7 3
Fe Sm1 In 98.776(18) 1_554 3
Ge1 Sm1 In 110.23(2) 7_556 3_545
Ge1 Sm1 In 54.989(17) 7_546 3_545
Ge2 Sm1 In 136.688(11) . 3_545
Ge2 Sm1 In 60.799(16) 7_545 3_545
Ge2 Sm1 In 112.709(17) 7 3_545
Fe Sm1 In 98.776(18) 1_554 3_545
In Sm1 In 79.56(2) 3 3_545
Ge1 Sm1 Fe 44.44(2) 7_556 7_556
Ge1 Sm1 Fe 100.29(3) 7_546 7_556
Ge2 Sm1 Fe 43.808(14) . 7_556
Ge2 Sm1 Fe 147.39(2) 7_545 7_556
Ge2 Sm1 Fe 89.65(2) 7 7_556
Fe Sm1 Fe 113.27(2) 1_554 7_556
In Sm1 Fe 92.987(19) 3 7_556
In Sm1 Fe 147.879(18) 3_545 7_556
Ge1 Sm1 Fe 100.29(3) 7_556 7_546
Ge1 Sm1 Fe 44.44(2) 7_546 7_546
Ge2 Sm1 Fe 43.808(15) . 7_546
Ge2 Sm1 Fe 89.65(2) 7_545 7_546
Ge2 Sm1 Fe 147.39(2) 7 7_546
Fe Sm1 Fe 113.27(2) 1_554 7_546
In Sm1 Fe 147.879(18) 3 7_546
In Sm1 Fe 92.987(18) 3_545 7_546
Fe Sm1 Fe 76.80(3) 7_556 7_546
Ge1 Sm1 Sm2 113.754(18) 7_556 5_655
Ge1 Sm1 Sm2 113.754(18) 7_546 5_655
Ge2 Sm1 Sm2 151.067(18) . 5_655
Ge2 Sm1 Sm2 54.360(16) 7_545 5_655
Ge2 Sm1 Sm2 54.360(15) 7 5_655
Fe Sm1 Sm2 53.74(2) 1_554 5_655
In Sm1 Sm2 58.860(8) 3 5_655
In Sm1 Sm2 58.860(8) 3_545 5_655
Fe Sm1 Sm2 141.209(13) 7_556 5_655
Fe Sm1 Sm2 141.209(13) 7_546 5_655
Ge1 Sm1 Sm1 140.675(19) 7_556 7_545
Ge1 Sm1 Sm1 85.976(19) 7_546 7_545
Ge2 Sm1 Sm1 55.168(17) . 7_545
Ge2 Sm1 Sm1 52.101(14) 7_545 7_545
Ge2 Sm1 Sm1 100.814(19) 7 7_545
Fe Sm1 Sm1 60.253(16) 1_554 7_545
In Sm1 Sm1 158.928(15) 3 7_545
In Sm1 Sm1 100.48(2) 3_545 7_545
Fe Sm1 Sm1 97.34(2) 7_556 7_545
Fe Sm1 Sm1 53.020(18) 7_546 7_545
Sm2 Sm1 Sm1 102.846(15) 5_655 7_545
Ge1 Sm2 Ge1 91.16(3) 3 3_545
Ge1 Sm2 Fe 108.536(18) 3 5_656
Ge1 Sm2 Fe 108.536(18) 3_545 5_656
Ge1 Sm2 Ge2 82.17(2) 3 3
Ge1 Sm2 Ge2 148.45(2) 3_545 3
Fe Sm2 Ge2 46.668(14) 5_656 3
Ge1 Sm2 Ge2 148.45(2) 3 3_545
Ge1 Sm2 Ge2 82.17(2) 3_545 3_545
Fe Sm2 Ge2 46.668(14) 5_656 3_545
Ge2 Sm2 Ge2 87.57(2) 3 3_545
Ge1 Sm2 Fe 47.37(2) 3 3
Ge1 Sm2 Fe 107.29(3) 3_545 3
Fe Sm2 Fe 61.21(2) 5_656 3
Ge2 Sm2 Fe 47.23(2) 3 3
Ge2 Sm2 Fe 105.37(3) 3_545 3
Ge1 Sm2 Fe 107.29(3) 3 3_545
Ge1 Sm2 Fe 47.37(2) 3_545 3_545
Fe Sm2 Fe 61.21(2) 5_656 3_545
Ge2 Sm2 Fe 105.37(3) 3 3_545
Ge2 Sm2 Fe 47.23(2) 3_545 3_545
Fe Sm2 Fe 86.03(3) 3 3_545
Ge1 Sm2 Ge1 107.328(17) 3 7_546
Ge1 Sm2 Ge1 48.81(2) 3_545 7_546
Fe Sm2 Ge1 137.532(13) 5_656 7_546
Ge2 Sm2 Ge1 161.81(2) 3 7_546
Ge2 Sm2 Ge1 91.34(2) 3_545 7_546
Fe Sm2 Ge1 149.29(2) 3 7_546
Fe Sm2 Ge1 86.91(2) 3_545 7_546
Ge1 Sm2 Ge1 48.81(2) 3 7_556
Ge1 Sm2 Ge1 107.328(17) 3_545 7_556
Fe Sm2 Ge1 137.532(13) 5_656 7_556
Ge2 Sm2 Ge1 91.34(2) 3 7_556
Ge2 Sm2 Ge1 161.81(2) 3_545 7_556
Fe Sm2 Ge1 86.91(2) 3 7_556
Fe Sm2 Ge1 149.29(2) 3_545 7_556
Ge1 Sm2 Ge1 84.07(3) 7_546 7_556
Ge1 Sm2 In 150.620(18) 3 3_545
Ge1 Sm2 In 88.55(2) 3_545 3_545
Fe Sm2 In 99.352(16) 5_656 3_545
Ge2 Sm2 In 112.03(2) 3 3_545
Ge2 Sm2 In 60.424(18) 3_545 3_545
Fe Sm2 In 157.719(18) 3 3_545
Fe Sm2 In 93.95(2) 3_545 3_545
Ge1 Sm2 In 52.682(14) 7_546 3_545
Ge1 Sm2 In 103.554(18) 7_556 3_545
Ge1 Sm2 In 88.55(2) 3 3
Ge1 Sm2 In 150.620(18) 3_545 3
Fe Sm2 In 99.352(16) 5_656 3
Ge2 Sm2 In 60.424(18) 3 3
Ge2 Sm2 In 112.03(2) 3_545 3
Fe Sm2 In 93.95(2) 3 3
Fe Sm2 In 157.719(18) 3_545 3
Ge1 Sm2 In 103.554(18) 7_546 3
Ge1 Sm2 In 52.682(14) 7_556 3
In Sm2 In 77.76(2) 3_545 3
Ge1 Sm2 Ge2 77.854(19) 3 5_656
Ge1 Sm2 Ge2 77.854(19) 3_545 5_656
Fe Sm2 Ge2 44.51(2) 5_656 5_656
Ge2 Sm2 Ge2 70.60(2) 3 5_656
Ge2 Sm2 Ge2 70.60(2) 3_545 5_656
Fe Sm2 Ge2 43.189(14) 3 5_656
Fe Sm2 Ge2 43.189(14) 3_545 5_656
Ge1 Sm2 Ge2 125.937(17) 7_546 5_656
Ge1 Sm2 Ge2 125.937(17) 7_556 5_656
In Sm2 Ge2 130.508(11) 3_545 5_656
In Sm2 Ge2 130.508(11) 3 5_656
Ge2 Fe Ge2 122.38(5) 7_556 7_546
Ge2 Fe Ge1 111.86(2) 7_556 .
Ge2 Fe Ge1 111.86(2) 7_546 .
Ge2 Fe Ge2 100.36(3) 7_556 .
Ge2 Fe Ge2 100.36(3) 7_546 .
Ge1 Fe Ge2 107.50(4) . .
Ge2 Fe Sm2 67.09(2) 7_556 5_656
Ge2 Fe Sm2 67.09(2) 7_546 5_656
Ge1 Fe Sm2 176.69(4) . 5_656
Ge2 Fe Sm2 75.81(3) . 5_656
Ge2 Fe Sm2 160.30(3) 7_556 3_445
Ge2 Fe Sm2 75.28(2) 7_546 3_445
Ge1 Fe Sm2 63.32(2) . 3_445
Ge2 Fe Sm2 65.46(2) . 3_445
Sm2 Fe Sm2 118.79(2) 5_656 3_445
Ge2 Fe Sm2 75.28(2) 7_556 3_455
Ge2 Fe Sm2 160.30(3) 7_546 3_455
Ge1 Fe Sm2 63.32(2) . 3_455
Ge2 Fe Sm2 65.46(2) . 3_455
Sm2 Fe Sm2 118.79(2) 5_656 3_455
Sm2 Fe Sm2 86.03(3) 3_445 3_455
Ge2 Fe Sm1 66.41(2) 7_556 1_556
Ge2 Fe Sm1 66.41(2) 7_546 1_556
Ge1 Fe Sm1 106.71(3) . 1_556
Ge2 Fe Sm1 145.79(4) . 1_556
Sm2 Fe Sm1 69.98(2) 5_656 1_556
Sm2 Fe Sm1 132.984(17) 3_445 1_556
Sm2 Fe Sm1 132.984(17) 3_455 1_556
Ge2 Fe Sm1 58.63(2) 7_556 7_556
Ge2 Fe Sm1 124.61(3) 7_546 7_556
Ge1 Fe Sm1 57.683(18) . 7_556
Ge2 Fe Sm1 135.01(2) . 7_556
Sm2 Fe Sm1 120.04(2) 5_656 7_556
Sm2 Fe Sm1 120.96(3) 3_445 7_556
Sm2 Fe Sm1 70.54(2) 3_455 7_556
Sm1 Fe Sm1 66.72(2) 1_556 7_556
Ge2 Fe Sm1 124.61(3) 7_556 7_546
Ge2 Fe Sm1 58.63(2) 7_546 7_546
Ge1 Fe Sm1 57.683(18) . 7_546
Ge2 Fe Sm1 135.01(2) . 7_546
Sm2 Fe Sm1 120.04(2) 5_656 7_546
Sm2 Fe Sm1 70.54(2) 3_445 7_546
Sm2 Fe Sm1 120.96(3) 3_455 7_546
Sm1 Fe Sm1 66.72(2) 1_556 7_546
Sm1 Fe Sm1 76.80(3) 7_556 7_546
Ge1 In Ge1 180.00(2) 5_556 1_554
Ge1 In Sm1 56.146(11) 5_556 3_445
Ge1 In Sm1 123.854(11) 1_554 3_445
Ge1 In Sm1 123.854(11) 5_556 7
Ge1 In Sm1 56.146(11) 1_554 7
Sm1 In Sm1 180.0 3_445 7
Ge1 In Sm1 123.854(11) 5_556 7_545
Ge1 In Sm1 56.146(11) 1_554 7_545
Sm1 In Sm1 100.45(2) 3_445 7_545
Sm1 In Sm1 79.55(2) 7 7_545
Ge1 In Sm1 56.146(11) 5_556 3_455
Ge1 In Sm1 123.854(11) 1_554 3_455
Sm1 In Sm1 79.55(2) 3_445 3_455
Sm1 In Sm1 100.45(2) 7 3_455
Sm1 In Sm1 180.000(10) 7_545 3_455
Ge1 In Sm2 59.931(16) 5_556 3_455
Ge1 In Sm2 120.069(16) 1_554 3_455
Sm1 In Sm2 115.971(14) 3_445 3_455
Sm1 In Sm2 64.029(14) 7 3_455
Sm1 In Sm2 111.427(15) 7_545 3_455
Sm1 In Sm2 68.573(15) 3_455 3_455
Ge1 In Sm2 120.069(16) 5_556 7_545
Ge1 In Sm2 59.931(16) 1_554 7_545
Sm1 In Sm2 64.029(14) 3_445 7_545
Sm1 In Sm2 115.971(14) 7 7_545
Sm1 In Sm2 68.573(15) 7_545 7_545
Sm1 In Sm2 111.427(15) 3_455 7_545
Sm2 In Sm2 180.0 3_455 7_545
Ge1 In Sm2 59.931(16) 5_556 3_445
Ge1 In Sm2 120.069(16) 1_554 3_445
Sm1 In Sm2 68.573(15) 3_445 3_445
Sm1 In Sm2 111.427(15) 7 3_445
Sm1 In Sm2 64.029(14) 7_545 3_445
Sm1 In Sm2 115.971(14) 3_455 3_445
Sm2 In Sm2 77.76(2) 3_455 3_445
Sm2 In Sm2 102.24(2) 7_545 3_445
Ge1 In Sm2 120.069(16) 5_556 7
Ge1 In Sm2 59.931(16) 1_554 7
Sm1 In Sm2 111.427(15) 3_445 7
Sm1 In Sm2 68.573(15) 7 7
Sm1 In Sm2 115.971(14) 7_545 7
Sm1 In Sm2 64.029(14) 3_455 7
Sm2 In Sm2 102.24(2) 3_455 7
Sm2 In Sm2 77.76(2) 7_545 7
Sm2 In Sm2 180.0 3_445 7
Fe Ge1 Ge1 119.91(4) . 5_556
Fe Ge1 In 131.20(3) . 1_556
Ge1 Ge1 In 108.90(4) 5_556 1_556
Fe Ge1 Sm1 77.88(2) . 7_556
Ge1 Ge1 Sm1 132.795(15) 5_556 7_556
In Ge1 Sm1 68.867(19) 1_556 7_556
Fe Ge1 Sm1 77.88(2) . 7_546
Ge1 Ge1 Sm1 132.795(15) 5_556 7_546
In Ge1 Sm1 68.867(19) 1_556 7_546
Sm1 Ge1 Sm1 91.88(3) 7_556 7_546
Fe Ge1 Sm2 69.305(19) . 3_445
Ge1 Ge1 Sm2 69.67(2) 5_556 3_445
In Ge1 Sm2 133.421(14) 1_556 3_445
Sm1 Ge1 Sm2 147.09(3) 7_556 3_445
Sm1 Ge1 Sm2 79.23(2) 7_546 3_445
Fe Ge1 Sm2 69.305(19) . 3_455
Ge1 Ge1 Sm2 69.67(2) 5_556 3_455
In Ge1 Sm2 133.421(14) 1_556 3_455
Sm1 Ge1 Sm2 79.23(2) 7_556 3_455
Sm1 Ge1 Sm2 147.09(3) 7_546 3_455
Sm2 Ge1 Sm2 91.16(3) 3_445 3_455
Fe Ge1 Sm2 137.004(14) . 7_546
Ge1 Ge1 Sm2 61.53(2) 5_556 7_546
In Ge1 Sm2 67.389(15) 1_556 7_546
Sm1 Ge1 Sm2 136.09(2) 7_556 7_546
Sm1 Ge1 Sm2 76.002(18) 7_546 7_546
Sm2 Ge1 Sm2 72.672(17) 3_445 7_546
Sm2 Ge1 Sm2 131.19(2) 3_455 7_546
Fe Ge1 Sm2 137.004(14) . 7_556
Ge1 Ge1 Sm2 61.53(2) 5_556 7_556
In Ge1 Sm2 67.389(15) 1_556 7_556
Sm1 Ge1 Sm2 76.002(18) 7_556 7_556
Sm1 Ge1 Sm2 136.09(2) 7_546 7_556
Sm2 Ge1 Sm2 131.19(2) 3_445 7_556
Sm2 Ge1 Sm2 72.672(17) 3_455 7_556
Sm2 Ge1 Sm2 84.07(3) 7_546 7_556
Fe Ge2 Fe 122.38(5) 7_556 7_546
Fe Ge2 Fe 79.64(3) 7_556 .
Fe Ge2 Fe 79.64(3) 7_546 .
Fe Ge2 Sm1 77.56(3) 7_556 .
Fe Ge2 Sm1 77.56(3) 7_546 .
Fe Ge2 Sm1 131.54(3) . .
Fe Ge2 Sm2 144.07(3) 7_556 3_445
Fe Ge2 Sm2 66.24(3) 7_546 3_445
Fe Ge2 Sm2 67.316(19) . 3_445
Sm1 Ge2 Sm2 135.444(13) . 3_445
Fe Ge2 Sm2 66.24(3) 7_556 3_455
Fe Ge2 Sm2 144.07(3) 7_546 3_455
Fe Ge2 Sm2 67.316(19) . 3_455
Sm1 Ge2 Sm2 135.444(13) . 3_455
Sm2 Ge2 Sm2 87.57(2) 3_445 3_455
Fe Ge2 Sm1 145.31(3) 7_556 7_545
Fe Ge2 Sm1 68.00(2) 7_546 7_545
Fe Ge2 Sm1 134.141(16) . 7_545
Sm1 Ge2 Sm1 72.730(18) . 7_545
Sm2 Ge2 Sm1 70.216(17) 3_445 7_545
Sm2 Ge2 Sm1 127.35(3) 3_455 7_545
Fe Ge2 Sm1 68.00(2) 7_556 7
Fe Ge2 Sm1 145.31(3) 7_546 7
Fe Ge2 Sm1 134.141(16) . 7
Sm1 Ge2 Sm1 72.730(18) . 7
Sm2 Ge2 Sm1 127.35(3) 3_445 7
Sm2 Ge2 Sm1 70.216(17) 3_455 7
Sm1 Ge2 Sm1 86.15(3) 7_545 7
Fe Ge2 Sm2 61.53(2) 7_556 5_656
Fe Ge2 Sm2 61.53(2) 7_546 5_656
Fe Ge2 Sm2 59.68(3) . 5_656
Sm1 Ge2 Sm2 71.85(2) . 5_656
Sm2 Ge2 Sm2 109.40(2) 3_445 5_656
Sm2 Ge2 Sm2 109.40(2) 3_455 5_656
Sm1 Ge2 Sm2 122.803(16) 7_545 5_656
Sm1 Ge2 Sm2 122.803(16) 7 5_656
loop_
_geom_bond_atom_site_label_1
_geom_bond_atom_site_label_2
_geom_bond_distance
_geom_bond_site_symmetry_2
Sm1 Ge1 2.9742(7) 7_556
Sm1 Ge1 2.9742(7) 7_546
Sm1 Ge2 3.0084(9) .
Sm1 Ge2 3.1294(7) 7_545
Sm1 Ge2 3.1294(7) 7
Sm1 Fe 3.1659(11) 1_554
Sm1 In 3.3404(6) 3
Sm1 In 3.3404(6) 3_545
Sm1 Fe 3.4409(9) 7_556
Sm1 Fe 3.4409(9) 7_546
Sm1 Sm2 3.5763(8) 5_655
Sm1 Sm1 3.6406(8) 7_545
Sm2 Ge1 2.9924(7) 3
Sm2 Ge1 2.9924(7) 3_545
Sm2 Fe 3.0692(11) 5_656
Sm2 Ge2 3.0887(7) 3
Sm2 Ge2 3.0887(7) 3_545
Sm2 Fe 3.1329(8) 3
Sm2 Fe 3.1329(8) 3_545
Sm2 Ge1 3.1920(8) 7_546
Sm2 Ge1 3.1920(8) 7_556
Sm2 In 3.4048(6) 3_545
Sm2 In 3.4048(6) 3
Sm2 Ge2 3.4470(9) 5_656
Fe Ge2 2.4392(7) 7_556
Fe Ge2 2.4392(7) 7_546
Fe Ge1 2.4640(12) .
Fe Ge2 2.4924(12) .
Fe Sm2 3.0692(11) 5_656
Fe Sm2 3.1328(8) 3_445
Fe Sm2 3.1328(8) 3_455
Fe Sm1 3.1659(11) 1_556
Fe Sm1 3.4408(9) 7_556
Fe Sm1 3.4408(9) 7_546
In Ge1 2.9333(8) 5_556
In Ge1 2.9333(8) 1_554
In Sm1 3.3405(6) 3_445
In Sm1 3.3405(6) 7
In Sm1 3.3405(6) 7_545
In Sm1 3.3405(6) 3_455
In Sm2 3.4048(6) 3_455
In Sm2 3.4048(6) 7_545
In Sm2 3.4048(6) 3_445
In Sm2 3.4048(6) 7
Ge1 Ge1 2.5615(13) 5_556
Ge1 In 2.9332(8) 1_556
Ge1 Sm1 2.9742(7) 7_556
Ge1 Sm1 2.9742(7) 7_546
Ge1 Sm2 2.9924(7) 3_445
Ge1 Sm2 2.9924(7) 3_455
Ge1 Sm2 3.1919(8) 7_546
Ge1 Sm2 3.1919(8) 7_556
Ge2 Fe 2.4391(7) 7_556
Ge2 Fe 2.4391(7) 7_546
Ge2 Sm2 3.0887(7) 3_445
Ge2 Sm2 3.0887(7) 3_455
Ge2 Sm1 3.1294(7) 7_545
Ge2 Sm1 3.1294(7) 7
Ge2 Sm2 3.4470(9) 5_656
