#------------------------------------------------------------------------------
#$Date: 2016-03-24 00:14:39 +0200 (Thu, 24 Mar 2016) $
#$Revision: 179528 $
#$URL: svn://www.crystallography.net/cod/cif/4/34/25/4342585.cif $
#------------------------------------------------------------------------------
#
# This file is available in the Crystallography Open Database (COD),
# http://www.crystallography.net/
#
# All data on this site have been placed in the public domain by the
# contributors.
#
data_4342585
loop_
_publ_author_name
'Oliynyk, Anton O.'
'Stoyko, Stanislav S.'
'Mar, Arthur'
_publ_section_title
;
 Many Metals Make the Cut: Quaternary Rare-Earth Germanides RE4M2InGe4 (M
 = Fe, Co, Ni, Ru, Rh, Ir) and RE4RhInGe4 Derived from Excision of Slabs
 in RE2InGe2.
;
_journal_issue                   6
_journal_name_full               'Inorganic chemistry'
_journal_page_first              2780
_journal_page_last               2792
_journal_paper_doi               10.1021/ic502955h
_journal_volume                  54
_journal_year                    2015
_chemical_formula_structural     'Gd4 Fe2 In Ge4'
_chemical_formula_sum            'Fe2 Gd4 Ge4 In'
_chemical_formula_weight         1145.88
_chemical_name_common            'gadolinium iron indium germanide (4/2/1/4)'
_chemical_name_systematic        'gadolinium iron indium germanide (4/2/1/4)'
_space_group_crystal_system      monoclinic
_space_group_IT_number           12
_space_group_name_Hall           '-C 2y'
_space_group_name_H-M_alt        'C 1 2/m 1'
_symmetry_space_group_name_Hall  '-C 2y'
_symmetry_space_group_name_H-M   'C 1 2/m 1'
_atom_sites_solution_primary     direct
_atom_sites_solution_secondary   difmap
_audit_creation_method           SHELXL-2013
_cell_angle_alpha                90
_cell_angle_beta                 107.068(3)
_cell_angle_gamma                90
_cell_formula_units_Z            2
_cell_length_a                   15.672(3)
_cell_length_b                   4.2436(8)
_cell_length_c                   7.0643(13)
_cell_measurement_reflns_used    1021
_cell_measurement_temperature    173(2)
_cell_measurement_theta_max      32.64
_cell_measurement_theta_min      4.99
_cell_volume                     449.12(15)
_computing_cell_refinement       'Bruker SAINT 8.27B (Bruker, 2011)'
_computing_data_collection       'Bruker APEX 2 (Bruker, 2008)'
_computing_data_reduction        'Bruker SAINT 8.27B'
_computing_molecular_graphics    'ATOMS 5.1 (Dowty, 1999)'
_computing_publication_material  'Bruker SHELXTL'
_computing_structure_refinement  'Bruker SHELXTL'
_computing_structure_solution    'Bruker SHELXTL'
_diffrn_ambient_temperature      173(2)
_diffrn_measured_fraction_theta_full 1.000
_diffrn_measured_fraction_theta_max 0.979
_diffrn_measurement_device_type  'Bruker PLATFORM/SMART APEX II CCD'
_diffrn_measurement_method       '\w and \f scans'
_diffrn_radiation_type           MoK\a
_diffrn_radiation_wavelength     0.71073
_diffrn_reflns_av_R_equivalents  0.0532
_diffrn_reflns_av_unetI/netI     0.0470
_diffrn_reflns_Laue_measured_fraction_full 1.000
_diffrn_reflns_Laue_measured_fraction_max 0.979
_diffrn_reflns_limit_h_max       23
_diffrn_reflns_limit_h_min       -23
_diffrn_reflns_limit_k_max       6
_diffrn_reflns_limit_k_min       -6
_diffrn_reflns_limit_l_max       10
_diffrn_reflns_limit_l_min       -10
_diffrn_reflns_number            3133
_diffrn_reflns_point_group_measured_fraction_full 1.000
_diffrn_reflns_point_group_measured_fraction_max 0.979
_diffrn_reflns_theta_full        25.242
_diffrn_reflns_theta_max         33.008
_diffrn_reflns_theta_min         2.719
_diffrn_source                   'fine-focus sealed tube'
_exptl_absorpt_coefficient_mu    47.796
_exptl_absorpt_correction_T_max  0.4688
_exptl_absorpt_correction_T_min  0.1091
_exptl_absorpt_correction_type   numerical
_exptl_absorpt_process_details   'Bruker SHELXTL (Sheldrick, 2013)'
_exptl_crystal_colour            grey
_exptl_crystal_density_diffrn    8.473
_exptl_crystal_density_method    'not measured'
_exptl_crystal_description       irregular
_exptl_crystal_F_000             970
_exptl_crystal_size_max          0.074
_exptl_crystal_size_mid          0.036
_exptl_crystal_size_min          0.024
_refine_diff_density_max         3.253
_refine_diff_density_min         -2.951
_refine_diff_density_rms         0.597
_refine_ls_extinction_coef       0.00040(10)
_refine_ls_extinction_expression Fc^*^=kFc[1+0.001xFc^2^\l^3^/sin(2\q)]^-1/4^
_refine_ls_extinction_method     SHELXL
_refine_ls_goodness_of_fit_ref   1.016
_refine_ls_hydrogen_treatment    undef
_refine_ls_matrix_type           full
_refine_ls_number_parameters     37
_refine_ls_number_reflns         929
_refine_ls_number_restraints     0
_refine_ls_restrained_S_all      1.016
_refine_ls_R_factor_all          0.0473
_refine_ls_R_factor_gt           0.0314
_refine_ls_shift/su_max          0.000
_refine_ls_shift/su_mean         0.000
_refine_ls_structure_factor_coef Fsqd
_refine_ls_weighting_details
'w=1/[\s^2^(Fo^2^)+(0.0324P)^2^] where P=(Fo^2^+2Fc^2^)/3'
_refine_ls_weighting_scheme      calc
_refine_ls_wR_factor_gt          0.0631
_refine_ls_wR_factor_ref         0.0692
_reflns_Friedel_coverage         0.000
_reflns_number_gt                738
_reflns_number_total             929
_reflns_threshold_expression     'I > 2\s(I)'
_cod_data_source_file            ic502955h_si_002.cif
_cod_data_source_block           Gd4Fe2InGe4
_cod_depositor_comments
'Adding full bibliography for 4342570--4342590.cif.'
_cod_original_cell_volume        449.12(14)
_cod_database_code               4342585
#BEGIN Tags that were not found in dictionaries:
_shelx_space_group_comment
;
The symmetry employed for this shelxl refinement is uniquely defined
by the following loop, which should always be used as a source of
symmetry information in preference to the above space-group names.
They are only intended as comments.
;
_shelx_estimated_absorpt_t_min   0.126
_shelx_estimated_absorpt_t_max   0.393
_shelxl_version_number           2013-4
_shelx_res_file
;
TITL Gd4Fe2InGe4 C2/m lsf final refinement
CELL 0.71073  15.67180   4.24360   7.06430  90.0000 107.0680  90.0000
ZERR    2.00   0.00280   0.00080   0.00130   0.0000   0.0025   0.0000
LATT  7
SYMM -X, Y, -Z
SFAC FE GE IN GD
UNIT 4 8 2 8
TEMP -100
SIZE 0.024 0.036 0.074

L.S. 4
ACTA

WGHT    0.032400
EXTI    0.000397
FVAR       0.04444
GD1   4    0.347424    0.000000    0.064115    10.50000    0.00733    0.00747 =
         0.00998    0.00000    0.00354    0.00000
GD2   4    0.587947    0.000000    0.380674    10.50000    0.00711    0.00683 =
         0.01080    0.00000    0.00465    0.00000
FE    1    0.218853    0.000000    0.628735    10.50000    0.00857    0.00665 =
         0.01158    0.00000    0.00448    0.00000
IN    3    0.000000    0.000000    0.000000     0.24578    0.01036    0.00849 =
         0.01140    0.00000    0.00579    0.00000
GE1   2    0.066303    0.000000    0.656000    10.50000    0.00752    0.00676 =
         0.01002    0.00000    0.00377    0.00000
GE2   2    0.205899    0.000000    0.269727    10.50000    0.00932    0.00671 =
         0.01121    0.00000    0.00508    0.00000
HKLF 4

REM  Gd4Fe2InGe4 C2/m lsf final refinement
REM R1 =  0.0314 for     738 Fo > 4sig(Fo)  and  0.0473 for all     929 data
REM     37 parameters refined using      0 restraints

END

WGHT      0.0324      0.0000

REM Highest difference peak  3.253,  deepest hole -2.951,  1-sigma level  0.597
Q1    1   0.3216  0.0000 -0.0354  10.50000  0.05    3.25
Q2    1   0.0913  0.0000  0.7684  10.50000  0.05    2.60
Q3    1   0.5660  0.0000  0.2625  10.50000  0.05    2.54
Q4    1   0.0213  0.0000  0.1081  10.50000  0.05    2.46
Q5    1   0.6188  0.0000  0.5750  10.50000  0.05    2.44
Q6    1   0.3715  0.0000  0.1919  10.50000  0.05    2.26
Q7    1   0.6127  0.0000  0.4986  10.50000  0.05    2.09
Q8    1   0.0436  0.0000  0.0203  10.50000  0.05    2.07
Q9    1   0.0850  0.0000 -0.0166  10.50000  0.05    2.04
Q10   1   0.2816  0.0000  0.7455  10.50000  0.05    2.03
Q11   1   0.1374  0.0000  0.2213  10.50000  0.05    1.99
Q12   1   0.1488  0.0000  0.0383  10.50000  0.05    1.97
Q13   1   0.0297  0.0000  0.2348  10.50000  0.05    1.97
Q14   1   0.1109  0.0000  0.0964  10.50000  0.05    1.96
Q15   1   0.0238  0.0000  0.5406  10.50000  0.05    1.90
Q16   1   0.4879  0.0000  0.0808  10.50000  0.05    1.89
Q17   1   0.3403  0.0000  0.2845  10.50000  0.05    1.88
Q18   1   0.3162  0.0000 -0.1374  10.50000  0.05    1.87
Q19   1   0.1881  0.0000  0.1800  10.50000  0.05    1.85
Q20   1   0.5588  0.0000  0.1582  10.50000  0.05    1.77
;
_shelx_res_checksum              98236
_shelx_hkl_file
;
   6  -2 -10    3.43    1.97
  -1  -1 -10   -0.47    2.01
   1  -1 -10    1.72    1.49
   3  -1 -10    2.13    1.41
   5  -1 -10   40.37    3.03
   7  -1 -10    1.13    1.32
   9  -1 -10   17.06    2.19
  11  -1 -10   -0.98    1.23
  13  -1 -10   29.29    3.57
   0   0 -10    2.86    2.29
   2   0 -10    0.01    1.51
   4   0 -10    4.55    1.88
   6   0 -10    5.54    1.33
   8   0 -10   75.05    3.22
  10   0 -10   55.03    2.85
  12   0 -10    3.66    1.31
  14   0 -10    1.50    1.71
   1   1 -10    2.21    2.39
   3   1 -10    0.30    1.41
   5   1 -10   35.61    3.17
   7   1 -10    0.87    1.50
   9   1 -10   14.00    2.34
  11   1 -10    0.94    1.47
  13   1 -10   28.46    4.80
   6   2 -10    7.72    2.47
   8   2 -10   62.25    4.80
   3  -3  -9   10.03    2.44
   5  -3  -9    7.48    2.38
   7  -3  -9    3.41    1.63
   9  -3  -9    3.56    1.64
  11  -3  -9   30.27    4.81
  -4  -2  -9   18.28    3.49
  -2  -2  -9   -0.73    1.97
   0  -2  -9   34.10    4.11
   2  -2  -9   37.92    2.97
   4  -2  -9   11.98    1.94
   6  -2  -9    0.72    1.26
   8  -2  -9    3.87    1.46
  10  -2  -9    2.33    1.27
  12  -2  -9    0.43    1.19
  14  -2  -9    1.01    1.26
  16  -2  -9   93.35    6.97
  -3  -1  -9    5.56    2.18
  -1  -1  -9   87.04    3.89
   1  -1  -9   11.02    1.73
   3  -1  -9    9.09    1.58
   5  -1  -9   20.39    2.13
   7  -1  -9   13.07    1.82
   9  -1  -9    3.44    1.32
  11  -1  -9   45.03    2.87
  13  -1  -9   61.94    3.29
  15  -1  -9   20.09    2.31
  17  -1  -9   -0.29    2.37
  -2   0  -9   -1.04    1.42
   0   0  -9   40.66    3.07
   2   0  -9   41.85    2.38
   4   0  -9   15.41    1.58
   6   0  -9    1.01    0.96
   8   0  -9    4.83    1.11
  10   0  -9    1.78    1.03
  12   0  -9    1.08    0.98
  14   0  -9    0.41    1.03
  16   0  -9  122.67    4.80
  18   0  -9   -0.33    2.16
  -1   1  -9   90.11    6.12
   1   1  -9   13.48    2.01
   3   1  -9    6.39    1.71
   5   1  -9   19.35    2.29
   7   1  -9    7.98    1.80
   9   1  -9    5.32    1.09
  11   1  -9   43.36    2.45
  13   1  -9   55.80    2.78
  15   1  -9   21.69    1.95
  17   1  -9    1.29    1.25
  -2   2  -9    1.27    2.51
   0   2  -9   29.14    4.91
   2   2  -9   41.61    5.47
   4   2  -9   14.72    2.18
   6   2  -9    0.25    1.45
   8   2  -9    4.46    1.72
  10   2  -9    3.78    1.68
  12   2  -9    0.51    1.49
  14   2  -9    1.16    1.45
  16   2  -9   93.42    7.39
  -1   3  -9   79.80    7.21
   1   3  -9   12.71    3.94
   3   3  -9    6.10    3.62
   5   3  -9   11.68    3.82
   7   3  -9    9.81    2.17
   9   3  -9    3.24    1.80
  11   3  -9   34.77    3.25
   2  -4  -8   21.56    3.52
   4  -4  -8   13.56    2.86
   6  -4  -8   11.39    2.58
   8  -4  -8    9.96    2.58
  10  -4  -8   47.46    4.83
  -5  -3  -8   11.53    4.80
  -3  -3  -8   -0.01    1.74
  -1  -3  -8   -0.70    1.42
   1  -3  -8    6.84    2.06
   3  -3  -8   14.32    2.60
   5  -3  -8   67.52    4.94
   7  -3  -8   47.34    3.36
   9  -3  -8    2.34    1.38
  11  -3  -8   24.26    2.56
  13  -3  -8    1.32    1.35
  15  -3  -8    1.53    1.78
  -8  -2  -8   -1.68    2.31
  -6  -2  -8   47.77    5.42
  -4  -2  -8    2.92    1.84
  -2  -2  -8   -0.08    1.57
   0  -2  -8   11.89    2.38
   2  -2  -8   36.40    2.74
   4  -2  -8   23.45    2.23
   6  -2  -8   19.12    2.02
   8  -2  -8   13.71    1.83
  10  -2  -8   60.41    3.21
  12  -2  -8    0.33    1.02
  14  -2  -8    0.79    1.32
  16  -2  -8    7.47    1.80
  -9  -1  -8    4.13    2.62
  -7  -1  -8   10.47    2.78
  -5  -1  -8   19.74    2.24
  -3  -1  -8    5.04    2.04
  -1  -1  -8    0.55    1.12
   1  -1  -8    4.54    1.24
   3  -1  -8   21.31    2.03
   5  -1  -8  108.75    4.05
   7  -1  -8   66.33    3.09
   9  -1  -8    4.98    1.23
  11  -1  -8   32.74    2.50
  13  -1  -8    0.19    0.97
  15  -1  -8    4.63    1.36
  17  -1  -8    3.04    1.45
  19  -1  -8   78.00    5.15
 -10   0  -8   77.33    5.95
  -8   0  -8    0.71    2.13
  -6   0  -8   63.86    5.06
  -2   0  -8    0.41    0.91
   0   0  -8   14.65    1.45
   2   0  -8   44.99    2.32
   4   0  -8   24.18    1.76
   6   0  -8   15.64    1.46
   8   0  -8   17.79    1.55
  10   0  -8   72.86    2.79
  12   0  -8    0.06    0.88
  14   0  -8   -1.03    0.88
  16   0  -8   10.32    1.65
  18   0  -8    0.57    1.18
  20   0  -8   -2.06    2.27
  -9   1  -8    0.27    1.83
  -7   1  -8   12.06    2.56
  -5   1  -8   18.84    3.00
  -3   1  -8    8.88    1.68
  -1   1  -8    0.63    1.24
   1   1  -8    9.58    1.69
   3   1  -8   25.12    2.43
   5   1  -8  108.46    3.31
   7   1  -8   67.29    2.57
   9   1  -8    4.70    1.04
  11   1  -8   35.69    2.18
  13   1  -8   -0.30    0.89
  15   1  -8    5.52    1.24
  17   1  -8    2.83    1.34
  19   1  -8   70.79    3.73
  -8   2  -8    0.53    1.76
  -6   2  -8   47.39    4.59
  -4   2  -8    5.87    2.32
  -2   2  -8    1.10    1.36
   0   2  -8    9.83    3.07
   2   2  -8   43.53    2.91
   4   2  -8   25.97    2.60
   6   2  -8   18.62    2.26
   8   2  -8   14.44    2.00
  10   2  -8   59.51    3.69
  12   2  -8    1.87    1.43
  14   2  -8    1.52    1.53
  16   2  -8    7.98    1.49
  18   2  -8    3.66    1.57
  -3   3  -8    7.91    1.96
  -1   3  -8   -0.09    2.77
   1   3  -8    6.14    3.72
   3   3  -8   13.06    4.41
   5   3  -8   80.67    4.26
   7   3  -8   46.66    3.68
   9   3  -8    2.94    1.64
  11   3  -8   23.38    2.95
  13   3  -8    0.72    1.65
  15   3  -8    3.81    1.89
   2   4  -8   18.34    5.45
   4   4  -8   11.60    4.89
   6   4  -8    8.01    4.68
   8   4  -8   15.52    2.68
  10   4  -8   46.84    4.85
  -4  -4  -7   39.35    3.33
  -2  -4  -7   29.08    2.83
   0  -4  -7   21.65    2.36
   2  -4  -7   18.65    3.13
   4  -4  -7    6.71    2.28
   6  -4  -7    4.48    1.98
   8  -4  -7   16.92    2.85
  10  -4  -7   69.46    4.80
  12  -4  -7    7.50    2.36
  14  -4  -7   25.13    3.45
  -7  -3  -7   37.77    6.45
  -5  -3  -7    0.65    1.42
  -3  -3  -7   34.75    3.00
  -1  -3  -7    3.10    1.39
   1  -3  -7   41.50    3.95
   3  -3  -7   -0.91    1.13
   5  -3  -7   -1.03    1.22
   7  -3  -7    2.72    1.33
   9  -3  -7    0.89    1.16
  11  -3  -7   -0.26    1.11
  13  -3  -7   62.85    3.65
  15  -3  -7   12.69    2.54
  17  -3  -7   53.77    5.00
 -10  -2  -7    1.71    2.79
  -8  -2  -7   -3.15    2.27
  -6  -2  -7    4.07    3.18
  -4  -2  -7   66.17    3.87
  -2  -2  -7   37.89    2.98
   0  -2  -7   46.98    2.30
   2  -2  -7   28.40    2.32
   4  -2  -7   13.29    1.69
   6  -2  -7    5.11    1.21
   8  -2  -7   27.32    2.25
  10  -2  -7  108.52    4.13
  12  -2  -7   13.47    1.77
  14  -2  -7   36.10    2.87
  16  -2  -7    4.71    1.76
  18  -2  -7   16.68    2.89
 -11  -1  -7    9.73    3.05
  -9  -1  -7    1.92    2.07
  -7  -1  -7   43.12    4.51
  -5  -1  -7    2.81    1.28
  -3  -1  -7   50.27    2.27
  -1  -1  -7    5.71    1.08
   1  -1  -7   52.42    2.66
   3  -1  -7    0.66    0.89
   5  -1  -7    0.52    0.84
   7  -1  -7    4.58    1.12
   9  -1  -7    1.61    0.95
  11  -1  -7    3.35    1.09
  13  -1  -7   77.28    3.41
  15  -1  -7   18.79    2.01
  17  -1  -7   67.71    3.41
  19  -1  -7   -0.48    1.36
 -12   0  -7    7.58    2.78
 -10   0  -7    3.96    2.29
  -8   0  -7   -0.15    1.73
  -6   0  -7    2.95    1.13
  -4   0  -7   85.55    2.21
  -2   0  -7   54.69    1.73
   0   0  -7   55.02    2.22
   2   0  -7   41.36    2.04
   4   0  -7   16.06    1.40
   6   0  -7    7.21    1.05
   8   0  -7   31.90    1.85
  10   0  -7  117.71    3.52
  12   0  -7   16.43    1.50
  14   0  -7   43.90    2.33
  16   0  -7    6.15    1.34
  18   0  -7   22.33    2.33
  20   0  -7    1.58    1.74
 -11   1  -7   12.45    2.76
  -9   1  -7    0.91    1.64
  -7   1  -7   47.31    3.80
  -5   1  -7    3.39    1.62
  -3   1  -7   53.96    2.92
  -1   1  -7    5.38    1.09
   1   1  -7   58.47    2.25
   3   1  -7   -0.02    0.71
   5   1  -7    0.54    0.68
   7   1  -7    5.52    0.97
   9   1  -7    0.97    0.79
  11   1  -7    1.32    0.85
  13   1  -7   79.87    2.92
  15   1  -7   19.89    1.81
  17   1  -7   73.23    3.55
  19   1  -7    0.55    1.23
  21   1  -7    1.31    1.48
 -10   2  -7    0.22    1.92
  -8   2  -7   -0.91    1.45
  -6   2  -7   -2.13    1.44
  -4   2  -7   64.95    3.50
  -2   2  -7   36.19    2.96
   0   2  -7   42.57    2.77
   2   2  -7   33.42    2.68
   4   2  -7   14.36    1.95
   6   2  -7    3.89    1.45
   8   2  -7   24.97    2.51
  10   2  -7  104.50    3.36
  12   2  -7   13.92    1.50
  14   2  -7   40.17    2.47
  16   2  -7    1.80    1.35
  18   2  -7   19.97    2.19
  20   2  -7    1.93    1.37
  -7   3  -7   34.55    4.09
  -5   3  -7    4.03    1.91
  -3   3  -7   37.53    3.44
  -1   3  -7    3.72    1.52
   1   3  -7   31.06    5.92
   3   3  -7    0.49    1.39
   5   3  -7   -1.15    1.31
   7   3  -7    4.06    1.63
   9   3  -7    1.25    1.40
  11   3  -7    3.27    1.60
  13   3  -7   62.77    4.03
  15   3  -7   14.70    2.45
  17   3  -7   52.85    5.14
  -4   4  -7   39.50    3.88
  -2   4  -7   23.67    5.39
   0   4  -7   19.65    5.07
   2   4  -7   13.79    4.72
   4   4  -7    9.00    4.09
   6   4  -7    4.72    1.75
   8   4  -7   12.91    2.31
  10   4  -7   62.08    4.20
  12   4  -7    7.84    2.32
  14   4  -7   17.68    5.85
  -1  -5  -6   36.70    3.17
   1  -5  -6    5.10    1.67
   3  -5  -6    6.54    1.78
   5  -5  -6   33.12    4.15
  -8  -4  -6    6.93    3.68
  -6  -4  -6   -1.56    2.16
  -4  -4  -6    3.50    1.52
  -2  -4  -6   20.97    2.36
   0  -4  -6    5.34    1.47
   2  -4  -6   13.94    1.85
   4  -4  -6  104.55    4.11
   6  -4  -6   14.11    2.59
   8  -4  -6   17.31    2.79
  10  -4  -6    0.94    1.65
  12  -4  -6   33.68    3.65
  14  -4  -6    9.71    2.34
 -11  -3  -6    9.27    4.65
  -9  -3  -6   81.41    8.78
  -7  -3  -6   -0.29    2.75
  -5  -3  -6   20.48    2.43
  -3  -3  -6    4.43    1.40
  -1  -3  -6   75.04    3.46
   1  -3  -6    6.56    1.32
   3  -3  -6    7.38    1.23
   5  -3  -6   67.66    4.19
   7  -3  -6   59.87    3.19
   9  -3  -6   30.90    2.59
  11  -3  -6    4.36    1.40
  13  -3  -6   43.57    3.94
  15  -3  -6    7.26    2.02
  17  -3  -6   -1.08    1.42
  19  -3  -6    4.88    2.42
 -12  -2  -6   11.39    3.30
 -10  -2  -6   21.02    4.32
  -8  -2  -6   11.14    4.23
  -6  -2  -6   -1.57    1.14
  -4  -2  -6    9.27    1.73
  -2  -2  -6   39.96    2.73
   0  -2  -6    9.60    1.13
   2  -2  -6   20.73    1.48
   4  -2  -6  175.05    4.24
   6  -2  -6   32.86    2.33
   8  -2  -6   24.93    2.10
  10  -2  -6    5.28    1.27
  12  -2  -6   47.11    2.84
  14  -2  -6    8.06    1.51
  16  -2  -6   45.72    4.18
  18  -2  -6   25.40    3.22
  20  -2  -6   96.58    5.83
 -13  -1  -6   34.95    4.50
 -11  -1  -6    6.84    2.39
  -9  -1  -6   93.93    6.14
  -7  -1  -6    1.78    1.92
  -5  -1  -6   25.11    2.24
  -3  -1  -6    4.18    1.03
  -1  -1  -6  109.99    3.32
   1  -1  -6   11.83    1.28
   3  -1  -6    9.14    1.27
   5  -1  -6  105.09    3.55
   7  -1  -6   80.80    3.14
   9  -1  -6   48.10    2.42
  11  -1  -6    8.77    1.36
  13  -1  -6   59.42    2.81
  15  -1  -6    7.11    1.32
  17  -1  -6   -0.20    1.22
  19  -1  -6   11.07    2.39
  21  -1  -6   42.67    4.60
 -14   0  -6    3.18    2.40
 -12   0  -6   16.25    3.19
 -10   0  -6   27.30    2.39
  -8   0  -6   19.72    1.98
  -6   0  -6    0.75    1.03
  -4   0  -6   10.98    0.90
  -2   0  -6   44.60    1.48
   0   0  -6    9.67    0.94
   2   0  -6   24.66    1.31
   4   0  -6  210.62    4.84
   6   0  -6   41.96    1.89
   8   0  -6   30.97    1.79
  10   0  -6    5.24    0.94
  12   0  -6   62.23    2.42
  14   0  -6   12.48    1.36
  16   0  -6   59.31    2.99
  18   0  -6   29.24    2.50
  22   0  -6    0.30    1.78
 -13   1  -6   36.72    4.13
 -11   1  -6    7.45    2.24
  -9   1  -6  102.19    5.52
  -7   1  -6   -0.48    1.20
  -5   1  -6   28.58    2.27
  -3   1  -6    5.34    0.97
  -1   1  -6  112.78    2.67
   1   1  -6   12.44    1.13
   3   1  -6    9.57    1.05
   5   1  -6  102.35    2.96
   7   1  -6   81.34    2.65
   9   1  -6   48.48    2.10
  11   1  -6    8.70    1.16
  13   1  -6   58.31    2.44
  15   1  -6    5.07    1.10
  17   1  -6    0.63    1.10
  19   1  -6    7.54    1.64
  21   1  -6   39.43    4.32
 -12   2  -6   10.62    2.58
 -10   2  -6   16.51    2.86
  -8   2  -6   21.86    3.10
  -6   2  -6   -1.46    1.21
  -4   2  -6    7.09    1.59
  -2   2  -6   33.54    2.79
   0   2  -6    6.87    1.50
   2   2  -6   21.37    2.19
   4   2  -6  177.15    5.91
   6   2  -6   35.80    2.85
   8   2  -6   22.45    1.59
  10   2  -6    5.68    1.05
  12   2  -6   50.57    2.31
  14   2  -6    8.75    1.28
  16   2  -6   46.05    2.86
  18   2  -6   21.90    2.33
  20   2  -6   87.84    4.09
 -11   3  -6    9.46    2.79
  -9   3  -6   77.00    5.50
  -7   3  -6    0.26    1.62
  -5   3  -6   21.56    2.63
  -3   3  -6    2.76    1.40
  -1   3  -6   70.70    3.92
   1   3  -6   10.35    1.72
   3   3  -6    8.46    1.66
   5   3  -6   62.63    3.47
   7   3  -6   55.70    3.39
   9   3  -6   38.22    3.13
  11   3  -6    5.20    1.73
  13   3  -6   35.30    3.27
  15   3  -6    4.39    2.00
  17   3  -6    1.88    1.29
  19   3  -6    7.72    1.76
  -6   4  -6   -1.12    1.68
  -4   4  -6    4.68    1.92
  -2   4  -6   20.34    2.67
   0   4  -6    7.63    3.59
   2   4  -6   12.98    4.18
   4   4  -6  100.22    4.55
   6   4  -6   16.96    2.35
   8   4  -6   11.86    2.19
  10   4  -6   -0.42    1.51
  12   4  -6   30.31    3.24
  14   4  -6    6.39    2.25
  -1   5  -6   38.37    6.20
   1   5  -6    1.93    3.59
   3   5  -6    7.48    3.69
   5   5  -6   29.23    5.70
   7   5  -6   31.91    3.29
   9   5  -6   17.87    2.79
  -5  -5  -5   11.18    2.95
  -3  -5  -5    9.91    2.63
  -1  -5  -5   54.21    3.60
   1  -5  -5   35.41    2.98
   3  -5  -5    9.43    1.80
   5  -5  -5   13.77    2.89
   7  -5  -5   42.93    4.47
 -10  -4  -5    1.86    3.13
  -8  -4  -5   15.84    3.48
  -6  -4  -5   76.48    5.59
  -4  -4  -5   -0.50    1.15
  -2  -4  -5   43.35    3.00
   0  -4  -5    6.64    1.43
   2  -4  -5    1.31    1.00
   4  -4  -5    0.60    0.94
   6  -4  -5    6.25    1.31
   8  -4  -5   11.81    1.63
  10  -4  -5   56.71    4.09
  12  -4  -5   20.29    2.88
 -13  -3  -5   13.83    5.13
 -11  -3  -5    3.93    3.70
  -9  -3  -5    2.00    2.84
  -7  -3  -5   29.34    4.26
  -5  -3  -5   31.28    2.50
  -3  -3  -5   10.60    1.63
  -1  -3  -5  111.48    4.15
   1  -3  -5   72.73    3.08
   3  -3  -5   23.19    1.89
   5  -3  -5   29.81    2.03
   7  -3  -5   72.76    2.57
   9  -3  -5    7.02    1.36
  11  -3  -5   65.07    3.22
  13  -3  -5   -1.39    1.11
  15  -3  -5   85.23    5.07
  17  -3  -5    5.13    2.00
  19  -3  -5    4.16    2.06
 -14  -2  -5   26.23    4.36
 -12  -2  -5    8.11    3.36
 -10  -2  -5    9.81    3.91
  -8  -2  -5   25.86    4.73
  -6  -2  -5  135.30    5.11
  -4  -2  -5    0.80    1.05
  -2  -2  -5   80.70    3.31
   0  -2  -5   13.67    1.23
   2  -2  -5    0.52    0.68
   4  -2  -5    3.06    0.74
   6  -2  -5   14.49    1.15
   8  -2  -5   19.31    1.76
  10  -2  -5   95.49    3.72
  12  -2  -5   32.25    2.40
  14  -2  -5   55.75    3.82
  16  -2  -5    4.00    1.50
  18  -2  -5   12.06    2.45
  20  -2  -5   10.34    2.56
  22  -2  -5   19.49    3.61
 -15  -1  -5   23.76    3.91
 -13  -1  -5    7.42    2.50
 -11  -1  -5   -1.72    1.66
  -9  -1  -5   -0.19    1.82
  -7  -1  -5   43.83    4.72
  -5  -1  -5   41.00    1.93
  -3  -1  -5   18.66    1.16
  -1  -1  -5  174.59    3.49
   1  -1  -5  119.74    3.16
   3  -1  -5   31.42    1.48
   5  -1  -5   49.45    1.70
   7  -1  -5  121.16    3.79
   9  -1  -5   13.69    1.47
  11  -1  -5   89.66    3.32
  13  -1  -5    0.34    0.87
  15  -1  -5   98.15    3.94
  17  -1  -5    7.79    1.99
  19  -1  -5    2.96    1.83
  21  -1  -5   13.86    2.98
 -16   0  -5   -0.17    2.12
 -14   0  -5   40.49    3.03
 -12   0  -5   12.22    1.77
 -10   0  -5    9.67    1.53
  -8   0  -5   39.49    2.51
  -6   0  -5  157.31    4.00
  -4   0  -5    0.43    0.55
  -2   0  -5   94.23    2.09
   0   0  -5   16.28    0.92
   2   0  -5    0.53    0.50
   4   0  -5    4.30    0.60
   6   0  -5   18.47    1.29
   8   0  -5   25.95    1.57
  10   0  -5  131.68    3.54
  12   0  -5   41.41    2.07
  14   0  -5   75.61    2.68
  16   0  -5    3.58    1.18
  18   0  -5   20.96    2.15
  20   0  -5    5.46    2.17
  22   0  -5   20.37    3.36
 -15   1  -5   22.29    3.27
 -13   1  -5   14.04    2.67
 -11   1  -5    0.90    1.38
  -9   1  -5    5.79    1.83
  -7   1  -5   37.76    3.55
  -5   1  -5   39.55    2.43
  -3   1  -5   17.52    1.09
  -1   1  -5  174.40    3.50
   1   1  -5  120.36    2.73
   3   1  -5   28.40    1.48
   5   1  -5   47.18    1.89
   7   1  -5  116.54    3.26
   9   1  -5   14.61    1.30
  11   1  -5   94.56    2.94
  13   1  -5   -0.24    0.74
  15   1  -5  113.88    4.00
  17   1  -5    8.78    1.44
  19   1  -5    1.98    1.26
  21   1  -5    7.38    2.33
 -14   2  -5   30.06    3.88
 -12   2  -5    8.73    2.47
 -10   2  -5   12.24    2.51
  -8   2  -5   27.68    3.17
  -6   2  -5  134.98    5.15
  -4   2  -5   -0.62    1.01
  -2   2  -5   83.01    2.64
   0   2  -5   12.46    1.26
   2   2  -5    0.24    1.04
   4   2  -5    1.19    0.62
   6   2  -5   11.13    1.10
   8   2  -5   18.51    1.41
  10   2  -5   99.10    3.15
  12   2  -5   26.63    1.85
  14   2  -5   52.90    2.50
  16   2  -5    3.90    1.26
  18   2  -5   16.40    2.01
  20   2  -5    7.66    1.60
 -13   3  -5    6.58    2.35
 -11   3  -5    1.74    1.78
  -9   3  -5   -0.05    1.80
  -7   3  -5   29.06    2.85
  -5   3  -5   28.77    2.63
  -3   3  -5   10.83    1.73
  -1   3  -5  119.91    4.60
   1   3  -5   69.87    2.56
   3   3  -5   19.49    2.05
   5   3  -5   29.55    2.47
   7   3  -5   78.96    3.75
   9   3  -5    8.83    1.81
  11   3  -5   59.01    3.66
  13   3  -5    1.78    1.00
  15   3  -5   78.64    3.63
  17   3  -5    5.91    1.61
  19   3  -5    1.80    1.48
 -10   4  -5    1.60    2.20
  -8   4  -5   15.14    2.89
  -6   4  -5   74.21    4.16
  -4   4  -5   -0.54    1.30
  -2   4  -5   44.28    3.37
   0   4  -5    7.91    3.02
   2   4  -5    0.30    1.14
   4   4  -5   -0.17    1.25
   6   4  -5    5.17    1.63
   8   4  -5    7.77    1.88
  10   4  -5   66.90    3.92
  12   4  -5   19.12    2.64
  14   4  -5   33.46    4.08
  16   4  -5    0.60    2.06
  -5   5  -5   20.28    2.77
  -3   5  -5    8.94    2.07
  -1   5  -5   71.68    7.56
   1   5  -5   30.57    5.21
   3   5  -5    9.66    3.72
   5   5  -5   13.99    2.35
   7   5  -5   39.68    3.54
   9   5  -5    6.31    2.10
  11   5  -5   32.45    3.54
  -7  -5  -4    4.51    2.32
  -5  -5  -4    7.10    2.37
  -3  -5  -4    2.14    1.96
  -1  -5  -4   -0.70    1.23
   1  -5  -4   61.64    4.69
   3  -5  -4   -0.22    1.81
   5  -5  -4   45.90    4.58
   7  -5  -4   -1.24    1.68
   9  -5  -4   30.67    4.02
  11  -5  -4   16.52    3.16
 -12  -4  -4   40.21    5.80
 -10  -4  -4    3.71    2.58
  -8  -4  -4   42.55    4.53
  -6  -4  -4   24.53    3.33
  -4  -4  -4   12.52    2.59
  -2  -4  -4   15.50    1.84
   0  -4  -4   20.92    1.97
   2  -4  -4   61.73    2.98
   4  -4  -4   23.30    2.05
   6  -4  -4  125.28    4.35
   8  -4  -4    2.50    1.10
  10  -4  -4    7.90    2.23
  12  -4  -4    1.80    1.93
 -15  -3  -4   16.52    5.34
 -13  -3  -4    2.97    3.69
 -11  -3  -4   63.67    6.93
  -9  -3  -4   -0.38    1.88
  -7  -3  -4    1.88    1.87
  -5  -3  -4   19.50    1.99
  -3  -3  -4    0.41    0.98
  -1  -3  -4    1.57    0.93
   1  -3  -4  119.30    3.97
   3  -3  -4    0.48    0.80
   5  -3  -4   78.73    2.98
   7  -3  -4    0.97    0.78
   9  -3  -4   56.77    2.56
  11  -3  -4   39.73    2.25
  13  -3  -4    7.36    1.77
  15  -3  -4   24.68    2.95
  17  -3  -4   72.17    5.14
 -16  -2  -4   27.71    4.30
 -14  -2  -4   11.97    3.37
 -12  -2  -4   63.87    7.49
 -10  -2  -4    7.51    3.33
  -8  -2  -4   70.18    5.83
  -6  -2  -4   48.95    2.75
  -4  -2  -4   32.65    2.27
  -2  -2  -4   33.84    2.15
   0  -2  -4   42.16    2.15
   2  -2  -4  115.04    2.98
   4  -2  -4   39.91    1.69
   6  -2  -4  221.17    4.77
   8  -2  -4    2.40    0.72
  10  -2  -4   16.23    1.23
  12  -2  -4    3.11    1.08
  14  -2  -4   29.26    3.00
  16  -2  -4    9.86    2.21
  18  -2  -4   36.93    3.95
  20  -2  -4    6.36    2.36
  22  -2  -4   30.84    4.38
 -17  -1  -4    1.79    2.18
 -15  -1  -4   26.49    3.65
 -13  -1  -4    4.91    2.20
 -11  -1  -4   91.29    3.66
  -9  -1  -4   -0.19    0.86
  -7  -1  -4    4.43    1.14
  -5  -1  -4   34.85    1.69
  -3  -1  -4    0.56    0.51
  -1  -1  -4   -0.50    0.38
   1  -1  -4  187.62    4.08
   3  -1  -4    1.09    0.49
   5  -1  -4  128.93    2.90
   7  -1  -4    4.15    0.60
   9  -1  -4   83.48    2.23
  11  -1  -4   56.88    2.61
  13  -1  -4    7.34    1.21
  15  -1  -4   39.63    3.27
  17  -1  -4   99.37    5.52
  19  -1  -4   28.34    3.60
  21  -1  -4   81.90    5.56
  23  -1  -4   11.55    3.06
 -18   0  -4   -0.38    1.27
 -16   0  -4   24.34    2.45
 -14   0  -4   11.28    1.73
 -12   0  -4   83.46    5.66
 -10   0  -4    5.03    1.26
  -8   0  -4   82.86    3.26
  -6   0  -4   51.42    2.04
  -4   0  -4   39.37    1.29
  -2   0  -4   43.15    1.31
   0   0  -4   51.00    1.33
   2   0  -4  135.06    2.75
   4   0  -4   54.02    1.82
   6   0  -4  281.67    5.79
   8   0  -4    2.41    0.71
  10   0  -4   22.96    1.47
  12   0  -4    5.15    0.94
  14   0  -4   34.35    2.28
  16   0  -4   15.50    1.74
  18   0  -4   38.40    3.74
  20   0  -4    6.09    2.10
  22   0  -4   33.18    4.23
 -17   1  -4    4.06    2.21
 -15   1  -4   22.86    3.26
 -13   1  -4    1.23    1.53
 -11   1  -4   85.50    4.98
  -9   1  -4    0.45    0.98
  -7   1  -4    4.96    1.06
  -5   1  -4   32.83    1.49
  -3   1  -4    0.24    0.46
  -1   1  -4   -0.04    0.42
   1   1  -4  189.88    3.58
   3   1  -4    0.38    0.45
   5   1  -4  121.14    3.16
   7   1  -4    3.21    0.75
   9   1  -4   84.99    2.63
  11   1  -4   59.97    2.29
  13   1  -4   10.38    1.18
  15   1  -4   43.80    2.58
  17   1  -4  103.52    3.98
  19   1  -4   29.00    2.52
  21   1  -4   61.41    5.12
 -16   2  -4   25.52    3.73
 -14   2  -4    9.34    2.48
 -12   2  -4   78.06    5.08
 -10   2  -4    5.98    1.85
  -8   2  -4   65.56    4.36
  -6   2  -4   46.40    2.82
  -4   2  -4   28.67    2.28
  -2   2  -4   31.79    1.57
   0   2  -4   42.71    1.77
   2   2  -4  110.30    2.74
   4   2  -4   40.78    1.63
   6   2  -4  214.18    4.91
   8   2  -4    2.75    0.80
  10   2  -4   18.51    1.45
  12   2  -4    3.22    0.99
  14   2  -4   26.96    2.19
  16   2  -4   14.40    1.82
  18   2  -4   34.17    2.72
  20   2  -4    2.93    1.42
  22   2  -4   30.13    4.07
 -15   3  -4   27.28    3.86
 -13   3  -4    1.58    1.98
 -11   3  -4   65.03    4.86
  -9   3  -4    0.29    1.54
  -7   3  -4    5.64    1.46
  -5   3  -4   21.01    2.18
  -3   3  -4    0.37    0.96
  -1   3  -4    0.56    0.67
   1   3  -4  120.40    3.36
   3   3  -4    0.67    0.98
   5   3  -4   72.88    3.44
   7   3  -4    0.71    1.17
   9   3  -4   58.99    2.39
  11   3  -4   42.93    2.26
  13   3  -4    4.76    1.20
  15   3  -4   27.56    2.42
  17   3  -4   75.80    3.61
  19   3  -4   11.91    2.00
  21   3  -4   58.92    5.71
 -12   4  -4   44.16    4.81
 -10   4  -4    9.56    2.72
  -8   4  -4   40.60    3.32
  -6   4  -4   26.46    2.64
  -4   4  -4   17.22    2.14
  -2   4  -4   15.11    1.92
   0   4  -4   19.33    2.07
   2   4  -4   60.05    3.13
   4   4  -4   24.20    2.33
   6   4  -4  121.15    4.81
   8   4  -4    1.37    1.38
  10   4  -4    6.06    1.80
  12   4  -4    1.44    1.54
  14   4  -4   16.32    3.14
  16   4  -4    6.04    2.72
  -9   5  -4   -1.55    1.84
  -7   5  -4   -0.02    1.58
  -5   5  -4    8.81    1.96
  -3   5  -4    1.97    1.50
  -1   5  -4    1.90    2.62
   1   5  -4   49.92    5.91
   3   5  -4    0.85    2.37
   5   5  -4   38.74    3.38
   7   5  -4   -0.89    1.55
   9   5  -4   32.21    3.31
  11   5  -4   17.27    2.79
  13   5  -4    6.11    2.57
   0  -6  -3   61.26    5.16
   2  -6  -3    0.03    2.28
   4  -6  -3   23.57    4.04
   6  -6  -3    4.32    2.62
  -9  -5  -3   25.70    3.88
  -7  -5  -3    9.45    2.55
  -5  -5  -3   93.95    6.06
  -3  -5  -3    7.35    2.38
  -1  -5  -3    0.25    1.69
   1  -5  -3    3.15    1.94
   3  -5  -3    4.76    2.01
   5  -5  -3    3.55    2.09
   7  -5  -3    3.85    2.18
   9  -5  -3   92.90    6.00
  11  -5  -3   35.03    4.39
  13  -5  -3    0.32    2.12
 -14  -4  -3    7.37    3.46
 -12  -4  -3    1.30    2.41
 -10  -4  -3   16.73    3.13
  -8  -4  -3    8.08    2.32
  -6  -4  -3    1.27    1.55
  -4  -4  -3   68.21    4.61
  -2  -4  -3   24.67    2.09
   0  -4  -3  130.25    4.52
   2  -4  -3    0.68    0.97
   4  -4  -3   68.12    3.02
   6  -4  -3   18.79    1.80
   8  -4  -3   52.92    4.19
  10  -4  -3   -1.03    1.45
  12  -4  -3   93.28    5.66
  14  -4  -3   46.23    4.46
 -15  -3  -3   23.12    5.60
 -13  -3  -3   -0.99    2.79
 -11  -3  -3   10.45    3.00
  -9  -3  -3   53.04    4.52
  -7  -3  -3   27.98    3.48
  -5  -3  -3  204.80    8.77
  -3  -3  -3   19.55    1.77
  -1  -3  -3    8.66    1.25
   1  -3  -3    1.77    0.85
   3  -3  -3   11.04    1.29
   5  -3  -3    7.18    1.10
   7  -3  -3    6.58    1.07
   9  -3  -3  164.66    4.89
  11  -3  -3   73.15    2.95
  13  -3  -3   -0.23    0.84
  15  -3  -3   24.26    3.05
 -18  -2  -3    6.54    2.89
 -16  -2  -3   -0.11    2.30
 -14  -2  -3   23.28    4.64
 -12  -2  -3    1.10    2.80
 -10  -2  -3   33.14    4.52
  -8  -2  -3   19.81    3.10
  -6  -2  -3   -2.49    1.20
  -4  -2  -3  139.36    4.35
  -2  -2  -3   49.18    2.31
   0  -2  -3  261.80    6.61
   2  -2  -3    1.22    0.60
   4  -2  -3  136.28    3.25
   6  -2  -3   35.27    1.47
   8  -2  -3   83.21    2.43
  10  -2  -3    1.53    0.66
  12  -2  -3  168.10    4.86
  14  -2  -3   91.27    3.44
  16  -2  -3   16.37    2.55
  18  -2  -3   24.60    3.44
  20  -2  -3   27.52    3.77
 -19  -1  -3    3.68    2.61
 -17  -1  -3   32.85    4.32
 -15  -1  -3   31.81    2.63
 -13  -1  -3    1.21    1.09
 -11  -1  -3   15.88    1.83
  -9  -1  -3   72.14    3.26
  -7  -1  -3   59.51    2.72
  -5  -1  -3  308.62    6.30
  -3  -1  -3   31.05    1.24
  -1  -1  -3   16.83    0.76
   1  -1  -3    3.34    0.55
   3  -1  -3   19.55    0.99
   5  -1  -3   13.43    0.81
   7  -1  -3    9.48    0.73
   9  -1  -3  278.78    5.50
  11  -1  -3  110.79    2.84
  13  -1  -3    1.18    0.71
  15  -1  -3   27.35    2.93
  17  -1  -3   27.29    3.24
  19  -1  -3   12.98    2.62
  21  -1  -3    7.43    2.54
  23  -1  -3   -1.21    2.01
 -20   0  -3   34.04    4.43
 -18   0  -3    7.50    1.75
 -16   0  -3    0.21    1.15
 -14   0  -3   20.96    2.21
 -12   0  -3    3.59    1.20
 -10   0  -3   36.25    2.45
  -8   0  -3   22.57    1.91
  -6   0  -3   -0.19    0.58
  -4   0  -3  177.38    3.01
  -2   0  -3   70.42    1.56
   0   0  -3  372.63    5.49
   2   0  -3    1.43    0.44
   4   0  -3  196.24    4.12
   6   0  -3   52.53    1.74
   8   0  -3  121.53    2.95
  10   0  -3    2.77    0.51
  12   0  -3  217.30    4.12
  14   0  -3  112.91    3.75
  16   0  -3   23.30    2.92
  18   0  -3   25.67    3.25
  20   0  -3   26.85    3.72
  22   0  -3    3.99    2.45
 -19   1  -3    2.40    2.29
 -15   1  -3   30.59    3.62
 -13   1  -3    4.02    1.64
 -11   1  -3   13.43    1.95
  -9   1  -3   66.79    3.29
  -7   1  -3   54.90    2.38
  -5   1  -3  315.56    6.48
  -3   1  -3   29.36    1.04
  -1   1  -3   16.79    0.79
   1   1  -3    3.06    0.41
   3   1  -3   18.50    1.00
   5   1  -3   12.87    0.93
   7   1  -3   10.38    0.96
   9   1  -3  280.00    5.88
  11   1  -3  119.87    3.15
  13   1  -3    0.36    0.89
  15   1  -3   27.98    2.18
  17   1  -3   24.87    2.17
  19   1  -3    9.01    2.31
  21   1  -3    6.90    2.46
  23   1  -3   -0.46    2.08
 -18   2  -3    9.73    2.78
 -16   2  -3   -1.80    1.53
 -14   2  -3   22.18    3.02
 -12   2  -3    2.20    1.56
 -10   2  -3   29.11    3.20
  -8   2  -3   18.40    1.84
  -6   2  -3    1.16    0.92
  -4   2  -3  134.78    3.23
  -2   2  -3   50.62    1.75
   0   2  -3  263.33    5.38
   2   2  -3    1.42    0.43
   4   2  -3  142.30    3.29
   6   2  -3   35.17    1.62
   8   2  -3   87.25    2.67
  10   2  -3    2.26    0.90
  12   2  -3  162.69    4.34
  14   2  -3   96.15    3.61
  16   2  -3   10.97    1.60
  18   2  -3   20.43    2.14
  20   2  -3   19.52    3.23
  22   2  -3    3.46    2.29
 -15   3  -3   25.70    3.81
 -13   3  -3   -0.41    1.72
 -11   3  -3   11.24    2.42
  -9   3  -3   51.96    3.08
  -7   3  -3   34.38    2.57
  -5   3  -3  199.68    6.11
  -3   3  -3   17.03    1.78
  -1   3  -3   10.65    1.05
   1   3  -3    2.01    0.77
   3   3  -3    9.48    1.45
   5   3  -3    8.50    0.96
   7   3  -3    6.82    1.01
   9   3  -3  173.30    4.36
  11   3  -3   70.53    2.75
  13   3  -3    2.37    1.13
  15   3  -3   21.61    2.19
  17   3  -3   10.81    1.88
  19   3  -3    5.64    1.68
  21   3  -3    1.06    2.39
 -14   4  -3   13.37    3.09
 -12   4  -3   -1.46    1.84
 -10   4  -3   13.97    2.65
  -8   4  -3    9.70    1.83
  -6   4  -3   -0.46    1.12
  -4   4  -3   75.08    3.47
  -2   4  -3   24.71    2.22
   0   4  -3  133.69    3.72
   2   4  -3    0.34    1.10
   4   4  -3   70.33    3.45
   6   4  -3   14.66    1.98
   8   4  -3   54.81    3.28
  10   4  -3    1.36    1.31
  12   4  -3   92.60    5.84
  14   4  -3   48.79    3.26
  16   4  -3   10.05    1.92
  18   4  -3    7.14    1.84
 -11   5  -3    0.94    2.16
  -9   5  -3   22.30    3.56
  -7   5  -3   16.57    2.30
  -5   5  -3   99.08    4.49
  -3   5  -3    8.73    1.80
  -1   5  -3   -0.43    2.29
   1   5  -3   -1.11    2.05
   3   5  -3    4.45    1.65
   5   5  -3    2.83    1.67
   7   5  -3    1.29    1.54
   9   5  -3   75.91    4.44
  11   5  -3   30.55    3.25
  13   5  -3   -0.26    2.26
   0   6  -3   41.40    6.09
   2   6  -3    4.52    3.26
   4   6  -3   29.06    5.25
   6   6  -3    4.42    2.02
  -4  -6  -2    2.91    2.30
  -2  -6  -2   35.86    4.39
   0  -6  -2    2.86    2.43
   2  -6  -2    8.54    2.92
   4  -6  -2    6.40    2.81
   6  -6  -2   62.18    5.89
 -11  -5  -2   36.20    4.42
  -9  -5  -2   17.34    3.18
  -7  -5  -2    6.11    2.19
  -5  -5  -2   -0.18    1.63
  -3  -5  -2   -1.27    1.47
  -1  -5  -2   66.88    4.97
   1  -5  -2   25.58    3.34
   3  -5  -2  148.37    7.82
   5  -5  -2    2.39    1.98
   7  -5  -2   -1.82    1.78
   9  -5  -2    2.08    2.13
  11  -5  -2    6.21    2.48
  13  -5  -2    0.02    2.04
  15  -5  -2   47.69    5.23
 -14  -4  -2   36.69    5.06
 -12  -4  -2   31.41    4.14
 -10  -4  -2   25.48    3.62
  -8  -4  -2   18.00    2.79
  -6  -4  -2    1.47    1.44
  -4  -4  -2    3.60    1.69
  -2  -4  -2   73.03    3.26
   0  -4  -2    5.41    1.20
   2  -4  -2   17.03    1.66
   4  -4  -2    9.38    2.15
   6  -4  -2  110.16    6.00
   8  -4  -2   18.76    2.76
  10  -4  -2   -0.57    1.39
  12  -4  -2   13.04    2.58
  14  -4  -2   26.20    3.57
  16  -4  -2   28.81    3.84
  18  -4  -2   40.93    4.94
 -17  -3  -2   32.39    6.05
 -15  -3  -2   40.08    6.27
 -13  -3  -2    0.84    2.31
 -11  -3  -2   69.21    5.32
  -9  -3  -2   49.76    4.12
  -7  -3  -2   12.89    2.33
  -5  -3  -2    4.41    1.59
  -3  -3  -2    0.26    0.86
  -1  -3  -2  156.97    4.65
   1  -3  -2   55.02    2.38
   3  -3  -2  317.67    8.11
   5  -3  -2    1.12    0.76
   7  -3  -2    0.35    0.73
   9  -3  -2   -0.59    0.65
  11  -3  -2   10.38    1.30
  13  -3  -2   -1.10    1.32
  15  -3  -2   80.89    5.02
  17  -3  -2   15.49    2.93
 -18  -2  -2   15.39    3.25
 -16  -2  -2   -1.32    2.07
 -14  -2  -2   52.02    6.59
 -12  -2  -2   63.09    3.32
 -10  -2  -2   57.19    2.89
  -8  -2  -2   36.38    2.16
  -6  -2  -2    0.51    0.66
  -4  -2  -2    9.34    1.19
  -2  -2  -2  151.38    4.21
   0  -2  -2   11.28    1.04
   2  -2  -2   29.74    1.51
   4  -2  -2   13.13    1.02
   6  -2  -2  219.97    4.57
   8  -2  -2   33.07    1.45
  10  -2  -2    0.56    0.61
  12  -2  -2   24.48    1.78
  14  -2  -2   46.52    2.49
  16  -2  -2   37.00    2.60
  18  -2  -2   78.34    3.74
 -19  -1  -2    0.56    1.38
 -17  -1  -2   45.74    3.24
 -15  -1  -2   72.63    3.50
 -13  -1  -2    9.45    1.62
 -11  -1  -2  113.09    4.35
  -9  -1  -2   71.34    3.35
  -7  -1  -2   29.34    1.92
  -5  -1  -2    3.56    0.73
  -3  -1  -2   -0.58    0.35
  -1  -1  -2  293.60    5.58
   1  -1  -2  109.84    2.45
   3  -1  -2  578.54   10.47
   5  -1  -2    4.21    0.51
   7  -1  -2   -0.56    0.39
   9  -1  -2    0.24    0.49
  11  -1  -2   13.46    1.05
  13  -1  -2    0.05    0.85
  15  -1  -2  116.74    4.13
  17  -1  -2   26.35    2.29
  19  -1  -2   23.35    3.42
  21  -1  -2    3.98    2.20
  23  -1  -2   17.62    3.44
 -20   0  -2    4.18    1.66
 -18   0  -2   26.60    2.70
 -16   0  -2    1.66    1.24
 -14   0  -2   87.71    3.90
 -12   0  -2   75.42    3.42
 -10   0  -2   70.60    3.17
  -8   0  -2   51.24    2.57
  -6   0  -2    0.35    0.52
  -4   0  -2   12.55    0.95
  -2   0  -2  219.73    3.43
   0   0  -2   17.57    0.69
   2   0  -2   42.68    1.32
   4   0  -2   24.94    1.07
   6   0  -2  372.53    6.00
   8   0  -2   50.27    1.58
  10   0  -2    0.01    0.52
  12   0  -2   29.00    1.85
  14   0  -2   58.34    2.19
  16   0  -2   43.70    2.75
  18   0  -2   84.24    5.30
  20   0  -2   86.88    5.81
  22   0  -2    0.63    2.23
 -19   1  -2    0.21    1.83
 -17   1  -2   46.30    4.63
 -15   1  -2   68.98    4.70
 -13   1  -2    4.90    1.69
 -11   1  -2  108.55    4.26
  -9   1  -2   69.07    3.29
  -7   1  -2   27.97    1.59
  -5   1  -2    4.00    0.49
  -3   1  -2    0.60    0.38
  -1   1  -2  295.30    4.70
   1   1  -2  112.13    2.07
   3   1  -2  593.55   10.62
   5   1  -2    3.69    0.57
   7   1  -2    1.67    0.59
   9   1  -2    0.73    0.64
  11   1  -2   19.00    1.34
  13   1  -2    0.38    0.94
  15   1  -2  109.27    4.01
  17   1  -2   20.58    2.03
  19   1  -2   21.99    3.30
  21   1  -2    0.32    2.00
  23   1  -2   15.80    3.68
 -18   2  -2   19.76    3.38
 -16   2  -2    2.99    1.94
 -14   2  -2   73.16    4.89
 -12   2  -2   60.58    4.22
 -10   2  -2   60.95    4.03
  -8   2  -2   39.31    2.25
  -6   2  -2   -0.11    0.78
  -4   2  -2    8.39    0.69
  -2   2  -2  147.40    3.28
   0   2  -2   13.53    0.93
   2   2  -2   32.43    1.17
   4   2  -2   17.69    1.02
   6   2  -2  222.09    4.78
   8   2  -2   36.94    1.76
  10   2  -2    1.33    0.83
  12   2  -2   22.28    1.91
  14   2  -2   47.74    2.76
  16   2  -2   35.06    2.61
  18   2  -2   75.22    3.69
  20   2  -2   78.24    5.49
  22   2  -2    1.16    2.12
 -17   3  -2   32.02    4.18
 -15   3  -2   57.22    4.60
 -13   3  -2    7.44    2.26
 -11   3  -2   70.56    4.82
  -9   3  -2   40.92    2.68
  -7   3  -2   16.29    1.81
  -5   3  -2    2.23    1.04
  -3   3  -2    1.01    0.66
  -1   3  -2  156.68    3.73
   1   3  -2   56.50    2.03
   3   3  -2  330.40    6.59
   5   3  -2    3.32    0.81
   7   3  -2    0.37    0.76
   9   3  -2    0.56    0.79
  11   3  -2    8.52    1.19
  13   3  -2    0.60    1.06
  15   3  -2   70.55    3.43
  17   3  -2   12.34    2.02
  19   3  -2   21.11    2.53
 -14   4  -2   39.59    4.59
 -12   4  -2   24.28    3.72
 -10   4  -2   30.65    2.76
  -8   4  -2   19.48    2.16
  -6   4  -2    0.59    1.02
  -4   4  -2    2.08    1.10
  -2   4  -2   80.30    3.35
   0   4  -2    6.89    0.99
   2   4  -2   18.50    1.97
   4   4  -2    8.68    1.60
   6   4  -2  106.13    4.33
   8   4  -2   18.87    2.17
  10   4  -2    0.47    0.90
  12   4  -2    9.87    1.66
  14   4  -2   29.54    2.66
  16   4  -2   21.64    2.48
  18   4  -2   49.90    3.75
 -11   5  -2   34.42    4.40
  -9   5  -2   22.29    2.62
  -7   5  -2    8.57    3.06
  -5   5  -2   -0.95    2.35
  -3   5  -2   -0.43    2.04
  -1   5  -2   72.01    5.97
   1   5  -2   23.46    2.43
   3   5  -2  150.45    5.55
   5   5  -2    0.36    1.46
   7   5  -2    0.63    1.43
   9   5  -2    1.84    1.72
  11   5  -2    4.52    2.42
  13   5  -2   -1.70    2.09
  -4   6  -2    1.03    2.85
  -2   6  -2   26.15    4.66
   0   6  -2    2.73    3.11
   2   6  -2    8.34    3.35
   4   6  -2   -0.89    1.75
   6   6  -2   46.64    3.90
   8   6  -2   11.93    2.57
  -6  -6  -1   48.00    5.17
  -4  -6  -1    1.84    2.40
  -2  -6  -1    1.70    2.39
   0  -6  -1   -2.13    1.90
   2  -6  -1    0.10    2.23
   4  -6  -1   -0.90    1.96
   6  -6  -1   66.80    5.67
 -13  -5  -1    0.83    1.94
 -11  -5  -1   19.84    3.27
  -9  -5  -1    1.68    1.78
  -7  -5  -1   27.57    3.62
  -5  -5  -1    3.68    1.90
  -3  -5  -1  109.45    6.32
  -1  -5  -1   -0.93    1.52
   1  -5  -1    2.90    1.85
   3  -5  -1    2.26    1.86
   5  -5  -1   49.84    4.88
   7  -5  -1   -0.18    1.72
   9  -5  -1   68.02    5.12
  11  -5  -1   73.68    5.42
  13  -5  -1    7.25    2.85
 -16  -4  -1    0.14    2.69
 -14  -4  -1   -2.36    1.87
 -12  -4  -1   12.60    2.73
 -10  -4  -1   17.71    2.84
  -8  -4  -1   96.95    5.69
  -6  -4  -1  108.54    5.86
  -4  -4  -1    0.47    1.31
  -2  -4  -1    4.94    1.68
   0  -4  -1   -0.26    1.34
   2  -4  -1   -0.24    1.38
   4  -4  -1    0.50    1.48
   6  -4  -1  149.76    7.09
   8  -4  -1    0.32    1.45
  10  -4  -1   38.32    3.94
  12  -4  -1   42.09    4.25
  14  -4  -1    1.43    2.22
  16  -4  -1    3.51    2.68
  18  -4  -1    0.22    2.52
 -19  -3  -1   -0.85    2.69
 -17  -3  -1   -0.72    3.37
 -15  -3  -1    2.95    2.79
 -13  -3  -1   -0.22    1.66
 -11  -3  -1   32.97    3.48
  -9  -3  -1    1.50    1.37
  -7  -3  -1   54.23    3.79
  -5  -3  -1   10.99    1.97
  -3  -3  -1  224.99    9.04
  -1  -3  -1    0.76    0.42
   1  -3  -1    2.91    0.82
   3  -3  -1    3.24    0.81
   5  -3  -1  113.46    3.40
   7  -3  -1    2.43    0.81
   9  -3  -1  134.92    6.39
  11  -3  -1  142.99    6.80
  13  -3  -1   19.70    2.89
  15  -3  -1    1.68    1.75
  17  -3  -1   -2.76    1.89
  19  -3  -1   22.33    3.89
 -20  -2  -1   68.30    5.79
 -18  -2  -1   16.43    3.30
 -16  -2  -1    2.15    1.48
 -14  -2  -1    1.64    1.35
 -12  -2  -1   28.15    2.34
 -10  -2  -1   35.06    2.21
  -8  -2  -1  188.69    5.33
  -6  -2  -1  222.42    5.65
  -4  -2  -1    3.98    0.61
  -2  -2  -1    4.53    0.46
   0  -2  -1   -0.06    0.28
   2  -2  -1    0.87    0.48
   4  -2  -1    0.15    0.45
   6  -2  -1  289.16    6.96
   8  -2  -1    0.55    0.62
  10  -2  -1   68.21    2.64
  12  -2  -1   78.99    3.04
  14  -2  -1   11.15    1.52
  16  -2  -1    9.17    1.58
  18  -2  -1   -0.55    2.05
  20  -2  -1    6.62    2.83
 -21  -1  -1    3.42    1.60
 -19  -1  -1    6.22    1.74
 -17  -1  -1    5.51    1.49
 -15  -1  -1    0.06    1.22
 -13  -1  -1   -1.84    0.96
 -11  -1  -1   52.91    3.05
  -9  -1  -1    4.67    1.23
  -7  -1  -1   84.95    2.95
  -5  -1  -1   19.34    1.19
  -3  -1  -1  450.39    8.13
  -1  -1  -1    2.22    0.55
   1  -1  -1    2.04    0.48
   3  -1  -1    5.76    0.50
   5  -1  -1  210.61    4.08
   7  -1  -1    7.48    0.61
   9  -1  -1  232.42    4.81
  11  -1  -1  230.15    6.21
  13  -1  -1   35.11    2.37
  15  -1  -1    5.00    1.29
  17  -1  -1    2.16    1.28
  19  -1  -1   29.12    2.82
  21  -1  -1   67.99    5.53
 -20   0  -1   83.55    4.42
 -18   0  -1   28.73    2.68
 -16   0  -1    6.66    1.54
 -14   0  -1    0.85    1.22
 -12   0  -1   33.75    2.53
 -10   0  -1   48.11    2.71
  -8   0  -1  260.12    6.83
  -6   0  -1  311.29    7.61
  -4   0  -1    7.04    0.71
  -2   0  -1    5.43    0.42
   0   0  -1    0.76    0.19
   2   0  -1    1.29    0.29
   4   0  -1    0.58    0.41
   6   0  -1  444.30    8.03
   8   0  -1    0.18    0.56
  10   0  -1   85.90    2.78
  12   0  -1  101.12    3.27
  14   0  -1    9.07    2.07
  16   0  -1    5.98    2.06
  18   0  -1    0.57    1.25
  20   0  -1    4.42    1.65
  22   0  -1   20.75    3.75
 -21   1  -1    0.46    2.12
 -19   1  -1    2.65    2.13
 -17   1  -1    2.23    2.02
 -15   1  -1    2.06    1.69
 -13   1  -1   -0.56    1.43
 -11   1  -1   45.85    3.77
  -9   1  -1    4.41    0.80
  -7   1  -1   86.44    2.83
  -5   1  -1   18.51    1.25
  -3   1  -1  434.06   10.27
  -1   1  -1    2.41    0.44
   1   1  -1    1.81    0.33
   3   1  -1    6.71    0.61
   5   1  -1  212.95    4.26
   7   1  -1    8.62    0.82
   9   1  -1  250.71    5.05
  11   1  -1  233.90    6.05
  13   1  -1   29.61    2.15
  15   1  -1    1.41    1.08
  17   1  -1   -2.00    1.43
  19   1  -1   35.36    4.35
  21   1  -1   60.41    5.81
 -20   2  -1   75.93    5.76
 -18   2  -1   23.67    3.52
 -16   2  -1    2.87    1.80
 -14   2  -1    3.13    1.73
 -12   2  -1   25.41    3.13
 -10   2  -1   36.30    2.23
  -8   2  -1  196.82    5.62
  -6   2  -1  218.85    5.98
  -4   2  -1    3.96    0.53
  -2   2  -1    5.98    0.64
   0   2  -1    0.48    0.30
   2   2  -1    0.50    0.42
   4   2  -1    0.30    0.50
   6   2  -1  289.97    5.90
   8   2  -1   -0.72    0.64
  10   2  -1   72.62    2.46
  12   2  -1   77.82    3.22
  14   2  -1   10.22    1.54
  16   2  -1    8.23    1.65
  18   2  -1   -1.02    1.64
  20   2  -1    3.63    2.33
 -17   3  -1    3.39    2.24
 -15   3  -1    0.74    1.65
 -13   3  -1    0.28    1.45
 -11   3  -1   31.63    3.44
  -9   3  -1    1.40    0.98
  -7   3  -1   54.60    2.76
  -5   3  -1   12.63    1.43
  -3   3  -1  236.17    4.90
  -1   3  -1    1.79    0.64
   1   3  -1    0.39    0.53
   3   3  -1    2.27    0.68
   5   3  -1  105.86    3.02
   7   3  -1    2.00    0.86
   9   3  -1  130.41    3.62
  11   3  -1  136.34    4.64
  13   3  -1   20.53    2.13
  15   3  -1    0.89    1.27
  17   3  -1    0.67    1.45
  19   3  -1   21.57    2.57
 -16   4  -1    2.68    2.21
 -14   4  -1    0.71    1.96
 -12   4  -1   11.90    2.72
 -10   4  -1   19.43    2.12
  -8   4  -1  101.43    4.14
  -6   4  -1  107.16    4.12
  -4   4  -1    2.65    1.03
  -2   4  -1    3.27    0.83
   0   4  -1    0.33    1.09
   2   4  -1    0.11    1.09
   4   4  -1    0.15    1.07
   6   4  -1  148.15    4.00
   8   4  -1   -0.53    0.81
  10   4  -1   36.94    2.29
  12   4  -1   38.06    2.86
  14   4  -1   -2.09    1.31
  16   4  -1    2.50    1.62
  18   4  -1    0.04    1.63
  -9   5  -1   -1.34    2.22
  -7   5  -1   34.46    4.51
  -5   5  -1    8.28    2.75
  -3   5  -1  105.56    6.93
  -1   5  -1   -0.86    1.77
   1   5  -1    0.73    1.31
   3   5  -1    2.52    1.42
   5   5  -1   50.31    3.59
   7   5  -1    1.44    1.52
   9   5  -1   65.80    4.15
  11   5  -1   68.11    5.34
  13   5  -1   10.64    3.12
  -6   6  -1   54.97    6.24
  -4   6  -1   -0.09    2.68
  -2   6  -1    4.17    2.78
   0   6  -1   -0.98    2.30
   2   6  -1   -1.90    2.57
   4   6  -1    1.47    1.87
   6   6  -1   61.64    4.50
   8   6  -1    1.18    1.91
  -6  -6   0   -0.52    2.15
  -4  -6   0    4.35    2.46
  -2  -6   0   -1.80    1.99
   0  -6   0  180.03    9.58
   2  -6   0   -0.07    2.12
   4  -6   0    6.01    2.70
   6  -6   0    0.50    2.45
 -13  -5   0   10.73    2.83
 -11  -5   0    4.89    2.09
  -9  -5   0    6.67    2.49
  -7  -5   0   11.40    2.75
  -5  -5   0   55.44    4.48
  -3  -5   0   22.72    3.18
  -1  -5   0    5.22    2.12
   1  -5   0    4.45    2.06
   3  -5   0   19.43    3.30
   5  -5   0   53.63    4.53
   7  -5   0   19.62    3.17
   9  -5   0   15.52    3.02
  11  -5   0    8.41    2.65
  13  -5   0    7.50    2.99
 -16  -4   0   24.51    4.37
 -14  -4   0   66.37    5.20
 -12  -4   0   25.90    3.37
 -10  -4   0    1.18    1.57
  -8  -4   0    7.19    1.97
  -6  -4   0    0.75    1.40
  -4  -4   0   15.42    2.36
  -2  -4   0    1.03    1.42
   0  -4   0  445.58   16.17
   2  -4   0    2.25    1.59
   4  -4   0    8.84    2.09
   6  -4   0    0.88    1.49
   8  -4   0    5.66    1.96
  10  -4   0    1.95    1.81
  12  -4   0   28.04    3.79
  14  -4   0   72.25    5.65
  16  -4   0   33.86    4.74
 -19  -3   0    2.82    3.21
 -17  -3   0   42.29    6.10
 -13  -3   0   25.91    3.47
 -11  -3   0    9.41    1.31
  -9  -3   0   32.56    1.90
  -7  -3   0   43.99    2.06
  -5  -3   0  120.67    3.57
  -3  -3   0   46.10    1.88
  -1  -3   0    9.68    0.99
   1  -3   0    9.73    1.02
   3  -3   0   46.01    1.91
   5  -3   0  127.74    5.98
   7  -3   0   42.59    3.42
   9  -3   0   31.53    3.16
  11  -3   0   11.03    2.34
  13  -3   0   28.67    3.56
  15  -3   0   58.54    5.10
  17  -3   0   70.02    6.06
  19  -3   0    2.53    2.83
 -20  -2   0   15.83    2.35
 -18  -2   0    3.24    1.39
 -16  -2   0   44.80    3.36
 -14  -2   0  125.98    6.03
 -12  -2   0   47.86    2.65
 -10  -2   0    5.85    1.14
  -8  -2   0   13.31    1.23
  -6  -2   0    4.16    0.74
  -4  -2   0   19.29    1.17
  -2  -2   0    0.09    0.41
   0  -2   0  921.65   20.54
   2  -2   0    0.11    0.39
   4  -2   0   23.16    1.12
   6  -2   0    3.82    0.63
   8  -2   0   15.31    1.20
  10  -2   0    7.15    1.07
  12  -2   0   54.71    2.62
  14  -2   0  122.65    7.07
  16  -2   0   47.16    5.00
  18  -2   0    2.34    2.46
  20  -2   0   17.07    3.82
 -21  -1   0   24.96    2.78
 -19  -1   0    4.36    1.59
 -17  -1   0   87.28    3.93
 -15  -1   0   89.09    3.88
 -13  -1   0   34.68    2.63
 -11  -1   0   16.63    1.88
  -9  -1   0   60.60    2.59
  -7  -1   0   81.42    2.66
  -5  -1   0  242.12    5.79
  -3  -1   0   89.88    2.37
  -1  -1   0   15.44    0.63
   1  -1   0   16.06    0.76
   3  -1   0   91.06    2.33
   5  -1   0  242.48    5.74
   7  -1   0   80.37    2.61
   9  -1   0   58.05    2.43
  11  -1   0   17.58    1.74
  13  -1   0   36.95    2.45
  15  -1   0   86.85    3.78
  17  -1   0   80.43    4.01
  19  -1   0    2.35    1.66
  21  -1   0   28.05    4.56
 -22   0   0    2.84    2.34
 -20   0   0   26.15    2.86
 -18   0   0    1.57    1.40
 -16   0   0   58.19    3.27
 -14   0   0  158.26    5.37
 -12   0   0   60.56    3.06
 -10   0   0    8.27    1.31
  -8   0   0   16.16    1.44
  -6   0   0    5.91    0.90
  -4   0   0   28.63    1.53
  -2   0   0    0.17    0.28
   2   0   0    0.21    0.32
   4   0   0   28.43    1.18
   6   0   0    5.32    0.69
   8   0   0   19.00    1.21
  10   0   0    8.53    1.05
  12   0   0   59.85    2.60
  14   0   0  150.30    7.07
  16   0   0   57.33    4.43
  18   0   0    0.14    1.36
  20   0   0   22.16    2.70
  22   0   0    3.52    1.81
 -21   1   0   25.05    4.13
 -19   1   0    9.16    2.76
 -17   1   0   77.54    5.42
 -15   1   0   84.10    5.40
 -13   1   0   38.55    3.81
 -11   1   0   14.03    2.34
  -9   1   0   54.11    2.19
  -7   1   0   77.54    2.64
  -5   1   0  240.83    6.01
  -3   1   0   86.48    1.93
  -1   1   0   15.59    0.71
   1   1   0   16.54    0.76
   3   1   0   90.34    2.07
   5   1   0  248.89    4.73
   7   1   0   84.40    2.11
   9   1   0   57.22    2.38
  11   1   0   20.13    1.67
  13   1   0   36.97    2.37
  15   1   0   82.10    5.29
  17   1   0   94.49    5.70
  19   1   0    6.49    2.62
  21   1   0   23.54    4.22
 -20   2   0    7.35    2.60
 -18   2   0   -0.28    1.71
 -16   2   0   52.78    4.32
 -14   2   0  128.02    6.72
 -12   2   0   49.18    4.06
 -10   2   0    7.77    1.24
  -8   2   0   14.41    1.42
  -6   2   0    3.67    0.89
  -4   2   0   23.35    1.06
  -2   2   0    0.58    0.41
   0   2   0  965.66   16.72
   2   2   0    0.10    0.47
   4   2   0   22.37    1.21
   6   2   0    4.32    0.74
   8   2   0   13.41    1.13
  10   2   0    7.62    1.34
  12   2   0   55.61    2.86
  14   2   0  127.78    4.56
  16   2   0   49.33    3.24
  18   2   0    1.31    1.96
  20   2   0   18.67    3.71
 -19   3   0    0.15    2.12
 -17   3   0   69.00    5.38
 -15   3   0   52.07    5.04
 -13   3   0   29.02    3.55
 -11   3   0   10.67    1.52
  -9   3   0   33.77    2.35
  -7   3   0   40.59    2.37
  -5   3   0  126.79    3.07
  -3   3   0   48.74    1.72
  -1   3   0    8.92    0.86
   1   3   0   10.40    0.98
   3   3   0   46.12    1.86
   5   3   0  122.42    3.34
   7   3   0   45.08    2.03
   9   3   0   32.61    1.89
  11   3   0   12.03    1.69
  13   3   0   24.29    2.34
  15   3   0   59.64    3.52
  17   3   0   60.18    3.89
  19   3   0    3.91    2.41
 -18   4   0   -0.40    1.97
 -16   4   0   33.52    4.24
 -14   4   0   58.38    5.38
 -12   4   0   28.88    3.65
 -10   4   0    3.42    1.26
  -8   4   0    6.15    1.39
  -6   4   0    1.89    1.07
  -4   4   0   17.10    1.65
  -2   4   0    1.01    1.07
   0   4   0  433.37   11.07
   2   4   0   -0.03    1.04
   4   4   0   13.07    1.33
   6   4   0    3.42    0.97
   8   4   0    4.94    1.14
  10   4   0    3.11    1.34
  12   4   0   25.11    2.51
  14   4   0   68.50    3.89
  16   4   0   29.64    3.00
  18   4   0   -0.14    2.51
 -11   5   0    6.51    2.79
  -9   5   0   18.92    3.67
  -7   5   0   18.62    3.46
  -5   5   0   51.12    5.32
  -3   5   0   17.87    3.46
  -1   5   0    4.23    1.45
   1   5   0    2.66    1.44
   3   5   0   21.47    2.38
   5   5   0   55.17    3.51
   7   5   0   21.52    2.59
   9   5   0   12.12    3.22
  11   5   0    2.88    2.54
  13   5   0    9.35    3.27
  -8   6   0    0.94    2.80
  -6   6   0    0.41    2.59
  -4   6   0    8.40    3.35
  -2   6   0    2.14    2.80
   0   6   0  184.21   10.63
   2   6   0   -0.23    1.66
   4   6   0    8.09    2.20
   6   6   0    1.75    1.94
  -8  -6   1   -3.09    2.07
  -6  -6   1   64.81    5.30
  -4  -6   1   -3.41    1.79
  -2  -6   1   -1.37    1.94
   0  -6   1   -2.14    1.85
   2  -6   1    1.44    2.37
   4  -6   1    2.08    2.47
 -13  -5   1    6.97    2.44
 -11  -5   1   62.18    4.90
  -9  -5   1   61.23    4.89
  -7  -5   1    0.14    1.65
  -5  -5   1   52.64    4.23
  -3  -5   1    0.31    1.54
  -1  -5   1   -0.38    1.66
   1  -5   1    0.95    1.74
   3  -5   1  109.79    6.38
   5  -5   1   -0.69    1.60
   7  -5   1   24.81    3.59
   9  -5   1   -1.73    1.77
  11  -5   1   20.06    3.64
 -14  -4   1    2.73    1.89
 -12  -4   1   30.25    3.52
 -10  -4   1   38.63    3.42
  -8  -4   1   -0.08    1.42
  -6  -4   1  145.63    6.92
  -4  -4   1    1.19    0.80
  -2  -4   1    0.11    0.74
   0  -4   1    0.18    0.71
   2  -4   1    1.71    1.49
   4  -4   1    0.71    1.50
   6  -4   1  102.12    5.88
   8  -4   1  100.74    5.90
  10  -4   1   24.91    3.35
  12  -4   1   10.96    2.81
  14  -4   1   -0.95    2.31
  16  -4   1   -1.70    2.76
 -15  -3   1    0.00    1.17
 -13  -3   1   18.89    1.81
 -11  -3   1  142.91    4.41
  -9  -3   1  128.25    4.03
  -7  -3   1    2.84    0.80
  -5  -3   1  108.71    3.38
  -3  -3   1    1.56    0.70
  -1  -3   1    0.36    0.68
   1  -3   1    2.21    1.35
   3  -3   1  229.06    9.11
   5  -3   1   10.10    2.05
   7  -3   1   56.82    3.98
   9  -3   1    2.23    1.60
  11  -3   1   36.95    4.01
  13  -3   1   -1.46    1.84
  15  -3   1    0.78    2.56
  17  -3   1    1.27    3.02
  19  -3   1    5.91    3.69
 -22  -2   1   18.12    3.54
 -20  -2   1    2.83    2.10
 -18  -2   1    1.47    1.66
 -16  -2   1   10.43    1.91
 -14  -2   1   10.94    1.61
 -12  -2   1   80.69    3.16
 -10  -2   1   66.65    2.69
  -8  -2   1    0.84    0.69
  -6  -2   1  299.56    7.05
  -4  -2   1   -0.08    0.49
  -2  -2   1    1.13    0.52
   0  -2   1   -0.58    0.75
   2  -2   1    5.54    1.20
   4  -2   1    4.86    1.21
   6  -2   1  222.16    5.45
   8  -2   1  200.48    5.21
  10  -2   1   37.86    3.71
  12  -2   1   39.54    4.20
  14  -2   1    4.17    2.26
  16  -2   1    3.46    2.57
  18  -2   1   24.03    4.26
  20  -2   1   75.92    7.36
 -21  -1   1   73.35    5.71
 -19  -1   1   27.45    3.79
 -17  -1   1   -2.05    1.04
 -15  -1   1    1.84    1.15
 -13  -1   1   36.20    2.55
 -11  -1   1  248.85    8.69
  -9  -1   1  258.27    6.41
  -7  -1   1    6.71    0.83
  -5  -1   1  225.19    5.12
  -3  -1   1    6.01    0.62
  -1  -1   1    1.78    0.71
   1  -1   1    1.48    0.81
   3  -1   1  447.73    9.89
   5  -1   1   18.48    1.15
   7  -1   1   86.33    2.95
   9  -1   1    3.18    1.04
  11  -1   1   52.47    2.87
  13  -1   1   -0.18    1.12
  15  -1   1    0.53    1.28
  17  -1   1    8.27    1.81
  19  -1   1    1.48    2.51
  21  -1   1    3.38    2.78
 -22   0   1   22.40    4.10
 -20   0   1    1.10    2.03
 -18   0   1   -2.29    1.16
 -16   0   1   10.12    1.72
 -14   0   1    7.49    1.46
 -12   0   1   93.78    3.72
 -10   0   1   77.67    3.06
  -8   0   1   -0.21    0.39
  -6   0   1  448.03   10.17
  -4   0   1    0.71    0.52
  -2   0   1    0.31    0.38
   2   0   1    4.62    0.83
   4   0   1    4.43    0.62
   6   0   1  286.85    6.66
   8   0   1  241.92    5.92
  10   0   1   43.91    2.13
  12   0   1   35.17    3.46
  14   0   1    0.85    1.81
  16   0   1    7.17    2.32
  18   0   1   34.79    4.21
  20   0   1   95.99    4.71
  22   0   1    2.67    1.82
 -21   1   1   64.89    6.37
 -19   1   1   30.35    4.16
 -17   1   1    0.69    1.85
 -15   1   1    1.00    1.62
 -13   1   1   29.74    3.32
 -11   1   1  226.32    6.16
  -9   1   1  221.64    6.12
  -7   1   1    6.96    0.84
  -5   1   1  210.74    5.30
  -3   1   1    6.28    0.72
  -1   1   1    1.59    0.37
   1   1   1    1.87    0.63
   3   1   1  461.02    8.22
   5   1   1   17.60    0.95
   7   1   1   88.16    2.25
   9   1   1    4.64    1.03
  11   1   1   53.35    2.65
  13   1   1    2.18    1.14
  15   1   1    1.51    1.87
  17   1   1    6.66    2.51
  19   1   1    6.77    2.73
  21   1   1    0.03    2.40
 -20   2   1    1.47    2.22
 -18   2   1    1.68    1.97
 -16   2   1    8.65    2.40
 -14   2   1    8.64    2.28
 -12   2   1   70.29    3.11
 -10   2   1   67.95    2.96
  -8   2   1   -0.08    0.51
  -6   2   1  292.31    5.78
  -4   2   1    0.50    0.46
  -2   2   1    0.66    0.42
   0   2   1    1.04    0.72
   2   2   1    5.57    0.94
   4   2   1    3.75    0.71
   6   2   1  224.81    4.85
   8   2   1  196.32    4.50
  10   2   1   36.31    2.46
  12   2   1   31.46    2.39
  14   2   1    1.26    1.23
  16   2   1    7.98    2.49
  18   2   1   20.50    3.80
  20   2   1   88.28    6.52
 -19   3   1   17.25    3.31
 -17   3   1    1.07    1.84
 -15   3   1    4.19    1.94
 -13   3   1   24.18    3.24
 -11   3   1  137.06    4.79
  -9   3   1  133.30    4.49
  -7   3   1    2.51    0.76
  -5   3   1  111.42    2.86
  -3   3   1    2.30    0.65
  -1   3   1   -0.16    0.48
   1   3   1   -0.13    0.93
   3   3   1  225.81    5.16
   5   3   1   13.23    1.30
   7   3   1   57.22    2.32
   9   3   1    0.67    1.15
  11   3   1   31.72    2.50
  13   3   1   -2.01    1.02
  15   3   1    0.13    1.35
  17   3   1    1.63    1.60
 -18   4   1   -2.61    1.93
 -16   4   1    7.27    2.63
 -14   4   1    9.99    2.58
 -12   4   1   39.62    2.95
 -10   4   1   40.29    4.32
  -8   4   1    1.24    1.90
  -6   4   1  141.55    7.69
  -4   4   1    0.30    1.01
  -2   4   1   -1.19    1.02
   0   4   1    1.00    0.82
   2   4   1    2.64    0.97
   4   4   1    2.83    0.99
   6   4   1  114.79    3.55
   8   4   1  101.84    3.44
  10   4   1   19.52    2.21
  12   4   1   13.37    2.11
  14   4   1    0.14    1.52
  16   4   1    0.85    1.71
 -11   5   1   57.45    5.97
  -9   5   1   70.50    5.79
  -7   5   1   -1.11    2.06
  -5   5   1   44.84    5.04
  -3   5   1    0.30    1.98
  -1   5   1   -0.79    1.29
   1   5   1    1.76    1.44
   3   5   1  101.19    4.64
   5   5   1    2.80    1.66
   7   5   1   27.00    2.81
   9   5   1   -0.47    1.44
  11   5   1   19.31    2.57
  13   5   1   -0.09    2.37
  -8   6   1   -1.00    2.53
  -6   6   1   65.82    6.83
  -4   6   1   -0.96    2.33
  -2   6   1   -2.23    2.31
   0   6   1   -2.47    2.36
   2   6   1    2.58    1.88
   4   6   1    0.74    1.77
   6   6   1   47.89    4.12
  -8  -6   2    8.27    2.96
  -6  -6   2   47.05    5.02
  -4  -6   2    0.29    2.03
  -2  -6   2    5.69    2.50
   0  -6   2    2.46    2.31
   2  -6   2   32.18    4.51
   4  -6   2    0.91    2.43
 -11  -5   2    5.70    2.31
  -9  -5   2   -1.04    1.81
  -7  -5   2    0.96    1.82
  -5  -5   2    1.46    1.78
  -3  -5   2  151.66    7.62
  -1  -5   2   22.05    3.23
   1  -5   2   75.46    5.21
   3  -5   2   -2.48    1.45
   5  -5   2    1.82    2.02
   7  -5   2    5.54    2.50
   9  -5   2   26.79    3.97
  11  -5   2   39.70    4.96
 -12  -4   2    6.73    2.13
 -10  -4   2    1.95    0.95
  -8  -4   2   17.26    1.67
  -6  -4   2  110.90    3.76
  -4  -4   2    8.83    1.22
  -2  -4   2   21.84    1.76
   0  -4   2    5.67    1.14
   2  -4   2   74.66    4.66
   4  -4   2    5.84    1.87
   6  -4   2    0.55    1.57
   8  -4   2   16.80    2.94
  10  -4   2   32.26    4.12
  12  -4   2   28.93    4.47
  14  -4   2   40.17    5.50
 -19  -3   2   25.36    3.43
 -17  -3   2   14.50    2.59
 -15  -3   2   74.08    4.45
 -13  -3   2   -0.32    0.90
 -11  -3   2    8.18    1.24
  -9  -3   2   -0.04    0.66
  -7  -3   2    0.80    0.78
  -5  -3   2    1.30    0.78
  -3  -3   2  331.48    8.15
  -1  -3   2   55.95    2.34
   1  -3   2  162.08    6.87
   3  -3   2    0.10    1.33
   5  -3   2    1.17    1.51
   7  -3   2   14.61    2.42
   9  -3   2   46.00    4.39
  11  -3   2   81.16    5.77
  13  -3   2    3.64    2.67
  15  -3   2   51.00    6.29
  17  -3   2   33.59    5.58
 -22  -2   2   -0.76    1.91
 -20  -2   2   75.72    5.33
 -18  -2   2   78.07    4.93
 -16  -2   2   32.18    3.55
 -14  -2   2   54.64    3.01
 -12  -2   2   22.43    1.84
 -10  -2   2    0.07    0.76
  -8  -2   2   37.38    1.79
  -6  -2   2  235.50    5.67
  -4  -2   2   14.98    1.11
  -2  -2   2   35.07    1.58
   0  -2   2   12.82    1.56
   2  -2   2  142.30    5.99
   4  -2   2    8.84    1.67
   6  -2   2   -2.29    1.08
   8  -2   2   37.26    3.73
  10  -2   2   59.23    4.75
  12  -2   2   50.57    5.35
  14  -2   2   53.86    5.88
  16  -2   2    2.82    2.43
  18  -2   2   21.59    4.23
 -23  -1   2   23.29    4.09
 -21  -1   2   -1.73    1.86
 -19  -1   2   22.63    3.42
 -17  -1   2   17.44    2.81
 -15  -1   2  120.32    4.31
 -13  -1   2    0.69    1.01
 -11  -1   2   15.59    1.79
  -9  -1   2   -0.39    0.67
  -7  -1   2    0.24    0.50
  -5  -1   2    4.13    0.54
  -3  -1   2  596.82   12.98
  -1  -1   2  111.44    4.17
   1  -1   2  290.76   10.04
   3  -1   2   -0.44    0.48
   5  -1   2    3.56    0.77
   7  -1   2   28.65    1.92
   9  -1   2   65.88    3.15
  11  -1   2   96.53    4.09
  13  -1   2   10.99    1.74
  15  -1   2   64.88    5.68
  17  -1   2   44.81    5.25
  19  -1   2    1.55    2.55
 -22   0   2    1.71    2.38
 -20   0   2   86.94    6.15
 -18   0   2   84.05    5.67
 -16   0   2   42.64    2.96
 -14   0   2   55.48    2.88
 -12   0   2   26.19    1.43
 -10   0   2    0.66    0.56
  -8   0   2   49.17    1.94
  -6   0   2  361.97   11.81
  -4   0   2   21.70    1.62
  -2   0   2   37.63    1.83
   4   0   2   10.57    0.92
   6   0   2    0.50    0.60
   8   0   2   52.51    2.14
  10   0   2   68.99    4.23
  12   0   2   71.85    4.61
  14   0   2   76.87    5.13
  16   0   2    3.84    2.11
  18   0   2   24.21    3.67
  20   0   2    3.34    1.83
 -21   1   2   -1.14    2.04
 -19   1   2   25.82    3.90
 -17   1   2   18.15    3.13
 -15   1   2  115.09    6.21
 -13   1   2   -0.72    1.25
 -11   1   2   16.35    1.40
  -9   1   2    0.14    0.59
  -7   1   2    0.60    0.55
  -5   1   2    3.23    0.61
  -3   1   2  602.04   13.21
  -1   1   2  111.78    2.83
   1   1   2  293.05    7.07
   3   1   2    0.12    0.59
   5   1   2    3.79    0.64
   7   1   2   30.39    1.40
   9   1   2   74.77    2.98
  11   1   2  115.11    3.84
  13   1   2    6.24    2.15
  15   1   2   79.04    5.18
  17   1   2   44.31    4.81
  19   1   2   -1.45    2.20
 -22   2   2   -3.09    2.19
 -20   2   2   57.92    6.02
 -18   2   2   60.03    5.76
 -16   2   2   30.73    3.85
 -14   2   2   47.53    4.44
 -12   2   2   18.73    1.81
 -10   2   2    1.13    0.93
  -8   2   2   35.67    2.11
  -6   2   2  226.07    5.99
  -4   2   2   15.76    1.02
  -2   2   2   33.06    1.88
   0   2   2   12.34    1.29
   2   2   2  147.51    4.39
   4   2   2    6.10    0.93
   6   2   2    0.05    0.71
   8   2   2   39.24    2.46
  10   2   2   55.44    2.89
  12   2   2   51.46    3.04
  14   2   2   70.71    3.47
  16   2   2    1.58    2.17
  18   2   2   26.96    4.30
 -19   3   2   23.63    3.88
 -17   3   2   13.55    3.01
 -15   3   2   67.13    5.14
 -13   3   2    0.96    1.13
 -11   3   2   10.23    1.52
  -9   3   2   -0.38    0.87
  -7   3   2    0.43    0.70
  -5   3   2    1.83    0.69
  -3   3   2  338.99    8.60
  -1   3   2   55.76    2.89
   1   3   2  156.45    5.04
   3   3   2   -1.25    0.76
   5   3   2    2.38    0.94
   7   3   2   16.42    1.50
   9   3   2   51.31    2.98
  11   3   2   67.62    3.45
  13   3   2    4.76    1.52
  15   3   2   53.56    3.64
  17   3   2   36.03    4.68
 -12   4   2   14.78    3.15
 -10   4   2    0.77    1.80
  -8   4   2   14.70    2.95
  -6   4   2  110.91    4.13
  -4   4   2    6.71    1.45
  -2   4   2   15.20    1.93
   0   4   2    5.60    1.48
   2   4   2   79.01    2.91
   4   4   2    4.53    1.16
   6   4   2   -0.35    0.97
   8   4   2   17.25    2.11
  10   4   2   33.13    2.89
  12   4   2   32.67    2.96
  14   4   2   40.54    3.37
  16   4   2    0.57    2.76
 -13   5   2   -2.58    2.31
 -11   5   2    5.55    2.75
  -9   5   2   -0.13    2.15
  -7   5   2   -0.90    2.09
  -5   5   2   -0.69    2.14
  -3   5   2  145.56    5.58
  -1   5   2   22.04    2.61
   1   5   2   78.69    4.08
   3   5   2   -0.04    1.50
   5   5   2    1.91    1.24
   7   5   2    7.42    1.96
   9   5   2   18.27    2.42
  11   5   2   34.88    3.16
  -6   6   2   43.28    5.98
  -4   6   2    2.38    2.87
  -2   6   2    3.36    3.08
   0   6   2    3.05    2.10
   2   6   2   34.36    3.55
   4   6   2    0.23    1.91
  -4  -6   3   30.72    4.03
  -2  -6   3    0.63    2.08
   0  -6   3   60.33    5.24
   2  -6   3    6.58    3.02
  -7  -5   3    3.51    2.00
  -5  -5   3    2.52    1.88
  -3  -5   3    3.70    2.01
  -1  -5   3    0.84    1.10
   1  -5   3    2.22    1.15
   3  -5   3    8.21    1.53
   5  -5   3   95.75    6.28
   7  -5   3   21.37    3.66
   9  -5   3   25.94    4.26
 -14  -4   3   49.13    3.92
 -12  -4   3  102.51    5.32
 -10  -4   3   -1.71    1.00
  -8  -4   3   50.83    2.63
  -6  -4   3   17.18    1.70
  -4  -4   3   71.89    3.01
  -2  -4   3    0.92    0.92
   0  -4   3  136.35    4.46
   2  -4   3   22.78    2.88
   4  -4   3   70.37    4.78
   6  -4   3    0.33    1.56
   8  -4   3   15.87    3.11
  10  -4   3   20.80    3.86
  12  -4   3    3.33    2.66
  14  -4   3    9.05    3.73
 -21  -3   3    3.82    1.99
 -19  -3   3    6.60    2.12
 -17  -3   3   17.32    2.71
 -15  -3   3   26.70    3.16
 -13  -3   3   -1.12    1.05
 -11  -3   3   68.68    4.04
  -9  -3   3  166.60    4.94
  -7  -3   3    4.10    0.96
  -5  -3   3    6.49    1.09
  -3  -3   3    9.71    1.22
  -1  -3   3   -1.48    0.74
   1  -3   3    8.07    1.90
   3  -3   3   18.01    2.44
   5  -3   3  202.94    8.65
   7  -3   3   39.38    4.05
   9  -3   3   54.16    4.74
  11  -3   3    9.44    2.96
  13  -3   3   -1.99    2.61
  15  -3   3   13.56    4.45
 -22  -2   3    6.27    2.59
 -20  -2   3   16.00    2.97
 -18  -2   3   25.76    3.32
 -16  -2   3   12.76    2.47
 -14  -2   3  101.20    5.15
 -12  -2   3  177.64    7.13
 -10  -2   3    2.80    0.85
  -8  -2   3   90.60    2.91
  -6  -2   3   34.75    1.72
  -4  -2   3  146.85    3.96
  -2  -2   3    1.46    0.68
   0  -2   3  259.53    9.47
   2  -2   3   48.49    3.25
   4  -2   3  141.81    6.27
   6  -2   3    1.99    1.68
   8  -2   3   20.32    3.22
  10  -2   3   31.40    4.41
  12  -2   3   -0.82    2.25
  14  -2   3   16.21    4.02
  16  -2   3   -1.19    2.58
  18  -2   3    2.36    2.87
 -23  -1   3   -0.25    2.22
 -21  -1   3    7.11    2.56
 -19  -1   3    7.69    2.40
 -17  -1   3   22.67    3.25
 -15  -1   3   31.41    3.29
 -13  -1   3    0.38    1.32
 -11  -1   3  105.87    3.81
  -9  -1   3  286.10    9.73
  -7  -1   3    9.27    0.78
  -5  -1   3   13.05    0.88
  -3  -1   3   17.98    1.06
  -1  -1   3    2.29    0.77
   1  -1   3   15.99    1.75
   3  -1   3   29.22    1.58
   5  -1   3  312.94    7.90
   7  -1   3   56.15    2.78
   9  -1   3   69.86    3.34
  11  -1   3   15.34    1.92
  13  -1   3    2.67    2.16
  15  -1   3   33.29    4.53
  17  -1   3   52.96    5.66
  19  -1   3    0.09    2.48
 -22   0   3    3.34    2.61
 -20   0   3   31.24    4.31
 -18   0   3   23.41    3.59
 -16   0   3   21.55    2.97
 -14   0   3  106.23    5.74
 -12   0   3  220.72    6.14
 -10   0   3   -0.12    1.08
  -8   0   3  120.98    5.07
  -6   0   3   50.02    2.68
  -4   0   3  197.81    6.65
  -2   0   3    3.30    0.75
   6   0   3   -0.15    0.70
   8   0   3   22.56    1.62
  10   0   3   40.22    3.48
  12   0   3    5.75    1.96
  14   0   3   31.31    3.62
  16   0   3   -0.61    1.97
  18   0   3   14.35    2.17
 -23   1   3    0.39    2.47
 -21   1   3    9.07    3.13
 -19   1   3    6.15    2.57
 -17   1   3   22.93    3.33
 -15   1   3   30.41    3.45
 -13   1   3    0.09    0.80
 -11   1   3  112.70    3.73
  -9   1   3  266.33    7.05
  -7   1   3    9.23    1.02
  -5   1   3   14.73    1.11
  -3   1   3   18.32    1.12
  -1   1   3    3.40    0.51
   1   1   3   16.97    2.04
   3   1   3   30.66    1.77
   5   1   3  314.70    7.88
   7   1   3   53.79    2.01
   9   1   3   65.36    2.91
  11   1   3   14.53    1.67
  13   1   3    1.09    1.66
  15   1   3   33.31    4.01
  17   1   3   51.01    5.20
  19   1   3    0.37    2.50
 -22   2   3   -0.02    2.41
 -20   2   3   19.18    3.70
 -18   2   3   20.72    3.52
 -16   2   3   13.89    2.70
 -14   2   3   85.83    3.72
 -12   2   3  163.54    5.25
 -10   2   3    2.78    1.09
  -8   2   3   95.80    3.30
  -6   2   3   37.22    1.98
  -4   2   3  147.21    4.03
  -2   2   3    0.47    0.86
   0   2   3  259.79    6.95
   2   2   3   54.25    2.58
   4   2   3  134.51    4.42
   6   2   3    0.22    0.83
   8   2   3   18.06    1.87
  10   2   3   31.53    2.46
  12   2   3    2.16    1.30
  14   2   3   20.92    3.43
  16   2   3   -0.77    2.03
  18   2   3    6.52    2.96
 -21   3   3    4.36    2.58
 -19   3   3    9.35    2.89
 -17   3   3   16.05    3.14
 -15   3   3   28.45    3.69
 -13   3   3    1.49    1.23
 -11   3   3   73.20    3.40
  -9   3   3  176.74    5.36
  -7   3   3    8.87    1.52
  -5   3   3    8.37    1.51
  -3   3   3   11.82    1.68
  -1   3   3    1.92    1.26
   1   3   3    6.86    1.53
   3   3   3   18.53    1.95
   5   3   3  196.76    4.99
   7   3   3   34.05    2.10
   9   3   3   49.77    3.07
  11   3   3    7.78    1.69
  13   3   3    0.72    1.34
  15   3   3   29.79    2.82
 -14   4   3   54.45    5.52
 -12   4   3  100.03    6.59
 -10   4   3   -0.22    1.79
  -8   4   3   52.83    4.60
  -6   4   3   15.01    2.00
  -4   4   3   70.79    3.58
  -2   4   3    1.77    1.34
   0   4   3  135.03    5.12
   2   4   3   26.87    1.98
   4   4   3   73.38    2.97
   6   4   3    0.78    1.04
   8   4   3    7.78    1.78
  10   4   3   14.57    2.15
  12   4   3    0.22    1.58
  14   4   3   12.41    2.28
 -13   5   3   -2.73    2.33
 -11   5   3   40.17    5.26
  -9   5   3   78.06    6.37
  -7   5   3    7.17    2.93
  -5   5   3    3.55    2.78
  -3   5   3    2.42    1.63
  -1   5   3    0.91    1.54
   1   5   3    2.05    1.75
   3   5   3    8.59    1.66
   5   5   3   98.36    3.85
   7   5   3   17.66    2.51
   9   5   3   24.84    2.86
  11   5   3   -0.08    2.30
  -4   6   3   28.92    5.09
  -2   6   3   -2.30    2.61
   0   6   3   65.24    4.77
   2   6   3   10.16    2.49
   4   6   3   36.17    5.80
   0  -6   4    6.02    2.90
  -7  -5   4    0.58    1.59
  -5  -5   4   42.96    3.94
  -3  -5   4   -1.13    1.07
  -1  -5   4   57.19    3.13
   1  -5   4   -0.69    1.08
   3  -5   4    0.94    1.28
   5  -5   4    6.82    2.83
   7  -5   4   -0.11    2.40
 -18  -4   4   18.16    3.20
 -16  -4   4    7.35    2.33
 -14  -4   4   17.44    2.85
 -12  -4   4   -0.71    1.41
 -10  -4   4    8.79    2.14
  -8  -4   4    0.91    1.36
  -6  -4   4  117.71    5.88
  -4  -4   4   22.64    1.99
  -2  -4   4   61.91    2.89
   0  -4   4   20.54    1.93
   2  -4   4   15.39    2.53
   4  -4   4   11.20    2.54
   6  -4   4   24.15    3.56
   8  -4   4   35.31    4.60
  10  -4   4    5.72    3.02
  12  -4   4   53.73    6.67
 -19  -3   4   20.51    3.20
 -17  -3   4   72.09    5.02
 -15  -3   4   27.35    3.29
 -13  -3   4    4.19    1.67
 -11  -3   4   29.89    3.15
  -9  -3   4   54.78    3.68
  -7  -3   4    2.21    1.30
  -5  -3   4   79.58    3.01
  -3  -3   4    0.07    0.79
  -1  -3   4  124.12    4.02
   1  -3   4   -0.62    1.20
   3  -3   4    3.03    1.52
   5  -3   4   19.79    2.94
   7  -3   4    6.46    2.40
   9  -3   4    3.56    2.40
  11  -3   4   48.31    6.04
  13  -3   4    0.83    3.42
  15  -3   4   13.07    4.69
 -22  -2   4   34.18    4.34
 -20  -2   4    4.59    2.16
 -18  -2   4   38.23    4.11
 -16  -2   4   19.54    2.80
 -14  -2   4   30.39    3.33
 -12  -2   4    4.26    1.53
 -10  -2   4   19.18    2.43
  -8  -2   4    0.60    1.12
  -6  -2   4  224.87    5.71
  -4  -2   4   43.72    1.94
  -2  -2   4  108.83    3.48
   0  -2   4   39.69    2.91
   2  -2   4   30.13    2.88
   4  -2   4   27.62    3.14
   6  -2   4   48.80    4.23
   8  -2   4   64.78    5.65
  10  -2   4    7.53    3.20
  12  -2   4   80.24    6.90
  14  -2   4   13.19    3.77
  16  -2   4   15.88    3.95
 -21  -1   4   73.98    5.63
 -19  -1   4   26.48    3.68
 -17  -1   4  105.17    5.86
 -15  -1   4   47.37    3.76
 -13  -1   4    9.20    2.00
 -11  -1   4   59.33    3.82
  -9  -1   4   88.69    4.28
  -7  -1   4    4.09    1.17
  -5  -1   4  125.32    5.08
  -3  -1   4   -0.43    0.45
  -1  -1   4  192.31    7.06
   1  -1   4    2.20    1.27
   3  -1   4    0.19    1.61
   5  -1   4   32.94    2.13
   7  -1   4    6.09    1.30
   9  -1   4   -0.93    1.87
  11  -1   4   91.66    6.24
  13  -1   4   -0.73    1.89
  15  -1   4   18.54    3.64
  17  -1   4    1.86    2.37
 -22   0   4   39.73    4.98
 -20   0   4    9.57    2.82
 -18   0   4   30.22    3.81
 -16   0   4   18.77    2.97
 -14   0   4   37.74    2.41
 -12   0   4    2.65    1.60
 -10   0   4   25.57    2.64
  -8   0   4    2.20    1.07
  -6   0   4  283.83    9.47
  -4   0   4   54.71    2.72
  -2   0   4  137.94    5.07
   6   0   4   55.18    2.36
   8   0   4   78.71    4.48
  10   0   4    4.23    1.69
  12   0   4   90.95    5.09
  14   0   4   11.52    2.65
  18   0   4   -0.57    2.14
 -23   1   4   21.37    4.22
 -21   1   4   74.21    6.04
 -19   1   4   31.37    4.21
 -17   1   4   97.38    5.94
 -15   1   4   34.78    3.66
 -13   1   4    7.48    1.25
 -11   1   4   62.44    2.72
  -9   1   4   79.82    3.07
  -7   1   4    5.31    0.97
  -5   1   4  124.56    3.82
  -3   1   4   -0.19    0.53
  -1   1   4  195.49    5.11
   1   1   4   -0.81    1.27
   3   1   4    0.97    0.91
   5   1   4   33.17    2.09
   7   1   4    7.14    1.27
   9   1   4    0.02    1.00
  11   1   4   82.00    5.26
  13   1   4    0.70    1.65
  15   1   4   21.30    3.50
  17   1   4    1.53    2.29
 -22   2   4   33.38    4.87
 -20   2   4    2.48    2.40
 -18   2   4   31.15    4.25
 -16   2   4   16.26    2.77
 -14   2   4   33.23    2.49
 -12   2   4    3.78    1.13
 -10   2   4   17.70    1.67
  -8   2   4    2.18    0.94
  -6   2   4  224.47    5.95
  -4   2   4   40.60    3.84
  -2   2   4  115.12    5.99
   0   2   4   40.18    2.47
   2   2   4   27.20    2.17
   4   2   4   25.22    2.05
   6   2   4   39.46    2.12
   8   2   4   70.10    3.27
  10   2   4    6.68    1.53
  12   2   4   80.74    3.74
  14   2   4   10.10    2.85
  16   2   4   21.65    3.98
 -15   3   4   33.21    3.97
 -13   3   4    5.51    2.12
 -11   3   4   38.25    4.02
  -9   3   4   53.06    3.01
  -7   3   4    1.19    1.18
  -5   3   4   78.01    3.59
  -3   3   4   -0.77    1.13
  -1   3   4  118.56    4.54
   1   3   4   -0.28    1.14
   3   3   4    0.29    1.16
   5   3   4   19.01    1.68
   7   3   4    4.62    1.44
   9   3   4   -0.60    1.09
  11   3   4   64.58    3.51
  13   3   4    3.03    1.72
  15   3   4   11.09    3.09
 -14   4   4   21.41    3.71
 -12   4   4    2.24    2.08
 -10   4   4    9.83    2.74
  -8   4   4    0.84    1.33
  -6   4   4  122.56    4.94
  -4   4   4   22.80    2.50
  -2   4   4   62.67    3.73
   0   4   4   22.07    2.52
   2   4   4   12.16    2.07
   4   4   4   14.23    1.64
   6   4   4   23.35    2.38
   8   4   4   36.31    3.09
  10   4   4    5.12    1.79
  12   4   4   50.49    3.73
 -13   5   4    3.16    2.69
 -11   5   4   26.32    4.42
  -9   5   4   26.39    4.54
  -7   5   4    1.01    2.54
  -5   5   4   47.11    3.69
  -3   5   4   -1.57    1.57
  -1   5   4   63.25    4.36
   1   5   4    2.07    1.27
   3   5   4   -0.10    1.27
   5   5   4   12.49    2.19
   7   5   4    2.17    1.72
  -2   6   4   34.65    4.95
 -11  -5   5   38.94    4.23
  -9  -5   5    3.20    2.01
  -7  -5   5   35.20    3.88
  -5  -5   5   13.64    2.65
  -3  -5   5    9.73    2.34
  -1  -5   5   29.53    3.68
   1  -5   5   45.24    3.25
   3  -5   5    4.69    1.61
   5  -5   5   20.09    3.80
 -16  -4   5    1.01    1.86
 -14  -4   5   34.34    4.08
 -12  -4   5   16.81    2.74
 -10  -4   5   51.64    4.06
  -8  -4   5    8.03    2.18
  -6  -4   5    8.54    2.05
  -4  -4   5    1.36    1.34
  -2  -4   5   -0.05    1.32
   0  -4   5    9.00    1.51
   2  -4   5   42.85    4.21
   4  -4   5    0.61    2.01
   6  -4   5   78.59    5.97
   8  -4   5   16.74    3.82
  10  -4   5    4.31    3.32
 -19  -3   5    4.99    2.22
 -17  -3   5   -2.15    1.62
 -15  -3   5   78.31    5.15
 -13  -3   5   -0.31    1.22
 -11  -3   5   64.80    4.27
  -9  -3   5    8.58    1.97
  -7  -3   5   77.91    4.57
  -5  -3   5   24.88    2.84
  -3  -3   5   21.03    2.60
  -1  -3   5   74.46    3.09
   1  -3   5  108.51    5.68
   3  -3   5   16.69    2.75
   5  -3   5   28.48    3.80
   7  -3   5   28.78    4.29
   9  -3   5    3.33    2.65
  11  -3   5    0.52    2.88
  13  -3   5    5.13    3.78
 -20  -2   5   10.77    2.78
 -18  -2   5   13.27    2.81
 -16  -2   5    0.11    1.49
 -14  -2   5   52.86    3.97
 -12  -2   5   31.32    3.11
 -10  -2   5   96.17    4.99
  -8  -2   5   16.50    2.30
  -6  -2   5   15.26    2.12
  -4  -2   5    2.43    1.36
  -2  -2   5    0.28    0.75
   0  -2   5    9.55    1.83
   2  -2   5   82.85    4.80
   4  -2   5   -0.97    1.51
   6  -2   5  134.01    7.45
   8  -2   5   18.40    3.55
  10  -2   5    6.55    2.96
  12  -2   5    7.17    3.15
  14  -2   5   31.68    4.83
 -21  -1   5   15.42    3.40
 -19  -1   5   -0.01    1.69
 -17  -1   5    8.16    2.12
 -15  -1   5  109.63    5.80
 -13  -1   5    0.58    1.36
 -11  -1   5   89.98    4.64
  -9  -1   5   16.97    2.20
  -7  -1   5  118.05    5.30
  -5  -1   5   46.69    3.02
  -3  -1   5   29.67    1.64
  -1  -1   5  128.36    3.82
   1  -1   5  181.28    7.64
   3  -1   5   14.68    2.52
   5  -1   5   32.93    3.86
   7  -1   5   39.84    4.38
   9  -1   5    3.50    2.12
  11  -1   5    2.00    1.98
  13  -1   5   11.56    3.00
  15  -1   5   25.11    4.04
 -22   0   5   25.13    4.14
 -20   0   5   11.10    2.86
 -18   0   5   20.93    3.37
 -16   0   5    3.11    1.65
 -14   0   5   73.33    3.44
 -12   0   5   39.70    3.19
 -10   0   5  121.34    5.75
  -8   0   5   20.40    2.25
  -6   0   5   17.14    1.87
  -4   0   5    4.16    1.14
  -2   0   5    2.06    0.97
   0   0   5   16.33    1.92
   6   0   5  154.52    6.79
   8   0   5   43.58    3.79
  10   0   5    9.78    2.18
  12   0   5   12.61    2.38
  16   0   5    2.02    2.20
 -21   1   5    8.58    2.90
 -19   1   5    3.95    2.09
 -17   1   5    6.80    2.12
 -15   1   5  115.75    4.24
 -13   1   5    1.36    0.95
 -11   1   5   93.72    3.55
  -9   1   5   15.51    1.64
  -7   1   5  121.17    4.07
  -5   1   5   47.31    2.34
  -3   1   5   28.72    1.81
  -1   1   5  120.04    3.89
   1   1   5  176.23    5.08
   3   1   5   19.95    1.93
   5   1   5   44.76    2.43
   7   1   5   41.61    2.48
   9   1   5    3.24    1.27
  11   1   5    0.74    1.79
  13   1   5   10.92    2.73
  15   1   5   30.14    4.03
 -22   2   5   10.87    3.43
 -20   2   5    6.59    2.62
 -18   2   5   15.74    3.09
 -16   2   5    2.62    1.86
 -14   2   5   58.75    2.97
 -12   2   5   28.65    2.22
 -10   2   5  103.91    3.70
  -8   2   5   15.32    2.74
  -6   2   5   15.69    2.85
  -4   2   5    2.72    1.95
  -2   2   5    2.34    1.85
   0   2   5    9.58    1.60
   2   2   5   76.67    3.44
   4   2   5   -0.84    0.95
   6   2   5  135.81    4.73
   8   2   5   27.15    2.42
  10   2   5    8.70    1.71
  12   2   5   11.97    2.89
  14   2   5   30.97    4.11
 -15   3   5   85.05    5.83
 -13   3   5    0.42    1.62
 -11   3   5   65.17    5.01
  -9   3   5    9.27    1.76
  -7   3   5   79.64    3.87
  -5   3   5   30.05    2.72
  -3   3   5   19.64    2.27
  -1   3   5   67.53    3.58
   1   3   5  109.64    4.55
   3   3   5   11.49    1.85
   5   3   5   26.05    2.00
   7   3   5   34.50    2.81
   9   3   5    0.53    1.34
  11   3   5   -1.89    1.33
  13   3   5    7.59    2.75
 -14   4   5   40.63    5.06
 -12   4   5   26.59    4.17
 -10   4   5   59.18    5.30
  -8   4   5    9.37    2.00
  -6   4   5    8.32    1.95
  -4   4   5    0.87    1.42
  -2   4   5   -1.92    1.27
   0   4   5    7.95    1.90
   2   4   5   47.56    3.60
   4   4   5    1.60    1.17
   6   4   5   77.78    3.95
   8   4   5   15.52    2.28
  10   4   5    3.72    1.76
 -11   5   5   44.43    5.55
  -9   5   5    3.37    2.84
  -7   5   5   41.62    5.56
  -5   5   5   14.57    2.51
  -3   5   5    8.23    2.21
  -1   5   5   33.14    3.49
   1   5   5   50.78    3.19
   3   5   5    7.52    1.72
   5   5   5   18.26    2.63
 -11  -5   6    0.32    1.87
  -9  -5   6   14.84    3.12
  -7  -5   6   38.73    4.28
  -5  -5   6   39.94    4.37
  -3  -5   6    3.52    1.97
  -1  -5   6    4.46    2.19
   1  -5   6   41.69    4.56
 -16  -4   6   35.12    4.24
 -14  -4   6    5.51    2.12
 -12  -4   6   26.62    3.55
 -10  -4   6    0.42    1.58
  -8  -4   6    9.18    2.43
  -6  -4   6   17.44    2.82
  -4  -4   6   95.52    5.65
  -2  -4   6   11.53    2.40
   0  -4   6    2.41    1.75
   2  -4   6   14.94    2.96
   4  -4   6    4.86    2.72
   6  -4   6   -0.60    2.46
   8  -4   6    7.33    3.46
 -19  -3   6    5.25    2.53
 -17  -3   6   -0.07    1.80
 -15  -3   6    5.02    2.12
 -13  -3   6   34.38    3.66
 -11  -3   6    2.98    1.69
  -9  -3   6   30.35    3.40
  -7  -3   6   60.76    4.21
  -5  -3   6   68.44    4.32
  -3  -3   6    3.36    1.56
  -1  -3   6   10.35    2.08
   1  -3   6   77.23    3.47
   3  -3   6    2.93    2.02
   5  -3   6   20.33    3.48
   7  -3   6   -0.46    2.35
   9  -3   6   67.01    6.82
  11  -3   6   10.90    3.72
 -20  -2   6   73.14    5.69
 -18  -2   6   19.75    3.26
 -16  -2   6   45.16    4.34
 -14  -2   6    4.95    2.00
 -12  -2   6   50.58    3.67
 -10  -2   6    1.33    1.33
  -8  -2   6   21.47    2.72
  -6  -2   6   34.60    3.29
  -4  -2   6  174.11    7.35
  -2  -2   6   17.61    2.44
   0  -2   6    5.88    1.26
   2  -2   6   38.86    3.65
   4  -2   6    6.20    2.16
   6  -2   6   -3.80    1.61
   8  -2   6   14.28    3.22
  10  -2   6   15.14    3.59
  12  -2   6    9.08    3.17
 -21  -1   6   37.20    4.61
 -19  -1   6    9.04    2.76
 -17  -1   6   -0.44    1.68
 -15  -1   6    6.30    2.00
 -13  -1   6   57.21    4.07
 -11  -1   6    8.46    1.91
  -9  -1   6   49.73    3.40
  -7  -1   6   77.83    4.35
  -5  -1   6  101.34    4.94
  -3  -1   6    7.52    1.62
  -1  -1   6   12.27    1.95
   1  -1   6  111.28    5.73
   3  -1   6    1.18    1.66
   5  -1   6   23.45    3.29
   7  -1   6   -1.58    1.69
   9  -1   6  100.23    6.46
  11  -1   6    5.97    2.55
  13  -1   6   41.99    4.89
 -22   0   6   -0.85    2.08
 -20   0   6  101.02    6.50
 -18   0   6   28.63    3.75
 -16   0   6   59.04    3.20
 -14   0   6    9.47    1.62
 -12   0   6   65.14    4.12
 -10   0   6    6.65    1.52
  -8   0   6   31.29    2.81
  -6   0   6   43.62    2.90
  -4   0   6  206.45    7.75
  -2   0   6   26.96    2.42
   0   0   6    6.16    1.42
   6   0   6    0.53    1.47
   8   0   6   30.39    3.39
  14   0   6    6.24    2.64
 -21   1   6   56.60    5.65
 -19   1   6    9.81    2.68
 -17   1   6   -0.80    1.44
 -15   1   6    6.14    1.40
 -13   1   6   56.94    2.98
 -11   1   6    7.06    1.34
  -9   1   6   45.55    2.66
  -7   1   6   84.28    3.40
  -5   1   6  102.17    3.81
  -3   1   6    9.64    1.33
  -1   1   6    9.86    2.76
   1   1   6  119.95    6.80
   3   1   6    4.90    1.30
   5   1   6   27.71    3.07
   7   1   6    0.00    1.06
   9   1   6   95.48    5.84
  11   1   6   10.17    2.63
  13   1   6   40.00    4.57
 -20   2   6   89.83    6.55
 -18   2   6   25.23    3.75
 -16   2   6   51.26    4.26
 -14   2   6   11.28    2.45
 -12   2   6   51.38    4.33
 -10   2   6    6.21    2.25
  -8   2   6   25.53    3.51
  -6   2   6   33.06    4.22
  -4   2   6  153.66    9.00
  -2   2   6   13.59    2.89
   0   2   6    7.59    1.62
   2   2   6   30.33    2.55
   4   2   6    9.84    1.63
   6   2   6    1.37    1.19
   8   2   6   17.94    2.16
  10   2   6   16.91    3.39
  12   2   6   20.47    3.66
 -15   3   6   -0.03    1.89
 -13   3   6   36.93    4.50
 -11   3   6    1.61    1.85
  -9   3   6   34.03    4.23
  -7   3   6   59.05    3.75
  -5   3   6   63.82    3.86
  -3   3   6    4.58    1.58
  -1   3   6   10.59    1.90
   1   3   6   77.37    3.92
   3   3   6    1.74    1.35
   5   3   6   16.86    2.19
   7   3   6    1.16    1.39
   9   3   6   79.37    4.05
  11   3   6    4.12    1.80
 -16   4   6   41.30    5.31
 -14   4   6    5.25    2.73
 -12   4   6   27.62    4.44
 -10   4   6    3.54    1.77
  -8   4   6   19.80    2.67
  -6   4   6   17.50    2.57
  -4   4   6  104.04    5.06
  -2   4   6   16.50    2.53
   0   4   6    5.76    1.94
   2   4   6   14.94    2.52
   4   4   6    7.37    1.86
   6   4   6    1.97    1.63
   8   4   6    6.81    2.61
  -7   5   6   29.58    3.55
  -5   5   6   38.98    3.86
  -3   5   6    5.24    2.23
  -1   5   6    6.82    2.37
   1   5   6   39.50    2.92
 -12  -4   7   10.12    2.62
 -10  -4   7   61.17    4.95
  -8  -4   7   13.10    2.91
  -6  -4   7    0.27    1.80
  -4  -4   7    6.70    2.30
  -2  -4   7   19.23    3.14
   0  -4   7   28.54    3.82
   2  -4   7   27.32    3.87
   4  -4   7   37.61    4.66
 -17  -3   7   60.41    5.56
 -15  -3   7   12.39    2.75
 -13  -3   7   63.74    4.72
 -11  -3   7    1.23    1.55
  -9  -3   7    3.23    1.72
  -7  -3   7    7.07    2.14
  -5  -3   7    1.41    1.54
  -3  -3   7   -0.86    1.22
  -1  -3   7   36.56    3.90
   1  -3   7    4.19    1.83
   7  -3   7   28.97    4.50
   9  -3   7   -1.75    2.65
 -18  -2   7   11.66    2.78
 -16  -2   7    5.70    2.26
 -14  -2   7   35.41    3.81
 -12  -2   7   10.95    2.33
 -10  -2   7  104.40    5.72
  -8  -2   7   27.12    3.17
  -6  -2   7    5.42    1.79
  -4  -2   7   12.55    2.29
  -2  -2   7   37.87    3.57
   0  -2   7   40.69    3.90
   6  -2   7    0.78    2.12
   8  -2   7    1.59    2.43
  10  -2   7    3.85    2.65
 -19  -1   7    0.41    1.76
 -17  -1   7   73.91    5.02
 -15  -1   7   19.87    2.95
 -13  -1   7   82.46    4.84
 -11  -1   7    0.70    1.33
  -9  -1   7    0.11    1.23
  -7  -1   7    6.87    1.77
  -5  -1   7   -1.45    1.00
  -3  -1   7    0.56    1.18
  -1  -1   7   56.51    3.75
   1  -1   7    5.31    1.76
   3  -1   7   49.22    4.31
   5  -1   7    5.57    2.28
   7  -1   7   45.07    4.85
   9  -1   7    2.14    2.09
  11  -1   7    7.41    2.75
 -20   0   7    1.48    2.09
 -18   0   7   23.77    3.60
 -16   0   7    5.53    1.57
 -14   0   7   45.29    2.99
 -12   0   7   18.72    2.55
 -10   0   7  122.15    5.61
  -8   0   7   35.82    3.23
  -6   0   7    7.13    1.65
  -4   0   7   13.97    1.95
  -2   0   7   39.30    2.92
   0   0   7   53.36    3.47
   2   0   7   47.54    3.48
  12   0   7    9.53    2.81
 -21   1   7   -1.40    2.00
 -19   1   7    0.02    1.85
 -17   1   7   68.49    3.63
 -15   1   7   21.61    2.30
 -13   1   7   86.49    3.81
 -11   1   7    1.02    1.12
  -9   1   7    1.53    1.09
  -7   1   7    2.35    2.26
  -5   1   7   -1.01    2.13
  -3   1   7    0.73    2.13
  -1   1   7   49.15    5.18
   1   1   7    0.62    1.98
   3   1   7   50.60    2.97
   5   1   7    3.86    1.26
   7   1   7   50.58    4.64
   9   1   7    0.42    2.05
  11   1   7    8.16    2.67
 -16   2   7    4.13    2.10
 -14   2   7   36.58    4.28
 -12   2   7   16.30    3.31
 -10   2   7  107.10    7.17
  -8   2   7   22.80    4.02
  -6   2   7    0.87    2.37
  -4   2   7   11.29    3.23
  -2   2   7   29.21    4.39
   0   2   7   37.64    3.01
   2   2   7   37.06    4.40
   6   2   7    1.13    1.35
   8   2   7    1.69    1.44
  10   2   7   -0.54    2.09
 -17   3   7   54.00    5.80
 -15   3   7   13.96    3.34
 -13   3   7   64.74    5.50
 -11   3   7    2.94    2.07
  -9   3   7    1.57    2.11
  -7   3   7    3.15    1.80
  -5   3   7    0.06    1.51
  -3   3   7    1.08    1.53
  -1   3   7   40.73    3.35
   1   3   7    2.84    1.66
   3   3   7   32.55    4.47
   5   3   7    3.26    1.56
   7   3   7   27.62    2.83
   9   3   7    2.39    2.29
 -14   4   7   29.65    4.83
 -12   4   7    9.74    3.32
 -10   4   7   58.89    4.61
  -8   4   7   15.46    2.78
  -6   4   7    6.13    2.28
  -4   4   7    6.41    2.18
  -2   4   7   18.53    2.68
   0   4   7   32.21    3.31
   2   4   7   25.17    3.11
   4   4   7   37.65    3.23
  -8  -4   8    8.73    2.74
  -6  -4   8    9.34    2.68
  -4  -4   8   11.96    2.90
  -2  -4   8   19.55    3.34
 -15  -3   8    1.80    2.06
 -13  -3   8    2.21    2.06
 -11  -3   8   17.94    3.14
  -9  -3   8    3.66    2.06
  -7  -3   8   50.65    4.74
  -5  -3   8   76.03    5.18
  -3  -3   8   17.24    3.00
  -1  -3   8    2.88    1.90
   1  -3   8    0.37    1.82
   3  -3   8    3.98    2.13
 -16  -2   8    8.93    2.56
 -14  -2   8   -1.61    1.61
 -12  -2   8    1.01    1.72
 -10  -2   8   61.54    4.67
  -8  -2   8   16.04    2.77
  -6  -2   8   14.54    2.65
  -4  -2   8   20.34    3.00
  -2  -2   8   37.59    3.91
   0  -2   8   10.48    2.36
   2  -2   8   -0.24    1.53
 -19  -1   8   72.28    5.55
 -17  -1   8    1.33    1.88
 -15  -1   8    4.25    2.07
 -13  -1   8   -0.40    1.48
 -11  -1   8   30.39    3.50
  -9  -1   8    4.79    1.91
  -7  -1   8   74.28    4.50
  -5  -1   8  109.98    5.64
  -3  -1   8   24.44    2.95
  -1  -1   8    8.21    2.02
   1  -1   8    0.62    1.27
   3  -1   8    5.30    1.99
   9  -1   8    0.99    2.47
 -20   0   8    1.22    2.02
 -18   0   8    1.01    1.84
 -16   0   8    7.80    1.78
 -14   0   8   -0.81    1.10
 -12   0   8    1.07    1.51
 -10   0   8   80.97    4.52
  -8   0   8   18.62    2.56
  -6   0   8   19.81    2.49
  -4   0   8   23.81    2.64
  -2   0   8   50.45    3.54
   8   0   8    0.92    2.01
  10   0   8   68.00    5.80
 -17   1   8    5.42    2.50
 -15   1   8    5.01    2.51
 -13   1   8    0.97    2.12
 -11   1   8   14.59    3.57
  -9   1   8    4.43    2.53
  -5   1   8   95.13    7.41
  -3   1   8   17.80    3.56
  -1   1   8    8.27    2.63
   1   1   8    0.82    1.79
   3   1   8    3.51    1.99
   5   1   8   18.50    2.15
   7   1   8   14.18    3.03
 -16   2   8    7.96    2.68
 -14   2   8    2.61    2.31
 -12   2   8    0.23    2.27
 -10   2   8   70.23    6.99
  -8   2   8   10.06    3.28
  -6   2   8    8.05    3.25
  -4   2   8   12.82    3.54
  -2   2   8   40.64    5.19
   0   2   8    6.81    1.83
   2   2   8   -0.31    1.36
   4   2   8    3.68    2.21
   6   2   8   52.05    3.57
   8   2   8    0.79    2.37
 -15   3   8    7.53    2.93
 -13   3   8    3.19    2.55
 -11   3   8   10.33    3.51
  -9   3   8   -0.85    2.38
  -7   3   8   47.26    4.06
  -5   3   8   68.67    7.37
  -3   3   8   10.29    2.16
  -1   3   8    4.54    1.90
   1   3   8   -0.69    1.55
   3   3   8    6.79    2.57
   5   3   8   20.39    3.60
 -10   4   8   38.86    6.02
  -8   4   8    8.51    2.74
  -6   4   8    8.67    2.63
  -4   4   8   12.84    2.76
  -2   4   8   17.40    2.96
   0   4   8    9.05    3.32
  -9  -3   9    3.02    2.10
  -7  -3   9    6.27    2.52
  -5  -3   9   14.91    2.91
  -3  -3   9    9.68    2.79
  -1  -3   9    8.22    2.69
 -14  -2   9   -1.72    1.80
 -12  -2   9   -1.19    1.79
 -10  -2   9    2.20    1.98
  -8  -2   9   11.29    2.58
  -6  -2   9    1.73    1.74
  -4  -2   9   17.35    2.79
  -2  -2   9   35.19    4.14
   0  -2   9   21.98    3.47
   2  -2   9    3.45    1.97
   4  -2   9   14.05    2.86
 -17  -1   9    0.55    1.98
 -15  -1   9   24.53    3.66
 -13  -1   9   62.73    4.57
 -11  -1   9   43.33    4.28
  -9  -1   9    6.60    2.02
  -7  -1   9   12.61    2.51
  -5  -1   9   23.87    3.17
  -3  -1   9    8.14    2.12
  -1  -1   9   13.83    2.66
   1  -1   9   79.38    5.25
 -18   0   9   -2.13    1.76
 -16   0   9  110.68    5.11
 -14   0   9    1.01    1.47
 -12   0   9   -2.37    1.23
 -10   0   9    1.57    1.61
   0   0   9   32.59    4.70
 -17   1   9    2.77    2.58
 -15   1   9   10.77    3.40
 -13   1   9   33.80    5.00
 -11   1   9   29.96    4.90
  -9   1   9    1.17    2.52
  -7   1   9    6.72    3.00
  -5   1   9   12.39    3.37
  -3   1   9    6.08    2.45
  -1   1   9   10.85    2.85
   3   1   9    5.06    2.26
 -14   2   9    1.01    2.63
 -12   2   9   -0.30    2.49
 -10   2   9    0.90    2.71
  -8   2   9    0.91    2.89
  -6   2   9    1.03    2.74
  -4   2   9   11.70    3.42
   0   2   9   27.03    2.79
   2   2   9    3.70    2.06
   4   2   9   20.70    3.51
  -9   3   9    2.42    2.15
  -7   3   9    2.11    2.07
  -5   3   9   12.60    2.50
  -3   3   9   10.17    2.24
  -1   3   9   10.26    3.26
  -8  -2  10   58.46    5.49
  -6  -2  10    4.40    2.28
  -4  -2  10    4.65    2.34
  -2  -2  10   -2.05    1.76
 -13  -1  10   28.52    3.75
 -11  -1  10    0.61    1.94
  -9  -1  10   13.06    2.63
  -7  -1  10    0.42    1.89
  -5  -1  10   36.26    4.14
 -14   0  10    2.44    2.99
 -12   0  10    5.15    3.07
 -10   0  10   41.11    5.97
  -8   0  10   49.25    6.46
  -6   0  10    6.63    3.08
  -4   0  10    8.82    3.33
  -2   0  10    2.31    2.53
   0   0  10    5.98    2.91
 -11   1  10    1.47    2.56
  -9   1  10    9.28    3.20
  -7   1  10    2.45    2.72
  -3   1  10   -0.61    2.08
  -1   1  10    4.34    2.45
   1   1  10    1.16    2.36
  -6   2  10    3.57    2.90
  -4   2  10    4.48    2.82
  -2   2  10    2.18    2.58
   0   0   0    0.00    0.00
;
_shelx_hkl_checksum              71354
#END Tags that were not found in dictionaries
loop_
_space_group_symop_operation_xyz
'x, y, z'
'-x, y, -z'
'x+1/2, y+1/2, z'
'-x+1/2, y+1/2, -z'
'-x, -y, -z'
'x, -y, z'
'-x+1/2, -y+1/2, -z'
'x+1/2, -y+1/2, z'
loop_
_atom_site_label
_atom_site_type_symbol
_atom_site_fract_x
_atom_site_fract_y
_atom_site_fract_z
_atom_site_U_iso_or_equiv
_atom_site_adp_type
_atom_site_occupancy
_atom_site_site_symmetry_order
_atom_site_calc_flag
_atom_site_refinement_flags_posn
_atom_site_refinement_flags_adp
_atom_site_refinement_flags_occupancy
Gd1 Gd 0.34742(4) 0.0000 0.06412(8) 0.00805(14) Uani 1 2 d S T P
Gd2 Gd 0.58795(4) 0.0000 0.38067(8) 0.00781(14) Uani 1 2 d S T P
Fe Fe 0.21885(11) 0.0000 0.6287(2) 0.0086(3) Uani 1 2 d S T P
In In 0.0000 0.0000 0.0000 0.0095(3) Uani 0.983(5) 4 d S T .
Ge1 Ge 0.06630(8) 0.0000 0.65600(17) 0.0078(2) Uani 1 2 d S T P
Ge2 Ge 0.20590(8) 0.0000 0.26973(18) 0.0086(2) Uani 1 2 d S T P
loop_
_atom_site_aniso_label
_atom_site_aniso_U_11
_atom_site_aniso_U_22
_atom_site_aniso_U_33
_atom_site_aniso_U_23
_atom_site_aniso_U_13
_atom_site_aniso_U_12
Gd1 0.0073(2) 0.0075(3) 0.0100(2) 0.000 0.00354(18) 0.000
Gd2 0.0071(3) 0.0068(3) 0.0108(2) 0.000 0.00465(19) 0.000
Fe 0.0086(7) 0.0066(7) 0.0116(7) 0.000 0.0045(6) 0.000
In 0.0104(6) 0.0085(6) 0.0114(6) 0.000 0.0058(4) 0.000
Ge1 0.0075(5) 0.0068(5) 0.0100(5) 0.000 0.0038(4) 0.000
Ge2 0.0093(6) 0.0067(5) 0.0112(5) 0.000 0.0051(4) 0.000
loop_
_atom_type_symbol
_atom_type_description
_atom_type_scat_dispersion_real
_atom_type_scat_dispersion_imag
_atom_type_scat_source
Fe Fe 0.3463 0.8444 'International Tables Vol C Tables 4.2.6.8 and 6.1.1.4'
Ge Ge 0.1547 1.8001 'International Tables Vol C Tables 4.2.6.8 and 6.1.1.4'
In In -0.7276 1.3100 'International Tables Vol C Tables 4.2.6.8 and 6.1.1.4'
Gd Gd -0.1653 3.9035 'International Tables Vol C Tables 4.2.6.8 and 6.1.1.4'
loop_
_geom_angle_atom_site_label_1
_geom_angle_atom_site_label_2
_geom_angle_atom_site_label_3
_geom_angle
_geom_angle_site_symmetry_1
_geom_angle_site_symmetry_3
Ge1 Gd1 Ge1 92.21(4) 7_556 7_546
Ge1 Gd1 Ge2 86.19(3) 7_556 .
Ge1 Gd1 Ge2 86.19(3) 7_546 .
Ge1 Gd1 Ge2 166.51(4) 7_556 7_545
Ge1 Gd1 Ge2 89.18(3) 7_546 7_545
Ge2 Gd1 Ge2 107.29(3) . 7_545
Ge1 Gd1 Ge2 89.18(3) 7_556 7
Ge1 Gd1 Ge2 166.51(4) 7_546 7
Ge2 Gd1 Ge2 107.29(3) . 7
Ge2 Gd1 Ge2 86.41(4) 7_545 7
Ge1 Gd1 Fe 133.878(19) 7_556 1_554
Ge1 Gd1 Fe 133.878(19) 7_546 1_554
Ge2 Gd1 Fe 96.98(4) . 1_554
Ge2 Gd1 Fe 45.83(2) 7_545 1_554
Ge2 Gd1 Fe 45.83(2) 7 1_554
Ge1 Gd1 In 54.89(2) 7_556 3
Ge1 Gd1 In 110.14(3) 7_546 3
Ge2 Gd1 In 137.094(14) . 3
Ge2 Gd1 In 112.16(3) 7_545 3
Ge2 Gd1 In 60.24(2) 7 3
Fe Gd1 In 98.44(3) 1_554 3
Ge1 Gd1 In 110.14(3) 7_556 3_545
Ge1 Gd1 In 54.89(2) 7_546 3_545
Ge2 Gd1 In 137.094(14) . 3_545
Ge2 Gd1 In 60.24(2) 7_545 3_545
Ge2 Gd1 In 112.16(3) 7 3_545
Fe Gd1 In 98.44(3) 1_554 3_545
In Gd1 In 79.285(18) 3 3_545
Ge1 Gd1 Fe 44.72(3) 7_556 7_556
Ge1 Gd1 Fe 100.77(4) 7_546 7_556
Ge2 Gd1 Fe 44.08(2) . 7_556
Ge2 Gd1 Fe 147.81(4) 7_545 7_556
Ge2 Gd1 Fe 89.64(3) 7 7_556
Fe Gd1 Fe 113.29(3) 1_554 7_556
In Gd1 Fe 93.16(2) 3 7_556
In Gd1 Fe 148.18(3) 3_545 7_556
Ge1 Gd1 Fe 100.77(4) 7_556 7_546
Ge1 Gd1 Fe 44.72(4) 7_546 7_546
Ge2 Gd1 Fe 44.08(2) . 7_546
Ge2 Gd1 Fe 89.64(3) 7_545 7_546
Ge2 Gd1 Fe 147.81(4) 7 7_546
Fe Gd1 Fe 113.29(3) 1_554 7_546
In Gd1 Fe 148.18(3) 3 7_546
In Gd1 Fe 93.16(2) 3_545 7_546
Fe Gd1 Fe 77.02(4) 7_556 7_546
Ge1 Gd1 Gd2 113.43(3) 7_556 5_655
Ge1 Gd1 Gd2 113.43(3) 7_546 5_655
Ge2 Gd1 Gd2 150.50(3) . 5_655
Ge2 Gd1 Gd2 54.10(2) 7_545 5_655
Ge2 Gd1 Gd2 54.10(2) 7 5_655
Fe Gd1 Gd2 53.51(3) 1_554 5_655
In Gd1 Gd2 58.636(10) 3 5_655
In Gd1 Gd2 58.636(10) 3_545 5_655
Fe Gd1 Gd2 141.078(19) 7_556 5_655
Fe Gd1 Gd2 141.078(19) 7_546 5_655
Ge1 Gd1 Gd1 141.28(3) 7_556 7_545
Ge1 Gd1 Gd1 86.15(2) 7_546 7_545
Ge2 Gd1 Gd1 55.08(2) . 7_545
Ge2 Gd1 Gd1 52.20(2) 7_545 7_545
Ge2 Gd1 Gd1 101.08(3) 7 7_545
Fe Gd1 Gd1 60.15(3) 1_554 7_545
In Gd1 Gd1 158.46(3) 3 7_545
In Gd1 Gd1 100.366(16) 3_545 7_545
Fe Gd1 Gd1 97.60(3) 7_556 7_545
Fe Gd1 Gd1 53.14(3) 7_546 7_545
Gd2 Gd1 Gd1 102.51(2) 5_655 7_545
Ge1 Gd2 Ge1 91.41(4) 3 3_545
Ge1 Gd2 Fe 108.67(3) 3 5_656
Ge1 Gd2 Fe 108.67(3) 3_545 5_656
Ge1 Gd2 Ge2 82.30(3) 3 3
Ge1 Gd2 Ge2 149.04(4) 3_545 3
Fe Gd2 Ge2 46.88(2) 5_656 3
Ge1 Gd2 Ge2 149.04(4) 3 3_545
Ge1 Gd2 Ge2 82.30(3) 3_545 3_545
Fe Gd2 Ge2 46.88(2) 5_656 3_545
Ge2 Gd2 Ge2 87.68(4) 3 3_545
Ge1 Gd2 Fe 47.59(4) 3 3
Ge1 Gd2 Fe 107.59(4) 3_545 3
Fe Gd2 Fe 61.12(4) 5_656 3
Ge2 Gd2 Fe 47.45(4) 3 3
Ge2 Gd2 Fe 105.60(4) 3_545 3
Ge1 Gd2 Fe 107.59(4) 3 3_545
Ge1 Gd2 Fe 47.59(4) 3_545 3_545
Fe Gd2 Fe 61.12(4) 5_656 3_545
Ge2 Gd2 Fe 105.60(4) 3 3_545
Ge2 Gd2 Fe 47.45(4) 3_545 3_545
Fe Gd2 Fe 86.04(5) 3 3_545
Ge1 Gd2 Ge1 107.54(2) 3 7_546
Ge1 Gd2 Ge1 48.93(4) 3_545 7_546
Fe Gd2 Ge1 137.470(18) 5_656 7_546
Ge2 Gd2 Ge1 161.06(4) 3 7_546
Ge2 Gd2 Ge1 91.06(3) 3_545 7_546
Fe Gd2 Ge1 149.77(4) 3 7_546
Fe Gd2 Ge1 87.16(3) 3_545 7_546
Ge1 Gd2 Ge1 48.93(4) 3 7_556
Ge1 Gd2 Ge1 107.54(2) 3_545 7_556
Fe Gd2 Ge1 137.470(18) 5_656 7_556
Ge2 Gd2 Ge1 91.06(3) 3 7_556
Ge2 Gd2 Ge1 161.06(4) 3_545 7_556
Fe Gd2 Ge1 87.16(3) 3 7_556
Fe Gd2 Ge1 149.77(4) 3_545 7_556
Ge1 Gd2 Ge1 84.05(3) 7_546 7_556
Ge1 Gd2 In 150.65(3) 3 3_545
Ge1 Gd2 In 88.53(2) 3_545 3_545
Fe Gd2 In 99.10(3) 5_656 3_545
Ge2 Gd2 In 111.50(3) 3 3_545
Ge2 Gd2 In 59.88(2) 3_545 3_545
Fe Gd2 In 157.34(3) 3 3_545
Fe Gd2 In 93.87(3) 3_545 3_545
Ge1 Gd2 In 52.59(2) 7_546 3_545
Ge1 Gd2 In 103.40(2) 7_556 3_545
Ge1 Gd2 In 88.53(2) 3 3
Ge1 Gd2 In 150.65(3) 3_545 3
Fe Gd2 In 99.10(3) 5_656 3
Ge2 Gd2 In 59.88(2) 3 3
Ge2 Gd2 In 111.50(3) 3_545 3
Fe Gd2 In 93.87(3) 3 3
Fe Gd2 In 157.34(3) 3_545 3
Ge1 Gd2 In 103.40(2) 7_546 3
Ge1 Gd2 In 52.59(2) 7_556 3
In Gd2 In 77.634(18) 3_545 3
Ge1 Gd2 Ge2 78.07(3) 3 5_656
Ge1 Gd2 Ge2 78.07(3) 3_545 5_656
Fe Gd2 Ge2 44.49(4) 5_656 5_656
Ge2 Gd2 Ge2 70.96(3) 3 5_656
Ge2 Gd2 Ge2 70.96(3) 3_545 5_656
Fe Gd2 Ge2 43.18(2) 3 5_656
Fe Gd2 Ge2 43.18(2) 3_545 5_656
Ge1 Gd2 Ge2 126.25(2) 7_546 5_656
Ge1 Gd2 Ge2 126.25(2) 7_556 5_656
In Gd2 Ge2 130.349(16) 3_545 5_656
In Gd2 Ge2 130.349(16) 3 5_656
Ge2 Fe Ge2 121.56(8) 7_556 7_546
Ge2 Fe Ge1 112.10(5) 7_556 .
Ge2 Fe Ge1 112.10(5) 7_546 .
Ge2 Fe Ge2 100.86(5) 7_556 .
Ge2 Fe Ge2 100.86(5) 7_546 .
Ge1 Fe Ge2 106.89(7) . .
Ge2 Fe Gd2 66.89(4) 7_556 5_656
Ge2 Fe Gd2 66.89(4) 7_546 5_656
Ge1 Fe Gd2 176.89(7) . 5_656
Ge2 Fe Gd2 76.22(5) . 5_656
Ge2 Fe Gd2 160.79(6) 7_556 3_445
Ge2 Fe Gd2 75.73(3) 7_546 3_445
Ge1 Fe Gd2 63.10(4) . 3_445
Ge2 Fe Gd2 65.29(4) . 3_445
Gd2 Fe Gd2 118.88(4) 5_656 3_445
Ge2 Fe Gd2 75.73(3) 7_556 3_455
Ge2 Fe Gd2 160.79(6) 7_546 3_455
Ge1 Fe Gd2 63.10(4) . 3_455
Ge2 Fe Gd2 65.29(4) . 3_455
Gd2 Fe Gd2 118.88(4) 5_656 3_455
Gd2 Fe Gd2 86.04(5) 3_445 3_455
Ge2 Fe Gd1 66.12(4) 7_556 1_556
Ge2 Fe Gd1 66.12(4) 7_546 1_556
Ge1 Fe Gd1 106.42(6) . 1_556
Ge2 Fe Gd1 146.69(7) . 1_556
Gd2 Fe Gd1 70.47(4) 5_656 1_556
Gd2 Fe Gd1 132.74(3) 3_445 1_556
Gd2 Fe Gd1 132.74(3) 3_455 1_556
Ge2 Fe Gd1 58.72(3) 7_556 7_556
Ge2 Fe Gd1 124.59(6) 7_546 7_556
Ge1 Fe Gd1 57.59(3) . 7_556
Ge2 Fe Gd1 134.53(4) . 7_556
Gd2 Fe Gd1 120.28(4) 5_656 7_556
Gd2 Fe Gd1 120.64(5) 3_445 7_556
Gd2 Fe Gd1 70.12(3) 3_455 7_556
Gd1 Fe Gd1 66.71(3) 1_556 7_556
Ge2 Fe Gd1 124.59(6) 7_556 7_546
Ge2 Fe Gd1 58.72(3) 7_546 7_546
Ge1 Fe Gd1 57.59(3) . 7_546
Ge2 Fe Gd1 134.53(4) . 7_546
Gd2 Fe Gd1 120.28(4) 5_656 7_546
Gd2 Fe Gd1 70.12(3) 3_445 7_546
Gd2 Fe Gd1 120.64(5) 3_455 7_546
Gd1 Fe Gd1 66.71(3) 1_556 7_546
Gd1 Fe Gd1 77.02(4) 7_556 7_546
Ge1 In Ge1 180.00(4) 5_556 1_554
Ge1 In Gd1 55.877(17) 5_556 3_445
Ge1 In Gd1 124.123(17) 1_554 3_445
Ge1 In Gd1 124.123(17) 5_556 7
Ge1 In Gd1 55.877(17) 1_554 7
Gd1 In Gd1 180.000(13) 3_445 7
Ge1 In Gd1 124.123(17) 5_556 7_545
Ge1 In Gd1 55.877(17) 1_554 7_545
Gd1 In Gd1 100.714(18) 3_445 7_545
Gd1 In Gd1 79.286(18) 7 7_545
Ge1 In Gd1 55.877(17) 5_556 3_455
Ge1 In Gd1 124.123(17) 1_554 3_455
Gd1 In Gd1 79.286(18) 3_445 3_455
Gd1 In Gd1 100.714(18) 7 3_455
Gd1 In Gd1 180.000(13) 7_545 3_455
Ge1 In Gd2 59.90(2) 5_556 3_455
Ge1 In Gd2 120.10(2) 1_554 3_455
Gd1 In Gd2 115.664(15) 3_445 3_455
Gd1 In Gd2 64.336(15) 7 3_455
Gd1 In Gd2 111.516(15) 7_545 3_455
Gd1 In Gd2 68.484(15) 3_455 3_455
Ge1 In Gd2 120.10(2) 5_556 7_545
Ge1 In Gd2 59.90(2) 1_554 7_545
Gd1 In Gd2 64.336(15) 3_445 7_545
Gd1 In Gd2 115.664(15) 7 7_545
Gd1 In Gd2 68.484(15) 7_545 7_545
Gd1 In Gd2 111.516(15) 3_455 7_545
Gd2 In Gd2 180.000(14) 3_455 7_545
Ge1 In Gd2 59.90(2) 5_556 3_445
Ge1 In Gd2 120.10(2) 1_554 3_445
Gd1 In Gd2 68.484(15) 3_445 3_445
Gd1 In Gd2 111.516(15) 7 3_445
Gd1 In Gd2 64.336(15) 7_545 3_445
Gd1 In Gd2 115.664(15) 3_455 3_445
Gd2 In Gd2 77.634(18) 3_455 3_445
Gd2 In Gd2 102.366(18) 7_545 3_445
Ge1 In Gd2 120.10(2) 5_556 7
Ge1 In Gd2 59.90(2) 1_554 7
Gd1 In Gd2 111.516(15) 3_445 7
Gd1 In Gd2 68.484(15) 7 7
Gd1 In Gd2 115.664(15) 7_545 7
Gd1 In Gd2 64.336(15) 3_455 7
Gd2 In Gd2 102.366(18) 3_455 7
Gd2 In Gd2 77.634(18) 7_545 7
Gd2 In Gd2 180.0 3_445 7
Fe Ge1 Ge1 119.88(8) . 5_556
Fe Ge1 In 131.33(6) . 1_556
Ge1 Ge1 In 108.79(6) 5_556 1_556
Fe Ge1 Gd1 77.69(4) . 7_556
Ge1 Ge1 Gd1 132.71(2) 5_556 7_556
In Ge1 Gd1 69.23(3) 1_556 7_556
Fe Ge1 Gd1 77.69(4) . 7_546
Ge1 Ge1 Gd1 132.71(2) 5_556 7_546
In Ge1 Gd1 69.23(3) 1_556 7_546
Gd1 Ge1 Gd1 92.21(4) 7_556 7_546
Fe Ge1 Gd2 69.32(3) . 3_445
Ge1 Ge1 Gd2 69.74(4) 5_556 3_445
In Ge1 Gd2 133.28(2) 1_556 3_445
Gd1 Ge1 Gd2 146.93(5) 7_556 3_445
Gd1 Ge1 Gd2 78.84(2) 7_546 3_445
Fe Ge1 Gd2 69.32(3) . 3_455
Ge1 Ge1 Gd2 69.74(4) 5_556 3_455
In Ge1 Gd2 133.28(2) 1_556 3_455
Gd1 Ge1 Gd2 78.84(2) 7_556 3_455
Gd1 Ge1 Gd2 146.93(5) 7_546 3_455
Gd2 Ge1 Gd2 91.41(4) 3_445 3_455
Fe Ge1 Gd2 136.95(2) . 7_546
Ge1 Ge1 Gd2 61.33(3) 5_556 7_546
In Ge1 Gd2 67.51(2) 1_556 7_546
Gd1 Ge1 Gd2 136.57(4) 7_556 7_546
Gd1 Ge1 Gd2 76.19(2) 7_546 7_546
Gd2 Ge1 Gd2 72.46(2) 3_445 7_546
Gd2 Ge1 Gd2 131.07(4) 3_455 7_546
Fe Ge1 Gd2 136.95(2) . 7_556
Ge1 Ge1 Gd2 61.33(3) 5_556 7_556
In Ge1 Gd2 67.51(2) 1_556 7_556
Gd1 Ge1 Gd2 76.19(2) 7_556 7_556
Gd1 Ge1 Gd2 136.57(4) 7_546 7_556
Gd2 Ge1 Gd2 131.07(4) 3_445 7_556
Gd2 Ge1 Gd2 72.46(2) 3_455 7_556
Gd2 Ge1 Gd2 84.05(3) 7_546 7_556
Fe Ge2 Fe 121.56(8) 7_556 7_546
Fe Ge2 Fe 79.14(5) 7_556 .
Fe Ge2 Fe 79.14(5) 7_546 .
Fe Ge2 Gd1 77.19(4) 7_556 .
Fe Ge2 Gd1 77.19(4) 7_546 .
Fe Ge2 Gd1 130.29(6) . .
Fe Ge2 Gd2 143.70(6) 7_556 3_445
Fe Ge2 Gd2 66.23(4) 7_546 3_445
Fe Ge2 Gd2 67.26(4) . 3_445
Gd1 Ge2 Gd2 135.599(18) . 3_445
Fe Ge2 Gd2 66.23(4) 7_556 3_455
Fe Ge2 Gd2 143.70(6) 7_546 3_455
Fe Ge2 Gd2 67.26(3) . 3_455
Gd1 Ge2 Gd2 135.599(18) . 3_455
Gd2 Ge2 Gd2 87.68(4) 3_445 3_455
Fe Ge2 Gd1 145.20(6) 7_556 7_545
Fe Ge2 Gd1 68.04(4) 7_546 7_545
Fe Ge2 Gd1 134.42(2) . 7_545
Gd1 Ge2 Gd1 72.71(3) . 7_545
Gd2 Ge2 Gd1 70.87(2) 3_445 7_545
Gd2 Ge2 Gd1 128.37(4) 3_455 7_545
Fe Ge2 Gd1 68.04(4) 7_556 7
Fe Ge2 Gd1 145.20(6) 7_546 7
Fe Ge2 Gd1 134.42(2) . 7
Gd1 Ge2 Gd1 72.71(3) . 7
Gd2 Ge2 Gd1 128.37(4) 3_445 7
Gd2 Ge2 Gd1 70.87(2) 3_455 7
Gd1 Ge2 Gd1 86.41(4) 7_545 7
Fe Ge2 Gd2 61.09(4) 7_556 5_656
Fe Ge2 Gd2 61.09(4) 7_546 5_656
Fe Ge2 Gd2 59.29(5) . 5_656
Gd1 Ge2 Gd2 71.00(3) . 5_656
Gd2 Ge2 Gd2 109.04(3) 3_445 5_656
Gd2 Ge2 Gd2 109.04(3) 3_455 5_656
Gd1 Ge2 Gd2 122.18(3) 7_545 5_656
Gd1 Ge2 Gd2 122.18(3) 7 5_656
loop_
_geom_bond_atom_site_label_1
_geom_bond_atom_site_label_2
_geom_bond_distance
_geom_bond_site_symmetry_2
Gd1 Ge1 2.9445(9) 7_556
Gd1 Ge1 2.9445(9) 7_546
Gd1 Ge2 2.9867(13) .
Gd1 Ge2 3.0993(10) 7_545
Gd1 Ge2 3.0993(10) 7
Gd1 Fe 3.1435(18) 1_554
Gd1 In 3.3257(6) 3
Gd1 In 3.3257(6) 3_545
Gd1 Fe 3.4076(13) 7_556
Gd1 Fe 3.4076(13) 7_546
Gd1 Gd2 3.5731(9) 5_655
Gd1 Gd1 3.6089(10) 7_545
Gd2 Ge1 2.9644(9) 3
Gd2 Ge1 2.9644(9) 3_545
Gd2 Fe 3.0479(18) 5_656
Gd2 Ge2 3.0633(10) 3
Gd2 Ge2 3.0633(10) 3_545
Gd2 Fe 3.1099(13) 3
Gd2 Fe 3.1099(13) 3_545
Gd2 Ge1 3.1694(10) 7_546
Gd2 Ge1 3.1694(10) 7_556
Gd2 In 3.3849(6) 3_545
Gd2 In 3.3849(6) 3
Gd2 Ge2 3.4429(14) 5_656
Fe Ge2 2.4312(11) 7_556
Fe Ge2 2.4312(11) 7_546
Fe Ge1 2.454(2) .
Fe Ge2 2.484(2) .
Fe Gd2 3.0480(18) 5_656
Fe Gd2 3.1099(13) 3_445
Fe Gd2 3.1099(13) 3_455
Fe Gd1 3.1436(18) 1_556
Fe Gd1 3.4076(13) 7_556
Fe Gd1 3.4076(13) 7_546
In Ge1 2.9099(12) 5_556
In Ge1 2.9099(12) 1_554
In Gd1 3.3257(6) 3_445
In Gd1 3.3257(6) 7
In Gd1 3.3257(6) 7_545
In Gd1 3.3257(6) 3_455
In Gd2 3.3849(6) 3_455
In Gd2 3.3849(6) 7_545
In Gd2 3.3849(6) 3_445
In Gd2 3.3849(6) 7
Ge1 Ge1 2.547(2) 5_556
Ge1 In 2.9099(12) 1_556
Ge1 Gd1 2.9445(9) 7_556
Ge1 Gd1 2.9445(9) 7_546
Ge1 Gd2 2.9643(9) 3_445
Ge1 Gd2 2.9643(9) 3_455
Ge1 Gd2 3.1694(10) 7_546
Ge1 Gd2 3.1694(10) 7_556
Ge2 Fe 2.4312(11) 7_556
Ge2 Fe 2.4312(11) 7_546
Ge2 Gd2 3.0633(10) 3_445
Ge2 Gd2 3.0633(10) 3_455
Ge2 Gd1 3.0993(10) 7_545
Ge2 Gd1 3.0993(10) 7
Ge2 Gd2 3.4429(14) 5_656
