#------------------------------------------------------------------------------
#$Date: 2016-03-24 00:14:39 +0200 (Thu, 24 Mar 2016) $
#$Revision: 179528 $
#$URL: svn://www.crystallography.net/cod/cif/4/34/25/4342576.cif $
#------------------------------------------------------------------------------
#
# This file is available in the Crystallography Open Database (COD),
# http://www.crystallography.net/
#
# All data on this site have been placed in the public domain by the
# contributors.
#
data_4342576
loop_
_publ_author_name
'Oliynyk, Anton O.'
'Stoyko, Stanislav S.'
'Mar, Arthur'
_publ_section_title
;
 Many Metals Make the Cut: Quaternary Rare-Earth Germanides RE4M2InGe4 (M
 = Fe, Co, Ni, Ru, Rh, Ir) and RE4RhInGe4 Derived from Excision of Slabs
 in RE2InGe2.
;
_journal_issue                   6
_journal_name_full               'Inorganic chemistry'
_journal_page_first              2780
_journal_page_last               2792
_journal_paper_doi               10.1021/ic502955h
_journal_volume                  54
_journal_year                    2015
_chemical_formula_structural     'Tb4 Ru2 In Ge4'
_chemical_formula_sum            'Ge4 In Ru2 Tb4'
_chemical_formula_weight         1243.00
_chemical_name_common
'terbium ruthenium indium germanide (4/2/1/4)'
_chemical_name_systematic
'terbium ruthenium indium germanide (4/2/1/4)'
_space_group_crystal_system      monoclinic
_space_group_IT_number           12
_space_group_name_Hall           '-C 2y'
_space_group_name_H-M_alt        'C 1 2/m 1'
_symmetry_space_group_name_Hall  '-C 2y'
_symmetry_space_group_name_H-M   'C 1 2/m 1'
_atom_sites_solution_primary     direct
_atom_sites_solution_secondary   difmap
_audit_creation_method           SHELXL-2013
_cell_angle_alpha                90
_cell_angle_beta                 106.6718(8)
_cell_angle_gamma                90
_cell_formula_units_Z            2
_cell_length_a                   15.6651(9)
_cell_length_b                   4.2639(2)
_cell_length_c                   6.9895(4)
_cell_measurement_reflns_used    3267
_cell_measurement_temperature    173(2)
_cell_measurement_theta_max      33.07
_cell_measurement_theta_min      2.71
_cell_volume                     447.23(4)
_computing_cell_refinement       'Bruker SAINT 8.27B (Bruker, 2011)'
_computing_data_collection       'Bruker APEX 2 (Bruker, 2008)'
_computing_data_reduction        'Bruker SAINT 8.27B'
_computing_molecular_graphics    'ATOMS 5.1 (Dowty, 1999)'
_computing_publication_material  'Bruker SHELXTL'
_computing_structure_refinement  'Bruker SHELXTL'
_computing_structure_solution    'Bruker SHELXTL'
_diffrn_ambient_temperature      173(2)
_diffrn_measured_fraction_theta_full 1.000
_diffrn_measured_fraction_theta_max 0.983
_diffrn_measurement_device_type  'Bruker PLATFORM/SMART APEX II CCD'
_diffrn_measurement_method       '\w and \f scans'
_diffrn_radiation_type           MoK\a
_diffrn_radiation_wavelength     0.71073
_diffrn_reflns_av_R_equivalents  0.0264
_diffrn_reflns_av_unetI/netI     0.0236
_diffrn_reflns_Laue_measured_fraction_full 1.000
_diffrn_reflns_Laue_measured_fraction_max 0.983
_diffrn_reflns_limit_h_max       23
_diffrn_reflns_limit_h_min       -23
_diffrn_reflns_limit_k_max       6
_diffrn_reflns_limit_k_min       -6
_diffrn_reflns_limit_l_max       10
_diffrn_reflns_limit_l_min       -10
_diffrn_reflns_number            3193
_diffrn_reflns_point_group_measured_fraction_full 1.000
_diffrn_reflns_point_group_measured_fraction_max 0.983
_diffrn_reflns_theta_full        25.242
_diffrn_reflns_theta_max         33.177
_diffrn_reflns_theta_min         2.715
_diffrn_source                   'fine-focus sealed tube'
_exptl_absorpt_coefficient_mu    50.099
_exptl_absorpt_correction_T_max  0.3367
_exptl_absorpt_correction_T_min  0.0347
_exptl_absorpt_correction_type   numerical
_exptl_absorpt_process_details   'Bruker SHELXTL (Sheldrick, 2013)'
_exptl_crystal_colour            grey
_exptl_crystal_density_diffrn    9.230
_exptl_crystal_density_method    'not measured'
_exptl_crystal_description       irregular
_exptl_crystal_F_000             1050
_exptl_crystal_size_max          0.142
_exptl_crystal_size_mid          0.049
_exptl_crystal_size_min          0.030
_refine_diff_density_max         1.835
_refine_diff_density_min         -1.662
_refine_diff_density_rms         0.355
_refine_ls_extinction_coef       0.00081(7)
_refine_ls_extinction_expression Fc^*^=kFc[1+0.001xFc^2^\l^3^/sin(2\q)]^-1/4^
_refine_ls_extinction_method     SHELXL
_refine_ls_goodness_of_fit_ref   1.099
_refine_ls_hydrogen_treatment    undef
_refine_ls_matrix_type           full
_refine_ls_number_parameters     37
_refine_ls_number_reflns         944
_refine_ls_number_restraints     0
_refine_ls_restrained_S_all      1.099
_refine_ls_R_factor_all          0.0206
_refine_ls_R_factor_gt           0.0188
_refine_ls_shift/su_max          0.000
_refine_ls_shift/su_mean         0.000
_refine_ls_structure_factor_coef Fsqd
_refine_ls_weighting_details
'w=1/[\s^2^(Fo^2^)+(0.0202P)^2^+1.3526P] where P=(Fo^2^+2Fc^2^)/3'
_refine_ls_weighting_scheme      calc
_refine_ls_wR_factor_gt          0.0422
_refine_ls_wR_factor_ref         0.0429
_reflns_Friedel_coverage         0.000
_reflns_number_gt                894
_reflns_number_total             944
_reflns_threshold_expression     'I > 2\s(I)'
_cod_data_source_file            ic502955h_si_004.cif
_cod_data_source_block           Tb4Ru2InGe4
_cod_depositor_comments
'Adding full bibliography for 4342570--4342590.cif.'
_cod_database_code               4342576
#BEGIN Tags that were not found in dictionaries:
_shelx_space_group_comment
;
The symmetry employed for this shelxl refinement is uniquely defined
by the following loop, which should always be used as a source of
symmetry information in preference to the above space-group names.
They are only intended as comments.
;
_shelx_estimated_absorpt_t_min   0.053
_shelx_estimated_absorpt_t_max   0.315
_shelxl_version_number           2013-4
_shelx_res_file
;
TITL Tb4Ru2InGe4 C2/m lsf final refinement
CELL 0.71073  15.66510   4.26390   6.98950  90.0000 106.6718  90.0000
ZERR    2.00   0.00090   0.00020   0.00040   0.0000   0.0008   0.0000
LATT  7
SYMM -X, Y, -Z
SFAC GE RU IN TB
UNIT 8 4 2 8
TEMP -100
SIZE 0.03 0.049 0.142

L.S. 4
ACTA

WGHT    0.020200    1.352600
EXTI    0.000814
FVAR       0.04428
TB1   4    0.348648    0.000000    0.066644    10.50000    0.00685    0.00646 =
         0.00626    0.00000    0.00148    0.00000
TB2   4    0.587257    0.000000    0.382821    10.50000    0.00638    0.00569 =
         0.00775    0.00000    0.00354    0.00000
RU    2    0.220071    0.000000    0.631938    10.50000    0.00619    0.00526 =
         0.00636    0.00000    0.00248    0.00000
IN    3    0.000000    0.000000    0.000000     0.23302    0.00752    0.01412 =
         0.00734    0.00000    0.00347    0.00000
GE1   1    0.064457    0.000000    0.658968    10.50000    0.00593    0.00571 =
         0.00858    0.00000    0.00143    0.00000
GE2   1    0.202468    0.000000    0.263501    10.50000    0.01123    0.00456 =
         0.00687    0.00000    0.00384    0.00000
HKLF 4

REM  Tb4Ru2InGe4 C2/m lsf final refinement
REM R1 =  0.0188 for     894 Fo > 4sig(Fo)  and  0.0206 for all     944 data
REM     37 parameters refined using      0 restraints

END

WGHT      0.0202      1.3474

REM Highest difference peak  1.835,  deepest hole -1.662,  1-sigma level  0.355
Q1    1   0.5723 -0.1465  0.3311  11.00000  0.05    1.84
Q2    1   0.5784  0.0000  0.4894  10.50000  0.05    1.81
Q3    1   0.3069  0.0000 -0.0187  10.50000  0.05    1.76
Q4    1   0.3743  0.1104  0.1435  11.00000  0.05    1.74
Q5    1   0.0499  0.0000  0.7379  10.50000  0.05    1.71
Q6    1   0.3710  0.0000 -0.0181  10.50000  0.05    1.62
Q7    1   0.0000  0.1692  0.0000  10.50000  0.05    1.54
Q8    1   0.3255  0.0000  0.1475  10.50000  0.05    1.50
Q9    1   0.0464  0.0000  0.0642  10.50000  0.05    1.44
Q10   1   0.2503  0.0000  0.5600  10.50000  0.05    1.36
Q11   1   0.3278  0.1362  0.0016  11.00000  0.05    1.31
Q12   1   0.2588  0.0000  0.7232  10.50000  0.05    1.30
Q13   1   0.2299  0.1438  0.3374  11.00000  0.05    1.25
Q14   1   0.5002  0.0000  0.4044  10.50000  0.05    1.23
Q15   1   0.2385  0.0000  0.1985  10.50000  0.05    1.19
Q16   1   0.6184 -0.1077  0.4748  11.00000  0.05    1.17
Q17   1   0.3502  0.0000 -0.1093  10.50000  0.05    1.13
Q18   1   0.2306  0.0000 -0.0433  10.50000  0.05    1.12
Q19   1   0.3174  0.0000  0.2741  10.50000  0.05    1.02
Q20   1   0.1870  0.0859  0.5426  11.00000  0.05    1.00
;
_shelx_res_checksum              27033
_shelx_hkl_file
;
   6  -2 -10    4.73    0.69
   8  -2 -10   52.57    2.91
   1  -1 -10    0.99    0.48
   3  -1 -10    0.67    0.43
   5  -1 -10   41.41    1.99
   7  -1 -10    8.86    1.00
   9  -1 -10   29.34    1.27
  11  -1 -10    3.69    0.69
  13  -1 -10   17.77    2.25
  -2   0 -10   10.00    1.12
   0   0 -10    5.07    0.78
   2   0 -10   11.14    1.11
   4   0 -10   24.98    1.45
   6   0 -10    3.82    0.68
   8   0 -10   52.55    2.20
  10   0 -10   70.70    2.09
  12   0 -10    2.47    0.54
  14   0 -10    1.29    0.67
  -1   1 -10    0.14    0.38
   1   1 -10    1.17    0.42
   3   1 -10    0.82    0.31
   5   1 -10   40.76    1.90
   7   1 -10    6.41    0.79
   9   1 -10   26.97    1.46
  11   1 -10    4.48    0.69
  13   1 -10   16.19    1.56
   4   2 -10   24.14    1.63
   6   2 -10    6.03    0.92
  10   2 -10   64.36    3.42
  -1  -3  -9   96.37    5.86
   1  -3  -9    7.48    1.04
   3  -3  -9    3.20    0.52
   5  -3  -9   19.35    1.07
   7  -3  -9    7.23    0.71
   9  -3  -9   10.63    1.14
  -2  -2  -9    0.34    0.45
   0  -2  -9   39.00    2.04
   2  -2  -9   37.18    2.00
   4  -2  -9   15.99    1.01
   6  -2  -9    2.27    0.47
   8  -2  -9   12.92    0.93
  10  -2  -9   11.82    1.40
  12  -2  -9    0.24    0.42
  14  -2  -9    0.99    0.49
  -5  -1  -9   15.73    1.01
  -3  -1  -9    1.22    0.45
  -1  -1  -9  123.10    3.92
   1  -1  -9    9.99    1.05
   3  -1  -9    4.37    0.70
   5  -1  -9   23.83    1.13
   7  -1  -9    9.49    0.78
   9  -1  -9   15.03    0.93
  11  -1  -9   49.10    2.14
  13  -1  -9   78.79    2.85
  15  -1  -9   27.91    1.53
  17  -1  -9    0.38    0.54
  -6   0  -9   11.84    0.97
  -4   0  -9   28.31    1.11
  -2   0  -9    0.53    0.26
   0   0  -9   42.26    1.39
   2   0  -9   46.03    1.41
   4   0  -9   19.70    1.23
   6   0  -9    2.58    0.56
   8   0  -9   15.34    0.86
  10   0  -9   10.46    0.80
  12   0  -9    0.62    0.39
  14   0  -9    0.78    0.38
  16   0  -9  151.77    3.85
  18   0  -9    4.69    0.94
  -5   1  -9   17.37    1.11
  -3   1  -9    0.98    0.33
  -1   1  -9  124.58    3.90
   1   1  -9   10.36    0.75
   3   1  -9    3.84    0.46
   5   1  -9   25.68    1.01
   7   1  -9    8.85    0.92
   9   1  -9   13.35    1.14
  11   1  -9   51.21    2.03
  13   1  -9   70.77    2.56
  15   1  -9   28.99    1.97
  -2   2  -9    0.71    0.38
   0   2  -9   41.39    1.72
   2   2  -9   37.94    1.61
   4   2  -9   16.41    1.05
   6   2  -9    2.43    0.40
   8   2  -9   13.93    0.88
  10   2  -9   10.85    0.78
  12   2  -9    0.47    0.39
   3   3  -9    3.25    0.61
   5   3  -9   20.51    1.26
   7   3  -9    7.67    0.81
   9   3  -9   12.65    1.02
  11   3  -9   40.78    1.68
   0  -4  -8   14.30    2.27
   2  -4  -8   18.22    1.54
   4  -4  -8   21.63    1.80
   6  -4  -8   15.47    1.36
   8  -4  -8   13.87    1.20
  10  -4  -8   59.14    3.08
  -3  -3  -8    7.18    1.31
  -1  -3  -8    0.05    0.39
   1  -3  -8    3.99    0.55
   3  -3  -8   44.14    1.56
   5  -3  -8  110.78    2.91
   7  -3  -8   40.51    1.65
   9  -3  -8   -0.08    0.34
  11  -3  -8   25.39    1.49
  13  -3  -8    0.82    0.41
  15  -3  -8    0.86    0.77
  -8  -2  -8    1.25    0.48
  -6  -2  -8   62.20    2.18
  -4  -2  -8   13.14    1.22
  -2  -2  -8   12.16    1.21
   0  -2  -8   22.44    1.51
   2  -2  -8   30.41    1.24
   4  -2  -8   32.42    1.28
   6  -2  -8   19.02    0.97
   8  -2  -8   20.25    1.01
  10  -2  -8   86.50    3.00
  12  -2  -8    2.09    0.50
  14  -2  -8    6.45    0.62
  16  -2  -8    2.94    0.45
  -9  -1  -8    2.27    0.50
  -7  -1  -8   10.47    0.89
  -5  -1  -8   31.04    1.14
  -3  -1  -8   11.63    0.70
  -1  -1  -8    0.18    0.20
   1  -1  -8    5.18    0.76
   3  -1  -8   50.13    1.66
   5  -1  -8  145.36    3.45
   7  -1  -8   52.18    1.69
   9  -1  -8    0.26    0.24
  11  -1  -8   36.22    1.71
  13  -1  -8    1.03    0.30
  15  -1  -8    1.26    0.33
  17  -1  -8    0.49    0.28
  19  -1  -8  108.57    3.10
 -10   0  -8  102.61    4.80
  -8   0  -8    0.81    0.35
  -6   0  -8   69.07    1.91
  -4   0  -8   16.06    0.78
  -2   0  -8   14.06    0.78
   0   0  -8   24.19    0.94
   2   0  -8   36.77    1.20
   4   0  -8   38.87    1.23
   6   0  -8   21.87    0.97
   8   0  -8   23.29    0.99
  10   0  -8  102.87    2.56
  12   0  -8    3.11    0.53
  14   0  -8    6.77    0.56
  16   0  -8    4.40    0.55
  18   0  -8    1.64    0.39
  20   0  -8    6.35    0.95
  -9   1  -8    2.70    0.86
  -7   1  -8   10.68    0.94
  -5   1  -8   32.28    1.43
  -3   1  -8   12.01    0.81
  -1   1  -8    0.18    0.22
   1   1  -8    6.49    0.56
   3   1  -8   56.47    1.60
   5   1  -8  151.41    3.30
   7   1  -8   54.24    1.55
   9   1  -8    0.89    0.22
  11   1  -8   36.13    1.26
  13   1  -8    0.50    0.35
  15   1  -8    0.94    0.33
  17   1  -8    0.70    0.40
  19   1  -8  114.82    4.06
  -8   2  -8    0.81    0.83
  -6   2  -8   63.84    2.33
  -4   2  -8   14.34    1.12
  -2   2  -8   12.65    1.02
   0   2  -8   22.66    1.19
   2   2  -8   30.88    1.38
   4   2  -8   32.67    1.24
   6   2  -8   20.56    0.96
   8   2  -8   21.29    0.96
  10   2  -8   89.82    2.28
  12   2  -8    2.33    0.37
  -5   3  -8   36.38    3.10
  -3   3  -8    7.71    0.93
  -1   3  -8    0.07    0.33
   1   3  -8    4.83    0.68
   3   3  -8   44.95    1.84
   5   3  -8  113.84    3.40
   7   3  -8   41.28    1.67
   9   3  -8    0.49    0.30
  11   3  -8   28.82    1.33
  13   3  -8    1.27    0.52
   2   4  -8   18.16    2.40
   4   4  -8   18.62    1.28
   6   4  -8   15.87    1.25
   8   4  -8   13.42    1.46
  -4  -4  -7   41.52    2.68
  -2  -4  -7   48.89    2.19
   0  -4  -7   45.91    2.10
   2  -4  -7    9.82    1.03
   4  -4  -7    2.27    0.54
   6  -4  -7    2.82    0.45
   8  -4  -7   14.39    1.50
  10  -4  -7   82.11    2.89
  12  -4  -7    4.17    0.70
  14  -4  -7   31.91    2.52
  -9  -3  -7    0.41    0.46
  -7  -3  -7   76.76    4.01
  -5  -3  -7    0.60    0.53
  -3  -3  -7   37.73    1.89
  -1  -3  -7    3.58    0.65
   1  -3  -7   37.67    1.33
   3  -3  -7    0.21    0.23
   5  -3  -7    0.31    0.24
   7  -3  -7    8.70    0.68
   9  -3  -7   10.45    0.96
  11  -3  -7    4.12    0.64
  13  -3  -7   54.19    1.62
  15  -3  -7   32.05    1.19
  17  -3  -7   55.41    1.67
 -10  -2  -7    0.65    0.39
  -8  -2  -7    1.12    0.38
  -6  -2  -7    2.39    0.44
  -4  -2  -7   62.72    1.82
  -2  -2  -7   70.71    1.92
   0  -2  -7   71.45    2.70
   2  -2  -7   16.73    0.85
   4  -2  -7    2.71    0.41
   6  -2  -7    4.39    0.49
   8  -2  -7   26.17    1.04
  10  -2  -7  127.41    3.89
  12  -2  -7    8.66    0.65
  14  -2  -7   50.98    1.53
  16  -2  -7    8.14    0.66
  18  -2  -7    4.25    0.58
 -11  -1  -7   16.87    1.11
  -9  -1  -7    0.28    0.28
  -7  -1  -7  102.24    3.01
  -5  -1  -7    0.71    0.25
  -3  -1  -7   46.14    1.41
  -1  -1  -7    5.85    0.50
   1  -1  -7   50.43    1.46
   3  -1  -7   -0.02    0.18
   5  -1  -7    0.07    0.19
   7  -1  -7   12.93    0.73
   9  -1  -7   12.08    0.75
  11  -1  -7    5.45    0.50
  13  -1  -7   76.58    2.00
  15  -1  -7   46.61    1.62
  17  -1  -7   74.46    2.30
  19  -1  -7    0.75    0.31
  21  -1  -7    0.62    0.52
 -12   0  -7    0.89    0.48
 -10   0  -7    0.64    0.33
  -8   0  -7    1.71    0.40
  -6   0  -7    3.66    0.42
  -4   0  -7   71.78    1.90
  -2   0  -7   82.57    2.04
   0   0  -7   78.77    1.98
   2   0  -7   19.26    0.78
   4   0  -7    4.31    0.35
   6   0  -7    7.07    0.40
   8   0  -7   30.41    1.11
  10   0  -7  159.93    2.87
  12   0  -7   10.19    0.65
  14   0  -7   55.44    1.52
  16   0  -7    9.59    0.77
  18   0  -7    8.58    0.73
  20   0  -7   12.38    1.24
 -11   1  -7   17.22    1.39
  -9   1  -7    0.64    0.35
  -7   1  -7  103.90    3.06
  -5   1  -7    0.24    0.23
  -3   1  -7   50.25    1.48
  -1   1  -7    6.02    0.53
   1   1  -7   51.80    1.52
   3   1  -7    0.14    0.18
   5   1  -7    0.33    0.19
   7   1  -7   12.52    0.59
   9   1  -7   13.05    0.58
  11   1  -7    5.98    0.36
  13   1  -7   79.24    1.91
  15   1  -7   44.55    1.54
  17   1  -7   76.64    2.99
  19   1  -7    0.09    0.31
  21   1  -7    0.28    0.41
 -10   2  -7    0.36    0.43
  -8   2  -7    1.57    0.46
  -6   2  -7    3.12    0.56
  -4   2  -7   68.20    2.32
  -2   2  -7   71.53    2.40
   0   2  -7   71.55    2.32
   2   2  -7   17.30    0.95
   4   2  -7    3.46    0.44
   6   2  -7    4.43    0.48
   8   2  -7   23.61    0.98
  10   2  -7  137.85    3.09
  12   2  -7    8.37    0.62
  14   2  -7   50.97    1.91
  16   2  -7    8.07    1.56
  18   2  -7    8.06    1.56
  20   2  -7    9.73    1.74
  -7   3  -7   75.12    2.80
  -5   3  -7    0.56    0.37
  -3   3  -7   32.93    1.67
  -1   3  -7    4.22    0.65
   1   3  -7   35.57    1.62
   3   3  -7    0.29    0.30
   5   3  -7   -0.05    0.23
   7   3  -7   10.00    0.85
   9   3  -7    9.70    0.84
  11   3  -7    3.55    0.69
  13   3  -7   54.71    2.56
  15   3  -7   30.79    2.91
  17   3  -7   46.48    3.73
  -4   4  -7   37.36    2.03
  -2   4  -7   39.09    2.05
   0   4  -7   45.53    2.05
   2   4  -7   12.46    1.14
   4   4  -7    1.37    0.44
   6   4  -7    2.09    0.65
   8   4  -7   14.14    1.43
  10   4  -7   86.32    3.67
  12   4  -7    7.01    1.02
  -1  -5  -6   63.11    2.53
   1  -5  -6    2.84    0.61
   3  -5  -6    2.94    0.58
   5  -5  -6   50.75    2.11
   7  -5  -6   32.72    2.48
  11  -5  -6    8.85    1.27
  -8  -4  -6    7.78    1.28
  -6  -4  -6    0.11    0.42
  -4  -4  -6    7.03    1.12
  -2  -4  -6   17.65    1.22
   0  -4  -6   10.03    0.95
   2  -4  -6   11.67    0.99
   4  -4  -6  135.83    4.01
   6  -4  -6   28.97    1.08
   8  -4  -6    9.40    0.88
  10  -4  -6   14.21    1.01
  12  -4  -6   26.33    1.38
  14  -4  -6    2.93    0.44
  16  -4  -6   34.47    1.54
 -11  -3  -6    3.89    0.60
  -9  -3  -6   74.00    2.40
  -7  -3  -6    0.87    0.33
  -5  -3  -6   22.59    1.04
  -3  -3  -6    0.47    0.32
  -1  -3  -6  106.08    3.31
   1  -3  -6    4.90    0.48
   3  -3  -6    3.62    0.42
   5  -3  -6   87.24    2.15
   7  -3  -6   54.08    1.55
   9  -3  -6   33.58    1.46
  11  -3  -6   13.05    0.71
  13  -3  -6   58.55    1.63
  15  -3  -6   13.33    0.81
  17  -3  -6    0.12    0.28
  19  -3  -6    3.25    0.73
 -12  -2  -6   27.14    1.35
 -10  -2  -6   38.84    1.61
  -8  -2  -6   12.03    0.85
  -6  -2  -6    0.50    0.26
  -4  -2  -6    7.02    0.58
  -2  -2  -6   31.77    1.07
   0  -2  -6   11.63    0.50
   2  -2  -6   22.12    0.87
   4  -2  -6  228.56    4.53
   6  -2  -6   47.28    1.39
   8  -2  -6   14.15    0.57
  10  -2  -6   21.09    0.82
  12  -2  -6   43.85    1.31
  14  -2  -6    5.85    0.51
  16  -2  -6   51.10    1.50
  18  -2  -6   45.66    1.64
  20  -2  -6   98.79    3.84
 -13  -1  -6   58.26    2.85
 -11  -1  -6    4.43    0.62
  -9  -1  -6   99.43    2.97
  -7  -1  -6    0.91    0.30
  -5  -1  -6   31.43    1.09
  -3  -1  -6    0.55    0.21
  -1  -1  -6  154.30    3.37
   1  -1  -6    8.75    0.45
   3  -1  -6    5.53    0.37
   5  -1  -6  120.55    2.75
   7  -1  -6   81.31    2.03
   9  -1  -6   52.24    1.22
  11  -1  -6   18.27    0.75
  13  -1  -6   85.62    2.06
  15  -1  -6   17.04    0.78
  17  -1  -6    0.15    0.21
  19  -1  -6    6.62    0.66
  21  -1  -6   63.27    2.86
 -14   0  -6    1.77    0.60
 -12   0  -6   33.19    1.96
 -10   0  -6   44.24    1.70
  -8   0  -6   15.58    0.88
  -6   0  -6    0.04    0.17
  -4   0  -6    8.27    0.59
  -2   0  -6   40.83    1.23
   0   0  -6   12.48    0.61
   2   0  -6   25.63    0.88
   4   0  -6  269.82    5.27
   6   0  -6   57.22    1.26
   8   0  -6   17.22    0.50
  10   0  -6   24.39    0.73
  12   0  -6   57.09    1.49
  14   0  -6    8.19    0.57
  16   0  -6   65.96    1.98
  18   0  -6   57.08    1.83
  20   0  -6  117.11    4.26
  22   0  -6   -0.13    0.32
 -13   1  -6   58.15    2.78
 -11   1  -6    4.55    0.78
  -9   1  -6  103.20    3.03
  -7   1  -6    2.55    0.31
  -5   1  -6   33.00    1.13
  -3   1  -6    0.76    0.23
  -1   1  -6  162.16    3.42
   1   1  -6    9.45    0.59
   3   1  -6    5.92    0.49
   5   1  -6  119.52    2.68
   7   1  -6   79.74    1.53
   9   1  -6   53.40    0.99
  11   1  -6   18.76    0.51
  13   1  -6   86.32    1.57
  15   1  -6   18.74    0.78
  17   1  -6   -0.23    0.22
  19   1  -6    5.26    0.77
  21   1  -6   65.27    2.76
 -12   2  -6   26.84    1.78
 -10   2  -6   38.61    2.13
  -8   2  -6   14.97    1.02
  -6   2  -6    0.46    0.29
  -4   2  -6    7.50    0.77
  -2   2  -6   30.61    1.39
   0   2  -6   12.03    0.81
   2   2  -6   20.02    0.99
   4   2  -6  215.30    4.60
   6   2  -6   44.62    1.40
   8   2  -6   13.16    0.66
  10   2  -6   21.07    0.81
  12   2  -6   47.23    1.42
  14   2  -6    5.41    1.32
  16   2  -6   51.29    3.65
  18   2  -6   41.72    3.36
  20   2  -6   99.68    5.63
 -11   3  -6    4.45    0.88
  -9   3  -6   75.84    3.39
  -7   3  -6    0.36    0.35
  -5   3  -6   20.69    1.31
  -3   3  -6    0.49    0.32
  -1   3  -6  103.01    3.20
   1   3  -6    6.13    0.70
   3   3  -6    4.49    0.58
   5   3  -6   84.58    2.59
   7   3  -6   54.82    1.86
   9   3  -6   34.62    1.59
  11   3  -6   12.22    0.95
  13   3  -6   60.67    2.36
  15   3  -6   13.31    2.57
  17   3  -6    0.44    0.90
  19   3  -6    3.16    1.26
  -8   4  -6    6.38    1.11
  -6   4  -6   -0.33    0.35
  -4   4  -6    4.75    0.78
  -2   4  -6   16.36    1.20
   0   4  -6    8.89    0.95
   2   4  -6    9.24    0.94
   4   4  -6  133.29    5.08
   6   4  -6   27.31    1.74
   8   4  -6    9.69    1.12
  10   4  -6   12.37    1.15
  12   4  -6   25.85    1.56
  14   4  -6    2.67    1.84
  16   4  -6   29.13    4.39
  -1   5  -6   66.04    3.29
   1   5  -6    1.96    0.69
   3   5  -6    3.48    0.82
   5   5  -6   51.97    2.76
   7   5  -6   30.73    2.01
  -5  -5  -5   19.68    1.73
  -3  -5  -5    7.00    1.13
  -1  -5  -5   90.38    3.02
   1  -5  -5   53.41    2.11
   3  -5  -5    0.59    0.36
   5  -5  -5   28.87    1.40
   7  -5  -5   37.28    2.56
   9  -5  -5    2.53    0.84
  11  -5  -5   45.23    1.90
  13  -5  -5    1.65    0.68
 -10  -4  -5    7.39    0.78
  -8  -4  -5   30.50    1.35
  -4  -4  -5    4.88    0.88
  -2  -4  -5   28.58    1.39
   0  -4  -5   10.61    0.91
   2  -4  -5    0.02    0.21
   4  -4  -5    0.32    0.21
   6  -4  -5    8.00    0.59
   8  -4  -5   21.92    1.12
  10  -4  -5   83.70    2.05
  12  -4  -5   13.40    0.74
  14  -4  -5   24.57    0.97
  16  -4  -5    8.64    0.67
  18  -4  -5    9.98    1.23
 -13  -3  -5   22.79    1.22
 -11  -3  -5    2.06    0.44
  -9  -3  -5    4.99    0.61
  -7  -3  -5   29.20    1.21
  -5  -3  -5   36.09    1.15
  -3  -3  -5   13.68    0.63
  -1  -3  -5  154.00    3.24
   1  -3  -5   97.54    2.24
   3  -3  -5    3.48    0.37
   5  -3  -5   49.21    1.38
   7  -3  -5   72.58    1.82
   9  -3  -5    3.86    0.38
  11  -3  -5   70.52    1.76
  13  -3  -5    2.08    0.31
  15  -3  -5   76.01    1.93
  17  -3  -5    1.30    0.34
  19  -3  -5    5.92    0.67
 -14  -2  -5   34.32    2.05
 -12  -2  -5   10.14    0.88
 -10  -2  -5   11.17    0.88
  -8  -2  -5   43.40    1.57
  -6  -2  -5  203.35    4.19
  -4  -2  -5    9.91    0.57
  -2  -2  -5   49.13    1.12
   0  -2  -5   17.76    0.56
   2  -2  -5    1.05    0.16
   4  -2  -5    2.09    0.28
   6  -2  -5   18.53    0.72
   8  -2  -5   36.87    0.92
  10  -2  -5  142.00    2.95
  12  -2  -5   24.21    0.84
  14  -2  -5   40.06    1.19
  16  -2  -5   13.22    0.76
  18  -2  -5   17.22    0.90
  20  -2  -5    5.92    0.63
  22  -2  -5   17.41    1.42
 -15  -1  -5   43.63    2.37
 -13  -1  -5   31.32    1.91
 -11  -1  -5    2.75    0.47
  -9  -1  -5    7.85    0.71
  -7  -1  -5   44.17    1.30
  -5  -1  -5   49.74    1.44
  -3  -1  -5   17.20    0.75
  -1  -1  -5  221.23    4.40
   1  -1  -5  147.93    2.63
   3  -1  -5    4.83    0.29
   5  -1  -5   83.70    1.58
   7  -1  -5  121.95    2.22
   9  -1  -5    5.66    0.37
  11  -1  -5  110.58    2.36
  13  -1  -5    3.54    0.36
  15  -1  -5  109.01    2.41
  17  -1  -5    2.22    0.35
  19  -1  -5   10.82    0.81
  21  -1  -5    3.86    0.51
 -16   0  -5    0.24    0.44
 -14   0  -5   39.61    2.24
 -12   0  -5   12.45    1.27
 -10   0  -5   14.18    0.86
  -8   0  -5   55.26    1.51
  -6   0  -5  245.28    4.85
  -4   0  -5   13.02    0.61
  -2   0  -5   60.73    1.58
   0   0  -5   22.62    0.80
   2   0  -5    0.73    0.16
   4   0  -5    2.27    0.23
   6   0  -5   22.90    0.55
   8   0  -5   43.32    0.85
  10   0  -5  185.11    2.73
  12   0  -5   31.68    0.98
  14   0  -5   47.99    1.31
  16   0  -5   14.34    0.75
  18   0  -5   18.84    0.91
  20   0  -5    7.31    0.90
  22   0  -5   19.55    1.39
 -15   1  -5   39.84    2.25
 -13   1  -5   33.32    1.91
 -11   1  -5    1.83    0.53
  -9   1  -5    8.12    0.75
  -7   1  -5   44.45    1.61
  -5   1  -5   54.39    1.50
  -3   1  -5   17.81    0.76
  -1   1  -5  221.61    4.48
   1   1  -5  152.44    3.24
   3   1  -5    5.10    0.38
   5   1  -5   83.36    1.56
   7   1  -5  126.60    1.87
   9   1  -5    5.51    0.30
  11   1  -5  110.87    1.69
  13   1  -5    4.60    0.37
  15   1  -5  113.69    2.49
  17   1  -5    2.84    0.47
  19   1  -5   11.62    0.85
  21   1  -5    3.02    0.61
  23   1  -5    3.85    0.75
 -14   2  -5   36.20    2.10
 -12   2  -5   11.37    1.22
 -10   2  -5   12.37    1.07
  -8   2  -5   41.77    1.73
  -6   2  -5  195.68    6.61
  -4   2  -5    8.03    0.78
  -2   2  -5   51.18    1.80
   0   2  -5   17.27    0.93
   2   2  -5    0.78    0.25
   4   2  -5    1.52    0.27
   6   2  -5   17.32    0.77
   8   2  -5   37.00    0.91
  10   2  -5  148.29    2.35
  12   2  -5   24.32    0.84
  14   2  -5   42.41    1.56
  16   2  -5   11.58    1.99
  18   2  -5   14.08    2.19
  20   2  -5    4.84    1.36
 -13   3  -5   20.11    1.70
 -11   3  -5    2.75    0.73
  -9   3  -5    5.40    0.90
  -7   3  -5   26.00    1.40
  -5   3  -5   32.23    1.54
  -3   3  -5   13.57    0.94
  -1   3  -5  144.82    4.07
   1   3  -5   94.58    2.82
   3   3  -5    2.28    0.33
   5   3  -5   52.06    1.51
   7   3  -5   74.46    1.99
   9   3  -5    3.79    0.56
  11   3  -5   74.68    2.61
  13   3  -5    1.31    1.34
  15   3  -5   75.49    6.05
  17   3  -5   -0.12    1.04
  19   3  -5    5.72    1.66
 -10   4  -5    6.13    1.16
  -8   4  -5   27.04    2.01
  -6   4  -5  127.25    4.00
  -4   4  -5    6.29    0.82
  -2   4  -5   28.53    1.46
   0   4  -5    9.64    1.13
   2   4  -5    1.15    0.44
   4   4  -5    0.24    0.27
   6   4  -5    8.14    0.80
   8   4  -5   20.19    1.19
  10   4  -5   85.86    2.98
  12   4  -5    7.93    2.27
  14   4  -5   21.14    3.80
  16   4  -5    6.94    2.53
  -7   5  -5   16.63    1.95
  -5   5  -5   21.75    1.81
  -3   5  -5    8.40    1.28
  -1   5  -5   88.60    3.93
   1   5  -5   52.59    2.76
   3   5  -5    0.72    0.48
   5   5  -5   25.95    1.42
   7   5  -5   35.88    1.76
   9   5  -5    2.06    0.57
  11   5  -5   43.55    4.15
  13   5  -5    2.62    1.75
   0  -6  -4   23.76    2.09
   2  -6  -4   29.34    2.08
  -7  -5  -4    0.45    0.51
  -5  -5  -4    6.09    1.08
  -3  -5  -4    0.80    0.39
  -1  -5  -4    0.33    0.30
   1  -5  -4   60.82    2.19
   3  -5  -4    0.85    0.34
   5  -5  -4   61.92    2.24
   7  -5  -4    1.20    0.59
   9  -5  -4   12.08    1.30
  11  -5  -4   27.31    1.37
  13  -5  -4    2.71    0.54
 -12  -4  -4   56.13    2.06
 -10  -4  -4    1.48    0.40
  -8  -4  -4   30.50    1.30
  -6  -4  -4   33.99    1.37
  -4  -4  -4    8.89    0.60
  -2  -4  -4   35.18    1.45
   0  -4  -4   41.99    1.60
   2  -4  -4   56.59    1.94
   4  -4  -4   14.35    0.65
   6  -4  -4  116.03    2.61
   8  -4  -4    1.25    0.33
  10  -4  -4    6.40    0.50
  12  -4  -4    7.20    0.54
  14  -4  -4   32.40    1.12
  16  -4  -4   17.48    1.02
 -15  -3  -4   13.66    1.42
 -13  -3  -4    0.01    0.26
 -11  -3  -4  104.14    2.96
  -9  -3  -4    3.09    0.46
  -7  -3  -4    0.67    0.24
  -5  -3  -4   16.31    0.69
  -3  -3  -4    1.14    0.22
  -1  -3  -4    0.54    0.14
   1  -3  -4  115.54    2.45
   3  -3  -4    1.13    0.21
   5  -3  -4  113.91    2.47
   7  -3  -4    3.64    0.28
   9  -3  -4   24.03    0.81
  11  -3  -4   51.42    1.34
  13  -3  -4    5.18    0.44
  15  -3  -4   39.63    1.19
  17  -3  -4   58.45    1.88
  19  -3  -4   40.10    1.53
 -16  -2  -4   55.25    2.80
 -14  -2  -4    1.71    0.55
 -12  -2  -4   81.62    2.54
 -10  -2  -4    2.15    0.38
  -8  -2  -4   54.35    1.67
  -6  -2  -4   62.95    1.60
  -4  -2  -4   17.75    0.68
  -2  -2  -4   63.21    1.27
   0  -2  -4   69.96    1.35
   2  -2  -4  101.61    1.81
   4  -2  -4   26.57    0.82
   6  -2  -4  217.49    3.50
   8  -2  -4    2.03    0.21
  10  -2  -4   13.11    0.54
  12  -2  -4   11.85    0.53
  14  -2  -4   49.71    1.32
  16  -2  -4   24.54    1.03
  18  -2  -4   20.36    0.94
  20  -2  -4   12.49    0.82
  22  -2  -4   41.12    1.53
 -17  -1  -4    7.62    1.09
 -15  -1  -4   17.45    1.35
 -13  -1  -4    0.31    0.36
 -11  -1  -4  132.80    3.56
  -9  -1  -4    3.59    0.46
  -7  -1  -4    0.49    0.19
  -5  -1  -4   30.25    0.97
  -3  -1  -4    1.34    0.24
  -1  -1  -4    1.29    0.17
   1  -1  -4  181.56    2.98
   3  -1  -4    2.11    0.18
   5  -1  -4  179.21    2.53
   7  -1  -4    8.65    0.26
   9  -1  -4   45.51    0.98
  11  -1  -4   87.36    1.91
  13  -1  -4    8.76    0.49
  15  -1  -4   55.42    1.63
  17  -1  -4   76.80    2.13
  19  -1  -4   53.44    1.71
  21  -1  -4   73.08    2.15
 -18   0  -4    3.31    0.79
 -16   0  -4   68.93    3.18
 -14   0  -4    3.43    0.70
 -12   0  -4   98.85    3.87
 -10   0  -4    2.37    0.39
  -8   0  -4   62.68    1.55
  -6   0  -4   81.69    1.92
  -4   0  -4   23.85    0.81
  -2   0  -4   86.98    1.98
   0   0  -4   88.58    1.98
   2   0  -4  128.58    2.32
   4   0  -4   35.85    0.71
   6   0  -4  286.72    3.97
   8   0  -4    2.19    0.17
  10   0  -4   18.29    0.54
  12   0  -4   16.49    0.63
  14   0  -4   62.83    1.74
  16   0  -4   32.85    1.14
  18   0  -4   22.65    0.95
  20   0  -4   12.95    1.05
  22   0  -4   48.80    2.31
 -17   1  -4    9.16    1.17
 -15   1  -4   15.77    1.33
 -13   1  -4    0.54    0.38
 -11   1  -4  131.35    4.80
  -9   1  -4    4.25    0.54
  -7   1  -4    0.47    0.26
  -5   1  -4   29.14    1.20
  -3   1  -4    0.92    0.23
  -1   1  -4    1.51    0.25
   1   1  -4  172.75    3.65
   3   1  -4    1.72    0.23
   5   1  -4  175.32    2.47
   7   1  -4    8.32    0.31
   9   1  -4   45.44    0.84
  11   1  -4   92.09    1.58
  13   1  -4    7.86    0.51
  15   1  -4   58.12    1.48
  17   1  -4   79.80    2.46
  19   1  -4   53.66    1.96
  21   1  -4   71.30    2.88
  23   1  -4    6.65    0.92
 -16   2  -4   61.08    2.92
 -14   2  -4    2.12    0.62
 -12   2  -4   85.57    3.50
 -10   2  -4    2.27    0.54
  -8   2  -4   45.77    1.78
  -6   2  -4   57.93    2.05
  -4   2  -4   16.48    0.95
  -2   2  -4   63.05    1.58
   0   2  -4   70.19    1.70
   2   2  -4  100.37    2.27
   4   2  -4   26.52    0.88
   6   2  -4  219.32    3.55
   8   2  -4    1.94    0.21
  10   2  -4   13.39    0.48
  12   2  -4   11.18    0.69
  14   2  -4   52.96    1.80
  16   2  -4   26.64    1.21
  18   2  -4   17.29    1.01
  20   2  -4   12.74    2.15
 -15   3  -4   17.58    1.86
 -13   3  -4   -0.19    0.51
 -11   3  -4  104.57    4.33
  -9   3  -4    3.92    0.77
  -7   3  -4    0.19    0.29
  -5   3  -4   16.75    1.02
  -3   3  -4    0.98    0.32
  -1   3  -4    0.49    0.18
   1   3  -4  110.25    2.56
   3   3  -4    1.00    0.23
   5   3  -4  113.19    3.19
   7   3  -4    4.15    0.52
   9   3  -4   24.97    1.21
  11   3  -4   52.72    2.01
  13   3  -4    2.53    1.50
  15   3  -4   28.51    4.37
  17   3  -4   56.21    5.19
  19   3  -4   34.54    3.64
 -10   4  -4    2.62    0.78
  -8   4  -4   32.41    2.05
  -6   4  -4   37.43    2.15
  -4   4  -4    8.74    1.10
  -2   4  -4   32.48    1.36
   0   4  -4   40.00    1.56
   2   4  -4   55.43    1.95
   4   4  -4   13.31    0.85
   6   4  -4  114.72    3.42
   8   4  -4    1.53    0.40
  10   4  -4    4.84    0.68
  12   4  -4    4.16    1.60
  14   4  -4   27.81    4.25
  16   4  -4   19.21    3.81
  -5   5  -4    7.26    1.19
  -3   5  -4   -0.34    0.42
  -1   5  -4    0.74    0.49
   1   5  -4   58.79    2.18
   3   5  -4    0.54    0.34
   5   5  -4   62.76    2.36
   7   5  -4    1.45    0.43
   9   5  -4   10.01    1.90
  11   5  -4   26.92    3.49
  13   5  -4    1.95    1.53
   0   6  -4   26.29    2.03
   2   6  -4   28.36    1.58
   4   6  -4    5.74    1.33
  -2  -6  -3    8.66    0.94
   0  -6  -3   64.65    3.69
   2  -6  -3    2.61    0.57
   4  -6  -3   50.84    3.14
 -11  -5  -3    2.61    0.70
  -9  -5  -3   32.40    1.46
  -7  -5  -3   29.85    1.32
  -5  -5  -3  118.85    5.19
  -3  -5  -3    3.54    0.57
  -1  -5  -3    5.85    0.68
   1  -5  -3    2.29    0.41
   3  -5  -3    3.22    0.50
   5  -5  -3    4.25    0.58
   7  -5  -3    1.14    0.55
   9  -5  -3  101.62    3.10
  11  -5  -3   50.90    1.95
  13  -5  -3    0.36    0.33
  15  -5  -3    4.39    0.95
 -14  -4  -3   17.14    1.05
 -12  -4  -3    8.11    0.76
 -10  -4  -3   27.86    1.26
  -8  -4  -3   10.29    0.81
  -6  -4  -3    0.83    0.28
  -4  -4  -3   87.13    2.03
  -2  -4  -3   20.79    0.75
   0  -4  -3  141.90    3.92
   2  -4  -3    5.15    0.55
   4  -4  -3  108.16    2.38
   6  -4  -3   27.65    0.91
   8  -4  -3   48.36    1.65
  10  -4  -3    6.48    0.63
  12  -4  -3   78.00    2.38
  14  -4  -3   60.47    2.03
  16  -4  -3    9.97    0.86
  18  -4  -3   17.46    1.44
 -15  -3  -3   18.84    1.44
 -13  -3  -3    0.87    0.33
 -11  -3  -3    6.07    0.61
  -9  -3  -3   58.07    1.84
  -7  -3  -3   47.18    1.56
  -5  -3  -3  248.03    4.72
  -3  -3  -3    7.64    0.43
  -1  -3  -3   16.58    0.50
   1  -3  -3    4.63    0.27
   3  -3  -3    8.97    0.45
   5  -3  -3    7.92    0.34
   7  -3  -3    1.34    0.16
   9  -3  -3  199.92    3.83
  11  -3  -3   95.76    2.07
  13  -3  -3    0.89    0.20
  15  -3  -3    7.81    0.54
  17  -3  -3   22.50    1.03
  19  -3  -3    7.19    0.68
  21  -3  -3    7.82    1.04
 -18  -2  -3    4.38    0.84
 -16  -2  -3    0.54    0.36
 -14  -2  -3   26.21    1.64
 -12  -2  -3   10.91    0.73
 -10  -2  -3   46.33    1.53
  -8  -2  -3   18.61    0.82
  -6  -2  -3    0.82    0.20
  -4  -2  -3  144.46    2.89
  -2  -2  -3   43.61    0.90
   0  -2  -3  289.80    4.50
   2  -2  -3    7.63    0.27
   4  -2  -3  213.56    3.39
   6  -2  -3   50.00    0.99
   8  -2  -3   82.91    1.51
  10  -2  -3    8.94    0.42
  12  -2  -3  129.59    2.62
  14  -2  -3   98.99    2.13
  16  -2  -3   14.75    0.75
  18  -2  -3   31.98    1.22
  20  -2  -3   23.77    1.06
  22  -2  -3    3.14    0.47
 -19  -1  -3    9.29    1.21
 -17  -1  -3   46.93    2.45
 -15  -1  -3   24.76    1.58
 -13  -1  -3    1.77    0.47
 -11  -1  -3    9.68    0.66
  -9  -1  -3   81.01    2.26
  -7  -1  -3   69.82    1.64
  -5  -1  -3  384.65    7.11
  -3  -1  -3   14.99    0.54
  -1  -1  -3   31.73    0.70
   1  -1  -3    5.84    0.24
   3  -1  -3   18.20    0.38
   5  -1  -3   12.00    0.40
   7  -1  -3    2.86    0.21
   9  -1  -3  338.95    5.17
  11  -1  -3  144.56    2.81
  13  -1  -3    0.54    0.15
  15  -1  -3   15.14    0.70
  17  -1  -3   33.06    1.16
  19  -1  -3   10.40    0.74
  21  -1  -3    7.73    0.66
  23  -1  -3    0.79    0.45
 -18   0  -3    4.49    0.83
 -16   0  -3    0.20    0.36
 -14   0  -3   31.92    1.80
 -12   0  -3    9.71    1.02
 -10   0  -3   54.49    1.75
  -8   0  -3   22.42    0.64
  -6   0  -3    1.29    0.18
  -4   0  -3  189.11    3.23
  -2   0  -3   63.07    1.48
   0   0  -3  400.52    6.21
   2   0  -3   10.55    0.36
   4   0  -3  300.01    3.86
   6   0  -3   68.75    1.04
   8   0  -3  107.38    1.71
  10   0  -3   11.87    0.36
  12   0  -3  166.60    3.32
  14   0  -3  132.37    3.01
  16   0  -3   18.25    0.77
  18   0  -3   40.93    1.31
  20   0  -3   29.27    1.59
  22   0  -3    4.46    0.74
 -19   1  -3    9.03    1.22
 -17   1  -3   44.46    2.44
 -15   1  -3   25.85    1.66
 -13   1  -3    1.75    0.50
 -11   1  -3    8.34    0.93
  -9   1  -3   79.98    1.98
  -7   1  -3   70.93    1.72
  -5   1  -3  377.69    8.76
  -3   1  -3   13.49    0.44
  -1   1  -3   31.50    0.76
   1   1  -3    5.90    0.30
   3   1  -3   17.55    0.48
   5   1  -3   11.74    0.32
   7   1  -3    3.25    0.19
   9   1  -3  339.86    4.82
  11   1  -3  150.10    2.61
  13   1  -3    0.29    0.15
  15   1  -3   14.52    0.84
  17   1  -3   32.20    1.35
  19   1  -3   11.10    0.89
  21   1  -3    7.53    0.76
  23   1  -3    1.24    0.47
 -16   2  -3    0.19    0.47
 -14   2  -3   29.85    1.78
 -12   2  -3    9.09    1.06
 -10   2  -3   46.08    2.15
  -8   2  -3   18.13    0.71
  -6   2  -3    1.09    0.21
  -4   2  -3  138.41    3.01
  -2   2  -3   42.43    1.13
   0   2  -3  286.27    5.49
   2   2  -3    7.82    0.42
   4   2  -3  214.43    4.23
   6   2  -3   51.38    1.01
   8   2  -3   84.23    1.81
  10   2  -3   10.22    0.58
  12   2  -3  132.09    3.59
  14   2  -3  101.62    2.93
  16   2  -3   15.75    0.90
  18   2  -3   34.18    1.58
  20   2  -3   22.58    1.19
  22   2  -3    3.47    0.56
 -13   3  -3    1.80    0.72
 -11   3  -3    5.37    0.97
  -9   3  -3   58.63    2.71
  -7   3  -3   48.27    1.38
  -5   3  -3  248.49    4.93
  -3   3  -3    7.98    0.49
  -1   3  -3   17.96    0.69
   1   3  -3    3.91    0.43
   3   3  -3    9.36    0.59
   5   3  -3    7.88    0.65
   7   3  -3    1.46    0.32
   9   3  -3  205.73    5.33
  11   3  -3   92.96    5.76
  13   3  -3    1.31    1.13
  15   3  -3    8.01    2.44
  17   3  -3   15.52    3.28
  19   3  -3    4.08    1.63
 -10   4  -3   27.83    2.03
  -8   4  -3   11.73    1.39
  -6   4  -3    1.31    0.34
  -4   4  -3   85.29    2.61
  -2   4  -3   19.87    0.98
   0   4  -3  146.48    3.94
   2   4  -3    4.59    0.54
   4   4  -3  108.49    3.11
   6   4  -3   26.96    1.25
   8   4  -3   45.45    1.79
  10   4  -3    5.42    1.33
  12   4  -3   79.92    5.38
  14   4  -3   60.05    5.27
  16   4  -3   10.67    2.87
  18   4  -3   10.47    3.19
  -5   5  -3  133.79    3.83
  -3   5  -3    3.88    0.60
  -1   5  -3    6.71    0.75
   1   5  -3    3.65    0.57
   3   5  -3    2.76    0.52
   5   5  -3    4.82    0.67
   7   5  -3    0.66    0.34
   9   5  -3  105.77    5.93
  11   5  -3   56.22    4.26
  13   5  -3    0.72    1.21
  -2   6  -3    6.58    1.30
   0   6  -3   70.87    2.65
   2   6  -3    1.83    0.55
   4   6  -3   50.46    2.17
   6   6  -3   15.53    2.20
  -4  -6  -2    0.78    0.53
  -2  -6  -2   35.23    1.66
   0  -6  -2    1.67    0.47
   2  -6  -2   10.81    0.99
   4  -6  -2   11.48    1.01
   6  -6  -2   64.62    3.48
 -11  -5  -2   39.89    1.63
  -9  -5  -2   24.39    1.22
  -7  -5  -2    9.89    0.84
  -5  -5  -2    4.79    0.57
  -3  -5  -2   -0.03    0.25
  -1  -5  -2  119.22    3.46
   1  -5  -2   37.34    1.52
   3  -5  -2  118.13    3.42
   5  -5  -2    1.99    0.40
   7  -5  -2    0.88    0.49
   9  -5  -2    0.63    0.31
  11  -5  -2    3.82    0.55
  13  -5  -2    1.77    0.42
  15  -5  -2   51.70    3.01
 -14  -4  -2   48.04    1.80
 -12  -4  -2   42.07    1.61
 -10  -4  -2   58.25    1.96
  -8  -4  -2   39.08    1.45
  -6  -4  -2   10.06    0.64
  -4  -4  -2    1.60    0.25
  -2  -4  -2   73.14    1.70
   0  -4  -2    4.03    0.35
   2  -4  -2   16.73    0.64
   4  -4  -2   21.11    0.74
   6  -4  -2  131.35    2.72
   8  -4  -2    8.97    0.70
  10  -4  -2    4.41    0.51
  12  -4  -2    6.02    0.61
  14  -4  -2   20.19    1.03
  16  -4  -2   39.52    2.17
  18  -4  -2   32.03    2.00
 -17  -3  -2   47.98    2.57
 -15  -3  -2   93.39    3.71
 -13  -3  -2    0.71    0.27
 -11  -3  -2   69.98    2.10
  -9  -3  -2   46.61    1.54
  -7  -3  -2   22.15    0.91
  -5  -3  -2    7.07    0.43
  -3  -3  -2    0.88    0.18
  -1  -3  -2  236.91    3.74
   1  -3  -2   82.19    1.46
   3  -3  -2  266.12    4.16
   5  -3  -2    5.05    0.27
   7  -3  -2    0.14    0.10
   9  -3  -2    0.04    0.12
  11  -3  -2    8.45    0.48
  13  -3  -2    4.30    0.38
  15  -3  -2   87.18    2.01
  17  -3  -2    5.46    0.57
  19  -3  -2    8.79    0.75
  21  -3  -2    1.28    0.53
 -18  -2  -2   24.80    1.66
 -16  -2  -2    5.81    0.86
 -14  -2  -2   75.42    3.12
 -12  -2  -2   71.10    2.07
 -10  -2  -2   89.00    2.46
  -8  -2  -2   73.49    2.04
  -6  -2  -2   10.05    0.44
  -4  -2  -2    2.76    0.25
  -2  -2  -2  146.89    2.39
   0  -2  -2    9.87    0.30
   2  -2  -2   30.32    0.61
   4  -2  -2   35.36    0.59
   6  -2  -2  264.48    4.07
   8  -2  -2   19.77    0.49
  10  -2  -2    7.11    0.37
  12  -2  -2   11.31    0.47
  14  -2  -2   30.94    0.89
  16  -2  -2   59.81    1.80
  18  -2  -2   51.87    1.64
  22  -2  -2   -0.02    0.24
 -19  -1  -2    0.04    0.37
 -17  -1  -2   61.17    2.87
 -15  -1  -2  114.04    4.28
 -13  -1  -2    0.77    0.34
 -11  -1  -2  105.91    2.76
  -9  -1  -2   71.50    1.97
  -7  -1  -2   38.21    0.99
  -5  -1  -2   11.28    0.46
  -3  -1  -2    2.44    0.22
  -1  -1  -2  420.22    6.40
   1  -1  -2  161.30    2.54
   3  -1  -2  474.90    7.06
   5  -1  -2   11.13    0.30
   7  -1  -2    0.08    0.07
   9  -1  -2    0.05    0.09
  11  -1  -2   11.99    0.45
  13  -1  -2    6.34    0.35
  15  -1  -2  126.20    2.92
  17  -1  -2    9.80    0.57
  19  -1  -2   11.43    0.70
  21  -1  -2    1.54    0.33
  23  -1  -2   33.57    1.86
 -20   0  -2   10.42    1.28
 -18   0  -2   25.92    1.70
 -16   0  -2    6.05    0.85
 -14   0  -2   88.42    2.69
 -12   0  -2   86.65    2.54
 -10   0  -2  106.81    2.40
  -8   0  -2   96.33    2.13
  -6   0  -2   12.59    0.47
  -4   0  -2    3.27    0.27
  -2   0  -2  216.47    4.07
   0   0  -2   14.70    0.41
   2   0  -2   37.04    0.59
   4   0  -2   49.33    0.85
   6   0  -2  372.75    5.19
   8   0  -2   29.48    0.69
  10   0  -2   10.29    0.38
  12   0  -2   15.46    0.58
  14   0  -2   38.21    1.07
  16   0  -2   74.98    1.92
  18   0  -2   60.00    1.70
  20   0  -2  100.61    3.56
  22   0  -2    0.37    0.35
 -19   1  -2   -0.30    0.37
 -17   1  -2   61.74    2.88
 -15   1  -2  114.93    4.35
 -13   1  -2    1.45    0.31
 -11   1  -2  105.49    2.94
  -9   1  -2   69.99    1.74
  -7   1  -2   36.22    1.04
  -5   1  -2   12.24    0.47
  -3   1  -2    2.59    0.20
  -1   1  -2  410.51    7.73
   1   1  -2  159.32    2.73
   3   1  -2  479.67    5.90
   5   1  -2   10.99    0.27
   7   1  -2    0.28    0.07
   9   1  -2    0.19    0.10
  11   1  -2   12.18    0.49
  13   1  -2    7.07    0.40
  15   1  -2  125.43    3.94
  17   1  -2   10.57    0.74
  19   1  -2   12.19    0.84
  21   1  -2    1.31    0.39
  23   1  -2   33.34    1.82
 -16   2  -2    5.43    0.89
 -14   2  -2   77.89    2.45
 -12   2  -2   70.33    2.21
 -10   2  -2   95.18    2.65
  -8   2  -2   76.38    1.77
  -6   2  -2    9.65    0.45
  -4   2  -2    2.50    0.25
  -2   2  -2  147.08    2.94
   0   2  -2    9.72    0.40
   2   2  -2   28.85    0.80
   4   2  -2   34.08    0.77
   6   2  -2  267.64    4.74
   8   2  -2   19.87    0.76
  10   2  -2    7.16    0.47
  12   2  -2   11.86    0.67
  14   2  -2   29.35    1.26
  16   2  -2   62.67    2.33
  18   2  -2   53.93    2.13
  20   2  -2   86.80    3.11
  22   2  -2    0.03    0.30
 -13   3  -2    0.44    0.40
 -11   3  -2   70.03    2.28
  -9   3  -2   48.27    1.66
  -7   3  -2   22.77    0.97
  -5   3  -2    8.33    0.57
  -3   3  -2    1.05    0.25
  -1   3  -2  238.25    5.64
   1   3  -2   78.99    2.25
   3   3  -2  262.33    6.33
   5   3  -2    5.44    0.51
   7   3  -2    0.20    0.19
   9   3  -2    0.32    0.50
  11   3  -2    6.94    1.64
  13   3  -2    2.78    1.42
  15   3  -2   88.20    6.74
  17   3  -2    8.61    2.56
  19   3  -2    7.65    2.13
 -12   4  -2   40.82    2.51
 -10   4  -2   57.43    3.11
  -8   4  -2   41.08    1.61
  -6   4  -2    7.14    0.69
  -4   4  -2    1.93    0.37
  -2   4  -2   73.59    2.24
   0   4  -2    4.51    0.51
   2   4  -2   16.03    0.85
   4   4  -2   20.68    1.00
   6   4  -2  127.05    3.60
   8   4  -2    7.94    1.39
  10   4  -2    2.85    1.04
  12   4  -2    5.43    1.55
  14   4  -2   18.16    3.17
  16   4  -2   28.60    4.54
  18   4  -2   27.54    4.73
  -9   5  -2   24.37    1.95
  -7   5  -2   11.02    1.43
  -5   5  -2    5.18    1.01
  -3   5  -2    0.28    0.31
  -1   5  -2  121.72    3.50
   1   5  -2   38.34    1.57
   3   5  -2  118.34    3.48
   5   5  -2    2.03    0.81
   7   5  -2    0.08    0.50
   9   5  -2   -0.09    0.54
  11   5  -2    4.87    1.49
  13   5  -2    2.98    1.51
  -6   6  -2    3.05    0.95
  -4   6  -2    1.14    0.75
  -2   6  -2   35.75    2.69
   0   6  -2    1.81    0.78
   2   6  -2    8.60    0.92
   4   6  -2   10.74    1.75
   6   6  -2   59.37    4.03
  -6  -6  -1   68.38    3.61
  -4  -6  -1    8.35    1.23
  -2  -6  -1    0.25    0.33
   0  -6  -1    1.08    0.44
   2  -6  -1    0.19    0.31
   4  -6  -1   -0.12    0.30
   6  -6  -1   57.61    3.34
 -13  -5  -1    0.88    0.40
 -11  -5  -1   38.58    1.60
  -9  -5  -1    0.43    0.29
  -7  -5  -1   34.40    1.41
  -5  -5  -1    4.76    0.47
  -3  -5  -1   94.59    2.24
  -1  -5  -1    1.61    0.38
   1  -5  -1    0.64    0.26
   3  -5  -1    3.52    0.50
   5  -5  -1   86.26    3.53
   7  -5  -1    2.25    0.41
   9  -5  -1   49.51    1.81
  11  -5  -1   83.40    2.67
  13  -5  -1    6.97    0.76
  15  -5  -1    4.13    0.89
 -16  -4  -1    1.75    0.68
 -14  -4  -1    0.65    0.32
 -12  -4  -1   31.95    1.35
 -10  -4  -1   11.63    0.79
  -8  -4  -1   84.62    2.43
  -6  -4  -1  144.58    3.02
  -4  -4  -1   11.63    0.54
  -2  -4  -1    1.21    0.20
   0  -4  -1    2.11    0.27
   2  -4  -1    0.38    0.13
   4  -4  -1    0.22    0.14
   6  -4  -1  131.02    2.73
   8  -4  -1    0.77    0.24
  10  -4  -1   69.09    2.15
  12  -4  -1   58.06    1.91
  14  -4  -1    1.41    0.35
  16  -4  -1   13.61    1.37
 -19  -3  -1    0.85    0.53
 -17  -3  -1    0.05    0.39
 -15  -3  -1    4.47    0.78
 -13  -3  -1    1.46    0.33
 -11  -3  -1   62.75    1.92
  -9  -3  -1    0.25    0.18
  -7  -3  -1   62.65    1.46
  -5  -3  -1   15.04    0.56
  -3  -3  -1  203.73    3.89
  -1  -3  -1    3.35    0.22
   1  -3  -1    0.43    0.11
   3  -3  -1    9.59    0.32
   5  -3  -1  175.34    2.79
   7  -3  -1    5.81    0.29
   9  -3  -1  101.40    2.08
  11  -3  -1  165.21    3.23
  13  -3  -1   13.33    0.58
  15  -3  -1    6.42    0.58
  17  -3  -1    2.52    0.42
  19  -3  -1   46.85    1.68
 -20  -2  -1  109.48    4.42
 -18  -2  -1    8.28    1.06
 -16  -2  -1    2.86    0.60
 -14  -2  -1    2.04    0.50
 -12  -2  -1   52.46    1.63
 -10  -2  -1   17.25    0.76
  -8  -2  -1  170.56    3.99
  -6  -2  -1  277.12    5.10
  -4  -2  -1   19.24    0.56
  -2  -2  -1    1.16    0.11
   0  -2  -1    3.88    0.18
   2  -2  -1    0.29    0.07
   4  -2  -1    0.05    0.06
   6  -2  -1  264.20    4.01
   8  -2  -1    1.51    0.14
  10  -2  -1  113.96    2.27
  12  -2  -1  102.91    2.11
  14  -2  -1    3.28    0.38
  16  -2  -1   18.85    0.85
  18  -2  -1    0.96    0.27
  20  -2  -1    1.62    0.35
  22  -2  -1   18.45    0.97
 -21  -1  -1    3.61    0.77
 -19  -1  -1    0.39    0.31
 -17  -1  -1    0.91    0.40
 -15  -1  -1    6.83    0.85
 -13  -1  -1    2.64    0.51
 -11  -1  -1   97.46    2.46
  -9  -1  -1    0.40    0.17
  -7  -1  -1   96.94    1.95
  -5  -1  -1   30.07    0.71
  -3  -1  -1  387.38    6.95
  -1  -1  -1    8.53    0.23
   1  -1  -1    1.03    0.08
   3  -1  -1   23.38    0.45
   5  -1  -1  311.09    5.37
   7  -1  -1   12.37    0.38
   9  -1  -1  174.02    3.19
  11  -1  -1  274.85    4.95
  13  -1  -1   17.77    0.72
  15  -1  -1    9.17    0.55
  17  -1  -1    2.96    0.37
  19  -1  -1   57.49    1.76
  21  -1  -1   68.47    2.01
 -18   0  -1   11.57    0.97
 -16   0  -1    3.59    0.52
 -14   0  -1    1.74    0.37
 -12   0  -1   59.57    1.97
 -10   0  -1   19.40    0.71
  -8   0  -1  220.32    4.98
  -6   0  -1  389.62    8.34
  -4   0  -1   25.92    0.62
  -2   0  -1    0.55    0.11
   0   0  -1    6.74    0.25
   2   0  -1    0.23    0.05
   4   0  -1    0.07    0.05
   6   0  -1  384.45    6.53
   8   0  -1    3.12    0.19
  10   0  -1  151.49    2.56
  12   0  -1  140.15    2.76
  14   0  -1    3.74    0.33
  16   0  -1   22.93    0.85
  18   0  -1    0.05    0.16
  20   0  -1    1.64    0.47
  22   0  -1   22.32    1.42
 -19   1  -1    0.64    0.62
 -17   1  -1    0.14    0.28
 -15   1  -1    6.93    0.70
 -13   1  -1    3.68    0.47
 -11   1  -1   96.48    2.73
  -9   1  -1    0.43    0.16
  -7   1  -1   96.06    2.05
  -5   1  -1   29.45    0.77
  -3   1  -1  398.16    7.17
  -1   1  -1    8.49    0.29
   1   1  -1    0.77    0.13
   3   1  -1   23.25    0.53
   5   1  -1  317.65    6.87
   7   1  -1   11.70    0.38
   9   1  -1  176.57    3.40
  11   1  -1  286.71    5.27
  13   1  -1   19.32    0.65
  15   1  -1    6.69    0.64
  17   1  -1    3.82    0.51
  19   1  -1   61.47    2.12
  21   1  -1   68.17    2.80
 -18   2  -1    9.27    1.41
 -16   2  -1    2.60    0.77
 -14   2  -1    1.41    0.39
 -12   2  -1   57.78    1.88
 -10   2  -1   16.47    0.82
  -8   2  -1  170.68    3.39
  -6   2  -1  278.79    5.24
  -4   2  -1   18.93    0.58
  -2   2  -1    1.06    0.18
   0   2  -1    3.86    0.31
   2   2  -1    0.99    0.15
   4   2  -1    0.00    0.05
   6   2  -1  267.05    5.85
   8   2  -1    1.56    0.24
  10   2  -1  118.82    3.08
  12   2  -1  105.40    2.95
  14   2  -1    2.99    0.43
  16   2  -1   19.92    1.04
  18   2  -1    0.18    0.22
  20   2  -1    1.06    0.35
  22   2  -1   18.93    1.14
 -17   3  -1    0.13    0.48
 -15   3  -1    4.54    0.96
 -13   3  -1    1.98    0.62
 -11   3  -1   64.17    3.20
  -9   3  -1    0.04    0.19
  -7   3  -1   62.03    1.90
  -5   3  -1   15.55    0.73
  -3   3  -1  207.89    4.96
  -1   3  -1    3.44    0.37
   1   3  -1    1.07    0.23
   3   3  -1    9.11    0.55
   5   3  -1  167.55    4.34
   7   3  -1    5.75    1.00
   9   3  -1   98.16    5.15
  11   3  -1  164.09    8.21
  13   3  -1   14.42    2.63
  15   3  -1    9.19    2.52
  17   3  -1    1.75    1.55
 -16   4  -1    2.08    0.77
 -14   4  -1    0.28    0.54
 -12   4  -1   29.74    2.15
 -10   4  -1   10.75    1.16
  -8   4  -1   85.09    4.09
  -6   4  -1  145.32    3.85
  -4   4  -1   11.56    0.71
  -2   4  -1    1.02    0.28
   0   4  -1    2.34    0.36
   2   4  -1    0.78    0.24
   4   4  -1    0.19    0.19
   6   4  -1  126.91    5.93
   8   4  -1    0.44    0.49
  10   4  -1   70.43    4.33
  12   4  -1   51.56    4.09
  14   4  -1    0.34    1.17
  16   4  -1   11.82    3.08
  18   4  -1    1.52    1.86
 -13   5  -1    1.25    0.74
 -11   5  -1   35.15    2.56
  -9   5  -1    0.28    0.50
  -7   5  -1   33.75    2.37
  -5   5  -1    6.64    1.12
  -3   5  -1   94.61    4.67
  -1   5  -1    1.24    0.36
   1   5  -1    0.64    0.29
   3   5  -1    3.38    0.88
   5   5  -1   78.56    4.48
   7   5  -1    1.65    0.77
   9   5  -1   52.70    3.63
  11   5  -1   78.01    5.27
  13   5  -1    6.75    1.87
  -6   6  -1   73.82    4.31
  -4   6  -1    5.81    1.24
  -2   6  -1    1.59    0.79
   0   6  -1    2.76    0.90
   2   6  -1    0.39    0.61
   4   6  -1    0.56    0.65
   6   6  -1   59.02    4.02
  -8  -6   0    3.50    0.78
  -6  -6   0    3.48    0.57
  -4  -6   0    4.62    0.67
  -2  -6   0    0.79    0.38
   0  -6   0  213.73    8.03
   2  -6   0    0.88    0.40
   4  -6   0    4.37    0.64
   6  -6   0    2.64    0.82
 -13  -5   0   16.18    1.09
 -11  -5   0   11.49    0.95
  -9  -5   0   23.26    1.16
  -7  -5   0   31.98    1.36
  -5  -5   0   78.52    1.97
  -3  -5   0   13.83    0.68
  -1  -5   0    6.37    0.51
   1  -5   0    7.39    0.70
   3  -5   0   13.07    0.88
   5  -5   0   78.46    2.48
   7  -5   0   32.79    1.38
   9  -5   0   23.05    1.16
  11  -5   0   12.44    0.98
  13  -5   0   15.10    1.04
 -16  -4   0   38.72    2.22
 -14  -4   0   94.53    2.75
 -12  -4   0   21.19    1.02
 -10  -4   0    2.17    0.37
  -8  -4   0   10.25    0.67
  -6  -4   0    5.88    0.44
  -4  -4   0    9.13    0.50
  -2  -4   0    1.79    0.25
   0  -4   0  495.09    8.96
   2  -4   0    2.00    0.25
   4  -4   0    9.76    0.49
   6  -4   0    4.65    0.39
   8  -4   0    7.64    0.65
  10  -4   0    2.86    0.43
  12  -4   0   17.79    0.96
  14  -4   0   91.45    2.75
  16  -4   0   36.65    2.12
 -19  -3   0    5.82    0.96
 -17  -3   0   81.15    3.44
 -15  -3   0   39.77    2.11
 -13  -3   0   26.72    1.13
 -11  -3   0   17.63    0.82
  -9  -3   0   43.75    1.41
  -7  -3   0   68.83    1.56
  -5  -3   0  168.25    3.27
  -3  -3   0   32.06    0.87
  -1  -3   0   10.99    0.41
   1  -3   0   11.18    0.43
   3  -3   0   32.47    0.67
   5  -3   0  167.84    2.69
   7  -3   0   69.82    1.29
   9  -3   0   43.36    1.09
  11  -3   0   18.55    0.66
  13  -3   0   29.35    0.91
  15  -3   0   44.55    1.48
  17  -3   0   82.22    2.35
  19  -3   0    6.97    0.68
 -22  -2   0    5.31    1.37
 -20  -2   0   14.61    1.43
 -18  -2   0    0.90    0.44
 -16  -2   0   47.46    2.35
 -14  -2   0  145.75    5.15
 -12  -2   0   34.44    1.17
 -10  -2   0    6.21    0.45
  -8  -2   0   15.31    0.48
  -6  -2   0    7.98    0.33
  -4  -2   0   15.59    0.47
  -2  -2   0    2.89    0.15
   0  -2   0  934.69   16.80
   2  -2   0    2.77    0.15
   4  -2   0   15.64    0.38
   6  -2   0    8.36    0.28
   8  -2   0   16.00    0.42
  10  -2   0    6.11    0.37
  12  -2   0   33.56    0.91
  14  -2   0  152.86    3.53
  16  -2   0   52.75    1.62
  18  -2   0    0.55    0.25
  20  -2   0   14.72    0.88
 -21  -1   0   25.30    1.38
 -19  -1   0   10.20    0.94
 -17  -1   0  112.18    4.09
 -15  -1   0   64.93    2.62
 -13  -1   0   37.21    1.75
 -11  -1   0   25.86    0.89
  -9  -1   0   76.24    1.90
  -7  -1   0  118.89    2.75
  -5  -1   0  315.04    5.64
  -3  -1   0   65.73    1.28
  -1  -1   0   15.99    0.36
   1  -1   0   16.45    0.31
   3  -1   0   67.75    1.24
   5  -1   0  323.67    5.50
   7  -1   0  119.94    2.21
   9  -1   0   72.86    1.50
  11  -1   0   26.30    0.70
  13  -1   0   35.95    1.14
  15  -1   0   60.33    1.71
  17  -1   0  108.44    2.74
  19  -1   0    9.01    0.68
  21  -1   0   29.20    1.18
 -22   0   0    0.92    0.79
 -20   0   0   14.88    1.05
 -18   0   0    1.06    0.37
 -16   0   0   59.94    2.08
 -14   0   0  182.79    4.81
 -12   0   0   42.01    1.51
 -10   0   0    8.22    0.42
  -8   0   0   19.08    0.64
  -6   0   0   10.17    0.38
  -4   0   0   18.85    0.51
  -2   0   0    5.40    0.25
   2   0   0    5.05    0.16
   4   0   0   19.04    0.49
   6   0   0   10.44    0.28
   8   0   0   20.37    0.46
  10   0   0    8.42    0.38
  12   0   0   40.83    1.07
  14   0   0  185.50    4.02
  16   0   0   59.84    1.65
  18   0   0    1.30    0.41
  20   0   0   18.33    1.24
  22   0   0    1.46    0.49
 -21   1   0   28.39    2.48
 -19   1   0   11.71    1.76
 -17   1   0  111.59    3.35
 -15   1   0   59.06    2.09
 -13   1   0   38.11    1.45
 -11   1   0   27.14    1.10
  -9   1   0   78.75    1.62
  -7   1   0  122.00    2.37
  -5   1   0  317.37    5.81
  -3   1   0   67.70    1.62
  -1   1   0   15.82    0.47
   1   1   0   15.39    0.34
   3   1   0   66.00    1.57
   5   1   0  320.78    5.57
   7   1   0  120.47    2.33
   9   1   0   75.69    1.63
  11   1   0   26.72    0.77
  13   1   0   38.07    1.01
  15   1   0   65.41    2.07
  17   1   0  108.87    3.18
  19   1   0    8.72    0.82
  21   1   0   28.02    1.62
 -22   2   0    1.97    0.96
 -20   2   0   13.97    1.88
 -18   2   0    0.74    0.65
 -16   2   0   53.29    3.22
 -14   2   0  156.15    6.72
 -12   2   0   35.38    1.39
 -10   2   0    6.23    0.56
  -8   2   0   14.16    0.68
  -6   2   0    7.83    0.44
  -4   2   0   14.17    0.57
  -2   2   0    2.89    0.26
   0   2   0  986.77   16.17
   2   2   0    3.36    0.16
   4   2   0   15.11    0.51
   6   2   0    8.43    0.41
   8   2   0   15.22    0.67
  10   2   0    5.76    0.51
  12   2   0   34.63    1.33
  14   2   0  148.26    4.11
  16   2   0   53.34    1.90
  18   2   0    0.49    0.29
  20   2   0   14.20    0.98
  22   2   0    2.96    1.19
 -19   3   0    6.89    1.37
 -17   3   0   80.25    4.39
 -15   3   0   41.48    2.70
 -13   3   0   28.04    2.02
 -11   3   0   17.22    1.43
  -9   3   0   44.39    2.42
  -7   3   0   67.00    1.97
  -5   3   0  168.68    4.10
  -3   3   0   32.07    1.06
  -1   3   0   10.58    0.33
   1   3   0   10.33    0.54
   3   3   0   29.84    1.82
   5   3   0  166.03    3.83
   7   3   0   68.76    1.84
   9   3   0   42.62    1.37
  11   3   0   17.87    0.85
  13   3   0   28.74    1.20
  15   3   0   37.52    4.82
  17   3   0   72.77    6.25
  19   3   0    4.51    1.77
 -18   4   0    0.45    0.65
 -16   4   0   39.36    2.76
 -14   4   0   85.54    4.61
 -12   4   0   17.26    1.62
 -10   4   0    1.64    0.63
  -8   4   0    9.22    1.21
  -6   4   0    5.64    0.94
  -4   4   0    9.33    0.59
  -2   4   0    2.19    0.33
   0   4   0  490.29   11.34
   2   4   0    3.03    0.69
   4   4   0   10.90    1.14
   6   4   0    4.78    0.97
   8   4   0    7.18    1.27
  10   4   0    2.27    0.87
  12   4   0   20.28    2.79
  14   4   0   91.43    6.48
  16   4   0   34.23    4.88
 -13   5   0   17.84    1.83
 -11   5   0   12.93    1.71
  -9   5   0   24.78    2.03
  -7   5   0   35.41    2.44
  -5   5   0   78.21    4.10
  -3   5   0   13.09    1.41
  -1   5   0    7.10    1.18
   1   5   0    6.59    1.15
   3   5   0   13.13    1.67
   5   5   0   74.19    4.24
   7   5   0   34.03    2.64
   9   5   0   22.43    2.27
  11   5   0    8.66    1.89
  13   5   0   15.88    2.84
  -8   6   0    3.91    1.13
  -6   6   0    2.97    1.00
  -4   6   0    3.68    1.05
  -2   6   0    1.48    0.80
   0   6   0  216.21    9.59
   2   6   0    1.43    0.80
   4   6   0    4.52    1.21
   6   6   0    1.58    0.93
  -8  -6   1    0.38    0.51
  -6  -6   1   59.52    2.15
  -4  -6   1    0.34    0.28
  -2  -6   1    0.12    0.31
   0  -6   1    1.16    0.42
   2  -6   1    0.53    0.37
   4  -6   1    5.44    0.74
   6  -6   1   72.51    3.92
 -15  -5   1    3.11    0.83
 -13  -5   1    7.65    0.79
 -11  -5   1   85.89    2.67
  -9  -5   1   48.06    1.80
  -7  -5   1    1.86    0.40
  -5  -5   1   85.12    2.11
  -3  -5   1    4.81    0.47
  -1  -5   1    0.64    0.22
   1  -5   1    0.88    0.31
   3  -5   1   92.55    2.88
   5  -5   1    5.08    0.62
   7  -5   1   34.92    1.46
   9  -5   1    0.05    0.27
  11  -5   1   37.56    1.61
  13  -5   1    0.90    0.39
 -16  -4   1   12.20    1.38
 -14  -4   1    2.00    0.41
 -12  -4   1   55.21    1.87
 -10  -4   1   70.78    2.15
  -8  -4   1    1.16    0.28
  -6  -4   1  128.83    2.76
  -4  -4   1   -0.03    0.13
  -2  -4   1    0.46    0.22
   0  -4   1    2.41    0.38
   2  -4   1    1.15    0.23
   4  -4   1   10.74    0.52
   6  -4   1  144.74    3.02
   8  -4   1   86.51    2.50
  10  -4   1   11.69    0.74
  12  -4   1   33.50    1.37
  14  -4   1    1.12    0.35
  16  -4   1    1.59    0.60
 -19  -3   1   46.48    2.47
 -17  -3   1    2.15    0.59
 -15  -3   1    5.78    0.85
 -13  -3   1   15.23    0.77
 -11  -3   1  170.00    4.07
  -9  -3   1  102.73    2.65
  -7  -3   1    5.67    0.37
  -5  -3   1  174.96    3.39
  -3  -3   1    9.71    0.37
  -1  -3   1    0.36    0.13
   1  -3   1    2.97    0.27
   3  -3   1  204.81    3.93
   5  -3   1   13.76    0.54
   7  -3   1   62.06    1.21
   9  -3   1    0.18    0.13
  11  -3   1   64.67    1.52
  13  -3   1    1.65    0.26
  15  -3   1    4.05    0.50
  17  -3   1   -0.02    0.24
  19  -3   1    1.13    0.57
 -22  -2   1   17.81    1.44
 -20  -2   1    1.84    0.57
 -18  -2   1    0.09    0.30
 -16  -2   1   19.38    1.28
 -14  -2   1    3.28    0.59
 -12  -2   1  104.08    2.64
 -10  -2   1  114.48    2.84
  -8  -2   1    1.69    0.19
  -6  -2   1  259.34    4.79
  -4  -2   1    0.56    0.08
  -2  -2   1    0.10    0.08
   0  -2   1    3.81    0.23
   2  -2   1    1.20    0.10
   4  -2   1   18.83    0.45
   6  -2   1  280.21    4.28
   8  -2   1  174.99    2.77
  10  -2   1   17.48    0.59
  12  -2   1   53.56    1.29
  14  -2   1    1.36    0.28
  16  -2   1    2.97    0.41
  18  -2   1    9.53    0.75
  20  -2   1  112.14    3.03
 -23  -1   1   22.60    2.36
 -21  -1   1   67.24    2.47
 -19  -1   1   61.62    2.24
 -17  -1   1    7.46    0.88
 -15  -1   1   10.87    0.84
 -13  -1   1   19.79    1.11
 -11  -1   1  273.76    6.13
  -9  -1   1  173.83    3.94
  -7  -1   1   11.48    0.34
  -5  -1   1  312.26    5.53
  -3  -1   1   24.17    0.55
  -1  -1   1    0.84    0.12
   1  -1   1    8.36    0.24
   3  -1   1  394.15    6.64
   5  -1   1   28.24    0.66
   7  -1   1   97.63    1.84
   9  -1   1    0.45    0.11
  11  -1   1   94.49    1.92
  13  -1   1    2.27    0.29
  15  -1   1    6.41    0.53
  17  -1   1    0.27    0.20
  19  -1   1    0.64    0.27
  21  -1   1    5.19    0.83
 -22   0   1   15.87    2.21
 -20   0   1    1.73    0.83
 -18   0   1    0.05    0.28
 -16   0   1   21.41    1.09
 -14   0   1    4.33    0.53
 -12   0   1  131.93    3.67
 -10   0   1  153.56    3.36
  -8   0   1    3.56    0.20
  -6   0   1  392.18    8.05
  -4   0   1   -0.02    0.09
   0   0   1    5.84    0.26
   2   0   1    0.68    0.08
   4   0   1   26.21    0.85
   6   0   1  395.58    6.07
   8   0   1  226.63    3.60
  10   0   1   20.17    0.50
  12   0   1   63.33    1.47
  14   0   1    1.85    0.28
  16   0   1    4.16    0.40
  18   0   1   11.93    1.12
  20   0   1  132.28    4.66
 -23   1   1   24.43    2.51
 -21   1   1   65.22    4.31
 -19   1   1   59.44    4.00
 -17   1   1    3.02    1.03
 -15   1   1    7.63    0.72
 -13   1   1   17.67    0.94
 -11   1   1  291.66    6.88
  -9   1   1  188.62    4.42
  -7   1   1   12.31    0.53
  -5   1   1  306.14   11.52
  -3   1   1   24.51    1.18
  -1   1   1    0.83    0.20
   1   1   1    8.32    0.32
   3   1   1  400.24    6.79
   5   1   1   29.15    0.68
   7   1   1   94.82    1.93
   9   1   1    0.30    0.11
  11   1   1   96.26    2.07
  13   1   1    1.45    0.33
  15   1   1    6.96    0.68
  17   1   1    1.46    0.39
  19   1   1    0.49    0.34
  21   1   1    4.74    0.78
 -22   2   1   19.67    2.51
 -20   2   1    1.48    0.87
 -18   2   1    0.29    0.69
 -16   2   1   21.10    2.06
 -14   2   1    4.62    1.13
 -12   2   1  107.54    5.06
 -10   2   1  123.39    3.07
  -8   2   1    1.62    0.24
  -6   2   1  263.29    6.01
  -4   2   1    0.18    0.09
  -2   2   1    0.32    0.10
   0   2   1    4.11    0.23
   2   2   1    0.95    0.14
   4   2   1   19.31    0.47
   6   2   1  277.04    4.92
   8   2   1  169.30    4.14
  10   2   1   17.22    0.84
  12   2   1   52.19    1.85
  14   2   1    1.14    0.31
  16   2   1    3.09    0.50
  18   2   1    8.95    0.94
  20   2   1  109.64    4.02
 -19   3   1   47.40    3.41
 -17   3   1    2.82    0.98
 -15   3   1    6.74    1.29
 -13   3   1   12.52    1.60
 -11   3   1  169.63    7.17
  -9   3   1   98.00    4.58
  -7   3   1    4.78    0.80
  -5   3   1  175.28    4.16
  -3   3   1   10.75    0.50
  -1   3   1    0.50    0.13
   1   3   1    3.61    0.28
   3   3   1  205.37    4.62
   5   3   1   13.87    0.59
   7   3   1   60.15    1.73
   9   3   1    0.13    0.15
  11   3   1   62.68    2.00
  13   3   1    1.03    0.33
  15   3   1    3.94    0.56
  17   3   1    0.39    0.29
  19   3   1   -0.48    1.03
 -18   4   1    0.10    0.67
 -16   4   1   11.84    1.78
 -14   4   1    0.91    0.62
 -12   4   1   55.45    3.31
 -10   4   1   67.02    3.69
  -8   4   1    0.36    0.40
  -6   4   1  124.96    5.68
  -4   4   1    0.08    0.30
  -2   4   1    0.36    0.34
   0   4   1    3.31    0.71
   2   4   1    1.00    0.46
   4   4   1   10.81    1.16
   6   4   1  137.75    6.43
   8   4   1   81.25    4.48
  10   4   1   10.00    1.71
  12   4   1   34.45    3.23
  14   4   1    0.58    1.27
  16   4   1    1.69    1.77
 -13   5   1    7.37    1.38
 -11   5   1   90.65    4.73
  -9   5   1   48.60    3.17
  -7   5   1    2.28    0.77
  -5   5   1   86.23    4.43
  -3   5   1    5.82    1.08
  -1   5   1    2.01    0.68
   1   5   1    1.87    0.69
   3   5   1   91.11    4.76
   5   5   1    4.58    1.07
   7   5   1   34.03    2.69
   9   5   1   -0.09    0.59
  11   5   1   36.71    3.32
  13   5   1    0.27    1.16
  -6   6   1   55.62    3.72
  -4   6   1    0.34    0.64
  -2   6   1    0.33    0.61
   0   6   1    0.99    0.72
   2   6   1    1.02    0.69
   4   6   1    7.48    1.50
   6   6   1   74.41    4.65
  -8  -6   2    4.34    0.91
  -6  -6   2   57.56    2.17
  -4  -6   2   11.50    0.84
  -2  -6   2    9.07    0.77
   0  -6   2    1.88    0.52
   2  -6   2   35.51    1.77
   4  -6   2   -0.08    0.37
 -15  -5   2   54.23    2.93
 -13  -5   2    2.98    0.54
 -11  -5   2    4.08    0.58
  -9  -5   2   -0.11    0.24
  -7  -5   2    0.38    0.25
  -5  -5   2    1.37    0.29
  -3  -5   2  117.13    3.51
  -1  -5   2   34.19    1.54
   1  -5   2  118.96    3.56
   3  -5   2    0.32    0.29
   5  -5   2    3.70    0.56
   7  -5   2    9.42    0.87
   9  -5   2   24.72    1.27
  11  -5   2   33.97    1.58
  13  -5   2    0.17    0.48
 -16  -4   2   39.24    2.22
 -14  -4   2   19.01    1.01
 -12  -4   2    6.62    0.64
 -10  -4   2    3.89    0.50
  -8  -4   2    8.92    0.71
  -6  -4   2  127.25    2.77
  -4  -4   2   19.71    0.97
  -2  -4   2   16.73    0.88
   0  -4   2    3.88    0.49
   2  -4   2   71.09    1.76
   4  -4   2    1.94    0.29
   6  -4   2    6.76    0.51
   8  -4   2   39.60    1.51
  10  -4   2   59.05    2.00
  12  -4   2   40.92    1.61
  14  -4   2   42.69    2.39
 -21  -3   2    0.95    0.53
 -19  -3   2    8.71    1.10
 -17  -3   2    5.70    0.90
 -15  -3   2   85.81    3.49
 -13  -3   2    5.07    0.52
 -11  -3   2    8.59    0.61
  -9  -3   2   -0.06    0.14
  -7  -3   2    0.28    0.14
  -5  -3   2    4.54    0.45
  -3  -3   2  264.13    4.96
  -1  -3   2   80.27    1.78
   1  -3   2  234.24    4.50
   3  -3   2    0.80    0.19
   5  -3   2    7.32    0.47
   7  -3   2   20.56    0.74
   9  -3   2   44.76    1.55
  11  -3   2   67.21    2.09
  13  -3   2    0.41    0.25
  15  -3   2   87.68    3.68
  17  -3   2   53.60    2.66
 -22  -2   2   -0.20    0.42
 -20  -2   2   79.38    3.43
 -18  -2   2   48.64    2.37
 -16  -2   2   62.68    2.68
 -14  -2   2   27.90    1.52
 -12  -2   2   11.81    0.60
 -10  -2   2    7.20    0.48
  -8  -2   2   21.17    0.62
  -6  -2   2  268.60    4.87
  -4  -2   2   35.80    0.85
  -2  -2   2   29.15    0.77
   0  -2   2    9.96    0.29
   2  -2   2  148.16    2.66
   4  -2   2    2.76    0.23
   6  -2   2    9.68    0.41
   8  -2   2   75.61    1.62
  10  -2   2   92.72    1.95
  12  -2   2   71.82    1.62
  14  -2   2   75.33    2.12
  16  -2   2    4.79    0.53
  18  -2   2   23.79    1.10
  20  -2   2    8.43    0.77
 -23  -1   2   32.70    2.90
 -21  -1   2    3.01    1.10
 -19  -1   2   14.17    0.98
 -17  -1   2   10.75    0.90
 -15  -1   2  128.75    4.25
 -13  -1   2    7.85    0.65
 -11  -1   2   13.07    0.54
  -9  -1   2    0.20    0.09
  -7  -1   2    0.20    0.11
  -3  -1   2  482.25   13.88
  -1  -1   2  166.24    3.50
   1  -1   2  433.29    8.78
   3  -1   2    2.43    0.19
   5  -1   2   12.05    0.40
   7  -1   2   36.91    0.89
   9  -1   2   74.25    1.52
  11  -1   2  107.39    2.15
  13  -1   2    0.50    0.20
  15  -1   2  116.31    2.90
  17  -1   2   64.01    1.91
  19  -1   2    0.36    0.27
 -22   0   2    0.67    0.76
 -20   0   2   89.49    5.36
 -18   0   2   58.40    3.99
 -16   0   2   71.22    2.38
 -14   0   2   37.82    1.46
 -12   0   2   15.33    0.81
 -10   0   2   10.72    0.38
  -8   0   2   29.92    0.78
  -6   0   2  390.12   10.55
  -2   0   2   43.02    1.88
   0   0   2   14.85    0.70
   4   0   2    2.83    0.21
   6   0   2   12.08    0.43
   8   0   2   97.33    1.71
  10   0   2  110.43    2.52
  12   0   2   84.83    2.14
  14   0   2   89.66    2.29
  16   0   2    5.26    0.50
  18   0   2   29.31    1.64
  20   0   2   11.72    1.20
 -23   1   2   34.19    3.09
 -21   1   2    0.69    0.83
 -19   1   2   12.57    2.11
 -17   1   2    7.47    1.59
 -15   1   2   98.19    6.18
 -13   1   2    5.85    1.54
 -11   1   2   12.28    0.70
  -9   1   2    0.14    0.15
  -7   1   2   -0.03    0.10
  -5   1   2   10.93    0.83
  -3   1   2  479.89   17.14
  -1   1   2  166.76    3.60
   1   1   2  435.05    9.07
   3   1   2    2.36    0.18
   5   1   2   12.40    0.41
   7   1   2   38.67    0.95
   9   1   2   73.26    1.63
  11   1   2  107.59    2.48
  13   1   2    0.57    0.27
  15   1   2  118.51    4.03
  17   1   2   67.30    2.73
  19   1   2    0.16    0.34
 -22   2   2    0.05    0.75
 -20   2   2   80.80    5.23
 -18   2   2   46.71    3.79
 -16   2   2   72.30    4.69
 -14   2   2   34.94    2.83
 -12   2   2   11.96    1.65
 -10   2   2    5.97    1.01
  -8   2   2   21.14    1.46
  -6   2   2  257.51   10.05
  -4   2   2   35.20    1.77
  -2   2   2   30.71    0.89
   0   2   2    9.69    0.41
   2   2   2  148.25    3.39
   4   2   2    2.67    0.20
   6   2   2   11.44    0.39
   8   2   2   74.39    2.13
  10   2   2   90.28    2.66
  12   2   2   68.50    2.28
  14   2   2   76.49    2.52
  16   2   2    4.28    0.67
  18   2   2   22.51    1.45
 -19   3   2   10.81    2.07
 -17   3   2    8.32    1.71
 -15   3   2   93.84    5.13
 -13   3   2    4.84    1.09
 -11   3   2    7.02    1.16
  -9   3   2    0.18    0.33
  -7   3   2    0.21    0.31
  -5   3   2    5.43    0.82
  -3   3   2  271.29    5.94
  -1   3   2   80.90    2.05
   1   3   2  232.68    5.29
   3   3   2    0.76    0.18
   5   3   2    7.59    0.48
   7   3   2   22.04    0.88
   9   3   2   46.32    1.55
  11   3   2   67.06    2.18
  13   3   2    0.59    0.30
  15   3   2   86.13    2.89
  17   3   2   50.54    2.29
 -18   4   2   36.84    3.18
 -16   4   2   42.51    3.22
 -14   4   2   18.78    1.96
 -12   4   2    4.64    1.04
 -10   4   2    3.60    0.88
  -8   4   2    8.31    1.23
  -6   4   2  124.78    5.71
  -4   4   2   19.06    1.54
  -2   4   2   15.76    1.34
   0   4   2    4.52    0.83
   2   4   2   67.40    3.56
   4   4   2    1.43    0.56
   6   4   2    7.97    1.26
   8   4   2   41.66    2.82
  10   4   2   61.15    4.00
  12   4   2   35.93    3.48
  14   4   2   39.92    4.41
 -13   5   2    2.73    1.02
 -11   5   2    3.52    1.05
  -9   5   2   -0.18    0.43
  -7   5   2    0.61    0.53
  -5   5   2    1.58    0.65
  -3   5   2  117.12    5.63
  -1   5   2   38.48    2.56
   1   5   2  113.53    5.64
   3   5   2    0.07    0.38
   5   5   2    3.51    0.96
   7   5   2    9.84    1.61
   9   5   2   25.28    2.45
  11   5   2   33.99    3.28
  13   5   2    1.21    1.40
  -6   6   2   56.47    3.80
  -4   6   2   12.63    1.86
  -2   6   2    7.72    1.47
   0   6   2    2.70    0.95
   2   6   2   35.15    2.84
   4   6   2    0.51    0.73
  -6  -6   3   13.39    1.49
  -4  -6   3   52.68    2.26
  -2  -6   3    2.35    0.60
   0  -6   3   68.02    2.75
   2  -6   3    7.17    0.96
 -15  -5   3    4.09    0.91
 -13  -5   3    1.00    0.36
 -11  -5   3   55.00    1.98
  -9  -5   3  108.23    3.12
  -7  -5   3    0.89    0.28
  -5  -5   3    3.79    0.60
  -3  -5   3    2.26    0.49
  -1  -5   3    2.65    0.51
   1  -5   3    5.50    0.72
   3  -5   3    3.44    0.59
   5  -5   3  127.03    3.84
   7  -5   3   27.34    1.39
   9  -5   3   31.96    1.55
  11  -5   3    2.87    0.58
 -18  -4   3   20.39    1.55
 -16  -4   3   11.15    1.27
 -14  -4   3   57.91    1.98
 -12  -4   3   70.96    2.29
 -10  -4   3    4.68    0.54
  -8  -4   3   45.97    1.33
  -6  -4   3   28.33    1.23
  -4  -4   3  103.53    3.13
  -2  -4   3    4.79    0.59
   0  -4   3  149.47    3.19
   2  -4   3   20.39    0.84
   4  -4   3   85.80    2.14
   6  -4   3    0.49    0.23
   8  -4   3   10.59    0.86
  10  -4   3   29.04    1.32
  12  -4   3    8.69    0.83
  14  -4   3   17.73    1.50
 -21  -3   3    7.12    1.04
 -19  -3   3    6.34    0.98
 -17  -3   3   20.14    1.44
 -15  -3   3    7.88    0.97
 -13  -3   3    1.04    0.27
 -11  -3   3   96.97    2.59
  -9  -3   3  205.00    4.00
  -7  -3   3    1.48    0.30
  -5  -3   3    7.95    0.60
  -3  -3   3    9.03    0.50
  -1  -3   3    4.69    0.39
   1  -3   3   16.41    0.67
   3  -3   3    8.19    0.54
   5  -3   3  237.27    5.84
   7  -3   3   50.07    1.67
   9  -3   3   55.96    1.87
  11  -3   3    5.24    0.58
  13  -3   3    0.91    0.45
  15  -3   3   19.07    1.50
 -20  -2   3   23.74    1.53
 -18  -2   3   30.74    1.76
 -16  -2   3   16.03    1.12
 -14  -2   3   99.26    3.65
 -12  -2   3  134.33    3.23
 -10  -2   3    9.21    0.43
  -8  -2   3   88.21    1.87
  -6  -2   3   51.79    1.26
  -4  -2   3  219.63    3.84
  -2  -2   3    7.68    0.31
   0  -2   3  286.90    5.03
   2  -2   3   43.66    1.01
   4  -2   3  145.73    2.75
   6  -2   3    0.93    0.19
   8  -2   3   16.62    0.62
  10  -2   3   44.95    1.19
  12  -2   3   10.74    0.75
  14  -2   3   27.88    1.14
  16  -2   3    0.48    0.28
  18  -2   3    4.44    0.56
 -23  -1   3    1.17    0.81
 -21  -1   3    9.21    1.73
 -19  -1   3   13.09    2.07
 -17  -1   3   32.60    1.64
 -15  -1   3   15.15    0.98
 -13  -1   3    0.26    0.22
 -11  -1   3  146.91    3.38
  -9  -1   3  335.38    7.27
  -3  -1   3   18.86    0.58
  -1  -1   3    5.75    0.30
   1  -1   3   29.78    0.86
   3  -1   3   14.48    0.48
   5  -1   3  387.59    8.21
   7  -1   3   68.72    1.50
   9  -1   3   82.17    1.75
  11  -1   3    9.86    0.56
  13  -1   3    1.44    0.30
  15  -1   3   26.55    1.10
  17  -1   3   50.98    1.68
  19  -1   3    9.95    0.81
 -22   0   3    2.47    1.02
 -20   0   3   29.42    2.73
 -18   0   3   36.47    3.14
 -16   0   3   19.12    2.49
 -14   0   3  129.19    3.58
 -12   0   3  168.18    4.32
 -10   0   3   11.86    0.63
  -8   0   3  105.72    2.79
  -6   0   3   64.72    3.71
  -4   0   3  324.34   11.57
  -2   0   3   10.28    0.42
   0   0   3  395.10    7.93
   2   0   3   63.13    1.51
   4   0   3  185.28    3.95
   6   0   3    1.06    0.20
   8   0   3   21.63    0.66
  10   0   3   57.43    1.57
  12   0   3   11.91    0.62
  14   0   3   32.29    1.16
  16   0   3    0.68    0.26
  18   0   3    3.98    0.75
 -23   1   3    1.09    0.93
 -21   1   3    7.33    1.77
 -19   1   3    8.88    1.91
 -17   1   3   23.83    2.71
 -15   1   3    7.17    1.70
 -13   1   3   -0.77    0.55
 -11   1   3  139.07    6.99
  -9   1   3  338.05    7.82
  -7   1   3    3.11    0.65
  -5   1   3   12.78    0.89
  -3   1   3   17.68    0.62
  -1   1   3    5.80    0.30
   1   1   3   32.02    0.90
   3   1   3   14.80    0.46
   5   1   3  387.61    6.85
   7   1   3   70.30    1.59
   9   1   3   85.25    1.86
  11   1   3    8.86    0.53
  13   1   3    2.46    0.52
  15   1   3   26.49    1.53
  17   1   3   49.82    2.34
  19   1   3   10.11    1.20
 -22   2   3    1.04    0.98
 -20   2   3   23.75    3.23
 -18   2   3   31.46    3.34
 -16   2   3   15.49    2.65
 -14   2   3  107.45    5.83
 -12   2   3  137.39    6.39
 -10   2   3    8.80    1.25
  -8   2   3   84.95    3.91
  -6   2   3   52.30    2.52
  -4   2   3  217.99    8.23
  -2   2   3    8.00    0.41
   0   2   3  285.04    6.36
   2   2   3   42.92    1.25
   4   2   3  147.78    2.76
   6   2   3    0.88    0.17
   8   2   3   19.41    0.89
  10   2   3   45.93    1.67
  12   2   3   11.06    0.86
  14   2   3   27.83    1.51
  16   2   3    0.02    0.33
  18   2   3    2.70    0.67
 -19   3   3    8.36    2.27
 -17   3   3   28.04    2.99
 -15   3   3   10.83    1.86
 -13   3   3    0.51    0.56
 -11   3   3   91.68    4.69
  -9   3   3  203.91    8.37
  -7   3   3    1.49    0.51
  -5   3   3    8.37    0.50
  -3   3   3    9.59    0.51
  -1   3   3    4.59    0.40
   1   3   3   15.20    0.68
   3   3   3    7.41    0.46
   5   3   3  242.83    5.69
   7   3   3   48.40    1.58
   9   3   3   57.96    1.89
  11   3   3    6.19    0.73
  13   3   3    1.79    0.48
  15   3   3   19.13    1.30
  17   3   3   38.55    2.02
 -18   4   3   22.32    3.16
 -16   4   3   13.71    2.19
 -14   4   3   54.67    3.77
 -12   4   3   72.38    4.16
 -10   4   3    4.12    0.94
  -8   4   3   44.18    2.76
  -6   4   3   27.81    1.99
  -4   4   3  108.48    4.94
  -2   4   3    4.41    0.82
   0   4   3  148.62    6.32
   2   4   3   17.94    1.53
   4   4   3   82.69    4.21
   6   4   3    0.65    0.49
   8   4   3   11.03    1.65
  10   4   3   29.67    2.70
 -13   5   3    0.64    0.79
 -11   5   3   48.35    3.43
  -9   5   3  101.89    5.37
  -7   5   3    1.03    0.64
  -5   5   3    5.86    1.15
  -3   5   3    3.91    0.92
  -1   5   3    2.96    0.82
   1   5   3    4.94    1.02
   3   5   3    3.97    0.97
   5   5   3  123.62    6.17
   7   5   3   25.43    2.39
   9   5   3   30.71    2.89
  -6   6   3   12.38    1.88
  -4   6   3   54.00    3.62
  -2   6   3    3.32    1.05
   0   6   3   73.73    4.33
   2   6   3    6.97    1.42
  -4  -6   4    5.86    1.35
 -13  -5   4    2.28    0.50
 -11  -5   4   25.97    1.31
  -9  -5   4   10.26    0.91
  -7  -5   4    1.79    0.49
  -5  -5   4   63.97    2.43
  -3  -5   4    0.64    0.37
  -1  -5   4   55.40    2.34
   1  -5   4   -0.13    0.33
   3  -5   4    0.64    0.45
   5  -5   4    7.88    0.95
   7  -5   4    0.74    0.42
   9  -5   4    1.82    0.73
 -18  -4   4    8.64    1.17
 -16  -4   4   16.76    1.37
 -14  -4   4   32.67    1.39
 -12  -4   4    5.50    0.61
 -10  -4   4    5.54    0.61
  -8  -4   4    1.07    0.33
  -6  -4   4  115.74    3.48
  -4  -4   4   15.12    0.97
  -2  -4   4   58.03    2.17
   0  -4   4   40.59    1.35
   2  -4   4   34.33    1.23
   4  -4   4    9.15    0.71
   6  -4   4   37.91    1.31
   8  -4   4   28.03    1.38
  10  -4   4    1.57    0.44
  12  -4   4   57.86    2.15
 -21  -3   4   60.34    2.96
 -19  -3   4   39.39    2.16
 -17  -3   4   53.21    2.62
 -15  -3   4   37.10    1.97
 -13  -3   4    6.17    0.57
 -11  -3   4   51.37    1.67
  -9  -3   4   26.58    1.15
  -7  -3   4    4.57    0.55
  -5  -3   4  118.23    2.60
  -3  -3   4    0.45    0.20
  -1  -3   4  115.74    3.15
   1  -3   4    0.56    0.28
   3  -3   4    2.41    0.35
   5  -3   4   16.52    0.89
   7  -3   4    0.48    0.26
   9  -3   4    3.34    0.47
  11  -3   4  101.58    3.02
  13  -3   4   -0.20    0.38
  15  -3   4   14.81    1.53
 -20  -2   4   10.72    1.17
 -18  -2   4   16.34    1.23
 -16  -2   4   24.99    1.46
 -14  -2   4   52.45    2.22
 -12  -2   4   11.33    0.61
 -10  -2   4   11.82    0.69
  -8  -2   4    2.13    0.30
  -6  -2   4  216.84    4.01
  -4  -2   4   27.98    0.77
  -2  -2   4  106.13    2.09
   0  -2   4   70.43    1.54
   2  -2   4   63.35    1.44
   4  -2   4   17.57    0.63
   6  -2   4   61.62    1.47
   8  -2   4   50.09    1.29
  10  -2   4    1.95    0.28
  12  -2   4   87.52    2.40
  14  -2   4    2.28    0.42
  16  -2   4   59.30    1.97
 -21  -1   4   70.74    4.55
 -19  -1   4   60.99    4.03
 -17  -1   4   79.05    2.97
 -15  -1   4   54.31    2.23
 -13  -1   4    8.20    0.68
 -11  -1   4   86.82    2.23
  -5  -1   4  180.43    5.05
  -3  -1   4    1.44    0.20
  -1  -1   4  191.41    5.12
   1  -1   4    1.01    0.19
   3  -1   4    1.16    0.20
   5  -1   4   29.35    0.86
   7  -1   4    0.87    0.18
   9  -1   4    3.66    0.34
  11  -1   4  134.47    3.27
  13  -1   4    0.13    0.22
  15  -1   4   16.94    0.91
  17  -1   4    9.63    0.81
 -22   0   4   46.71    3.59
 -20   0   4   14.19    2.17
 -18   0   4   20.88    2.69
 -16   0   4   28.55    2.73
 -14   0   4   63.30    4.12
 -12   0   4   15.46    0.77
 -10   0   4   19.00    0.79
  -8   0   4    1.10    0.69
  -6   0   4  294.24   11.26
  -4   0   4   38.90    1.12
  -2   0   4  134.28    3.02
   0   0   4   85.80    2.04
   2   0   4   85.40    2.05
   4   0   4   23.18    0.81
   6   0   4   82.32    2.04
   8   0   4   60.63    1.42
  10   0   4    1.96    0.32
  12   0   4  101.04    2.58
  14   0   4    2.32    0.38
  16   0   4   66.97    2.95
  18   0   4    4.14    0.81
 -21   1   4   61.56    4.78
 -19   1   4   48.47    4.05
 -17   1   4   62.71    4.76
 -15   1   4   42.41    3.72
 -13   1   4    8.23    1.63
 -11   1   4   91.47    4.92
  -9   1   4   46.99    2.83
  -7   1   4    8.03    1.01
  -5   1   4  180.26    6.83
  -3   1   4    2.00    0.23
  -1   1   4  179.76    4.07
   1   1   4    1.20    0.16
   3   1   4    0.65    0.15
   5   1   4   29.02    0.94
   7   1   4    0.58    0.19
   9   1   4    3.34    0.36
  11   1   4  138.47    3.20
  13   1   4   -0.12    0.22
  15   1   4   16.28    1.22
  17   1   4    7.37    1.01
 -22   2   4   30.33    3.43
 -20   2   4    6.92    1.94
 -18   2   4   15.28    2.71
 -16   2   4   22.88    3.08
 -14   2   4   45.56    3.52
 -12   2   4    8.79    1.46
 -10   2   4   11.90    1.26
  -8   2   4    1.84    0.57
  -6   2   4  213.42    8.42
  -4   2   4   27.63    0.94
  -2   2   4  101.25    2.54
   0   2   4   69.22    1.85
   2   2   4   62.94    1.74
   4   2   4   17.51    0.60
   6   2   4   62.94    1.62
   8   2   4   49.02    2.02
  10   2   4    2.57    0.49
  12   2   4   88.40    3.24
  14   2   4    1.59    0.49
  16   2   4   57.27    2.65
 -19   3   4   38.06    4.02
 -17   3   4   58.54    4.59
 -15   3   4   38.58    3.18
 -13   3   4    7.83    1.40
 -11   3   4   55.89    3.20
  -9   3   4   23.70    1.81
  -7   3   4    4.42    0.80
  -5   3   4  115.82    2.96
  -3   3   4    0.96    0.23
  -1   3   4  109.40    2.84
   1   3   4    0.16    0.15
   3   3   4    2.52    0.28
   5   3   4   17.10    0.82
   7   3   4    0.37    0.28
   9   3   4    3.39    0.57
  11   3   4   99.15    3.61
  13   3   4   -0.18    0.29
  15   3   4   13.18    1.29
 -16   4   4   18.03    2.61
 -14   4   4   33.27    2.80
 -12   4   4    6.14    1.26
 -10   4   4    5.50    1.12
  -8   4   4    0.87    0.28
  -6   4   4  122.69    3.15
  -4   4   4   13.64    0.74
  -2   4   4   56.62    1.75
   0   4   4   42.11    1.41
   2   4   4   33.83    2.20
   4   4   4    9.15    1.29
 -13   5   4    2.80    1.05
 -11   5   4   28.05    2.49
  -9   5   4    8.83    1.55
  -7   5   4    1.45    0.72
  -5   5   4   70.42    3.83
  -3   5   4    0.48    0.54
  -1   5   4   56.74    3.40
   1   5   4    0.03    0.45
   3   5   4    0.56    0.60
   5   5   4    7.18    1.39
  -2   6   4   25.58    2.42
   0   6   4   21.79    2.21
 -13  -5   5    1.95    0.76
 -11  -5   5   44.70    1.83
  -9  -5   5    2.24    0.50
  -7  -5   5   35.97    1.79
  -5  -5   5   25.16    1.54
  -3  -5   5    0.76    0.51
  -1  -5   5   48.66    2.38
   1  -5   5   80.49    3.29
   3  -5   5    6.57    1.01
   5  -5   5   21.22    1.57
   7  -5   5   17.06    1.91
 -16  -4   5    9.28    1.18
 -14  -4   5   24.46    1.18
 -12  -4   5   14.56    0.88
 -10  -4   5   86.37    3.89
  -8  -4   5   21.62    1.23
  -6  -4   5    7.22    0.85
  -4  -4   5    0.31    0.34
  -2  -4   5   -0.23    0.28
   0  -4   5    9.81    0.80
   2  -4   5   28.09    1.21
   4  -4   5    5.80    0.65
   6  -4   5  137.17    3.35
   8  -4   5   30.37    1.50
  10  -4   5    7.63    0.86
 -19  -3   5    5.31    0.89
 -17  -3   5    2.61    0.61
 -13  -3   5    2.96    0.43
 -11  -3   5   74.06    3.25
  -9  -3   5    4.49    0.59
  -7  -3   5   75.59    2.55
  -5  -3   5   51.02    1.57
  -3  -3   5    1.95    0.46
  -1  -3   5   93.64    2.96
   1  -3   5  157.40    4.21
   3  -3   5   13.13    1.02
   5  -3   5   34.60    1.49
   7  -3   5   28.03    1.31
   9  -3   5    5.56    0.66
  11  -3   5    3.07    0.55
  13  -3   5   24.28    1.77
 -18  -2   5   15.70    1.17
 -16  -2   5   12.14    0.97
 -14  -2   5   40.84    1.90
 -12  -2   5   23.57    0.96
 -10  -2   5  146.29    3.14
  -8  -2   5   38.12    1.04
  -6  -2   5   17.49    0.65
  -4  -2   5    1.37    0.22
  -2  -2   5    0.68    0.19
   0  -2   5   16.54    0.64
   2  -2   5   50.54    1.30
   4  -2   5    9.98    0.54
   6  -2   5  199.11    3.91
   8  -2   5   44.46    1.25
  10  -2   5   11.99    0.66
  12  -2   5   10.52    0.84
  14  -2   5   35.10    1.45
  16  -2   5    0.27    0.45
 -21  -1   5    2.41    1.02
 -19  -1   5   12.09    1.93
 -17  -1   5    4.53    1.24
 -13  -1   5    3.78    0.54
  -5  -1   5   79.80    2.03
  -3  -1   5    4.88    0.40
  -1  -1   5  148.88    3.34
   1  -1   5  217.94    4.71
   3  -1   5   18.39    0.74
   5  -1   5   48.97    1.30
   7  -1   5   42.26    1.19
   9  -1   5    8.19    0.55
  11  -1   5    3.01    0.43
  13  -1   5   31.19    1.26
  15  -1   5   41.25    1.56
 -22   0   5   19.57    2.52
 -20   0   5    6.30    1.48
 -18   0   5   19.91    2.55
 -16   0   5   15.03    2.18
 -14   0   5   51.91    3.58
 -12   0   5   33.94    2.72
 -10   0   5  183.69    8.24
  -8   0   5   42.44    2.66
  -6   0   5   24.47    0.90
  -4   0   5    2.93    0.31
  -2   0   5    0.88    0.20
   0   0   5   21.83    0.80
   2   0   5   63.72    1.67
   4   0   5   12.98    0.62
   6   0   5  245.04    7.22
   8   0   5   55.39    1.40
  10   0   5   15.22    0.77
  12   0   5   13.58    0.81
  14   0   5   40.66    1.47
  16   0   5    0.22    0.42
 -21   1   5    2.15    1.15
 -19   1   5    9.07    1.99
 -17   1   5    3.81    1.34
 -15   1   5   97.28    6.03
 -13   1   5    4.79    1.25
 -11   1   5  105.85    5.44
  -9   1   5    5.23    0.97
  -7   1   5  119.14    5.18
  -5   1   5   83.83    2.18
  -3   1   5    5.38    0.38
  -1   1   5  152.66    4.54
   1   1   5  217.01    4.72
   3   1   5   18.15    0.73
   5   1   5   52.48    1.48
   7   1   5   43.34    1.35
   9   1   5    8.16    0.57
  11   1   5    3.31    0.61
  13   1   5   30.66    1.73
  15   1   5   38.17    2.09
 -20   2   5    3.43    1.52
 -18   2   5   11.26    2.29
 -16   2   5   12.30    2.18
 -14   2   5   38.96    3.06
 -12   2   5   23.64    2.04
 -10   2   5  144.92    6.40
  -8   2   5   36.95    2.17
  -6   2   5   16.68    0.77
  -4   2   5    1.76    0.27
  -2   2   5    0.61    0.19
   0   2   5   16.82    0.96
   2   2   5   49.72    1.43
   4   2   5   10.56    0.55
   6   2   5  202.19    4.42
   8   2   5   45.30    1.96
  10   2   5   12.38    1.14
  12   2   5   12.53    1.16
  14   2   5   36.68    1.96
 -19   3   5    6.30    1.90
 -17   3   5    2.00    1.12
 -15   3   5   86.78    5.06
 -13   3   5    1.62    0.79
 -11   3   5   76.42    3.99
  -9   3   5    4.73    0.92
  -7   3   5   73.20    2.17
  -5   3   5   51.28    1.62
  -3   3   5    2.29    0.34
  -1   3   5   95.85    2.56
   1   3   5  147.35    4.73
   3   3   5   13.62    0.91
   5   3   5   33.39    1.61
   7   3   5   27.79    1.48
   9   3   5    5.52    0.76
  11   3   5    2.34    0.56
  13   3   5   24.09    1.53
 -16   4   5    9.40    1.92
 -14   4   5   24.89    2.42
 -12   4   5   14.71    1.95
 -10   4   5   87.02    2.67
  -8   4   5   22.02    1.07
  -6   4   5    9.06    0.74
  -4   4   5    0.55    0.26
  -2   4   5    0.30    0.23
   0   4   5    8.59    0.70
   2   4   5   30.85    1.49
   4   4   5    5.66    0.74
 -11   5   5   43.73    3.25
  -9   5   5    2.43    0.91
  -7   5   5   37.01    2.74
  -5   5   5   28.71    2.25
  -3   5   5    1.85    0.78
  -1   5   5   50.95    3.22
  -9  -5   6   21.23    1.88
  -7  -5   6   28.07    1.79
  -5  -5   6   49.70    2.44
  -3  -5   6    2.73    0.75
  -1  -5   6    1.65    0.71
   1  -5   6   61.21    2.97
   3  -5   6   -0.66    0.89
 -14  -4   6    3.00    0.52
 -12  -4   6   28.29    1.30
 -10  -4   6   14.64    1.63
  -8  -4   6    8.14    0.94
  -6  -4   6   27.13    1.58
  -4  -4   6  137.74    4.48
  -2  -4   6    9.09    1.11
   0  -4   6    8.87    0.85
   2  -4   6   16.11    1.15
   4  -4   6    5.48    0.71
   6  -4   6    0.20    0.35
   8  -4   6    7.17    0.91
 -19  -3   6    2.87    0.69
 -17  -3   6    0.55    0.41
 -15  -3   6   13.60    1.12
 -13  -3   6   61.34    1.97
 -11  -3   6   12.80    1.17
  -9  -3   6   33.66    1.59
  -7  -3   6   51.67    2.14
  -5  -3   6   84.84    2.97
  -3  -3   6    3.27    0.64
  -1  -3   6    4.29    0.67
   1  -3   6   99.47    3.28
   3  -3   6    0.40    0.34
   5  -3   6   20.78    1.21
   7  -3   6    0.62    0.38
   9  -3   6   69.14    2.49
  11  -3   6    2.29    0.74
 -16  -2   6   53.06    2.34
 -14  -2   6    5.60    0.75
 -12  -2   6   47.29    1.74
 -10  -2   6   22.54    1.16
  -8  -2   6   13.17    1.06
  -6  -2   6   47.59    1.90
  -4  -2   6  216.99    5.78
  -2  -2   6   18.54    1.17
   0  -2   6   11.48    0.61
   2  -2   6   30.84    1.02
   4  -2   6    8.23    0.58
   6  -2   6    0.09    0.18
   8  -2   6   12.27    0.75
  10  -2   6   39.49    1.48
  12  -2   6   26.28    1.82
 -21  -1   6   62.15    4.16
 -19  -1   6    7.44    1.50
 -17  -1   6    0.15    0.57
 -15  -1   6   22.58    2.14
 -13  -1   6  105.30    5.09
  -9  -1   6   50.73    1.97
  -7  -1   6   77.78    2.68
  -5  -1   6  117.20    2.83
  -3  -1   6    5.04    0.44
  -1  -1   6    9.50    0.56
   1  -1   6  153.43    3.56
   3  -1   6    0.40    0.20
   5  -1   6   31.36    1.01
   7  -1   6    0.74    0.23
   9  -1   6  104.50    2.74
  11  -1   6    4.47    0.55
  13  -1   6   55.90    1.90
 -22   0   6   -0.70    0.66
 -20   0   6  119.75    6.34
 -18   0   6   57.98    3.86
 -16   0   6   68.76    4.19
 -14   0   6    8.46    1.53
 -12   0   6   54.71    3.44
 -10   0   6   21.91    1.86
  -8   0   6   15.74    0.77
  -6   0   6   53.37    2.09
  -4   0   6  274.59    7.77
  -2   0   6   24.51    0.92
   0   0   6   12.79    0.63
   2   0   6   41.80    1.31
   4   0   6    8.18    0.62
   6   0   6    0.20    0.20
   8   0   6   14.45    0.66
  10   0   6   45.72    1.55
  12   0   6   32.07    1.30
  14   0   6    2.97    0.71
 -21   1   6   67.68    4.74
 -19   1   6    6.82    1.75
 -17   1   6   -0.05    0.74
 -15   1   6   16.30    2.32
 -13   1   6   80.35    4.70
 -11   1   6   14.80    1.57
  -9   1   6   51.03    2.81
  -7   1   6   79.04    2.21
  -5   1   6  120.41    3.86
  -3   1   6    6.11    0.67
  -1   1   6    8.34    0.54
   1   1   6  151.78    3.58
   3   1   6    0.45    0.20
   5   1   6   30.20    1.12
   7   1   6    0.75    0.27
   9   1   6  100.39    2.66
  11   1   6    4.61    0.75
  13   1   6   52.96    2.59
 -20   2   6   90.47    6.15
 -18   2   6   40.20    3.59
 -16   2   6   53.68    3.85
 -14   2   6    3.89    1.11
 -12   2   6   43.72    2.92
 -10   2   6   19.74    1.65
  -8   2   6   13.30    0.73
  -6   2   6   46.12    1.50
  -4   2   6  218.83    6.58
  -2   2   6   17.99    1.08
   0   2   6   11.30    0.83
   2   2   6   33.01    1.14
   4   2   6    7.72    0.60
   6   2   6    0.05    0.26
   8   2   6   12.65    1.02
  10   2   6   37.24    1.96
  12   2   6   27.55    1.67
 -19   3   6    3.70    1.56
 -17   3   6    0.99    1.06
 -15   3   6   16.77    2.30
 -13   3   6   59.33    3.71
 -11   3   6   12.39    0.84
  -9   3   6   34.70    1.37
  -7   3   6   52.57    1.76
  -5   3   6   83.65    2.43
  -3   3   6    4.52    0.63
  -1   3   6    4.30    0.64
   1   3   6  107.49    2.66
   3   3   6    0.30    0.26
   5   3   6   20.89    1.29
   7   3   6    0.84    0.41
   9   3   6   74.59    3.01
  11   3   6    3.51    0.69
 -16   4   6   33.09    3.11
 -14   4   6    3.32    0.63
 -12   4   6   25.09    1.33
 -10   4   6   12.78    1.01
  -8   4   6    8.58    0.79
  -6   4   6   28.84    1.25
  -4   4   6  142.17    4.61
  -2   4   6   10.00    0.98
   0   4   6    8.53    0.93
   2   4   6   17.59    1.18
   4   4   6    5.75    0.80
   6   4   6    0.45    0.40
 -11   5   6    8.21    1.63
  -9   5   6   21.85    2.18
  -7   5   6   29.86    2.44
 -14  -4   7   37.32    1.59
 -12  -4   7    7.89    1.25
 -10  -4   7   88.31    4.17
  -8  -4   7   13.98    1.32
  -6  -4   7    2.28    0.65
  -4  -4   7    1.34    0.57
  -2  -4   7   10.21    1.29
   0  -4   7   48.12    1.89
   2  -4   7   42.20    2.12
   4  -4   7   39.61    1.99
 -17  -3   7   54.01    2.59
 -15  -3   7   33.70    1.88
 -13  -3   7   59.15    2.90
 -11  -3   7    5.15    0.71
  -9  -3   7   12.48    1.13
  -7  -3   7    8.66    1.79
  -5  -3   7    0.07    0.37
  -3  -3   7    0.03    0.38
  -1  -3   7   36.48    1.83
   1  -3   7    2.97    0.63
   3  -3   7   33.41    1.70
   5  -3   7    0.42    0.39
   7  -3   7   77.68    2.76
   9  -3   7   -0.25    0.57
 -20  -2   7   10.36    1.81
 -18  -2   7    6.38    1.45
 -14  -2   7   53.20    2.33
 -12  -2   7   11.67    1.55
 -10  -2   7  145.20    3.99
  -8  -2   7   27.49    1.39
  -6  -2   7    3.84    0.65
  -4  -2   7    3.20    0.57
  -2  -2   7   14.92    1.09
   0  -2   7   64.62    2.42
   2  -2   7   70.75    2.49
   4  -2   7   61.39    2.28
   6  -2   7    2.75    0.54
   8  -2   7    2.18    0.51
  10  -2   7    1.07    0.58
 -21  -1   7    0.74    0.79
 -19  -1   7   -0.07    0.64
 -17  -1   7   79.38    4.50
 -15  -1   7   51.93    3.27
 -13  -1   7   93.47    4.56
 -11  -1   7    4.80    0.62
  -9  -1   7   12.69    0.86
  -7  -1   7   11.62    0.65
  -5  -1   7    0.07    0.16
  -3  -1   7    0.04    0.17
  -1  -1   7   49.95    1.55
   1  -1   7    5.58    0.53
   3  -1   7   44.15    1.31
   5  -1   7    0.19    0.21
   7  -1   7  106.25    2.42
   9  -1   7    0.48    0.30
  11  -1   7   16.95    1.01
 -20   0   7   11.94    1.92
 -18   0   7    7.60    1.49
 -16   0   7   10.80    1.71
 -14   0   7   58.72    3.50
 -10   0   7  154.32    4.97
  -8   0   7   29.31    1.44
  -6   0   7    5.46    0.68
  -4   0   7    3.40    0.40
  -2   0   7   17.24    0.81
   0   0   7   78.79    2.14
   2   0   7   80.49    2.21
   4   0   7   74.42    2.09
   6   0   7    3.28    0.42
   8   0   7    1.02    0.32
  10   0   7    0.58    0.31
  12   0   7    1.14    0.38
 -21   1   7    0.09    0.87
 -19   1   7   -0.23    0.74
 -17   1   7   77.34    4.78
 -15   1   7   47.14    3.31
 -13   1   7   79.95    4.31
 -11   1   7    5.69    0.72
  -9   1   7   11.86    0.91
  -7   1   7   13.19    0.92
  -5   1   7    0.28    0.23
  -3   1   7    0.13    0.20
  -1   1   7   50.15    1.57
   1   1   7    5.07    0.50
   3   1   7   45.21    1.50
   5   1   7    0.41    0.23
   7   1   7  100.03    2.74
   9   1   7    0.41    0.28
  11   1   7   13.60    1.35
 -20   2   7    7.46    1.88
 -18   2   7    7.73    1.77
 -16   2   7    8.02    1.61
 -14   2   7   47.44    3.28
 -12   2   7    9.06    0.79
 -10   2   7  125.86    4.52
  -8   2   7   23.60    1.39
  -6   2   7    4.31    0.65
  -4   2   7    2.37    0.48
  -2   2   7   14.56    1.03
   0   2   7   67.25    1.97
   2   2   7   68.64    2.00
   4   2   7   60.72    1.86
   6   2   7    2.86    0.59
   8   2   7    1.57    0.50
  10   2   7    0.96    0.52
 -17   3   7   52.83    3.94
 -15   3   7   33.98    2.80
 -13   3   7   55.10    2.03
 -11   3   7    3.93    0.56
  -9   3   7   11.87    1.16
  -7   3   7    7.28    0.90
  -5   3   7    0.07    0.24
  -3   3   7    0.39    0.29
  -1   3   7   38.71    1.85
   1   3   7    2.77    0.57
   3   3   7   34.25    1.79
   5   3   7    0.67    0.39
   7   3   7   80.55    3.21
 -14   4   7   36.25    1.71
 -12   4   7    5.34    0.74
 -10   4   7   86.52    3.46
  -8   4   7   15.35    1.20
  -6   4   7    2.77    0.62
  -4   4   7    1.65    0.53
  -2   4   7   11.28    1.11
   0   4   7   49.30    2.23
   2   4   7   44.97    2.16
   4   4   7   41.72    2.09
  -8  -4   8   13.69    1.36
  -6  -4   8   18.44    1.69
  -4  -4   8   22.45    1.74
  -2  -4   8   18.62    1.76
   0  -4   8   13.38    1.78
 -13  -3   8    0.28    0.46
 -11  -3   8   31.16    1.60
  -9  -3   8   -0.10    0.68
  -7  -3   8   52.10    3.94
  -5  -3   8  119.30    3.91
  -3  -3   8   44.55    2.09
  -1  -3   8    3.54    0.72
   1  -3   8    0.13    0.42
   3  -3   8    7.24    0.95
   5  -3   8   26.04    2.37
 -12  -2   8    2.10    0.77
 -10  -2   8   88.23    2.90
  -8  -2   8   21.42    1.26
  -6  -2   8   22.73    1.28
  -4  -2   8   32.32    1.58
  -2  -2   8   29.69    1.52
   0  -2   8   18.65    1.27
   2  -2   8   13.19    1.14
   4  -2   8   13.56    1.16
   6  -2   8   63.23    2.39
 -15  -1   8    1.02    0.39
 -13  -1   8    1.75    0.43
 -11  -1   8   35.63    1.31
  -9  -1   8    0.27    0.22
  -7  -1   8   52.68    1.66
  -5  -1   8  144.43    3.55
  -3  -1   8   52.66    1.66
  -1  -1   8    4.33    0.49
   1  -1   8    0.19    0.22
   3  -1   8   11.78    0.70
   5  -1   8   31.80    1.14
   7  -1   8   10.40    0.74
   9  -1   8    3.01    0.52
 -20   0   8    4.39    1.31
 -14   0   8    7.34    0.86
 -12   0   8    2.55    0.53
 -10   0   8   99.71    3.60
  -8   0   8   22.39    1.31
  -6   0   8   22.50    0.98
  -4   0   8   37.54    1.35
  -2   0   8   37.52    1.34
   0   0   8   23.93    1.04
   2   0   8   14.65    0.80
   4   0   8   16.59    0.88
   6   0   8   68.19    2.12
   8   0   8    0.47    0.31
 -13   1   8    1.00    0.40
 -11   1   8   35.64    1.77
  -9   1   8    0.11    0.26
  -7   1   8   60.09    2.39
  -5   1   8  144.83    4.85
  -3   1   8   50.71    1.69
  -1   1   8    5.42    0.55
   1   1   8    0.39    0.21
   3   1   8   11.38    0.82
   5   1   8   31.33    1.27
   7   1   8    8.58    0.77
 -14   2   8    6.44    0.89
 -12   2   8    1.49    0.45
 -10   2   8   80.99    3.32
  -8   2   8   20.29    1.32
  -6   2   8   17.82    1.24
  -4   2   8   34.49    1.75
  -2   2   8   29.77    1.22
   0   2   8   19.89    0.98
   2   2   8   14.07    0.82
   4   2   8   13.53    0.86
   6   2   8   63.49    2.80
 -15   3   8    1.18    0.52
 -13   3   8    1.52    0.51
 -11   3   8   26.19    1.65
  -9   3   8    0.29    0.35
  -7   3   8   32.60    1.90
  -5   3   8  114.48    4.14
  -3   3   8   39.57    2.07
  -1   3   8    3.73    0.51
   1   3   8    0.43    0.36
   3   3   8    8.27    1.02
   5   3   8   25.22    1.66
 -10   4   8   57.84    2.76
  -8   4   8   11.82    1.28
  -6   4   8   15.81    1.45
  -4   4   8   22.43    1.50
  -2   4   8   20.64    1.45
   0   4   8   12.96    1.31
 -11  -3   9   38.32    1.89
  -9  -3   9   17.97    2.41
  -7  -3   9    9.13    1.80
  -5  -3   9   19.36    1.57
  -3  -3   9    2.69    0.68
  -1  -3   9    5.39    1.10
 -12  -2   9    0.47    0.54
 -10  -2   9   10.42    1.01
  -8  -2   9   13.57    1.14
  -6  -2   9    2.30    0.53
  -4  -2   9   16.67    1.32
  -2  -2   9   37.55    1.78
   0  -2   9   38.68    1.86
   2  -2   9    0.36    0.40
   4  -2   9   18.45    2.14
 -13  -1   9   85.87    3.61
 -11  -1   9   52.92    1.73
  -9  -1   9   15.78    0.84
  -7  -1   9   10.60    0.79
  -5  -1   9   25.79    1.12
  -3  -1   9    3.48    0.48
  -1  -1   9    9.63    0.78
   1  -1   9  117.56    3.42
   3  -1   9    1.20    0.32
   5  -1   9   17.74    0.95
 -16   0   9  142.74    5.04
 -14   0   9    1.17    0.42
 -12   0   9    0.44    0.33
 -10   0   9   12.22    1.14
  -8   0   9   14.18    0.86
  -6   0   9    1.65    0.34
  -4   0   9   20.04    0.98
  -2   0   9   42.31    1.56
   0   0   9   41.83    1.53
   2   0   9    0.74    0.32
   4   0   9   25.29    1.20
   6   0   9   11.71    0.93
 -15   1   9   26.82    1.65
 -13   1   9   80.39    3.16
 -11   1   9   47.56    2.29
  -9   1   9   14.11    1.13
  -7   1   9   11.72    1.14
  -5   1   9   22.93    1.10
  -3   1   9    3.66    0.51
  -1   1   9   10.64    0.83
   1   1   9  121.79    3.24
   3   1   9    1.19    0.37
   5   1   9   16.93    0.98
 -14   2   9    0.64    0.42
 -12   2   9    0.23    0.34
 -10   2   9   11.27    1.20
  -8   2   9   11.41    1.18
  -6   2   9    3.20    0.66
  -4   2   9   18.19    0.97
  -2   2   9   38.31    1.50
   0   2   9   39.62    1.52
   2   2   9    0.88    0.34
  -9   3   9   10.65    1.22
  -7   3   9    7.53    1.02
  -5   3   9   20.27    1.46
  -3   3   9    3.86    0.56
  -1   3   9    5.58    0.87
 -10  -2  10   63.10    3.22
  -8  -2  10   45.38    2.67
  -6  -2  10    4.01    0.92
 -13  -1  10   17.99    1.50
 -11  -1  10    3.44    0.84
  -9  -1  10   29.01    1.96
  -7  -1  10    5.73    1.01
  -5  -1  10   42.26    2.47
  -3  -1  10    0.40    0.48
  -1  -1  10    1.89    0.76
 -14   0  10    0.29    0.37
 -12   0  10    2.74    0.48
 -10   0  10   70.47    2.21
  -8   0  10   56.30    1.88
  -6   0  10    4.06    0.56
  -4   0  10   25.42    1.20
  -2   0  10   11.48    0.90
   0   0  10    3.82    0.56
 -11   1  10    3.71    0.71
  -9   1  10   27.07    1.26
  -7   1  10    6.72    0.70
  -5   1  10   45.03    1.67
  -3   1  10    0.79    0.33
  -1   1  10    1.93    0.44
   0   0   0    0.00    0.00
;
_shelx_hkl_checksum              63598
#END Tags that were not found in dictionaries
loop_
_space_group_symop_operation_xyz
'x, y, z'
'-x, y, -z'
'x+1/2, y+1/2, z'
'-x+1/2, y+1/2, -z'
'-x, -y, -z'
'x, -y, z'
'-x+1/2, -y+1/2, -z'
'x+1/2, -y+1/2, z'
loop_
_atom_site_label
_atom_site_type_symbol
_atom_site_fract_x
_atom_site_fract_y
_atom_site_fract_z
_atom_site_U_iso_or_equiv
_atom_site_adp_type
_atom_site_occupancy
_atom_site_site_symmetry_order
_atom_site_calc_flag
_atom_site_refinement_flags_posn
_atom_site_refinement_flags_adp
_atom_site_refinement_flags_occupancy
Tb1 Tb 0.34865(2) 0.0000 0.06664(4) 0.00661(8) Uani 1 2 d S T P
Tb2 Tb 0.58726(2) 0.0000 0.38282(4) 0.00629(8) Uani 1 2 d S T P
Ru Ru 0.22007(3) 0.0000 0.63194(6) 0.00579(10) Uani 1 2 d S T P
In In 0.0000 0.0000 0.0000 0.00938(19) Uani 0.932(3) 4 d S T .
Ge1 Ge 0.06446(4) 0.0000 0.65897(9) 0.00688(12) Uani 1 2 d S T P
Ge2 Ge 0.20247(4) 0.0000 0.26350(9) 0.00729(12) Uani 1 2 d S T P
loop_
_atom_site_aniso_label
_atom_site_aniso_U_11
_atom_site_aniso_U_22
_atom_site_aniso_U_33
_atom_site_aniso_U_23
_atom_site_aniso_U_13
_atom_site_aniso_U_12
Tb1 0.00685(13) 0.00646(12) 0.00626(12) 0.000 0.00148(9) 0.000
Tb2 0.00638(13) 0.00569(12) 0.00775(12) 0.000 0.00354(9) 0.000
Ru 0.0062(2) 0.00526(19) 0.00636(17) 0.000 0.00248(14) 0.000
In 0.0075(3) 0.0141(3) 0.0073(3) 0.000 0.0035(2) 0.000
Ge1 0.0059(3) 0.0057(3) 0.0086(2) 0.000 0.0014(2) 0.000
Ge2 0.0112(3) 0.0046(3) 0.0069(2) 0.000 0.0038(2) 0.000
loop_
_atom_type_symbol
_atom_type_description
_atom_type_scat_dispersion_real
_atom_type_scat_dispersion_imag
_atom_type_scat_source
Ge Ge 0.1547 1.8001 'International Tables Vol C Tables 4.2.6.8 and 6.1.1.4'
Ru Ru -1.2594 0.8363 'International Tables Vol C Tables 4.2.6.8 and 6.1.1.4'
In In -0.7276 1.3100 'International Tables Vol C Tables 4.2.6.8 and 6.1.1.4'
Tb Tb -0.1723 4.1537 'International Tables Vol C Tables 4.2.6.8 and 6.1.1.4'
loop_
_geom_angle_atom_site_label_1
_geom_angle_atom_site_label_2
_geom_angle_atom_site_label_3
_geom_angle
_geom_angle_site_symmetry_1
_geom_angle_site_symmetry_3
Ge1 Tb1 Ge1 93.422(18) 7_556 7_546
Ge1 Tb1 Ge2 88.402(16) 7_556 .
Ge1 Tb1 Ge2 88.402(16) 7_546 .
Ge1 Tb1 Ge2 165.54(2) 7_556 7_545
Ge1 Tb1 Ge2 87.636(13) 7_546 7_545
Ge2 Tb1 Ge2 106.045(14) . 7_545
Ge1 Tb1 Ge2 87.636(13) 7_556 7
Ge1 Tb1 Ge2 165.54(2) 7_546 7
Ge2 Tb1 Ge2 106.045(14) . 7
Ge2 Tb1 Ge2 87.813(17) 7_545 7
Ge1 Tb1 Ru 133.242(9) 7_556 1_554
Ge1 Tb1 Ru 133.242(9) 7_546 1_554
Ge2 Tb1 Ru 94.719(17) . 1_554
Ge2 Tb1 Ru 46.699(10) 7_545 1_554
Ge2 Tb1 Ru 46.699(10) 7 1_554
Ge1 Tb1 In 53.690(13) 7_556 3
Ge1 Tb1 In 110.054(14) 7_546 3
Ge2 Tb1 In 137.441(6) . 3
Ge2 Tb1 In 112.508(13) 7_545 3
Ge2 Tb1 In 59.467(12) 7 3
Ru Tb1 In 98.660(9) 1_554 3
Ge1 Tb1 In 110.054(14) 7_556 3_545
Ge1 Tb1 In 53.690(13) 7_546 3_545
Ge2 Tb1 In 137.441(6) . 3_545
Ge2 Tb1 In 59.467(12) 7_545 3_545
Ge2 Tb1 In 112.508(13) 7 3_545
Ru Tb1 In 98.660(9) 1_554 3_545
In Tb1 In 79.928(7) 3 3_545
Ge1 Tb1 Ru 45.943(14) 7_556 7_556
Ge1 Tb1 Ru 102.832(14) 7_546 7_556
Ge2 Tb1 Ru 44.850(9) . 7_556
Ge2 Tb1 Ru 147.523(17) 7_545 7_556
Ge2 Tb1 Ru 88.253(12) 7 7_556
Ru Tb1 Ru 111.950(10) 1_554 7_556
In Tb1 Ru 92.886(7) 3 7_556
In Tb1 Ru 149.309(11) 3_545 7_556
Ge1 Tb1 Ru 102.832(14) 7_556 7_546
Ge1 Tb1 Ru 45.943(14) 7_546 7_546
Ge2 Tb1 Ru 44.850(9) . 7_546
Ge2 Tb1 Ru 88.253(12) 7_545 7_546
Ge2 Tb1 Ru 147.523(17) 7 7_546
Ru Tb1 Ru 111.950(10) 1_554 7_546
In Tb1 Ru 149.309(11) 3 7_546
In Tb1 Ru 92.886(7) 3_545 7_546
Ru Tb1 Ru 78.133(11) 7_556 7_546
Ge1 Tb1 Tb2 112.449(14) 7_556 5_655
Ge1 Tb1 Tb2 112.449(14) 7_546 5_655
Ge2 Tb1 Tb2 148.488(15) . 5_655
Ge2 Tb1 Tb2 54.310(11) 7_545 5_655
Ge2 Tb1 Tb2 54.310(11) 7 5_655
Ru Tb1 Tb2 53.769(11) 1_554 5_655
In Tb1 Tb2 58.854(5) 3 5_655
In Tb1 Tb2 58.854(5) 3_545 5_655
Ru Tb1 Tb2 140.341(6) 7_556 5_655
Ru Tb1 Tb2 140.341(6) 7_546 5_655
Ge1 Tb1 Tb1 142.468(18) 7_556 7_545
Ge1 Tb1 Tb1 86.697(11) 7_546 7_545
Ge2 Tb1 Tb1 54.069(11) . 7_545
Ge2 Tb1 Tb1 51.976(13) 7_545 7_545
Ge2 Tb1 Tb1 101.210(15) 7 7_545
Ru Tb1 Tb1 59.309(9) 1_554 7_545
In Tb1 Tb1 157.866(12) 3 7_545
In Tb1 Tb1 100.120(5) 3_545 7_545
Ru Tb1 Tb1 97.450(12) 7_556 7_545
Ru Tb1 Tb1 52.641(9) 7_546 7_545
Tb2 Tb1 Tb1 101.962(10) 5_655 7_545
Ge1 Tb2 Ge1 91.933(19) 3 3_545
Ge1 Tb2 Ru 109.101(14) 3 5_656
Ge1 Tb2 Ru 109.101(14) 3_545 5_656
Ge1 Tb2 Ge2 82.362(14) 3 3
Ge1 Tb2 Ge2 150.339(19) 3_545 3
Ru Tb2 Ge2 47.455(11) 5_656 3
Ge1 Tb2 Ge2 150.339(19) 3 3_545
Ge1 Tb2 Ge2 82.362(14) 3_545 3_545
Ru Tb2 Ge2 47.455(11) 5_656 3_545
Ge2 Tb2 Ge2 88.340(18) 3 3_545
Ge1 Tb2 Ru 48.258(14) 3 3
Ge1 Tb2 Ru 108.186(15) 3_545 3
Ru Tb2 Ru 60.867(12) 5_656 3
Ge2 Tb2 Ru 47.788(14) 3 3
Ge2 Tb2 Ru 106.014(15) 3_545 3
Ge1 Tb2 Ru 108.186(15) 3 3_545
Ge1 Tb2 Ru 48.258(14) 3_545 3_545
Ru Tb2 Ru 60.867(11) 5_656 3_545
Ge2 Tb2 Ru 106.014(15) 3 3_545
Ge2 Tb2 Ru 47.788(14) 3_545 3_545
Ru Tb2 Ru 85.701(13) 3 3_545
Ge1 Tb2 Ge1 108.606(11) 3 7_546
Ge1 Tb2 Ge1 48.99(2) 3_545 7_546
Ru Tb2 Ge1 136.565(9) 5_656 7_546
Ge2 Tb2 Ge1 159.497(19) 3 7_546
Ge2 Tb2 Ge1 89.511(13) 3_545 7_546
Ru Tb2 Ge1 151.224(16) 3 7_546
Ru Tb2 Ge1 87.361(11) 3_545 7_546
Ge1 Tb2 Ge1 48.99(2) 3 7_556
Ge1 Tb2 Ge1 108.606(11) 3_545 7_556
Ru Tb2 Ge1 136.565(9) 5_656 7_556
Ge2 Tb2 Ge1 89.511(13) 3 7_556
Ge2 Tb2 Ge1 159.497(19) 3_545 7_556
Ru Tb2 Ge1 87.361(11) 3 7_556
Ru Tb2 Ge1 151.224(16) 3_545 7_556
Ge1 Tb2 Ge1 85.415(17) 7_546 7_556
Ge1 Tb2 In 150.453(15) 3 3_545
Ge1 Tb2 In 87.994(10) 3_545 3_545
Ru Tb2 In 98.760(9) 5_656 3_545
Ge2 Tb2 In 111.048(13) 3 3_545
Ge2 Tb2 In 58.806(12) 3_545 3_545
Ru Tb2 In 156.909(12) 3 3_545
Ru Tb2 In 93.659(7) 3_545 3_545
Ge1 Tb2 In 51.445(11) 7_546 3_545
Ge1 Tb2 In 103.326(12) 7_556 3_545
Ge1 Tb2 In 87.994(10) 3 3
Ge1 Tb2 In 150.453(15) 3_545 3
Ru Tb2 In 98.760(9) 5_656 3
Ge2 Tb2 In 58.806(12) 3 3
Ge2 Tb2 In 111.048(13) 3_545 3
Ru Tb2 In 93.659(7) 3 3
Ru Tb2 In 156.909(12) 3_545 3
Ge1 Tb2 In 103.326(12) 7_546 3
Ge1 Tb2 In 51.445(11) 7_556 3
In Tb2 In 78.008(7) 3_545 3
Ge1 Tb2 Tb1 133.720(10) 3 5_655
Ge1 Tb2 Tb1 133.720(10) 3_545 5_655
Ru Tb2 Tb1 55.805(10) 5_656 5_655
Ge2 Tb2 Tb1 54.692(11) 3 5_655
Ge2 Tb2 Tb1 54.692(11) 3_545 5_655
Ru Tb2 Tb1 100.357(11) 3 5_655
Ru Tb2 Tb1 100.357(11) 3_545 5_655
Ge1 Tb2 Tb1 108.359(13) 7_546 5_655
Ge1 Tb2 Tb1 108.359(13) 7_556 5_655
In Tb2 Tb1 56.995(5) 3_545 5_655
In Tb2 Tb1 56.995(6) 3 5_655
Ge2 Ru Ge2 120.29(3) 7_556 7_546
Ge2 Ru Ge1 112.745(18) 7_556 .
Ge2 Ru Ge1 112.745(18) 7_546 .
Ge2 Ru Ge2 101.805(18) 7_556 .
Ge2 Ru Ge2 101.805(18) 7_546 .
Ge1 Ru Ge2 104.78(3) . .
Ge2 Ru Tb2 66.492(17) 7_556 5_656
Ge2 Ru Tb2 66.492(17) 7_546 5_656
Ge1 Ru Tb2 177.70(2) . 5_656
Ge2 Ru Tb2 77.51(2) . 5_656
Ge2 Ru Tb1 65.525(16) 7_556 1_556
Ge2 Ru Tb1 65.525(16) 7_546 1_556
Ge1 Ru Tb1 107.28(2) . 1_556
Ge2 Ru Tb1 147.94(2) . 1_556
Tb2 Ru Tb1 70.426(12) 5_656 1_556
Ge2 Ru Ru 124.02(3) 7_556 7_546
Ge2 Ru Ru 51.637(16) 7_546 7_546
Ge1 Ru Ru 120.513(19) . 7_546
Ge2 Ru Ru 50.168(14) . 7_546
Tb2 Ru Ru 60.913(15) 5_656 7_546
Tb1 Ru Ru 110.722(18) 1_556 7_546
Ge2 Ru Ru 51.637(16) 7_556 7_556
Ge2 Ru Ru 124.02(3) 7_546 7_556
Ge1 Ru Ru 120.513(19) . 7_556
Ge2 Ru Ru 50.168(14) . 7_556
Tb2 Ru Ru 60.913(15) 5_656 7_556
Tb1 Ru Ru 110.722(18) 1_556 7_556
Ru Ru Ru 85.75(2) 7_546 7_556
Ge2 Ru Tb2 161.315(19) 7_556 3_445
Ge2 Ru Tb2 76.565(14) 7_546 3_445
Ge1 Ru Tb2 62.324(13) . 3_445
Ge2 Ru Tb2 64.537(13) . 3_445
Tb2 Ru Tb2 119.133(11) 5_656 3_445
Tb1 Ru Tb2 132.811(9) 1_556 3_445
Ru Ru Tb2 58.220(12) 7_546 3_445
Ru Ru Tb2 113.50(2) 7_556 3_445
Ge2 Ru Tb2 76.565(14) 7_556 3_455
Ge2 Ru Tb2 161.315(19) 7_546 3_455
Ge1 Ru Tb2 62.324(13) . 3_455
Ge2 Ru Tb2 64.537(13) . 3_455
Tb2 Ru Tb2 119.133(11) 5_656 3_455
Tb1 Ru Tb2 132.811(9) 1_556 3_455
Ru Ru Tb2 113.50(2) 7_546 3_455
Ru Ru Tb2 58.220(12) 7_556 3_455
Tb2 Ru Tb2 85.701(13) 3_445 3_455
Ge2 Ru Tb1 59.097(16) 7_556 7_556
Ge2 Ru Tb1 125.42(2) 7_546 7_556
Ge1 Ru Tb1 57.398(12) . 7_556
Ge2 Ru Tb1 132.689(13) . 7_556
Tb2 Ru Tb1 121.061(12) 5_656 7_556
Tb1 Ru Tb1 68.050(10) 1_556 7_556
Ru Ru Tb1 176.192(16) 7_546 7_556
Ru Ru Tb1 98.060(8) 7_556 7_556
Tb2 Ru Tb1 119.699(15) 3_445 7_556
Tb2 Ru Tb1 68.792(9) 3_455 7_556
Ge2 Ru Tb1 125.42(2) 7_556 7_546
Ge2 Ru Tb1 59.097(16) 7_546 7_546
Ge1 Ru Tb1 57.398(12) . 7_546
Ge2 Ru Tb1 132.689(13) . 7_546
Tb2 Ru Tb1 121.062(12) 5_656 7_546
Tb1 Ru Tb1 68.050(10) 1_556 7_546
Ru Ru Tb1 98.060(8) 7_546 7_546
Ru Ru Tb1 176.192(16) 7_556 7_546
Tb2 Ru Tb1 68.792(9) 3_445 7_546
Tb2 Ru Tb1 119.699(15) 3_455 7_546
Tb1 Ru Tb1 78.133(11) 7_556 7_546
Ge1 In Ge1 180.00(2) 5_556 1_554
Ge1 In Tb1 56.119(8) 5_556 3_445
Ge1 In Tb1 123.881(8) 1_554 3_445
Ge1 In Tb1 123.881(8) 5_556 7
Ge1 In Tb1 56.119(8) 1_554 7
Tb1 In Tb1 180.0 3_445 7
Ge1 In Tb1 123.881(8) 5_556 7_545
Ge1 In Tb1 56.119(8) 1_554 7_545
Tb1 In Tb1 100.072(7) 3_445 7_545
Tb1 In Tb1 79.928(7) 7 7_545
Ge1 In Tb1 56.119(8) 5_556 3_455
Ge1 In Tb1 123.881(8) 1_554 3_455
Tb1 In Tb1 79.928(7) 3_445 3_455
Tb1 In Tb1 100.072(7) 7 3_455
Tb1 In Tb1 180.0 7_545 3_455
Ge1 In Tb2 59.841(9) 5_556 3_455
Ge1 In Tb2 120.159(9) 1_554 3_455
Tb1 In Tb2 115.850(6) 3_445 3_455
Tb1 In Tb2 64.150(6) 7 3_455
Tb1 In Tb2 111.869(6) 7_545 3_455
Tb1 In Tb2 68.131(6) 3_455 3_455
Ge1 In Tb2 120.159(9) 5_556 7_545
Ge1 In Tb2 59.841(9) 1_554 7_545
Tb1 In Tb2 64.150(6) 3_445 7_545
Tb1 In Tb2 115.850(6) 7 7_545
Tb1 In Tb2 68.131(6) 7_545 7_545
Tb1 In Tb2 111.869(6) 3_455 7_545
Tb2 In Tb2 180.0 3_455 7_545
Ge1 In Tb2 59.841(10) 5_556 3_445
Ge1 In Tb2 120.159(10) 1_554 3_445
Tb1 In Tb2 68.131(6) 3_445 3_445
Tb1 In Tb2 111.869(6) 7 3_445
Tb1 In Tb2 64.150(6) 7_545 3_445
Tb1 In Tb2 115.850(6) 3_455 3_445
Tb2 In Tb2 78.008(7) 3_455 3_445
Tb2 In Tb2 101.992(7) 7_545 3_445
Ge1 In Tb2 120.159(10) 5_556 7
Ge1 In Tb2 59.841(10) 1_554 7
Tb1 In Tb2 111.869(6) 3_445 7
Tb1 In Tb2 68.131(6) 7 7
Tb1 In Tb2 115.850(6) 7_545 7
Tb1 In Tb2 64.150(6) 3_455 7
Tb2 In Tb2 101.992(7) 3_455 7
Tb2 In Tb2 78.008(7) 7_545 7
Tb2 In Tb2 180.0 3_445 7
Ru Ge1 Ge1 118.84(4) . 5_556
Ru Ge1 In 130.72(2) . 1_556
Ge1 Ge1 In 110.45(3) 5_556 1_556
Ru Ge1 Tb1 76.660(16) . 7_556
Ge1 Ge1 Tb1 132.603(11) 5_556 7_556
In Ge1 Tb1 70.191(14) 1_556 7_556
Ru Ge1 Tb1 76.660(16) . 7_546
Ge1 Ge1 Tb1 132.603(11) 5_556 7_546
In Ge1 Tb1 70.191(14) 1_556 7_546
Tb1 Ge1 Tb1 93.422(18) 7_556 7_546
Ru Ge1 Tb2 69.419(15) . 3_445
Ge1 Ge1 Tb2 69.161(19) 5_556 3_445
In Ge1 Tb2 133.141(10) 1_556 3_445
Tb1 Ge1 Tb2 146.04(2) 7_556 3_445
Tb1 Ge1 Tb2 77.452(9) 7_546 3_445
Ru Ge1 Tb2 69.419(15) . 3_455
Ge1 Ge1 Tb2 69.161(19) 5_556 3_455
In Ge1 Tb2 133.141(10) 1_556 3_455
Tb1 Ge1 Tb2 77.452(9) 7_556 3_455
Tb1 Ge1 Tb2 146.04(2) 7_546 3_455
Tb2 Ge1 Tb2 91.933(19) 3_445 3_455
Ru Ge1 Tb2 136.142(10) . 7_546
Ge1 Ge1 Tb2 61.847(18) 5_556 7_546
In Ge1 Tb2 68.713(13) 1_556 7_546
Tb1 Ge1 Tb2 138.72(2) 7_556 7_546
Tb1 Ge1 Tb2 76.356(10) 7_546 7_546
Tb2 Ge1 Tb2 71.394(11) 3_445 7_546
Tb2 Ge1 Tb2 131.01(2) 3_455 7_546
Ru Ge1 Tb2 136.142(10) . 7_556
Ge1 Ge1 Tb2 61.848(18) 5_556 7_556
In Ge1 Tb2 68.713(13) 1_556 7_556
Tb1 Ge1 Tb2 76.356(10) 7_556 7_556
Tb1 Ge1 Tb2 138.72(2) 7_546 7_556
Tb2 Ge1 Tb2 131.01(2) 3_445 7_556
Tb2 Ge1 Tb2 71.394(11) 3_455 7_556
Tb2 Ge1 Tb2 85.413(17) 7_546 7_556
Ru Ge2 Ru 120.29(3) 7_556 7_546
Ru Ge2 Ru 78.194(18) 7_556 .
Ru Ge2 Ru 78.194(18) 7_546 .
Ru Ge2 Tb1 76.054(18) 7_556 .
Ru Ge2 Tb1 76.054(18) 7_546 .
Ru Ge2 Tb1 126.78(3) . .
Ru Ge2 Tb2 143.39(3) 7_556 3_445
Ru Ge2 Tb2 66.054(13) 7_546 3_445
Ru Ge2 Tb2 67.674(15) . 3_445
Tb1 Ge2 Tb2 135.623(9) . 3_445
Ru Ge2 Tb2 66.054(13) 7_556 3_455
Ru Ge2 Tb2 143.39(3) 7_546 3_455
Ru Ge2 Tb2 67.674(15) . 3_455
Tb1 Ge2 Tb2 135.623(9) . 3_455
Tb2 Ge2 Tb2 88.340(18) 3_445 3_455
Ru Ge2 Tb1 145.55(3) 7_556 7_545
Ru Ge2 Tb1 67.776(12) 7_546 7_545
Ru Ge2 Tb1 134.298(11) . 7_545
Tb1 Ge2 Tb1 73.955(14) . 7_545
Tb2 Ge2 Tb1 70.997(10) 3_445 7_545
Tb2 Ge2 Tb1 129.85(2) 3_455 7_545
Ru Ge2 Tb1 67.776(12) 7_556 7
Ru Ge2 Tb1 145.55(3) 7_546 7
Ru Ge2 Tb1 134.298(11) . 7
Tb1 Ge2 Tb1 73.955(14) . 7
Tb2 Ge2 Tb1 129.85(2) 3_445 7
Tb2 Ge2 Tb1 70.997(10) 3_455 7
Tb1 Ge2 Tb1 87.814(17) 7_545 7
loop_
_geom_bond_atom_site_label_1
_geom_bond_atom_site_label_2
_geom_bond_distance
_geom_bond_site_symmetry_2
Tb1 Ge1 2.9289(4) 7_556
Tb1 Ge1 2.9289(4) 7_546
Tb1 Ge2 2.9908(7) .
Tb1 Ge2 3.0743(5) 7_545
Tb1 Ge2 3.0743(5) 7
Tb1 Ru 3.1269(5) 1_554
Tb1 In 3.3192(2) 3
Tb1 In 3.3192(2) 3_545
Tb1 Ru 3.3829(4) 7_556
Tb1 Ru 3.3829(4) 7_546
Tb1 Tb2 3.5619(4) 5_655
Tb1 Tb1 3.6487(5) 7_545
Tb2 Ge1 2.9654(5) 3
Tb2 Ge1 2.9654(5) 3_545
Tb2 Ru 3.0494(6) 5_656
Tb2 Ge2 3.0597(5) 3
Tb2 Ge2 3.0597(5) 3_545
Tb2 Ru 3.1348(4) 3
Tb2 Ru 3.1348(4) 3_545
Tb2 Ge1 3.1433(5) 7_546
Tb2 Ge1 3.1433(5) 7_556
Tb2 In 3.3874(2) 3_545
Tb2 In 3.3874(2) 3
Tb2 Tb1 3.5619(4) 5_655
Ru Ge2 2.4582(4) 7_556
Ru Ge2 2.4582(4) 7_546
Ru Ge1 2.4985(8) .
Ru Ge2 2.5100(8) .
Ru Tb2 3.0494(6) 5_656
Ru Tb1 3.1268(5) 1_556
Ru Ru 3.1334(6) 7_546
Ru Ru 3.1334(6) 7_556
Ru Tb2 3.1348(4) 3_445
Ru Tb2 3.1348(4) 3_455
Ru Tb1 3.3829(4) 7_556
Ru Tb1 3.3829(4) 7_546
In Ge1 2.8429(6) 5_556
In Ge1 2.8429(6) 1_554
In Tb1 3.3192(2) 3_445
In Tb1 3.3192(2) 7
In Tb1 3.3192(2) 7_545
In Tb1 3.3192(2) 3_455
In Tb2 3.3874(2) 3_455
In Tb2 3.3874(2) 7_545
In Tb2 3.3874(2) 3_445
In Tb2 3.3874(2) 7
Ge1 Ge1 2.5380(12) 5_556
Ge1 In 2.8429(6) 1_556
Ge1 Tb1 2.9289(4) 7_556
Ge1 Tb1 2.9289(4) 7_546
Ge1 Tb2 2.9654(5) 3_445
Ge1 Tb2 2.9654(5) 3_455
Ge1 Tb2 3.1433(5) 7_546
Ge1 Tb2 3.1433(5) 7_556
Ge2 Ru 2.4582(4) 7_556
Ge2 Ru 2.4582(4) 7_546
Ge2 Tb2 3.0597(5) 3_445
Ge2 Tb2 3.0597(5) 3_455
Ge2 Tb1 3.0742(5) 7_545
Ge2 Tb1 3.0742(5) 7
