#------------------------------------------------------------------------------
#$Date: 2016-02-16 22:30:59 +0200 (Tue, 16 Feb 2016) $
#$Revision: 176467 $
#$URL: svn://www.crystallography.net/cod/cif/4/34/23/4342386.cif $
#------------------------------------------------------------------------------
#
# This file is available in the Crystallography Open Database (COD),
# http://www.crystallography.net/
#
# All data on this site have been placed in the public domain by the
# contributors.
#
data_4342386
loop_
_publ_author_name
'Solokha, Pavlo'
'De Negri, Serena'
'Proserpio, Davide M.'
'Blatov, Vladislav A.'
'Saccone, Adriana'
_publ_section_title
;
 Vacancy Ordering as a Driving Factor for Structural Changes in Ternary
 Germanides: The New R2Zn1-xGe6 Series of Polar Intermetallics (R =
 Rare-Earth Metal).
;
_journal_issue                   5
_journal_name_full               'Inorganic chemistry'
_journal_page_first              2411
_journal_paper_doi               10.1021/ic5030313
_journal_volume                  54
_journal_year                    2015
_chemical_formula_moiety         'Dy2 Ge6 Zn0.50'
_chemical_formula_sum            'Dy2 Ge6 Zn0.5'
_chemical_formula_weight         793.22
_chemical_name_common            'Didysprosium heptagermanium zinc'
_chemical_name_systematic
;
 ?
;
_space_group_crystal_system      monoclinic
_space_group_IT_number           11
_space_group_name_Hall           '-P 2yb'
_space_group_name_H-M_alt        'P 1 21/m 1'
_symmetry_space_group_name_Hall  '-P 2yb'
_symmetry_space_group_name_H-M   'P 1 21/m 1'
_audit_creation_method           SHELXL-2014
_cell_angle_alpha                90
_cell_angle_beta                 100.8610(10)
_cell_angle_gamma                90
_cell_formula_units_Z            4
_cell_length_a                   7.9613(3)
_cell_length_b                   8.2480(4)
_cell_length_c                   10.5309(5)
_cell_measurement_reflns_used    2195
_cell_measurement_temperature    293(2)
_cell_measurement_theta_max      62.718
_cell_measurement_theta_min      7.707
_cell_volume                     679.12(5)
_computing_structure_refinement  'SHELXL-2014 (Sheldrick, 2014)'
_diffrn_ambient_temperature      293(2)
_diffrn_measured_fraction_theta_full 1.000
_diffrn_measured_fraction_theta_max 0.996
_diffrn_measurement_device_type  'Bruker APEXII'
_diffrn_measurement_method       '\w scans'
_diffrn_radiation_monochromator  graphite
_diffrn_radiation_source         'fine-focus sealed tube'
_diffrn_radiation_type           MoK\a
_diffrn_radiation_wavelength     0.71073
_diffrn_reflns_av_R_equivalents  0.0328
_diffrn_reflns_av_unetI/netI     0.0196
_diffrn_reflns_Laue_measured_fraction_full 1.000
_diffrn_reflns_Laue_measured_fraction_max 0.996
_diffrn_reflns_limit_h_max       11
_diffrn_reflns_limit_h_min       -11
_diffrn_reflns_limit_k_max       11
_diffrn_reflns_limit_k_min       -11
_diffrn_reflns_limit_l_max       14
_diffrn_reflns_limit_l_min       -15
_diffrn_reflns_number            14488
_diffrn_reflns_point_group_measured_fraction_full 1.000
_diffrn_reflns_point_group_measured_fraction_max 0.996
_diffrn_reflns_theta_full        25.242
_diffrn_reflns_theta_max         30.506
_diffrn_reflns_theta_min         1.969
_diffrn_standards_decay_%        0
_diffrn_standards_interval_count 0
_diffrn_standards_interval_time  0
_diffrn_standards_number         0
_exptl_absorpt_coefficient_mu    49.481
_exptl_absorpt_correction_T_max  0.7462
_exptl_absorpt_correction_T_min  0.4075
_exptl_absorpt_correction_type   multi-scan
_exptl_absorpt_process_details   'Bruker SADABS'
_exptl_crystal_colour            'metallic grey'
_exptl_crystal_density_diffrn    7.758
_exptl_crystal_density_method    'not measured'
_exptl_crystal_description       'irregularly shaped'
_exptl_crystal_F_000             1356
_exptl_crystal_size_max          0.5
_exptl_crystal_size_mid          0.5
_exptl_crystal_size_min          0.5
_refine_diff_density_max         3.959
_refine_diff_density_min         -3.081
_refine_diff_density_rms         0.425
_refine_ls_extinction_coef       0.00062(6)
_refine_ls_extinction_expression Fc^*^=kFc[1+0.001xFc^2^\l^3^/sin(2\q)]^-1/4^
_refine_ls_extinction_method     SHELXL
_refine_ls_goodness_of_fit_ref   0.982
_refine_ls_hydrogen_treatment    undef
_refine_ls_matrix_type           full
_refine_ls_number_parameters     100
_refine_ls_number_reflns         2195
_refine_ls_number_restraints     1
_refine_ls_restrained_S_all      0.982
_refine_ls_R_factor_all          0.0361
_refine_ls_R_factor_gt           0.0268
_refine_ls_shift/su_max          0.000
_refine_ls_shift/su_mean         0.000
_refine_ls_structure_factor_coef Fsqd
_refine_ls_weighting_details
'w=1/[\s^2^(Fo^2^)+(0.0320P)^2^+14.7102P] where P=(Fo^2^+2Fc^2^)/3'
_refine_ls_weighting_scheme      calc
_refine_ls_wR_factor_gt          0.0683
_refine_ls_wR_factor_ref         0.0742
_reflns_Friedel_coverage         0.000
_reflns_number_gt                1795
_reflns_number_total             2195
_reflns_threshold_expression     'I > 2\s(I)'
_cod_data_source_file            ic5030313_si_008.cif
_cod_data_source_block           shelx
_cod_depositor_comments          'Adding full bibliography for 4342386.cif.'
_cod_original_formula_sum        'Dy2 Ge6 Zn0.50'
_cod_database_code               4342386
#BEGIN Tags that were not found in dictionaries:
_shelxl_version_number           2014-3
_shelx_res_file
;
TITL sad in P2(1)/m
CELL  0.71073   7.9613   8.2480  10.5309   90.000  100.861   90.000
ZERR     4.00   0.0003   0.0004   0.0005    0.000    0.001    0.000
LATT   1
SYMM  - X, 1/2 + Y, - Z
SFAC  ZN   GE   DY
UNIT  2    24   8
FMAP   2
PLAN   20
acta
shel 9999 0.7
BOND
L.S.   4
SUMP 1.0 0.001 1.0 2 1.0 3
WGHT    0.032000   14.710200
EXTI    0.000620
FVAR       0.03904   0.82158   0.17847
MOLE    1
DY1   3    0.165849    0.500103    0.664151    11.00000    0.00508    0.00521 =
         0.00408   -0.00018    0.00061   -0.00019
DY2   3    0.333954    0.001860    0.336419    11.00000    0.00489    0.00519 =
         0.00418    0.00010    0.00077   -0.00007
GE1   2    0.891342    0.250000    0.585390    10.50000    0.00524    0.00686 =
         0.00768    0.00000    0.00169    0.00000
GE2   2    0.729969    0.250000    0.877355    10.50000    0.02642    0.00937 =
         0.00758    0.00000    0.00593    0.00000
GE3   2    0.400294    0.250000    0.579672    10.50000    0.00563    0.00696 =
         0.01616    0.00000    0.00285    0.00000
GE4   2    0.028635    0.538534    0.114853    11.00000    0.00961    0.02327 =
         0.00609   -0.00210    0.00128   -0.00018
GE5   2    0.322255    0.250000    0.114874    10.50000    0.02240    0.00996 =
         0.00750    0.00000   -0.00141    0.00000
GE6   2    0.108126    0.250000    0.438087    10.50000    0.00639    0.00769 =
         0.01087    0.00000    0.00247    0.00000
GE7   2    0.606052    0.250000    0.417843    10.50000    0.00559    0.00668 =
         0.00841    0.00000    0.00086    0.00000
GE8   2    0.208598    0.250000    0.877597    10.50000    0.02315    0.00921 =
         0.00772    0.00000   -0.00303    0.00000
GE9   2    0.529734    0.009099    0.119508    11.00000    0.00871    0.02528 =
         0.00527   -0.00244    0.00107   -0.00048
GE10  2    0.734924    0.250000    0.114738    10.50000    0.02496    0.00988 =
         0.00742    0.00000    0.00395    0.00000
PART 1
ZN1   1    0.050228    0.250000    0.201928    20.50000    0.00793    0.00788 =
         0.00713    0.00000    0.00122    0.00000
PART 2
ZN2   1    0.449159    0.250000    0.796692    30.50000    0.01527    0.01755 =
         0.00720    0.00000   -0.00030    0.00000
PART 0
HKLF    4

REM  sad in P2(1)/m
REM R1 =  0.0268 for    1795 Fo > 4sig(Fo)  and  0.0361 for all    2195 data
REM    100 parameters refined using      1 restraints

END

WGHT      0.0134     14.0394

REM Highest difference peak  3.959,  deepest hole -3.081,  1-sigma level  0.425
Q1    1   0.2375  0.2500  0.1220  10.50000  0.05    3.96
Q2    1   0.8258  0.2500  0.1246  10.50000  0.05    3.88
Q3    1   0.0279  0.4552  0.1214  11.00000  0.05    3.58
Q4    1   0.1252  0.2500  0.8808  10.50000  0.05    2.50
Q5    1   0.8194  0.2500  0.8880  10.50000  0.05    2.17
Q6    1   0.5383  0.0931  0.1129  11.00000  0.05    1.77
Q7    1   0.9228  0.2500  0.9193  10.50000  0.05    1.16
Q8    1  -0.0996  0.3875  0.1135  11.00000  0.05    1.10
Q9    1  -0.0351  0.6537  0.1321  11.00000  0.05    1.07
Q10   1   0.0091  0.6541  0.0604  11.00000  0.05    1.07
Q11   1   0.0919  0.6602  0.1396  11.00000  0.05    0.99
Q12   1  -0.0128  0.1112  0.1704  11.00000  0.05    0.97
Q13   1   0.6241  0.1624  0.0905  11.00000  0.05    0.97
Q14   1   0.5031 -0.1179  0.1558  11.00000  0.05    0.97
Q15   1   0.3643  0.1160  0.1408  11.00000  0.05    0.96
Q16   1   0.1059  0.6510  0.0686  11.00000  0.05    0.95
Q17   1   0.1571  0.6329  0.2152  11.00000  0.05    0.92
Q18   1   0.6231  0.1616  0.8830  11.00000  0.05    0.90
Q19   1   0.2448  0.6215  0.6167  11.00000  0.05    0.89
Q20   1   0.2693  0.3653  0.6420  11.00000  0.05    0.88
;
_shelx_res_checksum              29432
_shelx_hkl_file
;
   1   0   0    0.18    0.03
  -1   0   0    0.24    0.04
  -1   0   0    0.19    0.03
  -1   0   0    0.19    0.08
   1   0   0    0.20    0.03
   1   0   0    0.16    0.03
  -2   0   0   21.45    0.71
  -2   0   0   21.62    0.67
   2   0   0   21.55    0.75
   2   0   0   21.71    0.95
   3   0   0    3.90    0.20
   3   0   0    3.97    0.18
  -3   0   0    3.61    0.15
  -3   0   0    3.70    0.21
   3   0   0    4.29    0.19
  -3   0   0    3.18    0.29
   4   0   0   27.25    0.98
  -4   0   0   26.96    1.09
  -4   0   0   28.22    0.87
   4   0   0   27.93    0.93
  -4   0   0   27.71    0.93
   4   0   0   29.29    1.24
  -5   0   0    1.19    0.31
  -5   0   0    1.10    0.09
   5   0   0    0.96    0.12
   5   0   0    1.08    0.14
  -5   0   0    0.87    0.16
   6   0   0  107.41    3.69
  -6   0   0  108.58    3.29
   6   0   0  109.89    3.49
  -6   0   0  105.43    3.44
  -6   0   0  106.50    3.82
   7   0   0    0.28    0.14
  -7   0   0    0.41    0.18
   7   0   0    0.67    0.18
  -7   0   0    0.55    0.36
   8   0   0    9.11    0.42
   8   0   0    8.49    0.43
  -8   0   0    8.67    0.45
  -8   0   0    8.37    0.67
   9   0   0   -0.01    0.21
   9   0   0   -0.15    0.17
  -9   0   0    0.04    0.21
  -9   0   0    1.01    0.40
  10   0   0    7.12    0.47
 -10   0   0    7.13    0.47
 -10   0   0    8.84    0.73
  10   0   0    7.37    0.45
 -11   0   0    0.18    0.27
 -11   0   0    0.21    0.43
   0  -1   0   -0.06    0.03
   0  -1   0   -0.03    0.03
   0   1   0    0.02    0.04
   0   1   0    0.02    0.05
   1  -1   0    0.05    0.03
  -1  -1   0    0.03    0.04
  -1  -1   0    0.15    0.06
   1  -1   0    0.13    0.05
  -1  -1   0   -0.04    0.10
  -1  -1   0    0.09    0.05
  -1   1   0   -0.01    0.09
  -1   1   0    0.15    0.05
  -1   1   0    0.05    0.06
  -2  -1   0    0.63    0.07
  -2  -1   0    0.39    0.17
   2  -1   0    0.50    0.07
  -2  -1   0    0.56    0.10
   2  -1   0    0.75    0.10
   2   1   0    0.61    0.08
  -2   1   0    0.57    0.10
  -2   1   0    0.54    0.17
  -2   1   0    0.74    0.11
   2   1   0    0.41    0.07
  -3  -1   0    7.78    0.45
  -3  -1   0    7.82    0.28
   3  -1   0    8.09    0.33
  -3  -1   0    7.55    0.33
   3  -1   0    7.73    0.30
   3   1   0    7.90    0.32
  -3   1   0    8.15    0.32
  -3   1   0    8.18    0.42
   3   1   0    7.73    0.31
   3   1   0    7.46    0.45
  -3   1   0    7.82    0.31
  -4  -1   0    0.25    0.24
  -4  -1   0    0.23    0.07
   4  -1   0    0.21    0.08
   4  -1   0    0.35    0.11
  -4  -1   0    0.18    0.12
   4   1   0    0.29    0.09
   4   1   0    0.20    0.09
  -4   1   0    0.40    0.23
  -4   1   0    0.34    0.12
  -4   1   0    0.23    0.08
   4   1   0    0.36    0.10
  -5  -1   0    3.34    0.37
  -5  -1   0    3.23    0.23
  -5  -1   0    3.07    0.16
   5  -1   0    3.27    0.19
   5  -1   0    3.15    0.24
  -5   1   0    2.48    0.33
   5   1   0    3.20    0.18
  -5   1   0    2.92    0.24
   5   1   0    3.39    0.21
   5   1   0    3.14    0.19
  -5   1   0    3.49    0.17
   6  -1   0    5.33    0.28
  -6  -1   0    5.25    0.22
  -6  -1   0    5.05    0.33
   6  -1   0    5.25    0.31
  -6  -1   0    4.56    0.46
  -6   1   0    5.21    0.22
   6   1   0    5.10    0.28
   6   1   0    5.26    0.29
  -6   1   0    5.28    0.34
  -6   1   0    4.51    0.44
  -7  -1   0    7.88    0.41
   7  -1   0    8.07    0.36
  -7  -1   0    7.64    0.61
   7  -1   0    8.15    0.40
  -7   1   0    7.61    0.40
   7   1   0    8.10    0.37
  -7   1   0    8.10    0.62
   7   1   0    8.28    0.39
   8  -1   0    5.28    0.31
  -8  -1   0    4.36    0.50
  -8  -1   0    5.24    0.37
   8  -1   0    5.36    0.37
   8   1   0    5.50    0.34
  -8   1   0    4.48    0.52
   8   1   0    4.86    0.31
  -8   1   0    5.08    0.35
   9  -1   0    3.24    0.26
   9  -1   0    3.19    0.30
  -9  -1   0    3.13    0.31
  -9  -1   0    4.03    0.49
   9   1   0    2.95    0.28
   9   1   0    3.38    0.30
  -9   1   0    3.19    0.30
  -9   1   0    3.00    0.49
 -10  -1   0    3.10    0.49
  10  -1   0    3.61    0.31
 -10  -1   0    3.46    0.35
  10  -1   0    4.02    0.37
 -10   1   0    3.75    0.55
 -10   1   0    3.72    0.35
  10   1   0    3.42    0.31
 -11  -1   0    0.78    0.44
  11  -1   0    0.18    0.27
  11  -1   0    0.42    0.24
 -11   1   0    0.61    0.47
 -11   1   0    0.58    0.28
   0  -2   0   49.61    1.76
   0  -2   0   51.06    1.59
   0   2   0   52.77    1.64
   0   2   0   48.53    1.79
  -1  -2   0    0.57    0.08
  -1  -2   0    0.45    0.14
   1  -2   0    0.64    0.08
  -1  -2   0    0.60    0.16
   1  -2   0    0.51    0.10
   1  -2   0    0.86    0.06
   1   2   0    0.71    0.10
  -1   2   0    0.57    0.12
  -1   2   0    0.82    0.16
   2  -2   0    3.74    0.15
  -2  -2   0    4.06    0.18
  -2  -2   0    4.56    0.29
  -2  -2   0    4.17    0.19
   2  -2   0    4.21    0.20
  -2  -2   0    3.62    0.16
  -2   2   0    3.47    0.20
   2   2   0    3.71    0.16
  -2   2   0    3.79    0.18
  -2   2   0    4.05    0.27
  -3  -2   0    4.35    0.33
   3  -2   0    4.26    0.22
  -3  -2   0    4.50    0.18
   3  -2   0    4.07    0.18
  -3  -2   0    4.10    0.22
  -3   2   0    3.82    0.22
   3   2   0    4.40    0.20
  -3   2   0    4.32    0.22
   3   2   0    4.27    0.19
  -3   2   0    4.57    0.33
  -4  -2   0    0.91    0.09
  -4  -2   0    0.61    0.23
   4  -2   0    0.78    0.13
  -4  -2   0    1.07    0.14
   4  -2   0    0.54    0.09
  -4   2   0    0.49    0.19
  -4   2   0    0.48    0.12
   4   2   0    0.69    0.10
   4   2   0    0.64    0.10
  -4   2   0    0.92    0.13
  -5  -2   0    0.81    0.17
  -5  -2   0    0.84    0.10
  -5  -2   0    0.99    0.29
   5  -2   0    0.66    0.12
   5  -2   0    0.70    0.16
  -5   2   0    0.57    0.12
   5   2   0    0.88    0.12
   5   2   0    0.74    0.13
  -5   2   0    0.33    0.28
   5   2   0    0.49    0.17
  -5   2   0    0.64    0.15
  -6  -2   0  356.08   12.47
  -6  -2   0  368.56   11.07
   6  -2   0  359.42   11.64
   6  -2   0  365.96   12.33
  -6  -2   0  353.14   11.45
   6   2   0  367.80   11.65
  -6   2   0  363.12   11.44
   6   2   0  369.96   12.31
  -6   2   0  370.20   12.47
   7  -2   0    0.27    0.18
  -7  -2   0    0.46    0.32
   7  -2   0    0.26    0.14
  -7  -2   0    0.12    0.19
  -7   2   0    0.26    0.17
  -7   2   0    0.33    0.32
   7   2   0    0.09    0.15
   7   2   0    0.08    0.14
  -8  -2   0   34.67    1.23
   8  -2   0   35.62    1.30
   8  -2   0   34.52    1.20
  -8  -2   0   33.76    1.44
   8   2   0   34.57    1.22
   8   2   0   35.18    1.27
  -8   2   0   34.38    1.22
  -8   2   0   35.44    1.46
  -9  -2   0    0.16    0.23
   9  -2   0    0.03    0.17
   9  -2   0   -0.29    0.21
  -9  -2   0    0.41    0.37
   9   2   0    0.30    0.20
  -9   2   0    0.21    0.39
  -9   2   0    0.24    0.22
  10  -2   0   58.68    2.15
 -10  -2   0   58.59    2.05
  10  -2   0   57.89    2.03
 -10  -2   0   58.66    2.32
 -10   2   0   62.77    2.37
 -10   2   0   60.66    2.03
  10   2   0   60.32    2.04
  11  -2   0    0.26    0.28
  11  -2   0   -0.33    0.26
 -11   2   0    0.60    0.27
   0  -3   0    0.06    0.08
   0  -3   0    0.04    0.08
   0   3   0    0.13    0.11
   0   3   0    0.04    0.14
   1  -3   0    0.33    0.08
  -1  -3   0    0.44    0.16
   1  -3   0    0.38    0.09
  -1  -3   0    0.51    0.08
   1  -3   0    0.43    0.04
  -1  -3   0    0.40    0.13
   1   3   0    0.39    0.10
  -1   3   0    0.48    0.11
   1   3   0    0.37    0.05
  -1   3   0    0.29    0.15
   2  -3   0    3.03    0.18
  -2  -3   0    3.14    0.16
   2  -3   0    2.99    0.13
  -2  -3   0    3.48    0.29
  -2  -3   0    3.11    0.19
   2   3   0    3.35    0.18
  -2   3   0    2.90    0.27
   2   3   0    3.13    0.14
  -2   3   0    3.26    0.20
  -2   3   0    3.44    0.16
   3  -3   0   20.05    0.73
   3  -3   0   19.54    0.67
  -3  -3   0   20.35    0.81
  -3  -3   0   18.66    0.69
  -3  -3   0   19.89    0.65
  -3   3   0   20.19    0.67
  -3   3   0   19.60    0.68
  -3   3   0   19.59    0.80
   3   3   0   20.04    0.68
  -4  -3   0    0.16    0.14
   4  -3   0    0.11    0.13
  -4  -3   0    0.50    0.23
  -4  -3   0    0.03    0.08
   4  -3   0    0.19    0.08
   4   3   0    0.12    0.09
  -4   3   0    0.17    0.14
  -4   3   0    0.24    0.24
  -4   3   0    0.13    0.11
   4   3   0    0.09    0.09
  -5  -3   0    1.04    0.19
   5  -3   0    1.28    0.18
   5  -3   0    1.06    0.13
  -5  -3   0    0.50    0.30
  -5  -3   0    1.12    0.12
  -5   3   0    1.11    0.31
   5   3   0    1.28    0.14
  -5   3   0    1.21    0.17
  -5   3   0    1.22    0.18
   5   3   0    1.36    0.15
  -6  -3   0   11.25    0.52
   6  -3   0   12.10    0.46
  -6  -3   0   11.90    0.43
   6  -3   0   11.04    0.54
  -6  -3   0   11.69    0.68
   6   3   0   12.20    0.49
  -6   3   0   11.84    0.69
   6   3   0   12.23    0.48
  -6   3   0   11.75    0.49
  -7  -3   0   22.61    1.02
   7  -3   0   22.00    0.80
  -7  -3   0   22.31    0.85
   7  -3   0   22.79    0.88
   7   3   0   22.13    0.83
  -7   3   0   22.27    1.03
  -7   3   0   22.64    0.83
   7   3   0   22.80    0.81
   8  -3   0    0.58    0.22
  -8  -3   0    0.39    0.35
   8  -3   0    0.46    0.16
  -8  -3   0    0.53    0.23
   8   3   0    0.52    0.18
  -8   3   0    0.22    0.20
  -8   3   0    0.67    0.37
   9  -3   0   -0.18    0.22
  -9  -3   0    0.42    0.40
  -9  -3   0   -0.14    0.24
   9  -3   0   -0.24    0.18
  -9   3   0    0.39    0.21
   9   3   0    0.06    0.20
  -9   3   0    0.13    0.43
 -10  -3   0    5.89    0.59
  10  -3   0    5.15    0.40
 -10  -3   0    6.02    0.49
  10  -3   0    5.76    0.48
  10   3   0    6.37    0.41
 -10   3   0    5.58    0.63
 -10   3   0    6.50    0.45
 -11   3   0    0.56    0.28
   0  -4   0 1000.00   26.58
   0  -4   0  874.18   29.53
   0   4   0  825.69   29.72
   0   4   0  779.79   27.36
  -1  -4   0    0.70    0.10
   1  -4   0    0.65    0.10
  -1  -4   0    0.62    0.14
   1  -4   0    0.65    0.11
  -1   4   0    0.74    0.13
   1   4   0    0.61    0.18
  -1   4   0    0.68    0.18
   1   4   0    0.72    0.07
   1   4   0    0.69    0.13
   2  -4   0   32.67    1.14
  -2  -4   0   31.76    1.16
  -2  -4   0   32.43    1.03
  -2  -4   0   32.92    1.21
   2  -4   0   32.72    1.05
  -2   4   0   30.64    1.20
  -2   4   0   31.83    1.07
   2   4   0   32.49    1.06
  -2   4   0   32.25    1.03
   2   4   0   33.70    1.07
  -3  -4   0    0.44    0.11
  -3  -4   0    0.60    0.23
   3  -4   0    0.37    0.07
  -3  -4   0    0.36    0.10
   3  -4   0    0.18    0.13
   3   4   0    0.18    0.13
  -3   4   0    0.40    0.12
  -3   4   0    0.46    0.13
  -3   4   0    0.44    0.22
   3   4   0    0.38    0.09
  -4  -4   0   35.86    1.33
   4  -4   0   34.49    1.14
   4  -4   0   34.99    1.24
  -4  -4   0   34.05    1.17
  -4  -4   0   34.57    1.10
   4   4   0   35.63    1.15
  -4   4   0   34.71    1.13
   4   4   0   34.35    1.21
  -4   4   0   32.76    1.15
  -4   4   0   34.02    1.33
   5  -4   0    2.19    0.23
   5  -4   0    2.14    0.17
  -5  -4   0    2.02    0.34
  -5  -4   0    1.98    0.16
  -5  -4   0    1.49    0.22
   5   4   0    2.23    0.18
  -5   4   0    2.21    0.22
  -5   4   0    2.11    0.20
   5   4   0    2.18    0.18
  -5   4   0    1.90    0.36
   6  -4   0   75.59    2.61
  -6  -4   0   76.69    2.72
  -6  -4   0   73.95    2.32
   6  -4   0   74.41    2.44
  -6  -4   0   72.15    2.45
  -6   4   0   74.44    2.42
   6   4   0   74.98    2.46
  -6   4   0   74.38    2.72
   6   4   0   76.97    2.58
  -7  -4   0    0.09    0.32
   7  -4   0    0.18    0.20
   7  -4   0   -0.03    0.13
  -7  -4   0    0.03    0.11
  -7  -4   0    0.22    0.22
  -7   4   0    0.24    0.18
   7   4   0    0.01    0.15
  -7   4   0    0.38    0.36
  -8  -4   0    8.92    0.49
  -8  -4   0    8.39    0.63
   8  -4   0    8.01    0.46
   8  -4   0    8.05    0.39
   8   4   0    7.81    0.42
  -8   4   0    8.26    0.44
  -8   4   0    8.07    0.68
   9  -4   0   -0.32    0.18
   9  -4   0    0.11    0.25
  -9  -4   0    0.38    0.40
  -9  -4   0   -0.41    0.26
  -9   4   0    0.06    0.21
  -9   4   0    0.05    0.40
   9   4   0   -0.32    0.19
 -10  -4   0    6.04    0.50
  10  -4   0    5.62    0.45
  10  -4   0    4.83    0.39
 -10  -4   0    6.18    0.60
  10   4   0    5.49    0.44
 -10   4   0    8.31    0.71
 -10   4   0    5.71    0.44
   0  -5   0   -0.13    0.10
   0  -5   0   -0.11    0.11
   0   5   0    0.05    0.15
   0   5   0    0.06    0.18
   1  -5   0    0.13    0.11
  -1  -5   0    0.05    0.15
  -1  -5   0   -0.07    0.11
   1  -5   0    0.11    0.11
  -1   5   0    0.10    0.19
  -1   5   0   -0.09    0.14
   1   5   0    0.11    0.18
   1   5   0    0.07    0.05
   1   5   0    0.31    0.14
  -2  -5   0    0.21    0.12
   2  -5   0   -0.06    0.12
   2  -5   0    0.23    0.06
  -2  -5   0   -0.13    0.17
   2   5   0    0.09    0.07
  -2   5   0   -0.25    0.21
   2   5   0    0.05    0.13
  -2   5   0   -0.09    0.14
   2   5   0   -0.13    0.19
  -3  -5   0    0.77    0.16
  -3  -5   0    0.97    0.27
  -3  -5   0    0.76    0.13
   3  -5   0    0.67    0.09
   3  -5   0    0.54    0.16
  -3   5   0    0.66    0.14
   3   5   0    0.66    0.11
   3   5   0    0.62    0.17
  -3   5   0    0.56    0.16
  -3   5   0    0.65    0.27
  -4  -5   0    0.78    0.14
   4  -5   0    0.93    0.19
   4  -5   0    0.93    0.11
  -4  -5   0    0.27    0.30
  -4   5   0    0.92    0.18
   4   5   0    0.82    0.19
  -4   5   0    0.81    0.31
  -4   5   0    0.78    0.16
   4   5   0    1.01    0.13
   5  -5   0   10.39    0.48
  -5  -5   0   10.50    0.61
  -5  -5   0   10.04    0.40
   5  -5   0   10.00    0.39
   5   5   0   10.51    0.41
   5   5   0    9.30    0.45
   5   5   0   10.49    0.44
  -5   5   0   10.85    0.64
  -5   5   0   10.16    0.43
  -5   5   0    9.71    0.48
  -6  -5   0    1.08    0.32
  -6  -5   0    1.33    0.15
   6  -5   0    0.97    0.15
   6  -5   0    1.12    0.21
  -6   5   0    1.14    0.34
  -6   5   0    1.06    0.18
   6   5   0    1.34    0.17
   7  -5   0    0.48    0.21
  -7  -5   0    1.08    0.15
  -7  -5   0    1.10    0.35
   7   5   0    0.85    0.18
  -7   5   0    1.01    0.20
  -7   5   0    0.99    0.37
  -8  -5   0    7.08    0.62
   8  -5   0    7.70    0.46
   8   5   0    7.63    0.40
  -8   5   0    7.88    0.43
  -8   5   0    8.31    0.70
   9  -5   0    7.37    0.48
  -9  -5   0    7.02    0.63
   9   5   0    6.89    0.42
  -9   5   0    7.65    0.69
 -10  -5   0    1.57    0.45
  10   5   0    1.25    0.28
   0  -6   0    7.33    0.36
   0  -6   0    7.28    0.33
   0   6   0    7.60    0.41
   0   6   0    7.42    0.47
  -1  -6   0    4.72    0.26
  -1  -6   0    4.59    0.33
   1  -6   0    4.46    0.26
   1  -6   0    4.65    0.28
   1   6   0    4.87    0.35
  -1   6   0    5.02    0.41
   1   6   0    5.37    0.40
  -1   6   0    4.82    0.32
  -2  -6   0    2.72    0.28
  -2  -6   0    2.92    0.23
   2  -6   0    2.59    0.23
   2   6   0    2.72    0.23
  -2   6   0    2.80    0.32
   2   6   0    2.49    0.15
  -2   6   0    2.79    0.24
   2   6   0    2.37    0.27
  -3  -6   0    7.53    0.35
   3  -6   0    7.50    0.38
  -3  -6   0    7.24    0.39
  -3   6   0    7.48    0.53
   3   6   0    8.10    0.31
  -3   6   0    8.27    0.38
   3   6   0    7.42    0.40
  -3   6   0    7.91    0.36
  -4  -6   0    6.25    0.51
   4  -6   0    6.24    0.35
  -4  -6   0    6.35    0.31
   4   6   0    6.22    0.29
   4   6   0    7.94    0.39
  -4   6   0    6.67    0.35
  -4   6   0    6.43    0.33
  -4   6   0    5.87    0.47
   5  -6   0    0.09    0.18
  -5  -6   0   -0.33    0.30
  -5  -6   0   -0.06    0.14
  -5   6   0    0.45    0.15
  -5   6   0    0.05    0.20
   5   6   0   -0.04    0.13
   5   6   0    0.17    0.18
  -5   6   0    0.09    0.32
  -6  -6   0  219.88    7.35
   6  -6   0  205.82    7.21
  -6  -6   0  230.60    6.47
   6   6   0  197.73    6.70
   6   6   0  210.09    6.79
  -6   6   0  207.69    7.34
  -6   6   0  204.50    6.67
   7  -6   0    0.49    0.22
  -7  -6   0    0.56    0.35
  -7  -6   0    0.55    0.15
   7   6   0    0.79    0.23
   7   6   0    0.37    0.18
  -7   6   0    0.50    0.38
  -8  -6   0   26.86    1.19
   8  -6   0   26.32    1.06
   8   6   0   26.65    0.96
   8   6   0   23.97    0.99
  -8   6   0   26.73    1.24
  -9  -6   0    0.20    0.38
   9  -6   0    0.38    0.27
  -9   6   0    0.58    0.47
   9   6   0    0.47    0.25
   9   6   0   -0.39    0.21
   0  -7   0    0.03    0.18
   0  -7   0   -0.11    0.14
   0   7   0    0.15    0.26
   0   7   0    0.01    0.22
  -1  -7   0    0.01    0.16
   1  -7   0    0.04    0.15
  -1  -7   0    0.08    0.21
   1  -7   0    0.18    0.15
  -1   7   0    0.29    0.21
  -1   7   0    0.03    0.23
   1   7   0    0.20    0.24
   1   7   0    0.37    0.23
   2  -7   0    2.20    0.22
  -2  -7   0    2.25    0.28
  -2  -7   0    2.19    0.20
   2   7   0    1.87    0.26
  -2   7   0    2.53    0.34
   2   7   0    2.49    0.32
  -2   7   0    2.10    0.24
  -2   7   0    2.20    0.20
   3  -7   0   10.63    0.49
  -3  -7   0   11.09    0.44
  -3   7   0   10.30    0.63
  -3   7   0   10.23    0.46
  -3   7   0   10.85    0.45
   3   7   0   11.27    0.51
   3   7   0   10.75    0.59
  -4  -7   0    0.21    0.16
   4  -7   0    0.07    0.18
  -4   7   0    0.04    0.31
   4   7   0    0.10    0.21
  -4   7   0    0.08    0.17
  -5  -7   0    1.80    0.36
   5  -7   0    1.87    0.24
  -5  -7   0    2.31    0.21
  -5   7   0    1.98    0.40
  -5   7   0    1.89    0.27
   5   7   0    1.79    0.27
  -6  -7   0    6.98    0.61
  -6  -7   0    6.34    0.35
   6  -7   0    6.25    0.40
   6   7   0    6.69    0.45
  -6   7   0    5.85    0.56
   7  -7   0   13.70    0.63
  -7  -7   0   14.49    0.82
  -7  -7   0   13.15    0.54
  -7   7   0   13.11    0.84
   7   7   0   13.19    0.63
  -8  -7   0   -0.47    0.40
   8  -7   0    0.55    0.25
   8   7   0   -0.11    0.27
  -8   7   0    0.09    0.44
   0  -8   0  427.27   14.47
   0  -8   0  428.58   13.00
   0   8   0  432.53   14.59
   0   8   0  417.73   13.42
   1  -8   0    3.82    0.29
  -1  -8   0    3.50    0.27
   1  -8   0    3.84    0.28
   1   8   0    3.56    0.33
  -1   8   0    4.30    0.40
   1   8   0    3.84    0.39
   2  -8   0   38.54    1.40
  -2  -8   0   38.88    1.27
  -2   8   0   38.36    1.51
   2   8   0   38.69    1.50
  -2   8   0   37.29    1.27
   2   8   0   39.89    1.37
   3  -8   0    0.65    0.20
  -3  -8   0    0.47    0.17
  -3   8   0    0.51    0.18
   3   8   0    0.74    0.29
  -3   8   0    0.73    0.34
   3   8   0    1.19    0.27
  -4  -8   0   35.98    1.19
   4  -8   0   34.62    1.31
   4   8   0   36.12    1.43
   4   8   0   36.87    1.29
  -4   8   0   32.64    1.45
  -4   8   0   37.31    1.21
   5  -8   0    2.92    0.28
  -5  -8   0    2.43    0.23
   5   8   0    3.19    0.38
   5   8   0    3.10    0.33
  -5   8   0    2.71    0.44
  -6  -8   0   34.45    1.43
   6  -8   0   34.65    1.30
  -6  -8   0   34.25    1.15
  -6   8   0   33.76    1.47
   6   8   0   32.65    1.26
  -7  -8   0    0.09    0.18
   7  -8   0    0.13    0.23
  -7  -8   0   -0.19    0.37
  -7   8   0   -0.02    0.42
   7   8   0    0.25    0.29
  -8  -8   0    6.96    0.64
   8   8   0    5.93    0.50
   0  -9   0   -0.07    0.17
   0   9   0   -0.04    0.30
   1  -9   0    0.52    0.20
  -1  -9   0    0.16    0.18
  -1   9   0    0.12    0.31
   1   9   0    0.33    0.30
  -2  -9   0   -0.04    0.18
   2  -9   0    0.24    0.19
  -2   9   0    0.19    0.17
  -2   9   0   -0.33    0.32
   2   9   0   -0.04    0.29
   3  -9   0    0.45    0.20
  -3  -9   0    0.53    0.19
  -3   9   0    0.30    0.35
  -3   9   0    0.27    0.19
   3   9   0    0.26    0.34
   3   9   0    0.71    0.31
   4  -9   0    0.14    0.21
  -4  -9   0    0.02    0.18
   4   9   0   -0.47    0.28
  -4   9   0   -0.14    0.36
  -4   9   0   -0.03    0.20
   4   9   0   -0.18    0.29
   5  -9   0    4.00    0.35
  -5  -9   0    3.73    0.31
  -5   9   0    3.78    0.53
   5   9   0    3.47    0.41
   5   9   0    3.86    0.44
  -6  -9   0    0.95    0.22
   6  -9   0    1.39    0.26
  -6   9   0    0.88    0.46
   6   9   0    1.80    0.37
   6   9   0    1.05    0.35
   7  -9   0    1.49    0.30
  -7  -9   0    1.32    0.23
   7   9   0    0.84    0.35
   7   9   0    1.71    0.37
   0 -10   0    1.01    0.23
   0  10   0    0.58    0.35
  -1 -10   0    3.90    0.31
  -1  10   0    4.66    0.32
  -1  10   0    4.69    0.50
   1  10   0    3.90    0.47
  -2 -10   0    8.93    0.45
  -2  10   0    8.85    0.45
   2  10   0    9.11    0.65
  -2  10   0    7.79    0.67
  -3 -10   0    5.43    0.38
   3 -10   0    5.91    0.42
  -3  10   0    5.63    0.40
  -3  10   0    5.79    0.56
   3  10   0    5.49    0.52
   4 -10   0   10.23    0.53
  -4 -10   0    9.30    0.49
  -4  10   0    7.96    0.74
   4  10   0    8.13    0.65
  -4  10   0    8.98    0.51
  -5 -10   0    0.25    0.20
   5 -10   0    0.98    0.26
   5  10   0    0.43    0.35
  -5  10   0    0.49    0.46
   6 -10   0   89.27    3.22
   0  11   0   -0.47    0.35
  -1 -11   0    0.12    0.22
  -1  11   0    0.52    0.21
   1  11   0   -0.13    0.36
  -1  11   0    0.14    0.40
  -2 -11   0    0.55    0.25
  -2  11   0    0.82    0.24
  -2  11   0    0.25    0.42
   2  11   0    0.58    0.38
  -3 -11   0    1.91    0.27
   3  11   0    1.70    0.42
  -3  11   0    1.35    0.46
  -3  11   0    1.59    0.28
 -11   0   1    0.25    0.40
 -11   0   1   -0.10    0.27
  11   0  -1   -0.02    0.23
  11   0  -1   -0.47    0.26
  10   0  -1   57.90    1.99
 -10   0   1   58.84    2.29
 -10   0   1   58.58    2.00
  10   0  -1   58.29    2.10
   9   0  -1    0.07    0.17
   9   0  -1   -0.31    0.18
  -9   0   1   -0.05    0.34
  -9   0   1   -0.06    0.23
   8   0  -1   32.90    1.16
  -8   0   1   33.64    1.39
  -8   0   1   32.97    1.18
   8   0  -1   33.43    1.23
  -7   0   1    0.76    0.20
  -7   0   1    0.59    0.34
   7   0  -1    0.90    0.16
   7   0  -1    0.84    0.18
   6   0  -1    0.97    0.17
  -6   0   1    0.76    0.19
   6   0  -1    0.14    0.13
  -6   0   1    2.86    0.36
   5   0  -1    0.92    0.11
  -5   0   1    1.05    0.27
   5   0  -1    1.09    0.14
   5   0  -1    1.09    0.12
  -5   0   1    0.97    0.07
  -5   0   1    0.83    0.16
  -4   0   1  951.36   31.90
  -4   0   1  985.90   28.40
   4   0  -1  948.44   31.75
   4   0  -1  872.07   40.95
  -4   0   1  916.24   29.48
  -3   0   1    8.59    0.44
  -3   0   1    9.23    0.36
  -3   0   1    9.53    0.34
   3   0  -1    9.56    0.36
  -3   0   1    9.47    0.30
   3   0  -1    9.50    0.46
  -2   0   1   20.53    0.81
  -2   0   1   21.95    0.73
   2   0  -1   22.79    1.00
  -2   0   1   22.43    0.67
   2   0  -1   21.92    0.77
   1   0  -1    0.04    0.07
  -1   0   1    0.00    0.04
  -1   0   1    0.12    0.07
  -1   0   1   -0.03    0.06
   1   0  -1   -0.04    0.05
   1   0  -1    0.10    0.04
   0   0   1   15.83    0.51
   0   0   1   14.78    0.54
   0   0  -1   13.77    0.54
   0   0  -1   15.32    0.70
   0   0   1   17.94    0.50
   1   0   1    0.12    0.04
   1   0   1    0.11    0.04
  -1   0  -1    0.16    0.12
  -1   0  -1    0.15    0.06
  -1   0  -1    0.12    0.05
  -1   0  -1    0.15    0.06
  -2   0  -1  145.42    5.14
  -2   0  -1  157.43    4.56
   2   0   1  151.71    5.10
  -2   0  -1  146.01    4.70
   2   0   1  148.59    4.84
   3   0   1    0.23    0.08
  -3   0  -1    0.29    0.09
  -3   0  -1    0.16    0.09
  -3   0  -1    0.32    0.19
   3   0   1    0.23    0.09
  -4   0  -1   13.77    0.46
   4   0   1   12.91    0.48
  -4   0  -1   13.27    0.50
  -4   0  -1   12.97    0.66
   4   0   1   14.04    0.51
  -5   0  -1    0.24    0.10
  -5   0  -1    0.12    0.31
  -5   0  -1    0.20    0.14
   5   0   1    0.15    0.12
   5   0   1    0.34    0.12
   6   0   1   11.82    0.47
  -6   0  -1   12.03    0.43
   6   0   1   12.24    0.50
  -6   0  -1   12.08    0.50
  -6   0  -1   11.36    0.73
  -7   0  -1    1.86    0.42
   7   0   1    2.04    0.20
   7   0   1    2.09    0.21
  -7   0  -1    1.85    0.21
   8   0   1   38.62    1.36
  -8   0  -1   35.72    1.29
  -8   0  -1   37.98    1.57
   8   0   1   36.49    1.29
  -9   0  -1    0.39    0.21
  -9   0  -1    0.86    0.42
   9   0   1    0.14    0.19
   9   0   1    0.19    0.21
 -10   0  -1   99.56    3.54
 -10   0  -1   92.67    3.11
  10   0   1   93.07    3.14
  10   0   1   93.09    3.30
 -11   0  -1    1.06    0.30
  11  -1  -1    0.02    0.24
  11  -1  -1   -0.26    0.28
 -11  -1   1    0.02    0.28
 -11  -1   1    0.35    0.39
  11   1  -1   -0.40    0.22
 -11   1   1    0.46    0.28
 -11   1   1    0.80    0.46
 -10  -1   1    3.31    0.35
  10  -1  -1    2.99    0.28
  10  -1  -1    2.69    0.31
 -10  -1   1    3.30    0.49
  10   1  -1    2.74    0.30
  10   1  -1    3.06    0.29
 -10   1   1    3.34    0.35
 -10   1   1    3.52    0.51
   9  -1  -1   -0.11    0.17
  -9  -1   1   -0.33    0.23
  -9  -1   1   -0.11    0.32
   9  -1  -1   -0.13    0.22
   9   1  -1   -0.16    0.17
  -9   1   1    0.03    0.39
  -9   1   1   -0.01    0.21
   9   1  -1   -0.23    0.20
   8  -1  -1    1.68    0.23
  -8  -1   1    1.35    0.25
   8  -1  -1    1.83    0.20
  -8  -1   1    1.76    0.37
  -8   1   1    1.57    0.24
   8   1  -1    1.46    0.20
   8   1  -1    1.82    0.22
  -8   1   1    1.85    0.39
   7  -1  -1    4.60    0.32
  -7  -1   1    3.92    0.42
  -7  -1   1    4.92    0.34
   7  -1  -1    4.45    0.27
   7   1  -1    4.97    0.30
   7   1  -1    4.57    0.28
  -7   1   1    4.32    0.45
  -7   1   1    4.68    0.33
  -6  -1   1    1.46    0.12
   6  -1  -1    1.58    0.16
  -6  -1   1    1.61    0.33
  -6  -1   1    1.48    0.20
   6  -1  -1    1.54    0.19
   6   1  -1    1.52    0.16
  -6   1   1    1.17    0.33
  -6   1   1    1.19    0.20
   6   1  -1    1.62    0.18
   5  -1  -1    0.52    0.12
  -5  -1   1    0.82    0.08
   5  -1  -1    0.70    0.14
  -5  -1   1    0.57    0.26
  -5  -1   1    0.61    0.14
   5   1  -1    0.60    0.12
  -5   1   1    0.74    0.07
  -5   1   1    0.59    0.26
  -5   1   1    0.45    0.15
   5   1  -1    0.59    0.12
   5   1  -1    0.60    0.13
  -4  -1   1    0.35    0.22
  -4  -1   1    0.02    0.10
  -4  -1   1   -0.05    0.12
   4  -1  -1   -0.15    0.08
   4  -1  -1   -0.04    0.08
  -4  -1   1   -0.01    0.05
   4  -1  -1    0.00    0.10
  -4   1   1   -0.06    0.12
  -4   1   1   -0.17    0.19
  -4   1   1    0.06    0.05
   4   1  -1   -0.03    0.10
   4   1  -1    0.00    0.14
  -3  -1   1    2.59    0.18
   3  -1  -1    2.44    0.16
   3  -1  -1    2.48    0.18
  -3  -1   1    2.52    0.11
  -3  -1   1    2.46    0.14
  -3  -1   1    2.40    0.23
  -3   1   1    2.48    0.21
  -3   1   1    2.72    0.15
   3   1  -1    1.89    0.23
   3   1  -1    2.41    0.15
  -3   1   1    2.45    0.12
  -3   1   1    2.34    0.18
  -2  -1   1    0.58    0.10
  -2  -1   1    0.58    0.06
  -2  -1   1    0.51    0.15
   2  -1  -1    0.76    0.10
   2  -1  -1    0.51    0.09
  -2  -1   1    0.57    0.08
  -2   1   1    0.58    0.15
  -2   1   1    0.40    0.12
  -2   1   1    0.57    0.06
  -2   1   1    0.69    0.08
  -1  -1   1    0.65    0.13
  -1  -1   1   -0.29    0.06
  -1  -1   1    0.01    0.07
  -1  -1   1    0.32    0.12
  -1  -1   1    0.18    0.09
   0  -1   1    0.20    0.06
   0  -1  -1    0.19    0.05
   0  -1  -1    0.32    0.09
   0  -1   1    0.30    0.06
   0  -1  -1    0.23    0.04
   0  -1  -1    0.31    0.04
   0   1  -1    0.27    0.05
   0   1   1    0.29    0.05
   0   1   1    0.25    0.07
   0   1  -1    0.39    0.07
  -1  -1  -1   -0.01    0.07
  -1  -1  -1    0.50    0.16
   1  -1   1    0.06    0.07
   1  -1   1    0.09    0.08
   1   1   1    0.30    0.07
   1   1   1    0.02    0.07
  -1   1  -1    0.26    0.13
  -1   1  -1    0.23    0.06
  -1   1  -1    0.36    0.11
  -2  -1  -1    0.59    0.22
  -2  -1  -1    0.76    0.09
   2  -1   1    0.75    0.10
  -2  -1  -1    0.77    0.11
   2  -1   1    0.87    0.11
   2   1   1    0.97    0.10
  -2   1  -1    1.01    0.20
  -2   1  -1    1.12    0.14
  -2   1  -1    0.78    0.10
   2   1   1    1.06    0.09
   3  -1   1   14.66    0.52
  -3  -1  -1   13.72    0.46
  -3  -1  -1   13.54    0.49
   3  -1   1   13.91    0.48
  -3  -1  -1   13.36    0.64
  -3   1  -1   14.10    0.61
   3   1   1   13.91    0.49
   3   1   1   14.48    0.50
  -3   1  -1   13.76    0.48
  -3   1  -1   14.20    0.49
  -4  -1  -1    1.50    0.15
   4  -1   1    1.55    0.14
  -4  -1  -1    1.53    0.13
  -4  -1  -1    1.33    0.30
   4  -1   1    1.74    0.16
   4   1   1    1.56    0.14
  -4   1  -1    1.80    0.28
   4   1   1    1.38    0.13
  -4   1  -1    1.33    0.14
  -4   1  -1    1.53    0.14
   5  -1   1   16.49    0.63
  -5  -1  -1   16.82    0.82
  -5  -1  -1   16.59    0.55
   5  -1   1   16.67    0.59
  -5  -1  -1   16.20    0.61
  -5   1  -1   15.99    0.59
  -5   1  -1   15.59    0.78
  -5   1  -1   16.57    0.56
   5   1   1   16.63    0.59
   5   1   1   16.64    0.61
   6  -1   1    4.76    0.27
   6  -1   1    4.86    0.30
  -6  -1  -1    4.61    0.23
  -6  -1  -1    4.70    0.31
  -6  -1  -1    4.08    0.49
   6   1   1    4.93    0.28
  -6   1  -1    3.99    0.46
  -6   1  -1    4.47    0.24
   6   1   1    4.69    0.27
  -6   1  -1    4.56    0.29
  -7  -1  -1    1.27    0.20
  -7  -1  -1    1.50    0.39
   7  -1   1    1.08    0.18
   7  -1   1    1.28    0.20
   7   1   1    1.11    0.18
   7   1   1    1.15    0.17
  -7   1  -1    1.23    0.39
  -7   1  -1    1.05    0.20
  -8  -1  -1    4.68    0.53
   8  -1   1    6.32    0.37
   8  -1   1    6.17    0.34
  -8  -1  -1    6.35    0.39
  -8   1  -1    5.26    0.57
   8   1   1    5.96    0.36
  -8   1  -1    6.28    0.37
   8   1   1    6.32    0.35
  -9  -1  -1    2.55    0.48
   9  -1   1    2.65    0.26
  -9  -1  -1    2.48    0.29
   9  -1   1    3.40    0.30
  -9   1  -1    2.66    0.28
   9   1   1    3.00    0.28
   9   1   1    3.05    0.28
  -9   1  -1    3.69    0.54
  10  -1   1   -0.27    0.23
  10  -1   1   -0.09    0.22
 -10  -1  -1    0.14    0.46
 -10  -1  -1   -0.28    0.25
  10   1   1    0.00    0.23
 -10   1  -1    0.58    0.47
 -10   1  -1    0.07    0.24
  11  -1   1    0.32    0.29
 -11   1  -1    0.34    0.27
  11  -2  -1   -0.27    0.28
  11  -2  -1   -0.20    0.21
 -11  -2   1   -0.14    0.38
 -11   2   1    0.05    0.26
 -11   2   1   -0.16    0.42
 -10  -2   1  143.35    5.02
  10  -2  -1  138.05    4.59
 -10  -2   1  141.34    4.57
  10  -2  -1  138.57    4.87
 -10   2   1  143.07    5.06
  10   2  -1  139.85    4.60
 -10   2   1  140.00    4.55
  -9  -2   1   -0.09    0.35
   9  -2  -1   -0.07    0.17
  -9  -2   1    0.43    0.24
   9  -2  -1   -0.31    0.21
   9   2  -1   -0.24    0.19
  -9   2   1    0.12    0.22
   9   2  -1    0.12    0.18
  -9   2   1    0.12    0.38
   8  -2  -1    0.87    0.18
  -8  -2   1    1.10    0.24
   8  -2  -1    1.64    0.24
  -8  -2   1    1.34    0.35
   8   2  -1    1.20    0.20
  -8   2   1    0.88    0.37
  -8   2   1    1.43    0.24
   8   2  -1    1.55    0.20
   7  -2  -1    1.08    0.20
  -7  -2   1    1.10    0.31
  -7  -2   1    0.98    0.21
   7  -2  -1    1.10    0.15
  -7   2   1    0.93    0.20
   7   2  -1    1.06    0.17
  -7   2   1    0.50    0.32
   7   2  -1    1.08    0.17
  -6  -2   1    3.94    0.32
   6  -2  -1    4.23    0.30
   6  -2  -1    4.13    0.26
  -6  -2   1    4.16    0.40
  -6  -2   1    4.52    0.20
  -6   2   1    4.78    0.42
   6   2  -1    4.10    0.26
  -6   2   1    4.40    0.33
   6   2  -1    4.60    0.27
  -5  -2   1    0.37    0.24
   5  -2  -1    0.86    0.16
   5  -2  -1    0.68    0.12
  -5  -2   1    0.66    0.17
  -5  -2   1    0.49    0.09
  -5   2   1    0.50    0.09
   5   2  -1    0.50    0.12
   5   2  -1    0.26    0.20
   5   2  -1    0.51    0.13
  -5   2   1    0.38    0.25
  -5   2   1    0.50    0.16
   4  -2  -1   68.33    2.27
   4  -2  -1   69.97    2.42
  -4  -2   1   70.54    2.29
  -4  -2   1   67.81    2.26
  -4  -2   1   70.80    2.16
  -4  -2   1   71.07    2.48
  -4   2   1   69.34    2.26
  -4   2   1   70.87    2.16
  -4   2   1   69.79    2.48
   4   2  -1   68.91    3.16
   4   2  -1   71.17    2.41
  -3  -2   1   11.00    0.41
  -3  -2   1   10.83    0.50
  -3  -2   1   11.14    0.40
  -3  -2   1   11.25    0.37
   3  -2  -1   11.37    0.43
  -3   2   1   11.19    0.42
  -3   2   1   11.21    0.38
  -3   2   1   11.33    0.49
  -2  -2   1    4.12    0.26
   2  -2  -1    3.91    0.16
  -2  -2   1    3.73    0.17
  -2  -2   1    3.95    0.18
   2  -2  -1    4.72    0.20
  -2  -2   1    4.65    0.22
  -2  -2   1    3.69    0.19
  -2   2   1    3.28    0.23
  -2   2   1    3.51    0.24
  -2   2   1    4.11    0.17
   1  -2  -1    0.07    0.06
  -1  -2   1    0.10    0.06
  -1  -2   1    0.11    0.07
   1  -2  -1    0.17    0.08
  -1  -2   1    0.07    0.16
  -1  -2   1    0.16    0.12
  -1  -2   1    0.09    0.07
  -1   2   1    0.06    0.14
  -1   2   1    0.24    0.14
  -1   2   1    0.13    0.05
   0  -2   1    8.93    0.31
   0  -2  -1    8.40    0.31
   0  -2   1    7.57    0.33
   0  -2  -1    8.25    0.29
   0   2   1    8.88    0.29
   0   2  -1    8.00    0.35
   0   2   1    9.11    0.34
   0   2   1    7.42    0.37
   0   2  -1    9.00    0.30
  -1  -2  -1    0.08    0.07
  -1  -2  -1    0.33    0.17
   1  -2   1    0.12    0.06
   1  -2   1   -0.07    0.08
  -1  -2  -1    0.07    0.07
  -1   2  -1    0.15    0.09
   1   2   1    0.21    0.09
  -1   2  -1   -0.05    0.07
  -1   2  -1    0.26    0.15
   1   2   1    0.26    0.06
   2  -2   1  714.72   25.30
   2  -2   1  706.21   23.85
  -2  -2  -1  783.06   22.73
  -2   2  -1  743.38   23.39
  -2   2  -1  757.69   22.76
  -2   2  -1  735.16   25.51
   2   2   1  796.55   25.19
   2   2   1  725.08   23.87
  -3  -2  -1    0.09    0.23
   3  -2   1    0.00    0.09
  -3  -2  -1    0.00    0.11
  -3  -2  -1    0.02    0.08
   3  -2   1   -0.03    0.07
  -3   2  -1    0.24    0.14
  -3   2  -1    0.04    0.09
   3   2   1   -0.02    0.06
   3   2   1    0.03    0.08
  -3   2  -1    0.29    0.20
   4  -2   1   80.33    2.59
  -4  -2  -1   77.33    2.57
  -4  -2  -1   80.74    2.47
   4  -2   1   80.47    2.75
   4   2   1   82.54    2.74
  -4   2  -1   79.80    2.55
  -4   2  -1   81.82    2.49
   4   2   1   79.66    2.60
  -4   2  -1   78.20    2.83
  -5  -2  -1    0.68    0.33
   5  -2   1    0.62    0.13
  -5  -2  -1    0.90    0.18
   5  -2   1    0.49    0.16
  -5  -2  -1    0.60    0.11
   5   2   1    0.70    0.12
   5   2   1    0.62    0.13
  -5   2  -1    0.54    0.30
  -5   2  -1    0.63    0.14
  -5   2  -1    0.43    0.15
   6  -2   1  152.47    4.96
  -6  -2  -1  155.70    5.40
  -6  -2  -1  156.11    4.70
  -6  -2  -1  146.26    4.89
   6  -2   1  153.33    5.25
   6   2   1  155.02    4.96
   6   2   1  158.90    5.23
  -6   2  -1  155.42    5.38
  -6   2  -1  153.15    4.71
  -6   2  -1  150.98    4.88
  -7  -2  -1    2.66    0.26
  -7  -2  -1    2.96    0.19
   7  -2   1    3.27    0.28
   7  -2   1    2.74    0.23
  -7  -2  -1    2.85    0.42
   7   2   1    2.84    0.25
  -7   2  -1    2.34    0.42
   7   2   1    2.88    0.25
  -7   2  -1    2.76    0.24
   8  -2   1   86.25    2.86
  -8  -2  -1   84.21    2.84
  -8  -2  -1   86.28    3.19
   8  -2   1   86.92    3.03
   8   2   1   89.14    3.01
  -8   2  -1   86.36    2.82
   8   2   1   86.22    2.87
  -8   2  -1   89.08    3.21
   9  -2   1    1.13    0.25
   9  -2   1    0.95    0.21
  -9  -2  -1    0.86    0.24
  -9  -2  -1    0.76    0.41
  -9   2  -1    1.53    0.46
   9   2   1    1.16    0.22
  -9   2  -1    1.13    0.24
  10  -2   1    6.92    0.46
 -10  -2  -1    6.40    0.51
 -10  -2  -1    8.58    0.75
  10  -2   1    7.09    0.42
 -10   2  -1    7.03    0.46
  10   2   1    6.58    0.44
 -10   2  -1    7.69    0.72
  11  -2   1    0.02    0.25
 -11   2  -1    0.04    0.25
  11  -3  -1    1.97    0.29
 -11  -3   1    2.60    0.49
 -11   3   1    2.52    0.34
  10  -3  -1    5.79    0.48
 -10  -3   1    5.60    0.57
 -10  -3   1    6.07    0.49
  10  -3  -1    5.78    0.37
  10   3  -1    6.08    0.41
 -10   3   1    5.51    0.61
 -10   3   1    6.28    0.46
  -9  -3   1    2.05    0.30
  -9  -3   1    2.93    0.44
   9  -3  -1    2.68    0.30
   9  -3  -1    2.48    0.24
  -9   3   1    2.36    0.29
   9   3  -1    2.98    0.27
  -9   3   1    2.64    0.45
   8  -3  -1    0.53    0.17
  -8  -3   1    0.34    0.31
  -8  -3   1    0.30    0.23
   8  -3  -1    0.33    0.21
   8   3  -1    0.61    0.18
  -8   3   1    0.42    0.21
   8   3  -1    0.61    0.18
  -8   3   1    0.41    0.36
  -7  -3   1   11.41    0.63
   7  -3  -1   10.17    0.50
   7  -3  -1   11.14    0.44
  -7  -3   1    9.64    0.52
  -7   3   1   11.32    0.66
   7   3  -1   10.78    0.46
  -7   3   1   10.68    0.50
   7   3  -1   11.19    0.46
   6  -3  -1    3.49    0.22
  -6  -3   1    3.85    0.32
  -6  -3   1    3.27    0.20
   6  -3  -1    4.10    0.31
  -6  -3   1    3.65    0.37
  -6   3   1    3.57    0.40
  -6   3   1    4.70    0.33
   6   3  -1    3.36    0.25
   6   3  -1    3.92    0.25
  -5  -3   1    0.07    0.26
  -5  -3   1    0.11    0.10
   5  -3  -1    0.27    0.16
  -5  -3   1    0.50    0.18
   5  -3  -1    0.26    0.11
  -5   3   1    0.17    0.15
  -5   3   1    0.09    0.13
   5   3  -1    0.27    0.12
  -5   3   1   -0.09    0.26
   5   3  -1    0.08    0.12
   4  -3  -1    0.04    0.13
  -4  -3   1    0.20    0.13
   4  -3  -1    0.03    0.07
  -4  -3   1    0.02    0.08
  -4  -3   1   -0.17    0.19
  -4   3   1    0.02    0.13
  -4   3   1   -0.01    0.12
  -4   3   1   -0.11    0.22
   4   3  -1   -0.11    0.10
   3  -3  -1    3.08    0.14
   3  -3  -1    3.31    0.20
  -3  -3   1    2.95    0.17
  -3  -3   1    3.43    0.22
  -3  -3   1    3.21    0.16
  -3  -3   1    3.62    0.21
  -3  -3   1    3.43    0.28
  -3   3   1    3.11    0.24
  -3   3   1    3.49    0.30
  -3   3   1    3.20    0.16
  -2  -3   1    3.29    0.16
  -2  -3   1    3.21    0.28
  -2  -3   1    3.21    0.16
   2  -3  -1    3.12    0.15
   2  -3  -1    3.10    0.18
   2  -3  -1    3.03    0.12
  -2  -3   1    2.91    0.18
  -2  -3   1    2.97    0.24
  -2   3   1    3.00    0.22
  -2   3   1    3.56    0.27
   1  -3  -1    5.34    0.24
  -1  -3   1    5.36    0.31
   1  -3  -1    5.24    0.22
  -1  -3   1    5.27    0.22
  -1  -3   1    5.35    0.23
  -1   3   1    5.49    0.28
   1   3  -1    5.44    0.23
   1   3  -1    5.06    0.30
   0  -3  -1    2.92    0.15
   0  -3   1    2.81    0.16
   0  -3   1    2.59    0.18
   0  -3   1    2.66    0.13
   0  -3  -1    2.75    0.14
   0   3   1    2.99    0.22
   0   3   1    2.80    0.20
   0   3  -1    2.72    0.16
   0   3   1    2.69    0.12
   0   3  -1    2.61    0.22
   1  -3   1   10.77    0.43
  -1  -3  -1   11.03    0.50
  -1  -3  -1   11.09    0.43
   1  -3   1   11.32    0.39
  -1  -3  -1   11.14    0.39
   1   3   1   11.24    0.38
  -1   3  -1   10.70    0.39
  -1   3  -1   10.99    0.39
   1   3   1   11.64    0.41
  -1   3  -1   10.47    0.47
  -2  -3  -1    6.97    0.42
  -2  -3  -1    7.19    0.29
  -2  -3  -1    7.39    0.28
   2  -3   1    7.31    0.27
   2  -3   1    7.18    0.32
   2   3   1    7.26    0.31
   2   3   1    7.23    0.28
  -2   3  -1    7.81    0.28
  -2   3  -1    8.07    0.31
  -2   3  -1    7.17    0.39
   3  -3   1   43.25    1.42
   3  -3   1   42.99    1.52
  -3  -3  -1   43.61    1.36
  -3  -3  -1   42.76    1.60
  -3   3  -1   43.65    1.39
   3   3   1   45.40    1.49
   3   3   1   42.81    1.42
  -3   3  -1   43.91    1.40
   3   3   1   44.97    1.42
  -3   3  -1   42.13    1.58
  -4  -3  -1    1.12    0.16
  -4  -3  -1    0.93    0.30
   4  -3   1    0.81    0.10
  -4  -3  -1    0.93    0.12
   4  -3   1    0.85    0.16
   4   3   1    1.05    0.10
   4   3   1    1.10    0.12
  -4   3  -1    1.04    0.18
  -4   3  -1    0.92    0.13
  -4   3  -1    0.81    0.27
   5  -3   1    0.40    0.12
  -5  -3  -1    0.33    0.32
  -5  -3  -1    0.31    0.17
   5  -3   1    0.54    0.18
  -5  -3  -1    0.44    0.11
  -5   3  -1    0.54    0.14
  -5   3  -1    0.78    0.31
   5   3   1    0.48    0.13
   5   3   1    0.47    0.11
  -5   3  -1    0.47    0.19
   6  -3   1   10.65    0.48
  -6  -3  -1   10.58    0.39
   6  -3   1   10.26    0.41
  -6  -3  -1   10.05    0.47
  -6  -3  -1    8.69    0.66
   6   3   1   10.73    0.42
  -6   3  -1   10.01    0.67
  -6   3  -1   10.58    0.44
   6   3   1   10.81    0.43
  -6   3  -1    9.30    0.44
  -7  -3  -1   11.65    0.73
  -7  -3  -1   11.43    0.42
  -7  -3  -1   10.65    0.53
   7  -3   1   11.32    0.52
   7  -3   1   10.77    0.46
   7   3   1   11.03    0.47
  -7   3  -1   11.12    0.72
  -7   3  -1   11.28    0.48
  -8  -3  -1    1.62    0.26
   8  -3   1    1.95    0.21
  -8  -3  -1    1.74    0.42
   8  -3   1    1.98    0.25
   8   3   1    1.35    0.21
  -8   3  -1    1.58    0.23
  -8   3  -1    1.32    0.42
   9  -3   1    0.19    0.20
  -9  -3  -1    0.84    0.42
   9  -3   1    0.35    0.23
  -9  -3  -1    0.32    0.25
   9   3   1    0.04    0.21
  -9   3  -1    0.20    0.21
  -9   3  -1    0.05    0.42
  10  -3   1   -0.06    0.21
  10  -3   1    0.72    0.26
 -10  -3  -1    0.37    0.28
 -10  -3  -1    0.72    0.45
  10   3   1    0.31    0.24
 -10   3  -1    0.24    0.24
 -10   3  -1    0.60    0.50
  10  -4  -1   45.00    1.59
 -10  -4   1   46.53    1.66
 -10  -4   1   47.47    1.85
  10  -4  -1   44.39    1.72
  10   4  -1   46.33    1.62
 -10   4   1   47.59    1.93
 -10   4   1   44.60    1.61
   9  -4  -1   -0.06    0.23
   9  -4  -1    0.16    0.17
  -9  -4   1   -0.23    0.25
  -9  -4   1   -0.24    0.33
   9   4  -1    0.14    0.20
  -9   4   1    0.08    0.21
  -9   4   1    0.67    0.40
   8  -4  -1   35.72    1.36
  -8  -4   1   37.19    1.47
   8  -4  -1   35.91    1.25
  -8  -4   1   35.25    1.30
  -8   4   1   37.11    1.51
  -8   4   1   36.41    1.28
   8   4  -1   37.64    1.28
   7  -4  -1    0.16    0.20
  -7  -4   1    0.19    0.20
  -7  -4   1   -0.12    0.27
   7  -4  -1   -0.06    0.12
  -7   4   1    0.12    0.31
  -7   4   1   -0.08    0.17
   7   4  -1    0.11    0.15
   7   4  -1   -0.08    0.14
  -6  -4   1    3.23    0.35
   6  -4  -1    3.27    0.30
  -6  -4   1    4.01    0.31
  -6  -4   1    2.95    0.19
   6  -4  -1    3.18    0.21
   6   4  -1    3.28    0.23
  -6   4   1    3.50    0.28
  -6   4   1    3.47    0.39
   6   4  -1    3.43    0.24
  -5  -4   1    2.83    0.35
  -5  -4   1    2.83    0.25
   5  -4  -1    3.04    0.28
  -5  -4   1    2.95    0.19
   5  -4  -1    3.20    0.19
  -5   4   1    3.51    0.28
  -5   4   1    3.42    0.39
  -5   4   1    3.30    0.29
   5   4  -1    3.54    0.23
   5   4  -1    2.98    0.21
  -4  -4   1  756.83   24.87
   4  -4  -1  739.07   24.87
  -4  -4   1  687.97   23.09
   4  -4  -1  749.17   23.47
  -4  -4   1  711.43   22.32
  -4  -4   1  775.33   24.94
  -4   4   1  717.24   23.08
   4   4  -1  722.12   23.50
  -4   4   1  732.57   24.89
  -4   4   1  728.58   22.31
  -3  -4   1    2.10    0.16
   3  -4  -1    1.91    0.17
  -3  -4   1    2.04    0.24
   3  -4  -1    1.76    0.11
  -3  -4   1    1.75    0.15
  -3  -4   1    1.91    0.18
  -3  -4   1    2.08    0.19
  -3   4   1    2.09    0.26
  -3   4   1    1.98    0.19
  -3   4   1    2.14    0.15
   2  -4  -1   33.40    1.06
  -2  -4   1   32.57    1.20
  -2  -4   1   33.22    1.05
  -2  -4   1   31.88    1.08
   2  -4  -1   34.89    1.16
  -2  -4   1   33.40    1.21
   2  -4  -1   32.88    1.04
  -2   4   1   32.38    1.11
   2   4  -1   33.20    1.08
  -2   4   1   31.96    1.22
  -1  -4   1    0.93    0.07
  -1  -4   1    0.75    0.17
   1  -4  -1    0.86    0.10
   1  -4  -1    0.72    0.10
  -1  -4   1    0.78    0.11
   1   4  -1    0.81    0.12
   1   4  -1    0.83    0.16
  -1   4   1    0.87    0.15
  -1   4   1    0.72    0.16
   0  -4   1   24.24    0.89
   0  -4  -1   24.47    0.79
   0  -4   1   24.81    0.80
   0  -4   1   24.25    0.80
   0  -4  -1   24.87    0.87
   0   4  -1   24.63    0.92
   0   4   1   25.19    0.85
   0   4  -1   25.77    0.82
  -1  -4  -1    0.76    0.10
   1  -4   1    1.12    0.09
   1  -4   1    1.10    0.13
  -1  -4  -1    0.84    0.13
   1   4   1    0.81    0.14
   1   4   1    0.78    0.19
  -1   4  -1    1.26    0.17
  -1   4  -1    0.96    0.12
  -1   4  -1    1.00    0.11
   1   4   1    0.94    0.07
  -2  -4  -1   90.08    2.72
  -2  -4  -1   90.23    3.01
   2  -4   1   89.20    2.83
   2  -4   1   84.52    3.02
  -2  -4  -1   91.46    3.10
   2   4   1   89.72    2.84
  -2   4  -1   86.77    2.79
  -2   4  -1   83.92    3.08
  -2   4  -1   87.67    2.73
   2   4   1   88.34    2.81
   3  -4   1   -0.01    0.08
  -3  -4  -1   -0.05    0.10
  -3  -4  -1   -0.07    0.24
   3  -4   1   -0.02    0.13
  -3   4  -1   -0.03    0.14
   3   4   1    0.03    0.07
  -3   4  -1    0.01    0.10
   3   4   1    0.03    0.08
  -3   4  -1   -0.08    0.19
   3   4   1   -0.15    0.12
  -4  -4  -1   11.77    0.43
  -4  -4  -1   11.72    0.65
   4  -4   1   10.93    0.49
   4  -4   1   11.32    0.42
  -4   4  -1   11.44    0.44
   4   4   1   11.03    0.47
  -4   4  -1   11.52    0.59
   4   4   1   12.00    0.43
  -4   4  -1   11.37    0.50
   4   4   1   11.63    0.43
  -5  -4  -1    0.26    0.29
   5  -4   1    0.34    0.12
  -5  -4  -1    0.22    0.12
   5  -4   1    0.50    0.19
  -5   4  -1    0.37    0.21
  -5   4  -1    0.12    0.14
  -5   4  -1    0.26    0.32
   5   4   1    0.31    0.13
   5   4   1    0.17    0.11
   6  -4   1    8.29    0.35
  -6  -4  -1    8.07    0.34
  -6  -4  -1    7.72    0.60
   6  -4   1    7.84    0.41
  -6  -4  -1    8.21    0.43
  -6   4  -1    8.01    0.37
  -6   4  -1    7.57    0.59
   6   4   1    7.77    0.37
  -7  -4  -1    0.87    0.23
   7  -4   1    1.01    0.18
   7  -4   1    1.13    0.23
  -7  -4  -1    1.01    0.15
  -7  -4  -1    0.63    0.36
   7   4   1    1.01    0.19
  -7   4  -1    0.97    0.18
  -7   4  -1    1.00    0.39
  -8  -4  -1   37.70    1.43
  -8  -4  -1   40.40    1.67
   8  -4   1   47.24    1.41
   8  -4   1   39.26    1.50
  -8   4  -1   40.28    1.39
   8   4   1   39.76    1.41
  -8   4  -1   39.78    1.68
   9  -4   1   -0.06    0.23
  -9  -4  -1   -0.46    0.40
   9  -4   1   -0.21    0.19
  -9  -4  -1   -0.34    0.25
   9   4   1    0.04    0.21
  -9   4  -1    0.01    0.46
  -9   4  -1    0.02    0.20
  10  -4   1   65.82    2.27
 -10  -4  -1   66.72    2.62
  10  -4   1   66.71    2.42
  10   4   1   66.96    2.29
 -10   4  -1   70.36    2.66
 -10  -5   1    0.97    0.42
 -10  -5   1    0.96    0.35
  10  -5  -1    1.45    0.31
 -10   5   1    2.09    0.50
  10   5  -1    0.61    0.26
   9  -5  -1    1.25    0.29
  -9  -5   1    1.46    0.32
  -9  -5   1    1.37    0.38
  -9   5   1    1.50    0.48
  -9   5   1    1.24    0.26
   9   5  -1    1.10    0.23
   8  -5  -1    1.61    0.28
  -8  -5   1    1.75    0.31
  -8  -5   1    1.88    0.37
  -8   5   1    1.95    0.24
   8   5  -1    1.85    0.22
  -8   5   1    2.10    0.44
  -7  -5   1    0.44    0.23
  -7  -5   1    0.85    0.31
   7  -5  -1    0.78    0.23
  -7  -5   1    0.87    0.15
  -7   5   1    0.41    0.36
   7   5  -1    0.86    0.17
  -7   5   1    0.83    0.21
  -6  -5   1    0.10    0.20
   6  -5  -1    0.11    0.19
  -6  -5   1    0.25    0.12
  -6  -5   1    0.48    0.29
  -6   5   1    0.05    0.31
   6   5  -1    0.20    0.13
   6   5  -1    0.03    0.13
  -6   5   1    0.10    0.16
  -5  -5   1    0.69    0.14
  -5  -5   1    0.76    0.29
   5  -5  -1    0.48    0.19
  -5  -5   1    0.80    0.21
   5  -5  -1    0.65    0.11
  -5   5   1    0.38    0.18
   5   5  -1    0.75    0.14
  -5   5   1    0.61    0.18
   5   5  -1    0.56    0.14
  -5   5   1    0.72    0.32
   4  -5  -1    0.02    0.17
  -4  -5   1    0.14    0.16
  -4  -5   1    0.22    0.26
   4  -5  -1   -0.12    0.08
  -4  -5   1   -0.02    0.12
  -4   5   1    0.12    0.28
   4   5  -1   -0.27    0.16
   4   5  -1   -0.11    0.11
  -4   5   1    0.07    0.18
  -4   5   1    0.03    0.13
  -3  -5   1    0.90    0.20
  -3  -5   1    1.16    0.14
   3  -5  -1    0.96    0.16
   3  -5  -1    0.93    0.08
  -3  -5   1    0.85    0.24
   3   5  -1    0.91    0.16
  -3   5   1    0.71    0.20
  -3   5   1    1.19    0.28
   3   5  -1    1.05    0.11
  -3   5   1    0.87    0.13
  -2  -5   1   -0.06    0.11
   2  -5  -1    0.06    0.11
   2  -5  -1   -0.03    0.11
  -2  -5   1    0.04    0.20
  -2   5   1    0.37    0.23
   2   5  -1    0.01    0.13
  -2   5   1    0.13    0.18
   2   5  -1   -0.13    0.17
  -1  -5   1    1.54    0.20
  -1  -5   1    1.45    0.15
  -1  -5   1    1.69    0.11
   1  -5  -1    1.62    0.14
   1  -5  -1    1.56    0.15
  -1   5   1    1.74    0.21
   1   5  -1    1.85    0.17
   1   5  -1    1.24    0.21
  -1   5   1    1.92    0.25
   0  -5   1   -0.05    0.11
   0  -5   1   -0.02    0.13
   0  -5   1    0.01    0.04
   0  -5  -1    0.08    0.10
   0  -5  -1    0.04    0.11
   0   5   1   -0.10    0.16
   0   5  -1    0.03    0.17
   0   5   1   -0.02    0.17
   0   5  -1   -0.13    0.14
   1  -5   1    6.57    0.31
  -1  -5  -1    6.16    0.32
  -1  -5  -1    6.64    0.28
   1  -5   1    6.40    0.23
  -1   5  -1    6.41    0.30
   1   5   1    5.97    0.41
  -1   5  -1    6.52    0.40
   1   5   1    6.73    0.34
   1   5   1    6.51    0.24
  -2  -5  -1    0.06    0.14
   2  -5   1   -0.16    0.14
  -2  -5  -1    0.16    0.25
  -2  -5  -1    0.19    0.12
   2  -5   1    0.16    0.09
   2   5   1    0.17    0.16
  -2   5  -1   -0.01    0.12
  -2   5  -1    0.45    0.24
  -2   5  -1    0.00    0.12
   2   5   1    0.09    0.08
  -3  -5  -1    0.68    0.14
  -3  -5  -1    0.93    0.11
   3  -5   1    0.74    0.11
  -3  -5  -1    0.47    0.28
   3  -5   1    0.52    0.16
   3   5   1    0.85    0.11
  -3   5  -1    0.81    0.13
  -3   5  -1    0.59    0.16
  -3   5  -1    0.54    0.27
   3   5   1    0.88    0.17
  -4  -5  -1    5.76    0.53
   4  -5   1    5.51    0.34
   4  -5   1    5.06    0.25
  -4  -5  -1    5.45    0.27
   4   5   1    5.47    0.33
  -4   5  -1    4.32    0.42
   4   5   1    5.90    0.28
  -4   5  -1    5.53    0.28
  -4   5  -1    5.68    0.36
   5  -5   1   25.86    0.89
   5  -5   1   26.56    0.98
  -5  -5  -1   26.20    0.86
  -5  -5  -1   25.69    1.11
   5   5   1   27.10    0.90
  -5   5  -1   26.06    0.89
  -5   5  -1   25.26    0.92
  -5   5  -1   24.05    1.10
   5   5   1   26.29    0.93
   6  -5   1    1.25    0.16
  -6  -5  -1    0.80    0.36
  -6  -5  -1    0.93    0.15
   6  -5   1    1.48    0.22
  -6   5  -1    0.96    0.35
  -6   5  -1    1.11    0.17
   6   5   1    1.34    0.22
   6   5   1    1.26    0.18
  -7  -5  -1    0.87    0.41
  -7  -5  -1    0.83    0.15
   7  -5   1    0.65    0.22
  -7   5  -1    0.48    0.19
   7   5   1    0.86    0.22
   7   5   1    0.85    0.19
  -7   5  -1    0.48    0.36
   8  -5   1    6.82    0.44
  -8  -5  -1    7.72    0.68
   8   5   1    6.60    0.39
  -8   5  -1    7.09    0.62
   8   5   1    7.28    0.44
   9  -5   1    4.91    0.42
  -9  -5  -1    4.32    0.56
   9   5   1    4.22    0.36
   9   5   1    4.14    0.36
  -9   5  -1    4.50    0.60
  10   5   1    0.00    0.26
  10   6  -1   87.41    2.94
   9  -6  -1    0.62    0.27
  -9  -6   1    0.74    0.36
   9   6  -1    0.14    0.22
   9   6  -1    1.03    0.26
  -9   6   1    0.33    0.44
   8  -6  -1    0.70    0.27
  -8  -6   1    0.69    0.37
  -8   6   1    0.74    0.43
   8   6  -1    0.18    0.18
   8   6  -1    0.96    0.26
  -8   6   1    0.46    0.24
  -7  -6   1    2.56    0.38
   7  -6  -1    2.77    0.29
  -7  -6   1    2.75    0.24
  -7   6   1    3.45    0.28
  -7   6   1    2.78    0.44
   7   6  -1    3.34    0.30
   7   6  -1    3.19    0.27
  -6  -6   1   14.33    0.53
  -6  -6   1   13.91    0.73
   6  -6  -1   14.27    0.62
   6   6  -1   13.90    0.55
  -6   6   1   14.73    0.80
   6   6  -1   13.95    0.61
  -6   6   1   13.81    0.58
  -5  -6   1    0.52    0.14
   5  -6  -1    0.45    0.19
  -5  -6   1    0.66    0.28
  -5   6   1    0.53    0.33
   5   6  -1    0.62    0.20
   5   6  -1    0.61    0.13
  -5   6   1    0.54    0.18
   4  -6  -1   18.73    0.74
  -4  -6   1   18.01    0.65
  -4  -6   1   18.53    0.73
  -4  -6   1   18.96    0.82
   4   6  -1   18.30    0.71
  -4   6   1   18.86    0.66
   4   6  -1   18.93    0.65
  -4   6   1   17.77    0.86
  -4   6   1   18.45    0.70
  -3  -6   1   14.58    0.64
  -3  -6   1   14.33    0.54
   3  -6  -1   14.22    0.59
  -3   6   1   14.70    0.73
   3   6  -1   14.44    0.58
  -3   6   1   14.75    0.61
   3   6  -1   15.19    0.68
   3   6  -1   15.23    0.52
  -3   6   1   15.18    0.54
  -2  -6   1    3.42    0.31
   2  -6  -1    2.64    0.24
   2  -6  -1    2.53    0.20
  -2  -6   1    3.13    0.23
   2   6  -1    2.79    0.15
   2   6  -1    3.00    0.24
  -2   6   1    2.90    0.34
  -2   6   1    2.41    0.26
   2   6  -1    2.92    0.29
   1  -6  -1    3.12    0.22
  -1  -6   1    2.80    0.23
   1  -6  -1    2.68    0.21
  -1  -6   1    2.71    0.26
  -1   6   1    3.08    0.27
  -1   6   1    2.64    0.32
   1   6  -1    2.65    0.24
   1   6  -1    3.10    0.29
   0  -6   1   18.53    0.66
   0  -6  -1   18.87    0.71
   0  -6   1   18.70    0.73
   0  -6  -1   18.21    0.65
   0   6   1   18.80    0.72
   0   6  -1   19.99    0.70
   0   6  -1   19.10    0.79
  -1  -6  -1    0.84    0.18
   1  -6   1    0.46    0.16
  -1  -6  -1    0.68    0.15
  -1   6  -1    0.99    0.25
  -1   6  -1    0.79    0.17
   1   6   1    0.84    0.21
   1   6   1    0.60    0.25
   2  -6   1  373.08   12.70
  -2  -6  -1  389.03   11.41
  -2  -6  -1  372.99   12.70
   2   6   1  378.97   12.82
  -2   6  -1  370.61   12.80
  -2   6  -1  374.30   11.42
   2   6   1  368.25   11.79
  -2   6  -1  371.36   11.76
   3  -6   1    0.52    0.18
  -3  -6  -1    0.69    0.16
  -3  -6  -1    0.66    0.31
   3   6   1    0.59    0.12
  -3   6  -1    0.49    0.29
   3   6   1    0.91    0.21
  -3   6  -1    0.63    0.18
  -3   6  -1    0.61    0.14
   4  -6   1   52.33    1.86
  -4  -6  -1   52.54    1.67
  -4  -6  -1   54.86    1.99
  -4   6  -1   48.95    1.96
   4   6   1   53.77    1.73
  -4   6  -1   50.79    1.70
  -4   6  -1   54.84    1.71
   4   6   1   52.04    1.75
  -5  -6  -1    0.30    0.35
  -5  -6  -1    0.48    0.15
   5  -6   1    0.67    0.20
   5   6   1    0.63    0.20
  -5   6  -1    0.74    0.34
   5   6   1    0.42    0.14
  -5   6  -1    0.02    0.22
  -6  -6  -1   90.46    2.77
   6  -6   1   88.50    3.10
  -6  -6  -1   94.15    3.25
   6   6   1   83.41    2.90
   6   6   1   90.59    2.91
  -6   6  -1   84.97    3.22
   7  -6   1    3.20    0.30
  -7  -6  -1    2.83    0.46
  -7  -6  -1    3.68    0.26
   7   6   1    3.06    0.26
  -7   6  -1    3.00    0.48
   7   6   1    3.27    0.31
  -8  -6  -1   79.72    2.88
   8  -6   1   76.07    2.70
  -8   6  -1   77.02    2.88
   8   6   1   71.09    2.53
   8   6   1   75.62    2.53
  -9  -6  -1    1.85    0.49
   9  -6   1    2.10    0.31
   9   6   1    1.91    0.27
   9   6   1    1.67    0.30
  -9   6  -1    2.11    0.54
  -9  -7   1    2.54    0.46
   9   7  -1    2.81    0.35
  -8  -7   1    1.02    0.38
   8  -7  -1    0.36    0.27
  -8   7   1    0.45    0.47
   8   7  -1    0.67    0.28
  -7  -7   1    6.56    0.35
   7  -7  -1    6.08    0.43
  -7  -7   1    6.40    0.57
  -7   7   1    7.48    0.66
   7   7  -1    6.61    0.44
  -6  -7   1    2.33    0.21
  -6  -7   1    2.72    0.38
   6  -7  -1    2.52    0.27
   6   7  -1    2.45    0.29
  -6   7   1    2.06    0.43
  -5  -7   1    0.10    0.30
  -5  -7   1    0.37    0.16
   5  -7  -1    0.25    0.19
  -5   7   1    0.48    0.19
  -5   7   1    0.01    0.35
   5   7  -1    0.26    0.21
  -4  -7   1   -0.03    0.14
   4  -7  -1   -0.05    0.17
   4   7  -1   -0.18    0.19
   4   7  -1   -0.05    0.23
  -4   7   1    0.12    0.19
  -4   7   1   -0.18    0.31
  -4   7   1   -0.01    0.15
  -3  -7   1    1.06    0.18
  -3  -7   1    1.02    0.24
   3  -7  -1    1.16    0.19
  -3   7   1    1.20    0.32
  -3   7   1    0.99    0.23
   3   7  -1    1.45    0.27
  -3   7   1    1.31    0.17
   3   7  -1    1.26    0.22
  -2  -7   1    1.81    0.29
   2  -7  -1    2.31    0.20
  -2  -7   1    2.19    0.20
   2  -7  -1    2.06    0.20
   2   7  -1    2.20    0.26
  -2   7   1    2.24    0.26
   2   7  -1    2.17    0.29
  -2   7   1    2.39    0.34
   1  -7  -1    3.10    0.26
  -1  -7   1    3.24    0.26
  -1  -7   1    3.85    0.35
   1  -7  -1    3.33    0.25
  -1   7   1    3.05    0.36
   1   7  -1    3.37    0.33
  -1   7   1    3.85    0.31
   1   7  -1    3.49    0.30
   0  -7  -1    0.83    0.17
   0  -7  -1    0.65    0.16
   0  -7   1    0.69    0.20
   0  -7   1    0.78    0.17
   0   7   1    0.60    0.30
   0   7  -1    0.79    0.26
   0   7   1    0.75    0.26
   0   7  -1    1.07    0.21
   1  -7   1    8.88    0.42
  -1  -7  -1    8.67    0.38
  -1   7  -1    8.28    0.38
   1   7   1    9.06    0.57
   1   7   1    8.68    0.49
  -1   7  -1    9.07    0.54
   2  -7   1    3.61    0.30
  -2  -7  -1    4.02    0.28
   2   7   1    4.43    0.38
   2   7   1    4.11    0.39
  -2   7  -1    3.87    0.38
  -2   7  -1    3.86    0.28
   3  -7   1   23.12    0.90
  -3  -7  -1   24.05    0.82
   3   7   1   24.82    1.02
   3   7   1   23.77    0.89
  -3   7  -1   23.44    0.83
  -3   7  -1   22.49    1.01
   4  -7   1    1.17    0.20
  -4  -7  -1    0.91    0.34
  -4  -7  -1    1.05    0.17
  -4   7  -1    1.34    0.23
   4   7   1    1.20    0.25
  -4   7  -1    1.24    0.35
   5  -7   1    0.11    0.20
  -5  -7  -1   -0.15    0.35
  -5  -7  -1    0.13    0.15
   5   7   1    0.17    0.23
  -5   7  -1   -0.22    0.33
  -5   7  -1   -0.08    0.23
  -6  -7  -1    4.94    0.30
   6  -7   1    5.18    0.37
  -6  -7  -1    4.97    0.53
  -6   7  -1    5.26    0.53
   6   7   1    4.77    0.39
  -7  -7  -1    9.12    0.43
   7  -7   1    9.04    0.51
  -7  -7  -1    9.49    0.79
   7   7   1    8.91    0.54
  -7   7  -1    9.18    0.73
   8  -7   1    1.03    0.27
  -8  -7  -1    0.46    0.44
   8   7   1    1.07    0.28
  -8   7  -1    1.40    0.48
   8  -8  -1   33.33    1.31
  -8  -8   1   34.61    1.44
  -8   8   1   34.15    1.51
   8   8  -1   31.28    1.27
  -7  -8   1    0.67    0.20
   7  -8  -1    0.92    0.25
  -7  -8   1    0.30    0.35
  -7   8   1    0.44    0.45
   7   8  -1    0.75    0.28
  -6  -8   1   11.69    0.49
   6  -8  -1   11.24    0.55
  -6   8   1   10.40    0.76
   6   8  -1   10.32    0.59
  -5  -8   1    5.14    0.33
   5  -8  -1    5.34    0.36
   5   8  -1    5.79    0.46
  -5   8   1    5.10    0.53
   5   8  -1    5.39    0.43
  -4  -8   1  307.86    9.30
   4  -8  -1  306.06   10.35
   4   8  -1  298.12    9.63
  -4   8   1  299.89   10.49
  -4   8   1  307.51    9.31
   4   8  -1  305.20   10.46
  -3  -8   1    0.32    0.17
   3  -8  -1    0.45    0.18
   3   8  -1    0.35    0.26
   3   8  -1    0.01    0.23
  -3   8   1    0.70    0.33
  -3   8   1    0.14    0.15
   2  -8  -1   37.83    1.38
  -2  -8   1   38.83    1.27
   2  -8  -1   38.22    1.26
  -2   8   1   38.30    1.34
   2   8  -1   39.74    1.48
  -2   8   1   36.97    1.51
   2   8  -1   38.19    1.35
  -1  -8   1    3.56    0.30
   1  -8  -1    3.62    0.27
   1  -8  -1    3.50    0.26
  -1  -8   1    3.41    0.33
  -1   8   1    3.10    0.39
  -1   8   1    3.42    0.32
   1   8  -1    3.36    0.35
   0  -8   1   31.47    1.18
   0  -8   1   30.10    1.06
   0  -8  -1   30.88    1.05
   0   8   1   31.58    1.14
   0   8   1   32.12    1.28
   0   8  -1   32.19    1.25
  -1  -8  -1    1.85    0.21
   1  -8   1    2.19    0.24
   1   8   1    2.00    0.34
  -1   8  -1    2.39    0.34
   1   8   1    1.87    0.30
  -1   8  -1    2.15    0.20
   2  -8   1   33.52    1.23
  -2  -8  -1   32.74    1.11
   2   8   1   34.46    1.22
   2   8   1   34.25    1.35
  -2   8  -1   32.45    1.33
  -2   8  -1   31.42    1.11
   3  -8   1    0.20    0.18
  -3  -8  -1   -0.04    0.17
   3   8   1    0.05    0.30
  -3   8  -1    0.00    0.17
  -3   8  -1    0.12    0.32
   3   8   1   -0.04    0.26
  -4  -8  -1    7.81    0.39
   4  -8   1    7.87    0.44
   4   8   1    8.78    0.60
   4   8   1    8.64    0.49
  -4   8  -1    8.31    0.62
  -4   8  -1    8.15    0.45
  -5  -8  -1    0.13    0.18
   5  -8   1    0.17    0.21
   5   8   1    0.19    0.25
  -5   8  -1    0.01    0.36
  -5   8  -1   -0.46    0.24
  -6  -8  -1    4.22    0.52
   6  -8   1    3.81    0.36
  -6  -8  -1    3.87    0.32
   6   8   1    3.22    0.36
  -6   8  -1    3.19    0.50
  -7  -8  -1    0.59    0.42
   7  -8   1    0.36    0.26
  -7  -8  -1    0.34    0.18
  -7   8  -1    0.36    0.43
   7   8   1    0.14    0.28
   8   8   1   32.49    1.26
   7  -9  -1    0.84    0.26
  -7  -9   1    0.52    0.20
  -7   9   1    0.58    0.49
   7   9  -1    1.17    0.34
   7   9  -1    0.76    0.35
  -6  -9   1    0.08    0.19
   6  -9  -1    0.21    0.24
   6   9  -1    0.50    0.33
  -6   9   1   -0.15    0.42
   5  -9  -1    0.10    0.22
  -5  -9   1   -0.13    0.19
   5   9  -1   -0.10    0.28
  -5   9   1    0.12    0.41
  -4  -9   1    0.18    0.19
   4  -9  -1    0.19    0.20
   4   9  -1   -0.15    0.27
  -4   9   1   -0.08    0.38
  -4   9   1    0.34    0.20
  -3  -9   1    0.72    0.20
   3  -9  -1    1.07    0.20
  -3   9   1    0.74    0.19
  -3   9   1    0.82    0.37
   3   9  -1    0.74    0.31
  -2  -9   1    0.21    0.18
   2  -9  -1    0.43    0.18
  -2   9   1   -0.09    0.33
   2   9  -1    0.19    0.28
   1  -9  -1    0.43    0.18
  -1  -9   1    0.28    0.19
   1   9  -1    0.39    0.29
  -1   9   1    0.16    0.32
   0  -9   1    0.41    0.23
   0  -9  -1    0.10    0.18
   0   9   1    0.16    0.32
   0   9  -1    0.02    0.28
   1  -9   1    2.55    0.27
  -1  -9  -1    2.05    0.23
  -1   9  -1    1.96    0.36
   1   9   1    1.93    0.38
  -1   9  -1    2.17    0.23
   1   9   1    1.77    0.33
  -2  -9  -1    0.18    0.18
   2  -9   1    0.14    0.20
  -2   9  -1    0.04    0.17
   2   9   1    0.10    0.30
   2   9   1    0.11    0.32
  -2   9  -1   -0.29    0.30
  -3  -9  -1    1.28    0.21
   3  -9   1    1.60    0.24
  -3   9  -1    1.21    0.37
  -3   9  -1    1.18    0.22
   3   9   1    1.15    0.36
   3   9   1    1.29    0.34
  -4  -9  -1    1.50    0.22
   4  -9   1    1.29    0.24
  -4   9  -1    1.86    0.41
   4   9   1    1.55    0.38
   4   9   1    0.85    0.31
  -4   9  -1    1.26    0.27
   5  -9   1    8.55    0.51
  -5  -9  -1    8.46    0.44
   5   9   1    7.63    0.55
   5   9   1    8.48    0.65
  -5   9  -1    8.43    0.76
  -6  -9  -1    1.83    0.25
   6  -9   1    2.13    0.31
  -6   9  -1    1.68    0.51
   6   9   1    3.06    0.44
   6   9   1    2.02    0.38
  -7  -9  -1    0.33    0.20
   7   9   1   -0.12    0.33
  -6 -10   1   15.02    0.65
   6 -10  -1   16.49    0.74
   6  10  -1   14.80    0.82
   5 -10  -1    1.71    0.28
  -5 -10   1    1.46    0.24
  -5  10   1    0.44    0.47
   5  10  -1    0.56    0.34
   4 -10  -1    5.59    0.39
  -4 -10   1    4.99    0.39
  -4  10   1    4.76    0.58
   4  10  -1    5.04    0.49
  -3 -10   1    9.57    0.50
  -3  10   1    8.84    0.74
  -3  10   1    9.69    0.48
   3  10  -1    9.20    0.63
  -2 -10   1    9.16    0.48
   2  10  -1    8.78    0.61
  -2  10   1    9.31    0.45
  -2  10   1    8.17    0.69
   1 -10  -1    2.94    0.28
  -1  10   1    2.25    0.44
   1  10  -1    2.43    0.38
   0 -10  -1   16.60    0.66
   0  10   1   17.00    0.92
   0  10  -1   16.86    0.66
   0  10  -1   16.58    0.85
  -1 -10  -1    0.83    0.21
  -1  10  -1    1.21    0.21
  -1  10  -1    0.91    0.37
   1  10   1    0.87    0.37
  -2 -10  -1  147.71    4.64
   2 -10   1  147.49    5.17
  -2  10  -1  153.98    5.29
   2  10   1  154.36    5.30
  -2  10  -1  143.12    4.65
   3 -10   1    0.96    0.26
  -3 -10  -1    0.56    0.21
   3  10   1    0.88    0.39
  -3  10  -1    0.67    0.23
  -3  10  -1    0.47    0.38
   4 -10   1   27.52    1.07
  -4 -10  -1   26.64    0.96
   4  10   1   26.84    1.22
  -4  10  -1   25.86    1.01
  -4  10  -1   25.11    1.25
   5 -10   1    0.78    0.27
  -5 -10  -1    0.58    0.22
  -5  10  -1    0.05    0.43
   5  10   1    0.10    0.36
   6  10   1   38.16    1.49
   4  11  -1   -0.53    0.34
  -3 -11   1   -0.14    0.24
   3  11  -1    0.07    0.34
  -3  11   1    0.12    0.23
  -3  11   1   -0.07    0.46
  -2  11   1    0.64    0.21
  -2  11   1    0.37    0.44
   2  11  -1    0.37    0.35
  -1  11   1    0.29    0.43
   1  11  -1    0.39    0.21
   1  11  -1    0.15    0.35
   0 -11  -1    0.17    0.23
   0  11  -1    0.05    0.36
   0  11  -1    0.26    0.21
   0  11   1   -0.08    0.39
  -1 -11  -1    0.99    0.24
  -1  11  -1    1.16    0.25
  -1  11  -1    0.91    0.39
   1  11   1    0.83    0.41
  -2 -11  -1    0.32    0.22
  -2  11  -1    0.21    0.24
  -2  11  -1   -0.61    0.37
   2  11   1    0.22    0.40
  -3 -11  -1    2.86    0.31
  -3  11  -1    2.69    0.33
   3  11   1    3.00    0.50
  -3  11  -1    2.90    0.49
   4 -11   1    0.86    0.27
  -4  11  -1   -0.45    0.30
  11   0  -2    0.34    0.23
 -11   0   2    0.38    0.37
 -11   0   2    0.46    0.30
  11   0  -2   -0.32    0.27
 -10   0   2    0.58    0.27
  10   0  -2    0.37    0.20
  10   0  -2   -0.22    0.24
 -10   0   2    0.82    0.40
  -9   0   2    0.30    0.35
   9   0  -2    0.14    0.18
  -9   0   2    0.07    0.22
   9   0  -2   -0.07    0.20
  -8   0   2  394.00   12.55
   8   0  -2  404.75   13.49
   8   0  -2  393.45   12.75
  -8   0   2  398.66   13.64
   7   0  -2    3.34    0.25
   7   0  -2    3.48    0.27
  -7   0   2    3.07    0.27
  -7   0   2    3.02    0.38
   6   0  -2    0.31    0.15
   6   0  -2    0.57    0.14
  -6   0   2    2.13    0.32
  -6   0   2    0.80    0.20
   5   0  -2    0.43    0.13
  -5   0   2   -0.09    0.22
  -5   0   2    0.25    0.12
   5   0  -2    0.43    0.13
  -5   0   2    0.36    0.14
  -4   0   2   25.83    1.02
   4   0  -2   28.22    1.24
  -4   0   2   27.11    0.91
  -4   0   2   26.56    0.92
   4   0  -2   27.17    0.96
  -3   0   2    1.81    0.15
  -3   0   2    1.69    0.13
  -3   0   2    1.54    0.18
   3   0  -2    1.57    0.13
   3   0  -2    1.42    0.17
  -2   0   2  134.53    4.76
  -2   0   2  136.31    4.40
   2   0  -2  134.77    4.24
   2   0  -2  145.22    6.15
  -2   0   2  141.01    4.47
   2   0  -2  146.10    4.74
  -1   0   2    0.55    0.12
  -1   0   2    0.47    0.11
  -1   0   2    0.47    0.10
   1   0  -2    0.59    0.10
  -1   0   2    0.65    0.08
   1   0  -2    0.62    0.16
   0   0  -2   14.08    0.63
   0   0   2   17.27    0.59
   0   0   2   16.96    0.63
   0   0   2   17.35    0.57
   0   0  -2   17.61    0.83
  -1   0  -2    0.87    0.15
  -1   0  -2    0.90    0.21
   1   0   2    0.46    0.09
  -1   0  -2    1.18    0.22
   1   0   2    0.42    0.10
   1   0   2    0.92    0.13
  -2   0  -2   14.49    0.49
  -2   0  -2   13.33    0.62
  -2   0  -2   14.53    0.49
  -2   0  -2   14.38    0.66
   2   0   2   14.34    0.49
   2   0   2   14.20    0.51
  -3   0  -2    3.35    0.33
   3   0   2    3.92    0.18
  -3   0  -2    4.28    0.20
   3   0   2    4.20    0.20
  -3   0  -2    4.08    0.22
  -4   0  -2   36.19    1.40
  -4   0  -2   36.19    1.19
   4   0   2   36.18    1.26
   4   0   2   36.07    1.20
  -4   0  -2   36.66    1.15
  -5   0  -2    0.08    0.12
   5   0   2    0.22    0.12
  -5   0  -2    0.15    0.14
   5   0   2    0.20    0.12
  -5   0  -2    0.00    0.34
  -6   0  -2  185.21    5.74
  -6   0  -2  185.71    5.95
  -6   0  -2  189.84    6.57
   6   0   2  188.77    6.05
   6   0   2  190.68    6.39
   7   0   2   -0.21    0.16
  -7   0  -2    0.17    0.16
   7   0   2   -0.11    0.15
  -7   0  -2    0.21    0.38
   8   0   2  120.64    4.03
   8   0   2  123.60    4.25
  -8   0  -2  122.31    3.97
  -8   0  -2  127.67    4.46
  -9   0  -2    1.01    0.23
   9   0   2    1.27    0.23
  -9   0  -2    1.14    0.47
   9   0   2    1.23    0.23
 -10   0  -2   65.82    2.49
  10   0   2   61.47    2.13
 -10   0  -2   60.25    2.10
 -11  -1   2    0.21    0.29
 -11  -1   2    0.72    0.39
  11  -1  -2    0.27    0.23
  11  -1  -2   -0.03    0.28
 -11   1   2    1.27    0.42
  11   1  -2    0.34    0.28
 -11   1   2    0.03    0.28
  11   1  -2   -0.05    0.24
 -10  -1   2    0.80    0.36
  10  -1  -2    0.39    0.27
  10  -1  -2    0.69    0.22
 -10  -1   2    1.07    0.29
  10   1  -2    0.68    0.25
  10   1  -2    0.83    0.22
 -10   1   2    1.28    0.43
 -10   1   2    0.51    0.27
  -9  -1   2    0.02    0.33
   9  -1  -2    0.03    0.22
   9  -1  -2    0.48    0.18
  -9  -1   2    0.26    0.24
  -9   1   2    0.56    0.35
  -9   1   2    0.40    0.24
   9   1  -2    0.42    0.18
   9   1  -2    0.30    0.21
  -8  -1   2    0.17    0.21
   8  -1  -2   -0.13    0.14
  -8  -1   2    0.12    0.29
   8  -1  -2    0.05    0.20
  -8   1   2    0.42    0.32
   8   1  -2    0.14    0.16
   8   1  -2   -0.23    0.16
  -8   1   2   -0.06    0.20
  -7  -1   2    1.70    0.34
   7  -1  -2    1.97    0.23
   7  -1  -2    1.78    0.18
  -7  -1   2    2.11    0.24
  -7   1   2    1.97    0.34
  -7   1   2    2.08    0.25
   7   1  -2    1.93    0.19
   7   1  -2    2.12    0.21
   6  -1  -2    1.47    0.18
  -6  -1   2    1.53    0.22
   6  -1  -2    1.39    0.16
  -6  -1   2    1.38    0.30
   6  -1  -2    1.32    0.16
  -6   1   2    0.89    0.31
   6   1  -2    1.58    0.19
  -6   1   2    1.63    0.22
   6   1  -2    1.58    0.18
  -5  -1   2    2.10    0.28
  -5  -1   2    2.33    0.12
   5  -1  -2    2.05    0.20
  -5  -1   2    2.02    0.21
  -5  -1   2    2.35    0.20
   5  -1  -2    2.30    0.23
   5   1  -2    2.28    0.20
  -5   1   2    1.73    0.21
  -5   1   2    2.31    0.20
  -5   1   2    2.39    0.28
   5   1  -2    2.38    0.30
  -4  -1   2    0.12    0.18
   4  -1  -2    0.20    0.11
  -4  -1   2    0.22    0.05
  -4  -1   2    0.22    0.13
   4  -1  -2    0.27    0.11
  -4  -1   2    0.27    0.10
  -4   1   2    0.33    0.10
  -4   1   2    0.19    0.19
  -4   1   2    0.28    0.13
   4   1  -2    0.17    0.18
   4   1  -2    0.21    0.11
  -3  -1   2    7.65    0.25
   3  -1  -2    7.48    0.39
   3  -1  -2    7.13    0.31
  -3  -1   2    7.66    0.29
  -3  -1   2    7.37    0.31
  -3  -1   2    7.33    0.35
  -3   1   2    7.33    0.36
  -3   1   2    7.06    0.33
  -3   1   2    7.33    0.29
   3   1  -2    7.28    0.32
   3   1  -2    6.40    0.48
  -2  -1   2    0.73    0.11
   2  -1  -2    0.84    0.10
  -2  -1   2    0.75    0.14
   2  -1  -2    0.71    0.06
  -2  -1   2    0.69    0.10
   2  -1  -2    0.80    0.13
  -2  -1   2    0.93    0.13
  -2   1   2    0.89    0.14
  -2   1   2    0.85    0.15
  -2   1   2    0.78    0.09
   2   1  -2    0.79    0.23
   1  -1  -2    0.82    0.08
  -1  -1   2    0.90    0.11
  -1  -1   2    0.97    0.10
   1  -1  -2    0.91    0.13
  -1  -1   2    0.82    0.19
   1  -1  -2    1.00    0.11
  -1   1   2    1.09    0.12
  -1   1   2    0.94    0.14
   1   1  -2    0.98    0.10
  -1   1   2    0.76    0.10
   0  -1   2    0.07    0.12
   0  -1  -2    0.32    0.13
   0  -1  -2    0.19    0.09
   0  -1   2    0.10    0.06
   0  -1  -2    0.04    0.08
   0  -1   2   -0.16    0.11
   0   1  -2    0.26    0.12
   0   1   2    0.08    0.09
   0   1  -2    0.18    0.09
   0   1   2    0.18    0.06
   0   1   2    0.07    0.10
  -1  -1  -2    2.12    0.22
  -1  -1  -2    2.57    0.17
   1  -1   2    2.25    0.15
   1  -1   2    2.47    0.15
   1   1   2    2.67    0.14
  -1   1  -2    2.66    0.12
   1   1   2    2.60    0.15
  -1   1  -2    2.44    0.18
  -1   1  -2    2.03    0.19
   1   1   2    1.94    0.11
  -2  -1  -2    0.18    0.21
  -2  -1  -2   -0.12    0.09
   2  -1   2    0.00    0.09
   2  -1   2    0.07    0.08
   2   1   2    0.14    0.06
  -2   1  -2   -0.05    0.07
  -2   1  -2    0.13    0.14
   2   1   2    0.00    0.08
  -2   1  -2   -0.10    0.18
  -3  -1  -2    1.83    0.15
   3  -1   2    2.00    0.16
  -3  -1  -2    2.09    0.17
   3  -1   2    2.16    0.14
  -3  -1  -2    2.00    0.29
  -3   1  -2    2.01    0.15
   3   1   2    1.82    0.14
  -3   1  -2    1.95    0.26
  -3   1  -2    2.23    0.18
   3   1   2    2.16    0.13
   4  -1   2    4.04    0.23
  -4  -1  -2    3.92    0.24
  -4  -1  -2    3.85    0.40
   4  -1   2    3.97    0.21
  -4  -1  -2    3.99    0.20
  -4   1  -2    4.00    0.25
  -4   1  -2    4.26    0.23
  -4   1  -2    4.45    0.41
   4   1   2    4.26    0.22
   4   1   2    4.31    0.21
  -5  -1  -2   18.00    0.90
  -5  -1  -2   17.83    0.62
   5  -1   2   18.42    0.69
  -5  -1  -2   17.95    0.67
   5  -1   2   18.62    0.65
  -5   1  -2   18.53    0.64
  -5   1  -2   18.56    0.66
  -5   1  -2   18.15    0.86
   5   1   2   18.70    0.66
   5   1   2   18.94    0.68
   6  -1   2    0.65    0.18
  -6  -1  -2    0.71    0.41
  -6  -1  -2    0.49    0.13
  -6  -1  -2    0.65    0.19
   6  -1   2    0.56    0.16
  -6   1  -2    0.65    0.17
   6   1   2    0.76    0.16
   6   1   2    0.33    0.16
  -6   1  -2    0.66    0.38
  -6   1  -2    0.46    0.15
   7  -1   2   -0.04    0.15
  -7  -1  -2    0.13    0.36
   7  -1   2    0.25    0.17
  -7  -1  -2    0.31    0.12
  -7  -1  -2   -0.07    0.17
   7   1   2   -0.28    0.15
   7   1   2    0.22    0.16
  -7   1  -2   -0.18    0.36
  -7   1  -2    0.27    0.17
   8  -1   2    1.27    0.22
  -8  -1  -2    0.84    0.44
  -8  -1  -2    0.91    0.22
   8  -1   2    1.09    0.21
   8   1   2    1.31    0.21
   8   1   2    1.35    0.21
  -8   1  -2    0.56    0.41
  -8   1  -2    1.08    0.21
   9  -1   2    0.37    0.20
  -9  -1  -2    0.60    0.45
  -9  -1  -2    0.25    0.22
   9  -1   2    0.30    0.22
  -9   1  -2    0.00    0.45
  -9   1  -2    0.22    0.20
   9   1   2   -0.04    0.19
 -10  -1  -2   -0.14    0.46
  10  -1   2   -0.41    0.21
 -10  -1  -2    0.05    0.24
  10  -1   2    0.02    0.22
 -10   1  -2    0.08    0.24
 -10   1  -2    0.22    0.48
  10   1   2   -0.18    0.23
  11  -2  -2   -0.40    0.27
 -11  -2   2    0.17    0.38
  11  -2  -2   -0.09    0.23
 -11   2   2    0.23    0.41
 -11   2   2    0.68    0.31
  10  -2  -2    8.89    0.46
 -10  -2   2    9.74    0.60
  10  -2  -2    9.15    0.55
 -10  -2   2    9.41    0.65
 -10   2   2   10.10    0.54
  10   2  -2    8.51    0.47
 -10   2   2    9.13    0.77
  10   2  -2    8.42    0.50
   9  -2  -2    0.08    0.16
  -9  -2   2    0.06    0.23
   9  -2  -2   -0.21    0.22
  -9  -2   2    0.08    0.30
  -9   2   2    0.33    0.24
   9   2  -2   -0.15    0.18
  -9   2   2    0.31    0.35
   9   2  -2    0.41    0.19
  -8  -2   2   75.09    2.41
   8  -2  -2   71.28    2.55
   8  -2  -2   72.22    2.40
  -8  -2   2   73.11    2.65
  -8   2   2   70.92    2.40
  -8   2   2   71.42    2.67
   8   2  -2   73.19    2.54
   8   2  -2   72.98    2.41
  -7  -2   2    4.63    0.42
   7  -2  -2    4.78    0.27
  -7  -2   2    5.08    0.36
   7  -2  -2    4.36    0.33
  -7   2   2    4.96    0.35
   7   2  -2    4.90    0.31
  -7   2   2    4.54    0.42
   7   2  -2    5.18    0.29
  -6  -2   2    4.40    0.19
  -6  -2   2    4.92    0.44
   6  -2  -2    4.02    0.25
  -6  -2   2    3.92    0.33
   6  -2  -2    4.41    0.30
   6   2  -2    4.50    0.28
  -6   2   2    4.21    0.33
  -6   2   2    4.29    0.40
   6   2  -2    3.82    0.43
  -5  -2   2   -0.05    0.22
   5  -2  -2    0.02    0.14
  -5  -2   2    0.14    0.08
  -5  -2   2    0.11    0.13
  -5  -2   2    0.09    0.16
   5   2  -2    0.27    0.23
  -5   2   2   -0.11    0.17
  -5   2   2    0.22    0.23
   5   2  -2    0.29    0.14
  -4  -2   2    0.57    0.11
   4  -2  -2    0.53    0.12
  -4  -2   2    0.77    0.08
   4  -2  -2    0.47    0.12
  -4  -2   2    1.41    0.16
  -4  -2   2    1.17    0.19
  -4   2   2    0.89    0.08
   4   2  -2    0.89    0.13
  -4   2   2    0.76    0.21
   4   2  -2    0.48    0.21
  -4   2   2    0.51    0.16
  -4   2   2    0.59    0.10
  -3  -2   2    1.17    0.14
  -3  -2   2    1.04    0.11
  -3  -2   2    1.19    0.17
  -3  -2   2    1.26    0.13
  -3  -2   2    1.05    0.09
   3  -2  -2    1.06    0.13
   3  -2  -2    1.30    0.12
  -3   2   2    1.12    0.16
  -3   2   2    1.19    0.18
  -3   2   2    1.17    0.10
  -2  -2   2  722.04   20.66
  -2  -2   2  656.15   23.11
  -2  -2   2  679.72   21.75
   2  -2  -2  740.93   23.02
  -2  -2   2  664.84   21.32
   2  -2  -2  765.03   29.84
   2  -2  -2  723.95   20.62
  -2  -2   2  570.11   23.04
  -2   2   2  693.60   21.71
  -2   2   2  638.66   23.13
  -2   2   2  601.85   21.29
   1  -2  -2    0.45    0.11
  -1  -2   2    0.60    0.08
  -1  -2   2    0.65    0.10
   1  -2  -2    0.54    0.08
  -1  -2   2    0.29    0.17
   1  -2  -2    0.51    0.07
   1   2  -2    0.52    0.11
  -1   2   2    0.52    0.08
  -1   2   2    0.70    0.14
   1   2  -2    0.49    0.09
  -1   2   2    0.58    0.14
   0  -2   2  131.03    4.25
   0  -2  -2  131.70    4.03
   0  -2  -2  136.27    4.49
   0  -2  -2  137.62    5.85
   0  -2   2  125.07    4.50
   0   2   2  130.50    4.24
   0   2  -2  131.34    4.52
   0   2  -2  130.97    4.04
   0   2   2  132.82    4.18
   1  -2   2    1.43    0.14
  -1  -2  -2    1.46    0.14
   1  -2   2    1.47    0.16
  -1  -2  -2    1.29    0.20
   1   2   2    1.78    0.15
  -1   2  -2    1.84    0.21
  -1   2  -2    1.67    0.09
   1   2   2    1.54    0.13
  -1   2  -2    1.58    0.17
   2  -2   2  319.87   10.90
   2  -2   2  325.02   10.25
  -2  -2  -2  297.17   10.90
  -2  -2  -2  326.72    9.82
  -2   2  -2  322.81    9.73
  -2   2  -2  321.10   10.88
  -2   2  -2  325.24   10.05
   2   2   2  311.09   10.13
   2   2   2  327.26   10.80
   2   2   2  319.12   10.30
   3  -2   2    6.55    0.26
  -3  -2  -2    6.35    0.26
  -3  -2  -2    6.20    0.46
   3  -2   2    6.30    0.29
  -3   2  -2    6.96    0.26
  -3   2  -2    6.07    0.32
   3   2   2    6.52    0.25
  -3   2  -2    5.76    0.40
   3   2   2    6.80    0.27
   4  -2   2  232.29    7.76
  -4  -2  -2  221.54    7.89
  -4  -2  -2  219.73    7.21
  -4  -2  -2  234.41    6.97
   4  -2   2  221.54    7.33
  -4   2  -2  235.78    7.00
   4   2   2  232.25    7.34
  -4   2  -2  234.13    7.19
  -4   2  -2  227.76    7.86
   4   2   2  229.06    7.74
  -5  -2  -2    0.09    0.11
   5  -2   2    0.25    0.16
  -5  -2  -2    0.08    0.33
  -5  -2  -2    0.17    0.16
   5  -2   2    0.48    0.13
  -5   2  -2    0.18    0.18
  -5   2  -2    0.15    0.13
  -5   2  -2   -0.04    0.31
   5   2   2    0.06    0.13
   5   2   2    0.22    0.11
  -6  -2  -2   29.79    1.06
   6  -2   2   30.55    1.12
   6  -2   2   30.53    1.05
  -6  -2  -2   30.15    0.99
  -6  -2  -2   31.27    1.31
  -6   2  -2   30.07    1.28
  -6   2  -2   30.43    1.04
   6   2   2   30.05    1.05
  -6   2  -2   30.82    1.01
   6   2   2   31.58    1.09
  -7  -2  -2    0.43    0.19
   7  -2   2    0.25    0.17
   7  -2   2    0.36    0.18
  -7  -2  -2    0.81    0.39
  -7  -2  -2    0.60    0.13
  -7   2  -2   -0.20    0.34
   7   2   2    0.43    0.15
  -7   2  -2    0.23    0.17
   7   2   2    0.37    0.16
   8  -2   2   56.43    2.00
   8  -2   2   55.89    1.89
  -8  -2  -2   58.53    2.20
  -8  -2  -2   56.04    1.89
   8   2   2   55.15    1.89
  -8   2  -2   55.05    2.20
  -8   2  -2   55.36    1.86
   9  -2   2    0.88    0.23
  -9  -2  -2    0.43    0.24
   9  -2   2    0.67    0.22
  -9  -2  -2    0.59    0.44
  -9   2  -2    1.20    0.23
   9   2   2    0.65    0.22
  -9   2  -2    1.18    0.48
 -10  -2  -2    6.87    0.69
  10  -2   2    6.29    0.42
 -10  -2  -2    5.99    0.46
  10  -2   2    6.93    0.47
 -10   2  -2    5.22    0.43
 -10   2  -2    7.99    0.74
  10   2   2    5.81    0.46
  11  -2   2    0.89    0.29
  11  -3  -2    1.10    0.24
 -11  -3   2    1.77    0.44
 -11   3   2    2.37    0.49
 -11   3   2    1.73    0.32
 -10  -3   2    1.86    0.41
  10  -3  -2    1.70    0.31
  10  -3  -2    1.61    0.24
 -10  -3   2    1.64    0.33
 -10   3   2    2.15    0.48
  10   3  -2    2.12    0.27
 -10   3   2    1.35    0.29
  -9  -3   2    0.08    0.24
  -9  -3   2    0.10    0.32
   9  -3  -2    0.04    0.16
   9  -3  -2    0.02    0.23
  -9   3   2    0.51    0.24
   9   3  -2    0.03    0.19
  -9   3   2    0.08    0.34
   9   3  -2    0.11    0.18
  -8  -3   2   -0.05    0.22
   8  -3  -2   -0.03    0.20
  -8  -3   2    0.21    0.30
   8  -3  -2    0.18    0.15
  -8   3   2    0.03    0.33
   8   3  -2   -0.17    0.17
   8   3  -2    0.22    0.16
  -8   3   2    0.04    0.20
  -7  -3   2    2.38    0.27
   7  -3  -2    2.62    0.22
  -7  -3   2    3.12    0.34
   7  -3  -2    2.54    0.25
   7   3  -2    2.63    0.23
  -7   3   2    2.71    0.26
   7   3  -2    2.62    0.24
  -7   3   2    2.44    0.36
   6  -3  -2    3.64    0.23
  -6  -3   2    3.88    0.32
  -6  -3   2    3.71    0.20
  -6  -3   2    3.48    0.34
   6  -3  -2    3.21    0.30
   6   3  -2    4.27    0.49
  -6   3   2    3.65    0.39
   6   3  -2    3.66    0.26
   6   3  -2    3.72    0.27
  -6   3   2    4.04    0.35
  -5  -3   2   -0.01    0.09
   5  -3  -2    0.14    0.10
  -5  -3   2    0.17    0.21
   5  -3  -2    0.36    0.16
  -5  -3   2   -0.05    0.17
  -5  -3   2    0.03    0.13
  -5   3   2   -0.06    0.17
   5   3  -2    0.26    0.24
  -5   3   2    0.06    0.25
   5   3  -2   -0.11    0.12
   4  -3  -2    0.31    0.13
  -4  -3   2    0.28    0.09
  -4  -3   2    0.11    0.11
  -4  -3   2    0.27    0.19
  -4  -3   2    0.33    0.13
  -4  -3   2    0.13    0.14
  -4   3   2    0.22    0.09
  -4   3   2    0.26    0.10
  -4   3   2    0.15    0.20
  -4   3   2    0.21    0.17
  -3  -3   2   31.59    1.06
  -3  -3   2   32.38    1.17
  -3  -3   2   31.51    1.07
   3  -3  -2   31.83    1.13
  -3  -3   2   31.60    1.16
  -3  -3   2   32.45    1.01
   3  -3  -2   31.30    1.00
  -3   3   2   31.15    1.09
  -3   3   2   33.62    1.19
  -3   3   2   33.39    1.06
   2  -3  -2    7.34    0.27
  -2  -3   2    7.57    0.39
  -2  -3   2    7.40    0.35
   2  -3  -2    7.33    0.31
  -2  -3   2    7.49    0.30
  -2  -3   2    7.73    0.29
  -2  -3   2    7.31    0.29
  -2   3   2    7.69    0.37
  -2   3   2    7.75    0.38
  -2   3   2    7.42    0.27
   1  -3  -2    8.93    0.31
  -1  -3   2    8.52    0.32
  -1  -3   2    8.28    0.31
  -1  -3   2    8.43    0.40
   1  -3  -2    8.83    0.33
  -1   3   2    8.60    0.30
  -1   3   2    8.80    0.40
   1   3  -2    8.53    0.37
  -1   3   2    8.89    0.37
   0  -3   2    8.29    0.32
   0  -3  -2    8.04    0.30
   0  -3   2    7.78    0.35
   0  -3  -2    8.34    0.30
   0   3  -2    8.68    0.37
   0   3  -2    8.31    0.31
   0   3   2    7.92    0.30
   0   3   2    8.45    0.35
   0   3   2    8.77    0.40
   0   3  -2    8.24    0.29
  -1  -3  -2    7.98    0.29
  -1  -3  -2    7.89    0.42
   1  -3   2    7.75    0.33
   1  -3   2    8.04    0.30
  -1   3  -2    8.07    0.37
   1   3   2    8.04    0.32
  -1   3  -2    7.81    0.27
  -1   3  -2    7.91    0.31
   1   3   2    8.13    0.29
  -2  -3  -2    4.03    0.37
   2  -3   2    4.04    0.23
   2  -3   2    4.27    0.20
  -2  -3  -2    4.40    0.21
  -2   3  -2    4.56    0.26
  -2   3  -2    4.30    0.18
   2   3   2    4.22    0.23
   2   3   2    4.38    0.19
  -2   3  -2    4.20    0.31
  -3  -3  -2   21.39    0.94
  -3  -3  -2   23.70    0.77
   3  -3   2   23.53    0.79
   3  -3   2   24.24    0.86
   3   3   2   23.70    0.81
   3   3   2   23.67    0.81
  -3   3  -2   23.82    0.78
  -3   3  -2   22.78    0.93
   3   3   2   24.64    0.80
  -3   3  -2   23.40    0.81
  -4  -3  -2    0.04    0.11
   4  -3   2    0.11    0.11
   4  -3   2    0.10    0.15
  -4  -3  -2   -0.16    0.31
  -4   3  -2   -0.05    0.26
   4   3   2   -0.17    0.13
  -4   3  -2    0.12    0.11
  -4   3  -2   -0.03    0.18
   4   3   2    0.15    0.12
   4   3   2    0.05    0.08
   5  -3   2    4.52    0.31
   5  -3   2    4.40    0.25
  -5  -3  -2    4.63    0.25
  -5  -3  -2    4.66    0.48
   5   3   2    4.90    0.24
  -5   3  -2    4.78    0.36
  -5   3  -2    4.69    0.26
  -5   3  -2    4.57    0.43
   5   3   2    4.82    0.27
   6  -3   2    0.32    0.18
  -6  -3  -2    0.31    0.12
  -6  -3  -2    0.26    0.35
   6  -3   2    0.19    0.13
  -6  -3  -2    0.21    0.18
  -6   3  -2    0.45    0.14
  -6   3  -2    0.27    0.34
  -6   3  -2    0.07    0.18
   6   3   2    0.27    0.16
   7  -3   2    0.67    0.20
  -7  -3  -2    0.51    0.20
  -7  -3  -2    0.46    0.35
   7  -3   2    0.54    0.16
  -7  -3  -2    0.59    0.14
  -7   3  -2    0.99    0.40
   7   3   2    0.51    0.18
  -7   3  -2    0.74    0.17
  -8  -3  -2    0.95    0.24
   8  -3   2    1.35    0.23
   8  -3   2    0.67    0.18
  -8  -3  -2    0.61    0.42
  -8   3  -2    1.03    0.41
  -8   3  -2    0.86    0.20
   8   3   2    0.84    0.20
   9  -3   2    0.18    0.24
  -9  -3  -2    0.00    0.44
   9  -3   2   -0.34    0.20
  -9  -3  -2    0.02    0.26
  -9   3  -2   -0.52    0.44
   9   3   2   -0.50    0.20
  -9   3  -2    0.07    0.20
  10  -3   2    0.06    0.23
  10  -3   2    0.55    0.27
 -10  -3  -2   -0.01    0.45
 -10   3  -2    0.26    0.50
  10   3   2   -0.19    0.24
  10  -4  -2   -0.17    0.20
 -10  -4   2    0.36    0.36
 -10  -4   2   -0.29    0.29
  10  -4  -2    1.28    0.32
 -10   4   2    0.66    0.42
  10   4  -2    0.43    0.22
 -10   4   2    0.63    0.28
  -9  -4   2    0.14    0.26
   9  -4  -2   -0.16    0.23
  -9  -4   2    0.18    0.33
   9  -4  -2   -0.03    0.17
  -9   4   2    0.35    0.24
  -9   4   2    0.24    0.37
   9   4  -2    0.07    0.20
  -8  -4   2  297.38    9.55
   8  -4  -2  298.23   10.26
  -8  -4   2  314.49   10.37
   8  -4  -2  302.93    9.67
  -8   4   2  306.56   10.40
   8   4  -2  296.08   10.24
   8   4  -2  298.05    9.69
  -8   4   2  296.21    9.53
  -7  -4   2    0.40    0.26
  -7  -4   2    0.72    0.23
   7  -4  -2    0.80    0.21
   7  -4  -2    0.53    0.14
  -7   4   2    0.42    0.31
   7   4  -2    0.82    0.17
  -7   4   2    0.66    0.21
   7   4  -2    0.80    0.16
  -6  -4   2    3.36    0.20
  -6  -4   2    3.46    0.34
   6  -4  -2    3.08    0.22
   6  -4  -2    3.41    0.30
  -6  -4   2    4.21    0.35
   6   4  -2    3.07    0.25
   6   4  -2    3.57    0.38
  -6   4   2    3.12    0.37
  -6   4   2    3.30    0.27
   6   4  -2    3.48    0.26
  -5  -4   2    2.00    0.15
  -5  -4   2    1.89    0.18
   5  -4  -2    1.80    0.14
   5  -4  -2    2.05    0.22
  -5  -4   2    1.92    0.23
  -5  -4   2    1.60    0.27
  -5   4   2    1.68    0.32
   5   4  -2    1.79    0.20
  -5   4   2    1.77    0.23
  -4  -4   2   33.42    1.08
  -4  -4   2   34.69    1.24
  -4  -4   2   33.69    1.14
   4  -4  -2   33.80    1.12
  -4  -4   2   34.00    1.16
   4  -4  -2   33.89    1.22
  -4  -4   2   36.07    1.28
  -4   4   2   33.14    1.17
  -4   4   2   34.10    1.08
  -4   4   2   34.50    1.30
   3  -4  -2    0.15    0.09
   3  -4  -2    0.21    0.12
  -3  -4   2    0.00    0.09
  -3  -4   2    0.19    0.10
  -3  -4   2    0.02    0.18
  -3  -4   2    0.08    0.17
  -3  -4   2    0.26    0.13
  -3   4   2    0.06    0.19
  -3   4   2    0.36    0.21
  -2  -4   2   88.09    2.70
   2  -4  -2   88.06    2.99
  -2  -4   2   87.69    2.82
  -2  -4   2   82.76    3.05
   2  -4  -2   89.23    2.69
   2   4  -2   86.94    3.04
  -2   4   2   86.74    2.81
  -2   4   2   94.89    2.81
  -2   4   2   83.91    3.06
  -1  -4   2    0.72    0.17
   1  -4  -2    0.68    0.10
   1  -4  -2    0.76    0.10
  -1  -4   2    0.80    0.09
  -1  -4   2    0.85    0.12
  -1   4   2    0.78    0.06
  -1   4   2    0.58    0.17
   1   4  -2    0.87    0.15
   1   4  -2    0.82    0.10
  -1   4   2    1.04    0.20
   0  -4   2   12.59    0.48
   0  -4  -2   13.57    0.50
   0  -4  -2   13.82    0.47
   0  -4   2   14.15    0.55
   0   4  -2   12.89    0.48
   0   4  -2   14.51    0.48
   0   4   2   14.13    0.53
   0   4   2   13.63    0.48
   0   4  -2   14.11    0.56
   0   4   2   13.96    0.60
   1  -4   2    0.20    0.11
  -1  -4  -2    0.14    0.10
   1  -4   2    0.02    0.13
  -1  -4  -2    0.32    0.19
  -1  -4  -2    0.54    0.11
   1   4   2    0.30    0.14
  -1   4  -2    0.32    0.12
  -1   4  -2    0.34    0.08
  -1   4  -2    0.32    0.17
   1   4   2    0.25    0.08
  -2  -4  -2    8.46    0.50
   2  -4   2    7.94    0.31
   2  -4   2    7.84    0.35
  -2  -4  -2    7.98    0.31
  -2   4  -2    7.46    0.28
  -2   4  -2    7.79    0.34
  -2   4  -2    7.65    0.43
   2   4   2    7.98    0.34
   2   4   2    8.41    0.30
  -3  -4  -2    1.32    0.14
   3  -4   2    1.28    0.17
  -3  -4  -2    1.61    0.31
   3  -4   2    1.72    0.14
   3   4   2    1.69    0.10
   3   4   2    1.76    0.14
  -3   4  -2    1.71    0.15
  -3   4  -2    1.78    0.22
  -3   4  -2    1.58    0.24
   3   4   2    1.74    0.18
   4  -4   2   38.76    1.40
   4  -4   2   40.08    1.30
  -4  -4  -2   39.73    1.26
  -4  -4  -2   40.40    1.55
  -4   4  -2   39.59    1.28
  -4   4  -2   37.81    1.50
   4   4   2   38.58    1.32
  -4   4  -2   38.74    1.31
   4   4   2   40.68    1.31
  -5  -4  -2    0.30    0.35
   5  -4   2    0.43    0.14
  -5  -4  -2    0.60    0.14
   5  -4   2    0.76    0.19
   5   4   2    0.68    0.16
   5   4   2    0.58    0.18
  -5   4  -2    0.50    0.33
  -5   4  -2    0.50    0.14
  -5   4  -2    0.41    0.23
  -6  -4  -2  121.43    4.35
   6  -4   2  122.66    4.20
  -6  -4  -2  123.15    3.76
   6  -4   2  123.43    3.95
  -6   4  -2  121.35    3.88
   6   4   2  116.84    3.91
  -6   4  -2  123.58    3.80
  -6   4  -2  117.56    4.32
   6   4   2  126.21    3.96
   7  -4   2    0.04    0.16
  -7  -4  -2    0.40    0.39
  -7  -4  -2    0.30    0.14
   7  -4   2    0.10    0.20
   7   4   2    0.12    0.18
  -7   4  -2    0.28    0.16
   7   4   2    0.11    0.17
  -7   4  -2   -0.02    0.37
   8  -4   2   82.40    2.67
  -8  -4  -2   83.79    3.04
   8  -4   2   81.04    2.84
   8   4   2   75.45    2.65
  -8   4  -2   79.40    3.02
   8   4   2   82.46    2.69
  -9  -4  -2    2.82    0.53
   9  -4   2    2.37    0.31
   9  -4   2    1.66    0.26
   9   4   2    2.29    0.28
  -9   4  -2    2.18    0.53
   9   4   2    2.22    0.28
  10  -4   2   64.87    2.18
  10  -4   2   64.21    2.32
  10   4   2   63.24    2.20
 -10  -5   2    0.53    0.34
  10  -5  -2    0.02    0.29
 -10  -5   2    0.13    0.33
  10   5  -2   -0.04    0.23
 -10   5   2   -0.15    0.26
 -10   5   2    0.16    0.44
   9  -5  -2    0.55    0.26
  -9  -5   2    0.33    0.29
  -9  -5   2    0.75    0.32
  -9   5   2    0.34    0.42
   9   5  -2    0.44    0.21
  -9   5   2    0.43    0.25
  -8  -5   2    0.05    0.27
  -8  -5   2   -0.13    0.28
   8  -5  -2   -0.19    0.21
  -8   5   2    0.31    0.22
  -8   5   2   -0.27    0.33
   8   5  -2    0.06    0.18
  -7  -5   2    1.37    0.31
  -7  -5   2    0.93    0.26
   7  -5  -2    0.99    0.24
  -7   5   2    1.10    0.36
  -7   5   2    1.41    0.23
   7   5  -2    1.07    0.19
   7   5  -2    0.97    0.17
  -6  -5   2    0.28    0.21
  -6  -5   2    0.13    0.24
   6  -5  -2    0.25    0.19
  -6  -5   2    0.14    0.12
  -6   5   2    0.24    0.20
   6   5  -2    0.13    0.14
   6   5  -2    0.26    0.14
  -6   5   2    0.35    0.31
  -5  -5   2    4.68    0.25
  -5  -5   2    4.85    0.40
  -5  -5   2    4.58    0.34
   5  -5  -2    4.82    0.24
   5  -5  -2    4.80    0.34
  -5   5   2    6.13    0.49
   5   5  -2    5.05    0.26
  -5   5   2    4.66    0.34
  -4  -5   2    0.91    0.19
  -4  -5   2    0.53    0.25
   4  -5  -2    0.96    0.18
   4  -5  -2    0.64    0.09
  -4  -5   2    1.03    0.21
  -4  -5   2    0.95    0.14
  -4  -5   2    0.84    0.14
  -4   5   2    0.95    0.30
  -4   5   2    0.77    0.21
  -4   5   2    0.69    0.13
  -3  -5   2    0.02    0.11
   3  -5  -2   -0.14    0.06
  -3  -5   2   -0.21    0.21
   3  -5  -2    0.01    0.11
   3  -5  -2   -0.14    0.14
  -3  -5   2   -0.16    0.12
  -3   5   2    0.11    0.22
   3   5  -2   -0.16    0.13
  -3   5   2    0.12    0.25
  -2  -5   2    0.13    0.12
   2  -5  -2   -0.09    0.12
  -2  -5   2   -0.08    0.23
   2  -5  -2   -0.03    0.10
  -2  -5   2    0.02    0.09
  -2   5   2    0.30    0.23
   2   5  -2    0.33    0.13
   2   5  -2    0.14    0.17
  -2   5   2    0.03    0.19
   1  -5  -2    7.50    0.32
   1  -5  -2    7.76    0.31
  -1  -5   2    7.56    0.29
  -1  -5   2    6.82    0.41
  -1  -5   2    8.02    0.34
  -1   5   2    8.25    0.40
   1   5  -2    7.61    0.39
   1   5  -2    7.75    0.33
  -1   5   2    8.44    0.46
   0  -5  -2    1.99    0.15
   0  -5   2    1.85    0.20
   0  -5  -2    1.97    0.15
   0  -5   2    1.95    0.13
   0   5  -2    1.80    0.15
   0   5  -2    1.87    0.15
   0   5   2    1.83    0.27
   0   5  -2    1.69    0.22
   0   5   2    1.61    0.22
   1  -5   2   12.39    0.52
  -1  -5  -2   12.72    0.50
   1  -5   2   13.05    0.46
  -1  -5  -2   12.96    0.46
  -1   5  -2   12.75    0.57
  -1   5  -2   12.34    0.47
  -1   5  -2   12.85    0.45
   1   5   2   12.50    0.44
   1   5   2   12.48    0.61
   1   5   2   12.85    0.52
  -2  -5  -2    0.42    0.09
  -2  -5  -2    0.50    0.28
   2  -5   2    0.52    0.12
   2  -5   2    0.34    0.15
  -2  -5  -2    0.09    0.13
   2   5   2    0.36    0.10
  -2   5  -2    0.37    0.09
  -2   5  -2    0.69    0.24
  -2   5  -2    0.41    0.15
   2   5   2    0.49    0.17
   3  -5   2    1.39    0.19
  -3  -5  -2    1.55    0.16
  -3  -5  -2    1.67    0.36
   3  -5   2    1.57    0.14
   3   5   2    1.75    0.14
  -3   5  -2    1.70    0.23
  -3   5  -2    1.54    0.13
   3   5   2    1.51    0.20
  -3   5  -2    1.90    0.30
  -4  -5  -2    6.39    0.31
   4  -5   2    6.22    0.36
   4  -5   2    6.23    0.29
  -4  -5  -2    6.03    0.52
  -4   5  -2    6.61    0.29
  -4   5  -2    6.80    0.42
   4   5   2    6.77    0.31
  -4   5  -2    5.76    0.52
   4   5   2    6.37    0.36
  -5  -5  -2   20.09    0.98
  -5  -5  -2   20.53    0.71
   5  -5   2   21.27    0.80
   5  -5   2   20.34    0.72
   5   5   2   20.59    0.77
  -5   5  -2   19.43    0.77
  -5   5  -2   20.38    0.94
   5   5   2   21.09    0.74
  -6  -5  -2    1.50    0.42
   6  -5   2    2.07    0.19
  -6  -5  -2    1.81    0.19
   6  -5   2    1.82    0.23
   6   5   2    1.83    0.25
   6   5   2    1.91    0.20
  -6   5  -2    1.35    0.37
  -6   5  -2    1.58    0.31
   7  -5   2    0.78    0.18
  -7  -5  -2    0.61    0.42
  -7  -5  -2    0.68    0.16
   7  -5   2    0.84    0.23
  -7   5  -2    1.20    0.41
   7   5   2    0.76    0.19
   7   5   2    0.72    0.22
  -8  -5  -2    0.34    0.44
   8  -5   2    1.03    0.26
   8   5   2    0.64    0.23
  -8   5  -2    0.63    0.43
   8   5   2    1.20    0.26
   9  -5   2    0.41    0.25
  -9  -5  -2    0.29    0.48
   9   5   2    0.50    0.25
  -9   5  -2    1.03    0.49
   9   5   2    0.78    0.28
 -10  -6   2   15.35    0.84
  10   6  -2   13.64    0.65
   9  -6  -2    1.44    0.30
  -9  -6   2    1.07    0.35
  -9   6   2    2.32    0.48
  -9   6   2    1.34    0.28
   9   6  -2    1.07    0.23
  -8  -6   2   33.00    1.31
   8  -6  -2   30.91    1.22
  -8   6   2   31.18    1.15
  -8   6   2   31.51    1.37
   8   6  -2   31.24    1.13
   7  -6  -2    7.21    0.45
  -7  -6   2    8.01    0.55
   7   6  -2    7.66    0.38
  -7   6   2    7.84    0.62
  -7   6   2    8.22    0.45
  -6  -6   2   14.16    0.53
   6  -6  -2   14.61    0.62
  -6  -6   2   14.35    0.72
   6   6  -2   13.74    0.54
  -6   6   2   14.29    0.78
  -6   6   2   13.20    0.60
  -5  -6   2    0.55    0.20
  -5  -6   2    0.75    0.26
   5  -6  -2    0.93    0.20
  -5  -6   2    0.70    0.15
  -5   6   2    0.77    0.20
  -5   6   2    0.98    0.33
   5   6  -2    0.62    0.13
   5   6  -2    0.66    0.19
  -4  -6   2    6.28    0.39
   4  -6  -2    7.49    0.36
  -4  -6   2    6.91    0.31
  -4   6   2    6.28    0.41
  -4   6   2    6.28    0.31
  -4   6   2    6.45    0.51
   4   6  -2    6.30    0.36
  -3  -6   2    2.97    0.19
  -3  -6   2    2.84    0.22
   3  -6  -2    3.01    0.27
   3  -6  -2    2.87    0.23
  -3  -6   2    3.07    0.31
   3   6  -2    3.17    0.25
  -3   6   2    3.14    0.30
  -3   6   2    3.12    0.37
   3   6  -2    3.64    0.33
   2  -6  -2  372.76   11.04
  -2  -6   2  366.54   11.58
  -2  -6   2  376.43   11.05
  -2  -6   2  346.70   12.33
   2  -6  -2  366.00   12.27
   2   6  -2  358.20   12.37
  -2   6   2  350.32   12.40
   2   6  -2  361.13   11.39
  -2   6   2  365.62   11.43
  -1  -6   2   -0.05    0.14
  -1  -6   2   -0.27    0.19
   1  -6  -2    0.17    0.13
   1  -6  -2    0.00    0.12
  -1   6   2    0.18    0.25
  -1   6   2   -0.04    0.22
   1   6  -2    0.09    0.20
   1   6  -2   -0.24    0.17
   0  -6  -2   72.81    2.26
   0  -6   2   73.93    2.53
   0  -6  -2   73.27    2.48
   0   6  -2   73.17    2.31
   0   6  -2   68.78    2.26
   0   6   2   71.18    2.60
   0   6  -2   72.11    2.56
   0   6   2   72.68    2.37
  -1  -6  -2    1.02    0.16
   1  -6   2    0.58    0.18
  -1  -6  -2    0.80    0.18
  -1   6  -2    1.01    0.16
  -1   6  -2    0.92    0.25
   1   6   2    0.94    0.24
  -1   6  -2    1.10    0.14
   1   6   2    0.89    0.25
   2  -6   2  160.39    5.52
  -2  -6  -2  160.34    4.96
  -2   6  -2  166.33    5.60
  -2   6  -2  162.24    4.98
   2   6   2  163.23    5.15
   2   6   2  157.34    5.62
   3  -6   2    5.93    0.35
  -3  -6  -2    6.16    0.56
  -3  -6  -2    5.84    0.30
  -3   6  -2    5.99    0.49
   3   6   2    6.21    0.37
   3   6   2    5.75    0.28
  -3   6  -2    6.76    0.38
   4  -6   2  169.72    5.86
  -4  -6  -2  178.04    6.01
  -4  -6  -2  169.31    5.26
  -4   6  -2  163.38    5.95
   4   6   2  170.07    5.45
  -4   6  -2  174.71    5.31
   4   6   2  173.66    5.51
   5  -6   2    1.25    0.22
  -5  -6  -2    1.37    0.18
  -5  -6  -2    1.29    0.41
   5   6   2    1.04    0.23
   5   6   2    1.33    0.18
  -5   6  -2    0.95    0.26
  -5   6  -2    1.08    0.36
  -6  -6  -2    9.25    0.70
   6  -6   2    8.85    0.46
  -6  -6  -2    8.95    0.40
   6   6   2    8.43    0.46
   6   6   2    8.44    0.41
  -6   6  -2    8.35    0.65
  -7  -6  -2    2.23    0.47
  -7  -6  -2    1.88    0.20
   7  -6   2    2.29    0.27
   7   6   2    2.01    0.29
   7   6   2    1.66    0.22
  -7   6  -2    2.07    0.43
   8  -6   2   22.73    0.94
  -8  -6  -2   23.31    1.16
  -8   6  -2   21.85    1.19
   8   6   2   22.00    0.91
   8   6   2   22.48    0.86
  -9  -6  -2    0.35    0.47
   9  -6   2    0.50    0.28
   9   6   2   -0.45    0.23
  -9  -7   2   -0.02    0.36
   9   7  -2    0.88    0.29
  -9   7   2    0.58    0.45
   8  -7  -2    0.13    0.27
  -8  -7   2   -0.13    0.31
  -8   7   2    0.04    0.41
   8   7  -2    0.19    0.26
  -7  -7   2    1.24    0.19
   7  -7  -2    1.19    0.25
  -7  -7   2    0.58    0.31
  -7   7   2    0.96    0.42
   7   7  -2    1.05    0.26
  -7   7   2    1.50    0.25
   6  -7  -2    2.65    0.28
  -6  -7   2    2.53    0.34
  -6  -7   2    2.52    0.22
  -6   7   2    2.46    0.42
   6   7  -2    2.50    0.29
  -6   7   2    2.96    0.28
  -5  -7   2    0.31    0.15
   5  -7  -2    0.15    0.19
  -5   7   2   -0.21    0.20
  -5   7   2    0.04    0.33
   5   7  -2    0.33    0.21
   4  -7  -2    0.17    0.18
  -4  -7   2    0.07    0.21
  -4  -7   2    0.13    0.14
  -4   7   2    0.26    0.22
   4   7  -2   -0.18    0.20
   4   7  -2    0.18    0.19
  -4   7   2   -0.13    0.31
  -4   7   2    0.15    0.15
   3  -7  -2   19.68    0.77
  -3  -7   2   20.19    0.71
  -3  -7   2   21.34    0.85
   3  -7  -2   19.59    0.70
  -3   7   2   20.58    0.81
   3   7  -2   19.72    0.84
   3   7  -2   20.32    0.76
  -3   7   2   20.19    0.92
   2  -7  -2    3.83    0.25
  -2  -7   2    3.93    0.27
   2  -7  -2    3.44    0.25
  -2  -7   2    3.56    0.35
  -2   7   2    3.71    0.33
   2   7  -2    3.79    0.36
  -2   7   2    4.17    0.39
   2   7  -2    3.70    0.32
  -1  -7   2    5.45    0.32
  -1  -7   2    5.71    0.42
   1  -7  -2    5.57    0.29
   1  -7  -2    5.67    0.29
  -1   7   2    5.38    0.42
  -1   7   2    5.14    0.49
   1   7  -2    5.42    0.41
   0  -7  -2    5.13    0.30
   0  -7   2    5.19    0.35
   0   7  -2    5.30    0.30
   0   7   2    5.24    0.40
   0   7  -2    6.10    0.42
   0   7   2    5.75    0.50
  -1  -7  -2    6.33    0.33
   1  -7   2    6.75    0.37
   1   7   2    6.83    0.53
  -1   7  -2    6.90    0.47
   1   7   2    6.35    0.42
  -1   7  -2    6.66    0.35
   2  -7   2    1.94    0.23
  -2  -7  -2    1.57    0.18
  -2   7  -2    1.68    0.30
  -2   7  -2    1.82    0.20
   2   7   2    1.79    0.33
   2   7   2    1.54    0.27
   3  -7   2   16.98    0.70
  -3  -7  -2   17.55    0.63
  -3   7  -2   17.00    0.81
  -3   7  -2   17.01    0.66
   3   7   2   17.21    0.71
   3   7   2   17.72    0.84
  -4  -7  -2    0.14    0.15
  -4  -7  -2    0.66    0.35
   4  -7   2   -0.05    0.19
  -4   7  -2   -0.23    0.22
   4   7   2   -0.24    0.22
  -4   7  -2    0.09    0.31
   5  -7   2    1.71    0.24
  -5  -7  -2    1.60    0.43
  -5  -7  -2    1.18    0.19
  -5   7  -2    1.81    0.29
   5   7   2    1.71    0.27
  -5   7  -2    1.52    0.38
  -6  -7  -2    0.48    0.17
   6  -7   2    0.49    0.23
  -6  -7  -2    0.17    0.42
   6   7   2    0.49    0.24
  -6   7  -2    0.17    0.38
  -7  -7  -2    0.03    0.45
  -7  -7  -2    0.46    0.18
   7  -7   2    0.51    0.26
  -7   7  -2    0.76    0.45
   7   7   2    0.62    0.27
   8  -7   2    0.85    0.27
  -8  -7  -2    0.54    0.52
  -8   7  -2    0.83    0.51
   8   7   2    0.44    0.28
   8  -8  -2  132.60    4.62
  -8  -8   2  135.99    4.71
  -8   8   2  139.49    4.80
   8   8  -2  122.82    4.33
   7  -8  -2    0.36    0.26
  -7  -8   2   -0.06    0.17
   7   8  -2    0.18    0.27
  -7   8   2   -0.11    0.42
   6  -8  -2   11.83    0.57
  -6  -8   2   11.42    0.47
   6   8  -2   10.68    0.61
   6   8  -2   10.58    0.58
  -6   8   2   10.64    0.76
   5  -8  -2    3.54    0.31
  -5  -8   2    4.17    0.30
   5   8  -2    3.55    0.33
  -5   8   2    3.48    0.47
   5   8  -2    3.54    0.36
   4  -8  -2   35.91    1.30
  -4  -8   2   34.75    1.18
   4   8  -2   34.76    1.37
  -4   8   2   33.93    1.25
  -4   8   2   35.56    1.18
  -4   8   2   36.59    1.46
   3  -8  -2    0.27    0.16
   3  -8  -2    0.18    0.15
  -3  -8   2    0.20    0.16
  -3   8   2    0.24    0.34
   3   8  -2    0.53    0.26
  -3   8   2   -0.05    0.26
  -2  -8   2   32.90    1.10
  -2  -8   2   31.97    1.27
   2  -8  -2   32.14    1.08
   2  -8  -2   32.38    1.19
   2   8  -2   32.91    1.27
  -2   8   2   32.43    1.34
  -2   8   2   32.65    1.19
  -1  -8   2    0.99    0.27
   1  -8  -2    1.00    0.18
  -1   8   2    0.90    0.34
  -1   8   2    0.98    0.27
   1   8  -2    0.73    0.27
   0  -8  -2    8.60    0.39
   0  -8   2    9.03    0.49
   0   8  -2    8.44    0.40
   0   8   2    8.71    0.56
   0   8  -2    8.87    0.53
   0   8   2    9.06    0.53
  -1  -8  -2    0.18    0.16
   1  -8   2    0.31    0.21
   1   8   2   -0.09    0.27
   1   8   2    0.11    0.31
  -1   8  -2   -0.02    0.25
  -1   8  -2    0.25    0.17
   2  -8   2    3.07    0.27
  -2  -8  -2    2.49    0.23
   2   8   2    3.09    0.40
  -2   8  -2    3.04    0.37
   2   8   2    2.97    0.34
  -2   8  -2    2.05    0.24
  -3  -8  -2    0.12    0.16
   3  -8   2    0.26    0.20
   3   8   2   -0.14    0.31
  -3   8  -2    0.00    0.31
   3   8   2   -0.16    0.25
  -3   8  -2    0.15    0.19
   4  -8   2   39.31    1.43
  -4  -8  -2   38.08    1.27
  -4   8  -2   37.46    1.33
   4   8   2   39.80    1.38
  -4   8  -2   37.32    1.54
   4   8   2   37.94    1.56
  -5  -8  -2    1.54    0.21
   5  -8   2    1.63    0.26
  -5   8  -2    1.68    0.32
  -5   8  -2    1.38    0.40
   5   8   2    1.47    0.31
  -6  -8  -2   46.70    1.85
  -6  -8  -2   43.54    1.46
   6  -8   2   44.65    1.64
   6   8   2   42.97    1.58
  -6   8  -2   43.09    1.80
  -7  -8  -2    1.76    0.51
   7  -8   2    1.03    0.27
  -7  -8  -2    1.50    0.23
  -7   8  -2    0.68    0.45
   7   8   2    1.27    0.31
  -7  -9   2    0.78    0.21
   7  -9  -2    1.02    0.26
   7   9  -2    0.54    0.32
  -7   9   2    0.65    0.49
   6  -9  -2   -0.20    0.23
  -6  -9   2    0.00    0.19
   6   9  -2    0.03    0.27
  -6   9   2    0.20    0.47
  -5  -9   2    1.57    0.23
   5  -9  -2    2.06    0.27
  -5   9   2    1.04    0.46
   5   9  -2    1.85    0.32
   4  -9  -2    0.21    0.19
  -4  -9   2    0.29    0.18
   4   9  -2   -0.19    0.27
  -4   9   2   -0.15    0.37
   3  -9  -2    0.17    0.18
  -3  -9   2   -0.08    0.18
   3   9  -2   -0.16    0.25
  -3   9   2    0.63    0.38
  -2  -9   2   -0.07    0.19
   2  -9  -2   -0.10    0.18
  -2   9   2    0.20    0.36
   2   9  -2    0.04    0.25
  -1  -9   2    1.56    0.30
   1  -9  -2    1.14    0.20
  -1   9   2    1.07    0.37
   1   9  -2    1.06    0.29
   1   9  -2    1.24    0.20
  -1   9   2    1.15    0.30
   0  -9  -2    0.07    0.17
   0  -9   2    0.28    0.24
   0   9  -2    0.53    0.19
   0   9  -2    0.31    0.28
   0   9   2   -0.14    0.29
   0   9   2    0.23    0.34
  -1  -9  -2    2.76    0.25
   1  -9   2    3.20    0.31
   1   9   2    2.53    0.36
  -1   9  -2    2.66    0.25
  -1   9  -2    2.81    0.37
   1   9   2    2.87    0.42
  -2  -9  -2    0.04    0.17
   2  -9   2    0.18    0.22
  -2   9  -2    0.18    0.18
   2   9   2   -0.07    0.30
   2   9   2    0.65    0.34
  -2   9  -2   -0.15    0.30
  -3  -9  -2    0.31    0.19
   3  -9   2    0.69    0.22
   3   9   2   -0.06    0.31
   3   9   2    0.15    0.34
  -3   9  -2    0.45    0.22
  -3   9  -2    0.53    0.35
  -4  -9  -2    1.13    0.21
   4  -9   2    1.45    0.26
   4   9   2    1.08    0.38
  -4   9  -2    1.27    0.42
  -4   9  -2    1.29    0.29
   4   9   2    1.17    0.33
   5  -9   2    5.76    0.43
  -5  -9  -2    5.50    0.39
  -5   9  -2    5.67    0.58
   5   9   2    5.79    0.58
   5   9   2    5.65    0.49
  -6  -9  -2    0.66    0.22
   6  -9   2    1.00    0.28
   6   9   2    1.24    0.41
  -6   9  -2    0.99    0.45
   6   9   2    0.48    0.35
  -6 -10   2   14.73    0.63
   6 -10  -2   16.67    0.71
   6  10  -2   14.29    0.81
  -5 -10   2    1.05    0.24
   5 -10  -2    2.00    0.28
   5  10  -2    1.40    0.35
  -5  10   2    0.85    0.48
  -4 -10   2    9.15    0.49
  -4  10   2    8.60    0.76
   4  10  -2    8.86    0.62
  -3 -10   2    2.42    0.28
  -3  10   2    2.24    0.49
  -3  10   2    3.11    0.27
   3  10  -2    2.57    0.39
   2 -10  -2  146.34    4.50
   2  10  -2  145.13    5.08
  -2  10   2  141.96    5.15
   1 -10  -2    0.16    0.20
   1  10  -2    0.18    0.20
  -1  10   2    0.49    0.38
   1  10  -2   -0.39    0.28
   0 -10  -2   33.52    1.16
   0  10  -2   32.51    1.17
   0  10  -2   34.35    1.39
   0  10   2   35.38    1.47
   1 -10   2    0.87    0.27
  -1 -10  -2    0.26    0.20
  -1  10  -2    0.06    0.32
  -1  10  -2    0.26    0.22
   1  10   2    0.55    0.40
  -2 -10  -2   61.24    2.03
   2 -10   2   62.36    2.27
   2  10   2   66.29    2.42
   2  10   2   62.22    2.20
  -2  10  -2   63.35    2.36
  -2  10  -2   60.35    2.05
   3 -10   2    3.15    0.34
  -3 -10  -2    2.93    0.28
  -3  10  -2    3.56    0.47
   3  10   2    2.71    0.44
   3  10   2    3.40    0.49
  -3  10  -2    3.00    0.34
   4 -10   2   95.97    3.39
  -4 -10  -2   92.67    3.03
  -4  10  -2   97.03    3.51
  -4  10  -2   96.51    3.09
   4  10   2   97.23    3.54
   4  10   2   95.29    3.24
  -5 -10  -2    1.37    0.25
   5 -10   2    1.58    0.30
   5  10   2    0.94    0.42
  -5  10  -2    1.24    0.46
   5  10   2    1.17    0.42
   6  10   2    1.49    0.45
   4  11  -2   -0.18    0.31
   3  11  -2    5.82    0.42
   3  11  -2    4.49    0.47
  -3  11   2    4.17    0.60
  -3  11   2    4.89    0.39
   2  11  -2   -0.16    0.31
   2  11  -2    0.30    0.22
  -2  11   2    0.29    0.45
   1 -11  -2    0.32    0.23
   1  11  -2   -0.09    0.32
   1  11  -2   -0.10    0.21
  -1  11   2   -0.59    0.41
   0 -11  -2    0.56    0.24
   0  11  -2   -0.01    0.34
   0  11   2    0.39    0.44
   0  11  -2    0.77    0.24
  -1 -11  -2   -0.04    0.22
  -1  11  -2    0.29    0.23
   1  11   2    0.87    0.44
  -1  11  -2    0.04    0.36
   2 -11   2    0.69    0.29
  -2 -11  -2    0.18    0.22
  -2  11  -2    0.06    0.23
  -2  11  -2    0.03    0.37
   2  11   2   -0.26    0.41
   3 -11   2    3.07    0.37
  -3  11  -2    3.24    0.51
  -3  11  -2    3.17    0.37
  -4  11  -2    0.45    0.32
  11   0  -3   -0.08    0.21
 -11   0   3    0.08    0.30
 -11   0   3    0.08    0.33
  11   0  -3   -0.32    0.25
 -10   0   3    0.27    0.34
 -10   0   3    0.01    0.27
  10   0  -3    0.23    0.24
  10   0  -3    0.14    0.20
  -9   0   3    0.38    0.25
   9   0  -3    0.25    0.21
  -9   0   3    0.52    0.32
   9   0  -3    0.58    0.18
  -8   0   3   32.58    1.29
   8   0  -3   31.37    1.20
   8   0  -3   32.26    1.12
  -8   0   3   32.45    1.17
  -7   0   3    0.45    0.27
  -7   0   3    0.55    0.21
   7   0  -3    0.43    0.18
  -6   0   3  100.99    3.33
   6   0  -3  109.57    4.59
  -6   0   3  102.83    3.36
   6   0  -3  101.99    3.56
  -6   0   3  101.18    3.62
  -5   0   3    1.41    0.24
   5   0  -3    1.37    0.21
  -5   0   3    1.52    0.16
  -5   0   3    1.36    0.20
   5   0  -3    1.61    0.17
   4   0  -3   15.12    0.73
  -4   0   3   14.02    0.58
  -4   0   3   13.39    0.53
   4   0  -3   13.58    0.54
  -4   0   3   13.62    0.51
   3   0  -3    0.82    0.09
   3   0  -3    0.68    0.11
   3   0  -3    0.67    0.19
  -3   0   3    0.52    0.14
  -3   0   3    0.84    0.11
  -3   0   3    0.79    0.15
  -2   0   3   14.23    0.52
   2   0  -3   15.07    0.49
  -2   0   3   15.03    0.55
   2   0  -3   13.81    0.76
  -2   0   3   15.14    0.53
  -2   0   3   14.00    0.52
  -1   0   3    1.04    0.14
  -1   0   3    1.17    0.15
   1   0  -3    0.85    0.22
  -1   0   3    0.87    0.13
   1   0  -3    1.10    0.16
   0   0  -3   29.08    0.89
   0   0   3   26.29    0.97
   0   0   3   28.43    0.88
   0   0  -3   24.58    0.96
   0   0  -3   26.82    1.27
   0   0   3   27.28    0.91
  -1   0  -3   -0.21    0.18
  -1   0  -3    0.23    0.15
   1   0   3    0.09    0.09
  -1   0  -3    0.21    0.14
   1   0   3    0.21    0.10
   1   0   3    0.28    0.08
   2   0   3  249.60    7.67
  -2   0  -3  213.19    8.31
  -2   0  -3  255.64    7.42
   2   0   3  243.46    8.28
   2   0   3  241.79    7.82
  -2   0  -3  256.41   10.66
   3   0   3    0.51    0.11
  -3   0  -3    0.53    0.14
  -3   0  -3    0.39    0.08
  -3   0  -3    0.65    0.26
   3   0   3    0.50    0.10
  -3   0  -3    0.50    0.11
  -4   0  -3  371.05   13.10
   4   0   3  375.16   12.31
   4   0   3  388.80   13.00
  -4   0  -3  395.40   11.69
  -4   0  -3  384.86   12.01
   5   0   3    8.73    0.37
  -5   0  -3    6.80    0.64
   5   0   3    9.10    0.38
  -5   0  -3    8.85    0.37
  -5   0  -3    8.14    0.37
  -6   0  -3  177.94    6.17
   6   0   3  170.82    5.67
  -6   0  -3  175.98    5.57
  -6   0  -3  176.99    5.39
   6   0   3  177.28    5.98
  -7   0  -3   -0.04    0.17
  -7   0  -3    0.64    0.42
   7   0   3    0.01    0.16
  -7   0  -3    0.18    0.13
   7   0   3    0.28    0.16
  -8   0  -3   13.49    0.86
  -8   0  -3   12.10    0.55
   8   0   3   12.04    0.55
   8   0   3   12.90    0.55
   9   0   3   -0.18    0.20
  -9   0  -3    0.31    0.21
  -9   0  -3    0.33    0.46
  10   0   3   56.93    2.01
 -10   0  -3   57.83    1.99
 -10   0  -3   60.91    2.39
 -11  -1   3    0.66    0.36
  11  -1  -3    0.07    0.22
  11  -1  -3    0.35    0.30
 -11  -1   3    0.31    0.31
 -11   1   3    0.77    0.41
  11   1  -3   -0.02    0.28
  11   1  -3    0.23    0.24
 -11   1   3    0.74    0.33
  10  -1  -3    0.69    0.26
 -10  -1   3    1.12    0.36
 -10  -1   3    0.97    0.30
  10  -1  -3    0.89    0.21
 -10   1   3    1.04    0.36
  10   1  -3    0.68    0.26
 -10   1   3    0.71    0.29
  10   1  -3    1.03    0.22
   9  -1  -3    0.86    0.18
  -9  -1   3    0.61    0.26
   9  -1  -3    0.10    0.21
  -9  -1   3    0.61    0.29
  -9   1   3    0.33    0.26
   9   1  -3    0.27    0.17
   9   1  -3    0.00    0.20
  -9   1   3    0.22    0.33
   8  -1  -3    1.69    0.19
  -8  -1   3    1.54    0.30
   8  -1  -3    1.58    0.23
  -8  -1   3    1.90    0.27
   8   1  -3    1.46    0.23
   8   1  -3    1.84    0.20
  -8   1   3    1.45    0.33
  -8   1   3    1.43    0.26
  -7  -1   3    2.58    0.32
   7  -1  -3    2.21    0.23
  -7  -1   3    2.37    0.27
  -7   1   3    2.71    0.35
   7   1  -3    2.65    0.24
  -7   1   3    2.74    0.28
  -6  -1   3    5.40    0.30
  -6  -1   3    4.90    0.42
   6  -1  -3    5.30    0.32
  -6  -1   3    4.85    0.36
   6  -1  -3    5.29    0.37
   6   1  -3    5.96    0.44
   6   1  -3    5.56    0.32
  -6   1   3    5.16    0.29
  -6   1   3    5.46    0.37
  -6   1   3    4.60    0.41
  -5  -1   3    9.35    0.43
  -5  -1   3   10.05    0.40
   5  -1  -3    9.86    0.52
   5  -1  -3    9.33    0.42
  -5  -1   3    9.04    0.48
   5   1  -3    9.96    0.42
  -5   1   3   10.13    0.39
   5   1  -3    9.44    0.59
  -5   1   3    9.53    0.44
  -5   1   3    9.29    0.50
  -4  -1   3    1.32    0.18
   4  -1  -3    1.51    0.15
  -4  -1   3    1.67    0.14
  -4  -1   3    1.34    0.17
   4  -1  -3    1.84    0.23
  -4   1   3    1.43    0.18
   4   1  -3    1.49    0.10
  -4   1   3    1.50    0.19
   4   1  -3    1.22    0.25
  -4   1   3    1.74    0.14
   4   1  -3    1.47    0.16
   3  -1  -3   14.80    0.72
   3  -1  -3   14.86    0.55
  -3  -1   3   15.08    0.52
  -3  -1   3   14.17    0.53
  -3  -1   3   14.77    0.56
  -3  -1   3   15.17    0.57
   3   1  -3   13.54    0.78
  -3   1   3   15.08    0.57
   3   1  -3   14.83    0.47
  -3   1   3   14.18    0.55
  -3   1   3   14.80    0.51
   2  -1  -3   -0.01    0.09
  -2  -1   3    0.01    0.10
  -2  -1   3   -0.01    0.08
   2  -1  -3    0.13    0.13
  -2  -1   3    0.08    0.15
   2  -1  -3    0.03    0.06
  -2  -1   3    0.03    0.11
  -2   1   3   -0.18    0.15
  -2   1   3    0.06    0.09
   2   1  -3    0.22    0.22
  -2   1   3    0.15    0.11
   2   1  -3   -0.11    0.09
   1  -1  -3    7.26    0.27
   1  -1  -3    7.09    0.30
   1  -1  -3    7.64    0.42
  -1  -1   3    7.18    0.39
  -1  -1   3    7.28    0.29
  -1  -1   3    7.64    0.33
   1   1  -3    7.63    0.28
  -1   1   3    7.53    0.31
  -1   1   3    6.90    0.32
   1   1  -3    7.53    0.50
   1   1  -3    7.66    0.32
  -1   1   3    7.21    0.33
   0  -1  -3    1.39    0.16
   0  -1   3    1.08    0.17
   0  -1  -3    1.26    0.22
   0  -1  -3    1.33    0.16
   0  -1   3    1.16    0.16
   0  -1   3    1.17    0.12
   0   1  -3    1.47    0.18
   0   1   3    1.15    0.14
   0   1  -3    1.25    0.16
   0   1   3    1.01    0.14
   0   1   3    1.32    0.14
   0   1  -3    1.21    0.24
   1  -1   3   17.41    0.59
  -1  -1  -3   17.32    0.57
   1  -1   3   17.89    0.55
  -1  -1  -3   16.90    0.78
   1  -1   3   16.82    0.62
   1   1   3   16.97    0.60
   1   1   3   17.39    0.57
  -1   1  -3   15.72    0.65
  -1   1  -3   15.90    0.60
   1   1   3   17.08    0.58
  -2  -1  -3    4.97    0.41
  -2  -1  -3    6.84    0.29
   2  -1   3    7.14    0.28
  -2  -1  -3    6.92    0.34
   2  -1   3    7.03    0.29
  -2   1  -3    7.24    0.26
  -2   1  -3    5.83    0.39
   2   1   3    6.89    0.28
   2   1   3    7.07    0.27
   2   1   3    6.84    0.26
  -2   1  -3    6.23    0.35
  -3  -1  -3    1.49    0.15
  -3  -1  -3    1.35    0.30
   3  -1   3    1.49    0.14
   3  -1   3    1.35    0.15
   3   1   3    1.40    0.13
  -3   1  -3    1.34    0.19
  -3   1  -3    1.50    0.26
   3   1   3    1.49    0.12
  -3   1  -3    1.38    0.12
  -3   1  -3    1.83    0.24
   3   1   3    1.41    0.14
  -4  -1  -3    0.93    0.34
   4  -1   3    0.92    0.13
  -4  -1  -3    1.29    0.15
   4  -1   3    1.10    0.14
  -4  -1  -3    1.01    0.14
  -4   1  -3    0.94    0.19
  -4   1  -3    0.98    0.15
  -4   1  -3    0.77    0.29
  -4   1  -3    1.26    0.13
   4   1   3    1.16    0.14
   4   1   3    1.12    0.12
  -5  -1  -3    1.31    0.18
  -5  -1  -3    0.90    0.40
   5  -1   3    1.23    0.16
   5  -1   3    1.47    0.18
  -5  -1  -3    1.20    0.16
  -5   1  -3    1.17    0.16
  -5   1  -3    0.43    0.30
   5   1   3    1.20    0.14
   5   1   3    1.21    0.16
  -5   1  -3    1.06    0.19
  -6  -1  -3    0.32    0.17
  -6  -1  -3    0.20    0.13
   6  -1   3    0.23    0.17
   6  -1   3    0.33    0.15
  -6  -1  -3    0.23    0.38
   6   1   3    0.12    0.15
  -6   1  -3   -0.15    0.37
  -6   1  -3    0.27    0.16
   6   1   3    0.09    0.14
  -6   1  -3    0.11    0.14
   7  -1   3    0.32    0.17
  -7  -1  -3    0.36    0.18
  -7  -1  -3    0.28    0.14
   7  -1   3    0.40    0.18
  -7  -1  -3    0.68    0.42
   7   1   3    0.34    0.16
  -7   1  -3   -0.11    0.38
  -7   1  -3    0.20    0.15
   7   1   3    0.40    0.17
  -7   1  -3    0.17    0.17
  -8  -1  -3    3.08    0.29
   8  -1   3    3.71    0.31
  -8  -1  -3    3.09    0.50
   8  -1   3    2.82    0.26
  -8   1  -3    2.96    0.52
  -8   1  -3    2.90    0.26
   8   1   3    2.72    0.26
   9  -1   3    1.18    0.24
   9  -1   3    0.79    0.23
  -9  -1  -3    1.12    0.48
  -9  -1  -3    0.79    0.24
  -9   1  -3    1.84    0.53
  -9   1  -3    1.13    0.23
   9   1   3    0.88    0.23
  10  -1   3    1.09    0.27
 -10  -1  -3    1.59    0.30
 -10  -1  -3    1.83    0.54
  10   1   3    1.37    0.28
 -10   1  -3    1.75    0.57
 -10   1  -3    1.10    0.25
  11  -2  -3   -0.10    0.21
  11  -2  -3   -0.28    0.27
 -11   2   3    0.42    0.30
 -11   2   3    0.47    0.39
  11   2  -3   -0.78    0.25
 -10  -2   3    9.96    0.65
  10  -2  -3    8.60    0.52
  10  -2  -3    8.44    0.44
 -10  -2   3    8.87    0.57
  10   2  -3    8.67    0.51
  10   2  -3    8.54    0.47
 -10   2   3    8.76    0.55
 -10   2   3    9.53    0.72
  -9  -2   3    1.02    0.29
   9  -2  -3    0.48    0.17
  -9  -2   3    0.63    0.28
   9  -2  -3    0.25    0.22
  -9   2   3    0.56    0.27
   9   2  -3    0.61    0.19
  -9   2   3    1.03    0.37
   9   2  -3    0.09    0.21
  -8  -2   3    1.22    0.25
   8  -2  -3    1.23    0.17
  -8  -2   3    1.63    0.29
   8  -2  -3    0.82    0.24
   8   2  -3    1.03    0.18
   8   2  -3    1.42    0.22
  -8   2   3    1.96    0.35
  -8   2   3    0.94    0.24
   7  -2  -3    0.24    0.18
  -7  -2   3    0.37    0.21
  -7  -2   3    0.39    0.24
   7  -2  -3    0.29    0.14
  -7   2   3    0.03    0.26
  -7   2   3    0.15    0.21
   7   2  -3    0.29    0.18
  -6  -2   3  349.04   11.81
  -6  -2   3  349.60   11.09
  -6  -2   3  337.41   10.90
   6  -2  -3  353.61   15.16
   6  -2  -3  346.32   11.73
   6   2  -3  355.87   11.73
  -6   2   3  332.52   10.90
  -6   2   3  355.71   11.08
  -6   2   3  333.14   11.82
   5  -2  -3    1.54    0.17
  -5  -2   3    1.41    0.17
  -5  -2   3    1.54    0.23
   5  -2  -3    1.11    0.18
  -5  -2   3    1.44    0.12
  -5  -2   3    1.70    0.21
  -5   2   3    1.14    0.24
  -5   2   3    1.30    0.14
   5   2  -3    1.18    0.28
  -5   2   3    1.09    0.21
   5   2  -3    1.13    0.17
  -4  -2   3   80.23    2.82
  -4  -2   3   79.54    2.64
   4  -2  -3   78.62    2.79
   4  -2  -3   81.33    3.61
  -4  -2   3   83.82    2.49
  -4  -2   3   80.47    2.61
  -4   2   3   76.74    2.62
  -4   2   3   82.71    2.83
   4   2  -3   86.94    3.68
  -4   2   3   82.26    2.63
  -3  -2   3    1.47    0.20
  -3  -2   3    1.67    0.16
  -3  -2   3    1.96    0.19
   3  -2  -3    1.79    0.16
   3  -2  -3    1.69    0.23
  -3  -2   3    1.78    0.16
   3  -2  -3    1.70    0.10
  -3   2   3    1.80    0.20
  -3   2   3    1.91    0.19
  -3   2   3    1.60    0.14
   3   2  -3    1.80    0.12
   3   2  -3    1.48    0.26
  -2  -2   3  296.50   10.53
   2  -2  -3  331.67    9.44
  -2  -2   3  305.32    9.91
  -2  -2   3  306.52    9.73
   2  -2  -3  320.13   10.56
  -2  -2   3  273.51   10.50
   2  -2  -3  328.50   13.72
  -2   2   3  304.59   10.52
  -2   2   3  314.21    9.96
   2   2  -3  320.46    9.47
  -2   2   3  304.01    9.73
  -1  -2   3    3.29    0.15
  -1  -2   3    2.71    0.24
  -1  -2   3    3.18    0.20
   1  -2  -3    3.04    0.15
   1  -2  -3    2.92    0.15
   1  -2  -3    2.98    0.24
   1   2  -3    3.29    0.19
  -1   2   3    2.82    0.20
  -1   2   3    3.57    0.23
  -1   2   3    2.98    0.22
   1   2  -3    3.41    0.18
   0  -2  -3  355.08   12.60
   0  -2  -3  388.34   11.34
   0  -2  -3  386.59   16.27
   0  -2   3  351.21   11.82
   0  -2  -3  391.98   12.50
   0  -2   3  346.42   12.58
   0   2  -3  378.85   11.28
   0   2   3  350.26   11.87
   0   2  -3  393.18   12.61
   0   2   3  352.21   11.62
   1  -2   3    0.94    0.12
  -1  -2  -3    0.82    0.10
  -1  -2  -3    0.68    0.19
  -1  -2  -3    0.85    0.11
   1  -2   3    0.98    0.06
   1  -2   3    1.01    0.12
   1   2   3    1.05    0.12
   1   2   3    0.97    0.11
  -1   2  -3    0.80    0.15
  -1   2  -3    1.03    0.16
   2  -2   3  121.87    3.79
  -2  -2  -3  122.06    3.61
  -2  -2  -3   99.20    4.07
   2  -2   3  120.91    4.01
  -2   2  -3  128.03    3.70
  -2   2  -3  109.09    3.63
   2   2   3  119.65    3.72
  -2   2  -3  112.30    4.05
   2   2   3  120.64    3.97
   2   2   3  121.97    3.78
   3  -2   3    1.74    0.16
   3  -2   3    1.62    0.15
  -3  -2  -3    1.49    0.14
  -3  -2  -3    1.24    0.30
   3   2   3    1.87    0.11
  -3   2  -3    1.53    0.25
   3   2   3    1.91    0.16
  -3   2  -3    1.50    0.21
  -3   2  -3    1.70    0.13
   3   2   3    1.65    0.15
  -4  -2  -3   57.69    1.77
   4  -2   3   58.04    1.85
  -4  -2  -3   54.41    2.10
   4  -2   3   55.30    1.96
   4   2   3   57.52    1.83
  -4   2  -3   57.86    1.81
   4   2   3   57.81    1.93
  -4   2  -3   50.74    2.04
  -4   2  -3   58.14    1.82
   4   2   3   56.43    1.85
  -5  -2  -3    5.01    0.52
   5  -2   3    5.43    0.32
   5  -2   3    6.06    0.30
  -5  -2  -3    6.01    0.30
  -5   2  -3    5.35    0.48
  -5   2  -3    6.18    0.30
   5   2   3    6.01    0.31
  -5   2  -3    6.46    0.37
   5   2   3    6.16    0.28
  -6  -2  -3    0.98    0.34
   6  -2   3    0.39    0.15
  -6  -2  -3    0.21    0.13
  -6  -2  -3    0.62    0.19
   6  -2   3    0.43    0.18
  -6   2  -3    0.51    0.35
  -6   2  -3   -0.12    0.18
  -6   2  -3    0.43    0.15
   6   2   3    0.42    0.16
   7  -2   3    0.31    0.18
   7  -2   3    0.20    0.18
  -7  -2  -3    0.23    0.19
  -7  -2  -3    0.25    0.40
  -7  -2  -3    0.43    0.14
   7   2   3    0.26    0.17
  -7   2  -3    0.21    0.16
  -7   2  -3    0.00    0.38
   8  -2   3  110.07    3.67
  -8  -2  -3  117.91    4.11
   8  -2   3  112.64    3.88
  -8  -2  -3  109.24    3.63
  -8   2  -3  111.95    4.08
  -8   2  -3  113.27    3.61
   8   2   3  110.31    3.68
   9  -2   3   -0.14    0.22
   9  -2   3   -0.16    0.22
  -9  -2  -3   -0.21    0.46
  -9   2  -3    0.17    0.21
   9   2   3   -0.18    0.21
  -9   2  -3   -0.21    0.46
  10  -2   3   23.67    0.96
 -10  -2  -3   24.67    1.31
  10  -2   3   22.03    0.92
 -10   2  -3   24.37    1.28
  10   2   3   22.70    0.92
  11  -3  -3    0.39    0.23
 -11   3   3    0.72    0.31
 -11   3   3    1.33    0.45
 -10  -3   3    2.31    0.36
 -10  -3   3    2.22    0.39
  10  -3  -3    1.68    0.31
  10  -3  -3    1.79    0.24
 -10   3   3    1.74    0.43
  10   3  -3    2.01    0.27
 -10   3   3    2.45    0.35
  10   3  -3    1.80    0.28
  -9  -3   3    0.02    0.27
   9  -3  -3    0.14    0.16
  -9  -3   3    0.49    0.30
   9  -3  -3    0.22    0.24
  -9   3   3    0.06    0.25
   9   3  -3    0.36    0.18
   9   3  -3    0.05    0.20
  -9   3   3    0.19    0.33
  -8  -3   3    0.47    0.28
   8  -3  -3    0.21    0.15
   8  -3  -3    0.27    0.21
  -8  -3   3    0.40    0.24
  -8   3   3    0.37    0.31
   8   3  -3    0.45    0.19
  -8   3   3    0.51    0.24
   8   3  -3    0.37    0.17
   7  -3  -3   12.84    0.57
  -7  -3   3   12.33    0.58
   7  -3  -3   12.97    0.51
  -7  -3   3   12.83    0.64
  -7   3   3   12.93    0.67
  -7   3   3   13.45    0.60
   7   3  -3   13.28    0.57
  -6  -3   3   11.70    0.56
  -6  -3   3   11.71    0.49
  -6  -3   3   11.82    0.42
  -6  -3   3   11.85    0.55
   6  -3  -3   11.62    0.52
  -6   3   3   12.17    0.54
   6   3  -3   11.46    0.53
  -6   3   3   11.50    0.61
   6   3  -3   12.30    0.77
  -5  -3   3    0.12    0.10
  -5  -3   3    0.24    0.14
  -5  -3   3    0.22    0.18
  -5  -3   3    0.02    0.20
   5  -3  -3    0.08    0.15
   5   3  -3   -0.07    0.15
   5   3  -3   -0.05    0.25
  -5   3   3   -0.12    0.12
  -5   3   3   -0.28    0.22
  -5   3   3   -0.03    0.19
  -4  -3   3    0.79    0.11
   4  -3  -3    1.10    0.15
  -4  -3   3    1.25    0.14
  -4  -3   3    1.03    0.16
  -4  -3   3    0.98    0.18
  -4  -3   3    0.89    0.20
   4  -3  -3    0.64    0.16
  -4   3   3    1.11    0.23
  -4   3   3    1.01    0.09
  -4   3   3    0.85    0.12
  -4   3   3    1.11    0.21
   3  -3  -3   49.77    1.74
  -3  -3   3   47.92    1.79
  -3  -3   3   50.96    1.63
   3  -3  -3   50.32    2.26
  -3  -3   3   50.08    1.65
  -3  -3   3   51.98    1.77
   3  -3  -3   50.48    1.55
  -3  -3   3   51.60    1.57
  -3   3   3   49.89    1.64
  -3   3   3   50.71    1.79
  -3   3   3   50.06    1.67
   2  -3  -3    4.10    0.18
   2  -3  -3    4.01    0.30
   2  -3  -3    4.12    0.21
  -2  -3   3    3.99    0.36
  -2  -3   3    4.33    0.22
  -2  -3   3    4.17    0.21
   2   3  -3    4.16    0.20
  -2   3   3    4.32    0.29
  -2   3   3    4.65    0.29
   2   3  -3    4.34    0.23
  -2   3   3    4.13    0.19
  -1  -3   3    2.78    0.27
   1  -3  -3    2.66    0.15
   1  -3  -3    2.72    0.15
  -1  -3   3    2.62    0.18
   1  -3  -3    2.93    0.24
  -1  -3   3    2.98    0.14
  -1   3   3    2.89    0.18
   1   3  -3    2.58    0.19
   1   3  -3    2.81    0.17
  -1   3   3    3.23    0.25
  -1   3   3    3.03    0.24
   0  -3  -3    0.36    0.10
   0  -3   3    0.42    0.15
   0  -3   3    0.43    0.13
   0  -3  -3    0.38    0.06
   0   3   3    0.45    0.18
   0   3   3    0.31    0.15
   0   3  -3    0.65    0.13
   0   3   3    0.37    0.12
   0   3  -3    0.52    0.14
  -1  -3  -3    1.02    0.11
  -1  -3  -3    1.48    0.24
   1  -3   3    1.42    0.15
   1  -3   3    1.10    0.13
   1   3   3    1.56    0.16
  -1   3  -3    1.23    0.16
   1   3   3    1.25    0.11
  -1   3  -3    1.19    0.18
  -2  -3  -3    0.74    0.24
   2  -3   3    0.44    0.13
   2  -3   3    0.51    0.11
  -2  -3  -3    0.62    0.11
  -2   3  -3    0.80    0.17
  -2   3  -3    0.71    0.07
  -2   3  -3    0.66    0.19
   2   3   3    0.65    0.13
   2   3   3    0.70    0.11
  -3  -3  -3   -0.01    0.11
  -3  -3  -3    0.20    0.28
   3  -3   3    0.18    0.13
   3  -3   3   -0.10    0.11
   3   3   3    0.18    0.12
  -3   3  -3    0.08    0.08
  -3   3  -3    0.10    0.21
   3   3   3    0.12    0.13
  -3   3  -3   -0.06    0.17
   4  -3   3    0.61    0.16
  -4  -3  -3    0.57    0.13
   4  -3   3    0.75    0.15
  -4  -3  -3    0.68    0.36
   4   3   3    0.58    0.08
   4   3   3    0.63    0.14
  -4   3  -3    0.31    0.27
   4   3   3    0.53    0.16
  -4   3  -3    0.53    0.11
  -4   3  -3    0.66    0.23
   5  -3   3    0.17    0.17
  -5  -3  -3    0.31    0.14
  -5  -3  -3    0.25    0.39
   5  -3   3    0.29    0.14
  -5   3  -3   -0.08    0.24
  -5   3  -3    0.48    0.13
   5   3   3    0.35    0.16
   5   3   3    0.37    0.16
  -5   3  -3    0.22    0.33
  -6  -3  -3   -0.27    0.37
   6  -3   3    0.19    0.17
   6  -3   3    0.16    0.16
  -6  -3  -3    0.39    0.13
  -6   3  -3    0.00    0.20
   6   3   3    0.29    0.16
  -6   3  -3    0.49    0.30
   6   3   3    0.50    0.16
  -6   3  -3    0.36    0.14
  -7  -3  -3    1.94    0.45
   7  -3   3    1.73    0.23
  -7  -3  -3    1.87    0.18
   7  -3   3    1.66    0.22
  -7   3  -3    1.65    0.20
   7   3   3    1.75    0.22
   7   3   3    1.40    0.21
  -7   3  -3    1.79    0.42
   8  -3   3    1.73    0.25
   8  -3   3    2.10    0.23
  -8  -3  -3    1.64    0.49
  -8   3  -3    1.49    0.44
   8   3   3    2.03    0.25
   8   3   3    1.94    0.24
  -8   3  -3    2.06    0.22
  -9  -3  -3    0.48    0.49
   9  -3   3   -0.12    0.22
   9  -3   3    0.01    0.22
   9   3   3   -0.27    0.22
   9   3   3    0.34    0.21
  -9   3  -3    0.10    0.49
  10  -3   3    3.11    0.32
  10  -3   3    4.19    0.38
  10   3   3    3.23    0.35
 -10  -4   3    0.57    0.33
  10  -4  -3    0.07    0.28
 -10  -4   3    0.55    0.32
  10  -4  -3    0.45    0.21
 -10   4   3    1.40    0.31
  10   4  -3    0.28    0.22
 -10   4   3    0.13    0.38
  -9  -4   3   -0.34    0.26
  -9  -4   3   -0.27    0.28
   9  -4  -3   -0.11    0.17
   9  -4  -3   -0.20    0.25
  -9   4   3   -0.11    0.25
  -9   4   3   -0.37    0.34
   9   4  -3   -0.16    0.20
   9   4  -3    0.15    0.19
  -8  -4   3   37.08    1.42
   8  -4  -3   36.15    1.25
   8  -4  -3   33.63    1.35
  -8  -4   3   37.91    1.33
  -8   4   3   36.58    1.30
  -8   4   3   38.38    1.49
   8   4  -3   35.48    1.27
   8   4  -3   36.83    1.34
  -7  -4   3    0.02    0.23
   7  -4  -3   -0.15    0.19
  -7  -4   3   -0.04    0.21
   7  -4  -3   -0.01    0.12
  -7   4   3   -0.04    0.20
  -7   4   3   -0.56    0.29
   7   4  -3   -0.05    0.14
   7   4  -3   -0.04    0.17
  -6  -4   3   72.06    2.40
  -6  -4   3   73.82    2.40
  -6  -4   3   73.61    2.59
   6  -4  -3   71.52    2.54
   6  -4  -3   74.80    2.38
  -6  -4   3   72.59    2.26
   6   4  -3   72.55    2.54
  -6   4   3   71.07    2.40
   6   4  -3   73.07    3.35
  -6   4   3   73.54    2.62
   5  -4  -3    1.86    0.21
  -5  -4   3    1.59    0.18
  -5  -4   3    1.74    0.15
  -5  -4   3    1.75    0.24
  -5  -4   3    1.94    0.23
  -5   4   3    1.67    0.25
  -5   4   3    1.86    0.30
   4  -4  -3   11.90    0.50
  -4  -4   3   11.79    0.49
  -4  -4   3   11.79    0.43
  -4  -4   3   12.38    0.55
  -4  -4   3   11.68    0.46
  -4  -4   3   12.50    0.55
  -4   4   3   11.72    0.60
  -4   4   3   10.84    0.53
  -4   4   3   12.10    0.43
  -3  -4   3    0.37    0.14
  -3  -4   3    0.35    0.11
   3  -4  -3    0.55    0.13
  -3  -4   3    0.44    0.11
   3  -4  -3    0.36    0.10
  -3  -4   3    0.41    0.22
  -3  -4   3    0.48    0.16
  -3   4   3    0.54    0.21
  -3   4   3    0.25    0.23
  -3   4   3    0.46    0.09
  -2  -4   3    8.13    0.33
  -2  -4   3    8.72    0.33
   2  -4  -3    8.16    0.31
   2  -4  -3    8.63    0.34
  -2  -4   3    8.12    0.46
   2   4  -3    8.03    0.37
  -2   4   3    8.23    0.30
  -2   4   3    8.94    0.41
  -2   4   3    8.45    0.43
  -1  -4   3    0.17    0.10
  -1  -4   3    0.13    0.19
   1  -4  -3    0.05    0.09
   1  -4  -3    0.04    0.08
   1   4  -3    0.05    0.08
   1   4  -3   -0.01    0.10
  -1   4   3    0.03    0.16
  -1   4   3    0.21    0.18
   1   4  -3    0.13    0.13
  -1   4   3    0.11    0.08
   0  -4   3   34.04    1.23
   0  -4   3   34.24    1.14
   0  -4  -3   34.52    1.17
   0  -4  -3   32.77    1.08
   0   4  -3   32.83    1.09
   0   4   3   35.77    1.15
   0   4   3   33.99    1.27
   0   4  -3   34.79    1.23
   0   4   3   33.64    1.13
  -1  -4  -3    0.09    0.10
   1  -4   3    0.12    0.14
   1  -4   3    0.15    0.11
  -1  -4  -3    0.11    0.22
   1   4   3    0.02    0.14
   1   4   3    0.34    0.10
  -1   4  -3    0.17    0.17
  -1   4  -3    0.24    0.13
  -2  -4  -3  136.95    4.25
   2  -4   3  135.65    4.73
   2  -4   3  140.57    4.46
  -2  -4  -3  129.38    4.82
  -2   4  -3  142.35    4.29
  -2   4  -3  141.76    4.34
  -2   4  -3  139.54    4.78
   2   4   3  138.79    4.40
   2   4   3  142.17    4.45
   3  -4   3   -0.07    0.13
  -3  -4  -3   -0.04    0.31
  -3  -4  -3   -0.11    0.12
   3  -4   3    0.09    0.15
   3   4   3    0.03    0.15
   3   4   3   -0.01    0.12
  -3   4  -3    0.10    0.25
  -3   4  -3    0.01    0.21
  -3   4  -3   -0.03    0.08
  -4  -4  -3  252.21    7.48
   4  -4   3  241.71    8.32
   4  -4   3  251.56    7.86
  -4  -4  -3  226.77    8.46
  -4   4  -3  240.21    8.42
  -4   4  -3  255.72    7.69
   4   4   3  242.01    7.73
  -4   4  -3  236.82    7.52
   4   4   3  256.80    7.86
  -5  -4  -3   10.94    0.74
   5  -4   3   11.55    0.45
  -5  -4  -3   11.19    0.44
   5  -4   3   10.95    0.50
  -5   4  -3   10.68    0.65
   5   4   3   11.93    0.47
  -5   4  -3   11.61    0.43
   5   4   3   10.79    0.49
  -5   4  -3   10.62    0.53
   6  -4   3  166.71    5.87
  -6  -4  -3  174.57    5.27
   6  -4   3  172.08    5.54
  -6  -4  -3  169.85    6.05
   6   4   3  176.02    5.55
   6   4   3  167.02    5.47
  -6   4  -3  180.08    5.32
  -6   4  -3  165.94    6.01
  -7  -4  -3    0.19    0.14
   7  -4   3   -0.13    0.16
   7  -4   3    0.15    0.19
  -7  -4  -3   -0.14    0.40
   7   4   3   -0.05    0.19
   7   4   3    0.09    0.19
  -7   4  -3   -0.25    0.37
   8  -4   3    6.07    0.39
   8  -4   3    5.39    0.36
  -8  -4  -3    6.63    0.64
   8   4   3    6.06    0.40
  -8   4  -3    5.92    0.60
   8   4   3    5.11    0.37
   9  -4   3   -0.28    0.22
   9  -4   3    0.81    0.26
  -9  -4  -3    0.20    0.48
  -9   4  -3    0.75    0.49
   9   4   3   -0.16    0.24
   9   4   3    0.27    0.25
  10  -4   3   41.62    1.48
 -10  -5   3    0.37    0.35
  10  -5  -3   -0.10    0.29
 -10   5   3    0.33    0.28
 -10   5   3    0.94    0.42
  10   5  -3   -0.10    0.21
   9  -5  -3    0.82    0.28
  -9  -5   3    1.41    0.33
  -9  -5   3    1.02    0.32
  -9   5   3    1.57    0.41
  -9   5   3    1.17    0.29
   9   5  -3    1.29    0.24
  -8  -5   3    1.35    0.30
   8  -5  -3    1.29    0.27
  -8  -5   3    1.68    0.31
   8   5  -3    1.53    0.25
   8   5  -3    1.88    0.22
  -8   5   3    1.59    0.37
  -8   5   3    1.73    0.29
  -7  -5   3   -0.20    0.24
   7  -5  -3   -0.12    0.20
  -7  -5   3   -0.11    0.24
   7   5  -3    0.29    0.15
  -7   5   3   -0.22    0.22
   7   5  -3    0.15    0.18
  -7   5   3    0.35    0.33
   6  -5  -3    1.28    0.22
  -6  -5   3    1.32    0.24
  -6  -5   3    1.10    0.14
  -6  -5   3    1.09    0.24
   6   5  -3    1.41    0.30
  -6   5   3    0.89    0.22
   6   5  -3    1.04    0.19
  -6   5   3    1.64    0.33
  -5  -5   3   17.69    0.68
  -5  -5   3   17.08    0.60
  -5  -5   3   17.19    0.63
  -5  -5   3   17.19    0.74
  -5  -5   3   17.09    0.71
   5  -5  -3   16.52    0.68
  -5   5   3   17.11    0.71
  -5   5   3   17.26    0.79
  -4  -5   3    5.63    0.41
   4  -5  -3    5.62    0.32
   4  -5  -3    5.80    0.26
  -4  -5   3    5.12    0.35
   4  -5  -3    5.43    0.24
  -4  -5   3    5.51    0.29
  -4  -5   3    4.97    0.38
  -4  -5   3    5.52    0.27
  -4   5   3    5.55    0.46
  -4   5   3    5.53    0.43
   3  -5  -3    0.46    0.12
  -3  -5   3    0.50    0.12
  -3  -5   3    0.53    0.14
   3  -5  -3    0.59    0.15
  -3  -5   3    0.51    0.26
  -3   5   3    0.37    0.26
  -3   5   3    0.48    0.09
   3   5  -3    0.29    0.16
  -3   5   3    0.18    0.25
   2  -5  -3    0.51    0.13
  -2  -5   3    0.19    0.26
  -2  -5   3    0.49    0.11
   2  -5  -3    0.46    0.12
  -2   5   3    0.52    0.25
  -2   5   3    0.38    0.22
   2   5  -3    0.72    0.18
   2   5  -3    0.55    0.13
  -2   5   3    0.51    0.07
   1  -5  -3   19.44    0.67
  -1  -5   3   19.41    0.68
  -1  -5   3   20.01    0.80
   1  -5  -3   19.81    0.72
  -1   5   3   20.23    0.83
   1   5  -3   20.57    0.68
   1   5  -3   19.43    0.68
  -1   5   3   19.67    0.65
   1   5  -3   20.00    0.78
  -1   5   3   20.21    0.75
   0  -5   3    3.18    0.22
   0  -5  -3    3.20    0.22
   0  -5  -3    3.32    0.19
   0  -5   3    3.38    0.29
   0   5  -3    3.59    0.29
   0   5   3    3.42    0.31
   0   5  -3    3.49    0.24
   0   5   3    3.92    0.38
   0   5   3    3.70    0.22
   0   5  -3    3.58    0.17
  -1  -5  -3   19.80    0.69
   1  -5   3   20.49    0.71
   1  -5   3   20.25    0.77
  -1   5  -3   19.90    0.70
   1   5   3   19.05    0.86
  -1   5  -3   20.76    0.81
   1   5   3   20.04    0.69
   1   5   3   20.30    0.75
  -2  -5  -3    9.07    0.60
   2  -5   3    8.60    0.37
  -2  -5  -3    9.25    0.37
   2  -5   3    9.13    0.43
  -2   5  -3    9.37    0.42
  -2   5  -3    9.00    0.50
   2   5   3    8.96    0.43
   2   5   3    9.70    0.36
   3  -5   3    3.13    0.29
  -3  -5  -3    3.43    0.24
   3  -5   3    3.28    0.23
  -3  -5  -3    3.42    0.44
   3   5   3    3.55    0.29
  -3   5  -3    3.02    0.34
   3   5   3    3.73    0.23
  -3   5  -3    3.64    0.31
   4  -5   3    0.77    0.19
   4  -5   3    0.66    0.15
  -4  -5  -3    1.02    0.15
  -4  -5  -3    1.03    0.37
   4   5   3    0.73    0.19
  -4   5  -3    0.84    0.25
   4   5   3    1.04    0.16
  -4   5  -3    0.84    0.31
  -5  -5  -3    1.53    0.17
   5  -5   3    1.22    0.21
  -5  -5  -3    1.53    0.41
   5  -5   3    1.38    0.17
  -5   5  -3    1.01    0.33
  -5   5  -3    1.19    0.26
   5   5   3    1.65    0.22
   5   5   3    1.60    0.18
  -6  -5  -3    0.18    0.39
   6  -5   3    0.08    0.16
   6  -5   3    0.06    0.19
  -6  -5  -3    0.13    0.15
   6   5   3   -0.03    0.16
   6   5   3   -0.04    0.19
  -6   5  -3    0.16    0.34
  -6   5  -3   -0.30    0.24
  -7  -5  -3    0.47    0.16
   7  -5   3   -0.50    0.16
  -7  -5  -3   -0.37    0.42
   7  -5   3   -0.05    0.21
  -7   5  -3    0.03    0.38
   7   5   3   -0.02    0.20
   7   5   3   -0.16    0.17
  -8  -5  -3    2.42    0.53
  -8  -5  -3    2.25    0.23
   8  -5   3    2.45    0.29
   8   5   3    2.64    0.30
   8   5   3    2.26    0.27
  -8   5  -3    2.54    0.52
  -9  -5  -3    2.76    0.58
   9  -5   3    3.07    0.33
  -9   5  -3    2.29    0.55
   9   5   3    2.08    0.31
   9   5   3    2.26    0.32
 -10   6   3   15.15    0.70
  10   6  -3   12.88    0.64
  -9  -6   3    1.29    0.34
   9  -6  -3    1.63    0.31
  -9  -6   3    1.31    0.35
  -9   6   3    1.94    0.31
  -9   6   3    2.22    0.47
   9   6  -3    1.79    0.25
   8  -6  -3    0.49    0.25
  -8  -6   3    0.54    0.31
  -8  -6   3    0.37    0.29
   8   6  -3    0.59    0.19
  -8   6   3    0.54    0.38
  -8   6   3    0.76    0.26
   7  -6  -3    1.04    0.24
  -7  -6   3    1.27    0.29
  -7  -6   3    0.98    0.29
  -7   6   3    0.94    0.35
  -7   6   3    1.21    0.24
   7   6  -3    1.35    0.19
   6  -6  -3  202.32    7.01
  -6  -6   3  210.72    7.08
  -6  -6   3  214.35    6.55
  -6  -6   3  202.58    6.28
   6   6  -3  199.64    7.01
  -6   6   3  207.69    7.12
  -6   6   3  198.56    6.53
   6   6  -3  204.49    6.61
  -5  -6   3   -0.02    0.20
  -5  -6   3    0.18    0.21
  -5  -6   3    0.00    0.14
  -5  -6   3   -0.02    0.13
   5  -6  -3    0.06    0.19
  -5   6   3    0.05    0.22
  -5   6   3    0.36    0.32
   4  -6  -3   52.98    1.84
  -4  -6   3   53.63    1.66
   4  -6  -3   50.64    1.64
  -4  -6   3   53.79    1.89
  -4  -6   3   51.75    1.72
  -4   6   3   51.58    1.78
   4   6  -3   52.46    1.72
   4   6  -3   50.44    1.88
  -4   6   3   52.25    1.94
  -3  -6   3    1.22    0.14
   3  -6  -3    0.99    0.15
  -3  -6   3    1.12    0.28
   3  -6  -3    0.93    0.18
  -3  -6   3    1.00    0.17
  -3   6   3    1.02    0.29
   3   6  -3    1.03    0.19
  -3   6   3    1.48    0.32
   3   6  -3    1.10    0.22
  -2  -6   3  160.59    5.06
   2  -6  -3  162.17    4.84
  -2  -6   3  147.89    5.44
   2  -6  -3  161.29    5.37
   2   6  -3  157.44    4.99
   2   6  -3  155.67    5.43
  -2   6   3  161.50    5.04
  -2   6   3  154.36    5.48
  -1  -6   3    3.49    0.20
   1  -6  -3    3.61    0.23
   1  -6  -3    3.36    0.21
  -1  -6   3    3.31    0.32
  -1   6   3    3.44    0.32
   1   6  -3    3.73    0.25
   1   6  -3    3.98    0.34
  -1   6   3    3.88    0.38
   0  -6  -3  248.31    8.39
   0  -6   3  242.84    8.44
   0  -6  -3  253.15    7.57
   0   6  -3  257.57    8.48
   0   6   3  244.24    7.84
   0   6   3  238.15    8.52
   0   6  -3  249.51    7.58
  -1  -6  -3    2.80    0.21
   1  -6   3    2.94    0.27
   1   6   3    3.16    0.37
   1   6   3    2.85    0.29
  -1   6  -3    3.22    0.32
  -1   6  -3    3.23    0.26
   2  -6   3   37.67    1.34
  -2  -6  -3   36.01    1.20
   2   6   3   36.81    1.28
  -2   6  -3   37.19    1.40
  -2   6  -3   36.04    1.23
  -3  -6  -3    4.80    0.28
   3  -6   3    4.67    0.32
  -3  -6  -3    4.47    0.48
   3   6   3    4.99    0.35
   3   6   3    5.02    0.26
  -3   6  -3    5.53    0.39
  -3   6  -3    5.43    0.46
  -4  -6  -3   15.14    0.56
   4  -6   3   15.14    0.64
  -4  -6  -3   13.90    0.85
   4   6   3   15.45    0.56
   4   6   3   14.41    0.62
  -4   6  -3   14.79    0.75
  -4   6  -3   15.44    0.64
  -5  -6  -3    0.44    0.16
   5  -6   3    0.44    0.20
  -5  -6  -3    1.00    0.43
  -5   6  -3    0.29    0.25
   5   6   3    0.56    0.22
  -5   6  -3    0.15    0.31
   5   6   3    0.45    0.17
  -6  -6  -3    7.21    0.65
   6  -6   3    8.16    0.44
  -6  -6  -3    7.58    0.38
  -6   6  -3    7.12    0.49
  -6   6  -3    7.72    0.67
   6   6   3    7.58    0.39
   6   6   3    8.18    0.45
  -7  -6  -3    1.75    0.49
  -7  -6  -3    1.60    0.21
   7  -6   3    1.81    0.27
   7   6   3    1.50    0.24
   7   6   3    1.39    0.27
  -7   6  -3    1.73    0.44
   8  -6   3   56.12    2.02
  -8  -6  -3   55.55    2.27
  -8  -6  -3   55.69    1.79
   8   6   3   52.13    1.91
   8   6   3   56.55    1.90
  -8   6  -3   54.04    2.20
   9   6   3    0.11    0.27
  -9   7   3   -0.22    0.41
  -8  -7   3    0.01    0.31
   8  -7  -3    0.60    0.26
  -8   7   3   -0.33    0.38
  -8   7   3    0.58    0.27
   8   7  -3    0.65    0.26
   7  -7  -3    8.69    0.52
  -7  -7   3    9.63    0.59
  -7   7   3    9.92    0.70
  -7   7   3   10.01    0.50
   7   7  -3    8.91    0.51
   6  -7  -3    6.47    0.40
  -6  -7   3    6.86    0.35
  -6   7   3    7.52    0.46
  -6   7   3    7.42    0.60
   6   7  -3    6.42    0.42
  -5  -7   3   -0.32    0.21
   5  -7  -3    0.26    0.20
  -5  -7   3    0.08    0.16
   5   7  -3   -0.12    0.21
  -5   7   3    0.06    0.33
   5   7  -3    0.31    0.20
  -5   7   3    0.06    0.24
  -4  -7   3    1.17    0.27
   4  -7  -3    1.13    0.20
  -4  -7   3    0.83    0.18
  -4   7   3    1.08    0.28
   4   7  -3    1.01    0.21
   4   7  -3    0.88    0.22
  -4   7   3    1.24    0.34
  -3  -7   3   29.71    1.18
  -3  -7   3   30.78    1.01
   3  -7  -3   29.22    0.99
   3  -7  -3   29.46    1.09
   3   7  -3   29.97    1.15
  -3   7   3   29.85    1.12
  -3   7   3   30.85    1.23
  -2  -7   3    1.42    0.31
   2  -7  -3    1.84    0.18
   2  -7  -3    1.57    0.17
   2   7  -3    1.93    0.25
  -2   7   3    1.32    0.32
  -2   7   3    2.02    0.29
  -1  -7   3    4.38    0.38
   1  -7  -3    3.95    0.28
  -1   7   3    4.17    0.35
   1   7  -3    4.39    0.35
   1   7  -3    4.11    0.28
  -1   7   3    4.37    0.41
   0  -7  -3    0.26    0.15
   0  -7   3    0.50    0.22
   0   7  -3    0.47    0.23
   0   7   3    0.48    0.31
   0   7   3    0.33    0.24
   0   7  -3    0.52    0.17
   1  -7   3    0.45    0.19
  -1  -7  -3    0.22    0.14
   1   7   3    0.10    0.23
  -1   7  -3    0.13    0.16
  -1   7  -3    0.14    0.23
   1   7   3    0.68    0.31
  -2  -7  -3   -0.06    0.14
   2  -7   3    0.29    0.19
  -2   7  -3    0.02    0.24
   2   7   3    0.16    0.25
  -2   7  -3    0.01    0.18
   2   7   3    0.34    0.31
  -3  -7  -3    0.58    0.16
   3  -7   3    0.46    0.21
   3   7   3   -0.06    0.22
  -3   7  -3    0.25    0.28
  -3   7  -3    0.22    0.23
  -4  -7  -3    0.35    0.39
   4  -7   3    0.57    0.20
  -4  -7  -3    0.08    0.16
   4   7   3    0.63    0.24
  -4   7  -3    0.30    0.26
  -4   7  -3    0.34    0.32
  -5  -7  -3   -0.36    0.38
  -5  -7  -3    0.20    0.16
   5  -7   3    0.26    0.20
   5   7   3   -0.11    0.24
  -5   7  -3   -0.19    0.25
  -5   7  -3   -0.09    0.35
  -6  -7  -3    0.14    0.17
   6  -7   3    0.31    0.22
  -6  -7  -3    0.09    0.46
  -6   7  -3    0.17    0.36
   6   7   3   -0.24    0.25
  -7  -7  -3    1.43    0.23
   7  -7   3    1.67    0.28
  -7  -7  -3    1.32    0.52
  -7   7  -3    2.01    0.49
   7   7   3    1.29    0.30
  -8  -7  -3    1.63    0.23
  -8  -7  -3    1.11    0.56
   8  -7   3    1.62    0.30
  -8   7  -3    1.56    0.52
   8   7   3    1.13    0.31
   8  -8  -3   32.12    1.28
  -8   8   3   33.21    1.46
   7  -8  -3    0.19    0.25
  -7   8   3   -0.19    0.45
   7   8  -3    0.30    0.27
   6  -8  -3   34.58    1.27
  -6  -8   3   33.62    1.14
   6   8  -3   31.92    1.32
  -6   8   3   33.28    1.23
  -6   8   3   34.95    1.45
   5  -8  -3    1.46    0.24
  -5  -8   3    1.42    0.21
  -5   8   3    1.70    0.29
  -5   8   3    1.92    0.41
   5   8  -3    1.64    0.28
   4  -8  -3    8.31    0.42
  -4  -8   3    8.29    0.40
   4   8  -3    8.58    0.51
  -4   8   3    8.12    0.63
  -4   8   3    7.90    0.52
   3  -8  -3    0.31    0.16
  -3  -8   3    0.18    0.27
   3  -8  -3    0.04    0.15
   3   8  -3    0.09    0.21
  -3   8   3    0.17    0.28
  -3   8   3    0.05    0.33
   2  -8  -3    2.96    0.23
  -2  -8   3    3.55    0.37
  -2   8   3    2.90    0.34
   2   8  -3    2.47    0.31
  -2   8   3    2.86    0.40
   2   8  -3    2.81    0.24
   1  -8  -3    0.07    0.16
  -1  -8   3    0.32    0.26
  -1   8   3    0.19    0.27
   1   8  -3   -0.05    0.15
  -1   8   3    0.18    0.31
   1   8  -3   -0.17    0.23
   0  -8  -3   34.64    1.17
   0  -8   3   35.64    1.33
   0   8   3   36.38    1.29
   0   8   3   35.00    1.44
   0   8  -3   35.04    1.35
   0   8  -3   34.32    1.18
  -1  -8  -3    1.40    0.20
   1  -8   3    1.57    0.26
   1   8   3    1.90    0.38
  -1   8  -3    1.89    0.22
  -1   8  -3    1.50    0.29
   1   8   3    1.67    0.31
   2  -8   3   40.10    1.49
  -2  -8  -3   40.19    1.33
  -2   8  -3   39.69    1.36
   2   8   3   40.52    1.63
  -2   8  -3   40.21    1.55
   2   8   3   41.65    1.45
  -3  -8  -3    1.33    0.19
   3  -8   3    1.50    0.25
  -3   8  -3    1.48    0.27
  -3   8  -3    1.59    0.34
   3   8   3    1.15    0.31
   3   8   3    1.62    0.38
   4  -8   3   85.60    3.03
  -4  -8  -3   83.86    2.71
  -4   8  -3   89.28    3.13
  -4   8  -3   88.14    2.78
   4   8   3   86.25    2.85
   4   8   3   82.32    3.16
  -5  -8  -3   12.04    0.50
   5  -8   3   11.99    0.58
  -5  -8  -3   10.80    0.83
   5   8   3   11.14    0.61
  -5   8  -3   10.71    0.75
  -5   8  -3   11.71    0.62
  -6  -8  -3  137.58    4.88
   6  -8   3  134.53    4.66
  -6  -8  -3  132.92    4.18
  -6   8  -3  133.49    4.80
   6   8   3  131.74    4.37
   7  -8   3    1.53    0.29
  -7  -8  -3    1.32    0.22
  -7  -8  -3    0.47    0.52
   7   8   3    0.87    0.32
  -7   8  -3    1.41    0.47
   7  -9  -3    0.42    0.25
  -7   9   3   -0.35    0.48
   7   9  -3    0.45    0.29
   6  -9  -3    1.39    0.27
  -6  -9   3    1.10    0.23
   6   9  -3    1.29    0.32
  -6   9   3    0.95    0.46
  -5  -9   3    4.03    0.31
   5  -9  -3    4.61    0.38
   5   9  -3    4.58    0.42
  -5   9   3    4.47    0.54
   4  -9  -3    1.43    0.23
   4   9  -3    1.62    0.30
  -4   9   3    1.10    0.41
   3  -9  -3    0.80    0.20
   3   9  -3    0.76    0.27
  -3   9   3    0.86    0.31
  -3   9   3    1.00    0.39
   3   9  -3    1.05    0.20
   2  -9  -3    0.18    0.17
  -2  -9   3    0.22    0.30
  -2   9   3    0.13    0.36
   2   9  -3    0.33    0.19
   2   9  -3    0.01    0.24
  -2   9   3    0.04    0.30
  -1  -9   3    7.07    0.50
   1  -9  -3    5.48    0.36
   1   9  -3    5.98    0.36
  -1   9   3    6.69    0.52
   1   9  -3    6.34    0.49
  -1   9   3    5.61    0.55
   0  -9  -3    0.41    0.18
   0  -9   3    0.75    0.27
   0   9   3    0.77    0.31
   0   9  -3    0.35    0.19
   0   9   3    0.40    0.36
   0   9  -3    0.38    0.27
  -1  -9  -3    4.15    0.31
   1  -9   3    5.68    0.43
  -1   9  -3    4.70    0.36
  -1   9  -3    4.60    0.42
   1   9   3    4.31    0.49
   1   9   3    4.64    0.43
  -2  -9  -3    3.09    0.26
   2  -9   3    2.98    0.32
  -2   9  -3    3.67    0.31
  -2   9  -3    2.85    0.38
   2   9   3    2.32    0.37
   2   9   3    2.84    0.46
   3  -9   3    0.97    0.26
  -3  -9  -3    1.03    0.20
   3   9   3    0.95    0.35
  -3   9  -3    0.92    0.34
   3   9   3    0.61    0.41
  -3   9  -3    0.80    0.26
  -4  -9  -3   -0.11    0.18
   4  -9   3    0.55    0.26
  -4   9  -3   -0.29    0.37
   4   9   3   -0.58    0.32
  -4   9  -3    0.33    0.29
   4   9   3    0.12    0.41
  -5  -9  -3    0.55    0.22
   5  -9   3    1.07    0.27
  -5   9  -3    0.86    0.42
   5   9   3    0.66    0.36
  -5   9  -3    1.27    0.34
   5   9   3    0.70    0.42
  -6  -9  -3   -0.02    0.19
   6  -9   3    0.46    0.27
  -6   9  -3   -0.09    0.40
   6   9   3   -0.20    0.32
   6   9   3    0.93    0.41
   6  10  -3   88.02    3.19
  -5  10   3    0.14    0.44
   5  10  -3   -0.21    0.29
   4  10  -3   25.23    1.15
  -4  10   3   27.31    1.29
   4  10  -3   28.85    1.00
  -3  10   3    0.53    0.44
   3  10  -3    0.52    0.21
   3  10  -3    0.55    0.30
   2 -10  -3   62.09    2.03
   2  10  -3   63.62    2.05
  -2  10   3   63.34    2.43
   2  10  -3   61.62    2.32
   1 -10  -3    1.93    0.24
   1  10  -3    2.08    0.36
  -1  10   3    2.09    0.47
   1  10  -3    2.19    0.27
   0 -10  -3  125.61    3.96
   0 -10   3  127.64    4.45
   0  10  -3  126.50    3.98
   0  10   3  127.84    4.57
   0  10   3  123.57    4.15
   0  10  -3  128.25    4.47
  -1 -10  -3    2.72    0.26
   1 -10   3    2.37    0.33
   1  10   3    2.42    0.41
   1  10   3    2.37    0.47
  -1  10  -3    2.06    0.39
  -1  10  -3    2.49    0.29
   2 -10   3    8.94    0.54
  -2 -10  -3    7.88    0.45
  -2  10  -3    7.32    0.47
   2  10   3    8.04    0.77
   2  10   3    8.42    0.63
  -2  10  -3    8.04    0.61
   3 -10   3    3.96    0.37
  -3 -10  -3    3.71    0.31
   3  10   3    4.17    0.55
  -3  10  -3    4.15    0.48
   3  10   3    3.39    0.46
  -3  10  -3    3.71    0.38
  -4 -10  -3    2.67    0.28
   4 -10   3    3.14    0.34
  -4  10  -3    2.81    0.47
  -4  10  -3    2.29    0.37
   4  10   3    2.68    0.43
   4  10   3    2.55    0.49
   5  10   3    0.31    0.38
   4  11  -3   -0.21    0.31
  -3  11   3    5.34    0.66
   3  11  -3    5.05    0.47
   3  11  -3    5.51    0.43
   2 -11  -3   -0.12    0.22
   2  11  -3   -0.25    0.23
   2  11  -3   -0.22    0.30
  -2  11   3   -0.14    0.45
   1 -11  -3    0.22    0.23
  -1  11   3    0.03    0.45
   1  11  -3    0.07    0.31
   1  11  -3    0.39    0.25
   0 -11  -3    0.10    0.22
   0  11  -3   -0.29    0.31
   0  11   3   -0.40    0.45
   0  11  -3    0.11    0.23
  -1 -11  -3    0.82    0.24
   1 -11   3    1.67    0.34
   1  11   3    1.01    0.47
  -1  11  -3    1.05    0.37
  -1  11  -3    1.33    0.28
   2 -11   3    0.30    0.30
  -2 -11  -3    0.39    0.23
   2  11   3    0.26    0.45
  -2  11  -3    0.28    0.38
  -2  11  -3    0.45    0.27
   3 -11   3    0.44    0.29
  -3  11  -3   -0.26    0.27
 -11   0   4    0.07    0.31
  11   0  -4   -0.15    0.21
  11   0  -4   -0.30    0.29
  10   0  -4   56.32    1.93
 -10   0   4   56.69    1.98
 -10   0   4   57.26    2.15
  10   0  -4   56.39    2.07
  -9   0   4   -0.05    0.25
  -9   0   4    0.76    0.30
   9   0  -4    0.56    0.17
   9   0  -4    0.44    0.22
  -8   0   4    8.87    0.54
   8   0  -4    8.55    0.47
  -8   0   4    8.78    0.51
  -7   0   4    0.32    0.16
   7   0  -4    0.38    0.20
  -7   0   4    0.53    0.25
   7   0  -4    0.52    0.19
  -7   0   4    0.34    0.21
  -6   0   4   12.59    0.61
  -6   0   4   12.41    0.57
   6   0  -4   12.82    0.55
   6   0  -4   14.21    0.73
  -6   0   4   12.06    0.51
  -5   0   4   -0.08    0.19
   5   0  -4   -0.06    0.15
   5   0  -4   -0.01    0.21
  -5   0   4   -0.04    0.18
  -5   0   4    0.00    0.13
  -4   0   4   37.25    1.35
  -4   0   4   43.49    1.27
   4   0  -4   37.51    1.77
   4   0  -4   36.44    1.34
  -4   0   4   33.80    1.26
   3   0  -4    2.09    0.27
   3   0  -4    3.05    0.19
  -3   0   4    3.17    0.24
  -3   0   4    3.13    0.20
  -3   0   4    2.80    0.19
   3   0  -4    2.81    0.22
  -2   0   4  244.32    8.23
  -2   0   4  243.16    8.23
  -2   0   4  252.43    7.64
   2   0  -4  241.99   10.69
   2   0  -4  244.91    7.39
  -2   0   4  229.79    7.78
  -1   0   4    1.41    0.18
  -1   0   4    1.26    0.18
   1   0  -4    1.26    0.24
  -1   0   4    1.21    0.14
   1   0  -4    1.66    0.18
   0   0   4  593.18   21.83
   0   0  -4  694.58   28.44
   0   0  -4  692.68   19.75
   0   0   4  614.52   20.24
   0   0   4  614.43   20.71
   0   0  -4  653.36   21.91
   1   0   4    4.92    0.21
  -1   0  -4    4.88    0.29
   1   0   4    4.86    0.25
  -1   0  -4    4.44    0.36
   1   0   4    5.07    0.25
  -1   0  -4    4.44    0.32
  -2   0  -4  487.44   13.85
  -2   0  -4  439.90   15.49
   2   0   4  433.06   15.45
  -2   0  -4  477.94   20.00
   2   0   4  444.33   14.67
   2   0   4  444.25   14.33
   3   0   4    0.71    0.11
  -3   0  -4    0.39    0.27
  -3   0  -4    0.54    0.12
  -3   0  -4    0.82    0.17
   3   0   4    0.85    0.11
   3   0   4    0.84    0.12
   4   0   4   64.88    2.15
  -4   0  -4   61.05    2.40
  -4   0  -4   69.70    2.08
   4   0   4   66.99    2.26
  -5   0  -4    0.97    0.16
   5   0   4    0.84    0.17
  -5   0  -4    1.03    0.41
   5   0   4    1.00    0.15
  -5   0  -4    0.59    0.19
  -6   0  -4  100.29    3.88
   6   0   4  109.25    3.53
  -6   0  -4  111.36    3.36
  -6   0  -4  109.68    3.46
   6   0   4  109.42    3.71
  -7   0  -4    0.78    0.17
  -7   0  -4    0.82    0.20
   7   0   4    0.53    0.17
   7   0   4    0.46    0.18
  -7   0  -4    0.69    0.41
   8   0   4   27.83    1.02
  -8   0  -4   27.44    1.01
  -8   0  -4   29.19    1.34
   9   0   4   -0.08    0.23
  -9   0  -4   -0.09    0.47
  -9   0  -4    0.15    0.22
  11  -1  -4   -0.07    0.30
 -11  -1   4    0.15    0.32
  11  -1  -4    0.39    0.23
  11   1  -4   -0.05    0.22
 -11   1   4   -0.27    0.32
  11   1  -4   -0.14    0.28
 -10  -1   4    3.47    0.39
  10  -1  -4    3.62    0.35
  10  -1  -4    3.71    0.31
 -10   1   4    3.34    0.39
  10   1  -4    3.33    0.33
 -10   1   4    2.93    0.42
  10   1  -4    3.73    0.32
  -9  -1   4    0.55    0.27
   9  -1  -4    1.28    0.19
  -9  -1   4    1.45    0.30
   9  -1  -4    1.30    0.25
  -9   1   4    1.16    0.34
  -9   1   4    1.57    0.29
   9   1  -4    1.11    0.24
   9   1  -4    1.02    0.19
  -8  -1   4    4.96    0.41
  -8  -1   4    4.82    0.42
   8  -1  -4    5.07    0.35
  -8   1   4    5.05    0.42
  -8   1   4    4.97    0.47
   8   1  -4    5.28    0.38
  -7  -1   4   10.30    0.52
  -7  -1   4    9.85    0.54
   7  -1  -4   10.67    0.49
   7  -1  -4   10.84    0.60
  -7  -1   4   10.35    0.46
  -7   1   4   10.14    0.57
   7   1  -4   10.49    0.50
  -7   1   4    9.98    0.52
   7   1  -4   11.51    0.66
  -7   1   4   10.35    0.46
   6  -1  -4    4.16    0.30
   6  -1  -4    4.82    0.39
  -6  -1   4    4.92    0.36
  -6  -1   4    3.88    0.37
  -6  -1   4    4.56    0.29
  -6   1   4    3.90    0.34
   6   1  -4    4.39    0.50
  -6   1   4    4.12    0.36
  -6   1   4    4.47    0.27
   6   1  -4    4.05    0.31
   5  -1  -4   14.91    0.75
  -5  -1   4   14.40    0.55
  -5  -1   4   13.93    0.58
  -5  -1   4   14.60    0.60
   5  -1  -4   14.72    0.58
   5   1  -4   14.75    0.48
   5   1  -4   15.33    0.60
  -5   1   4   14.84    0.54
  -5   1   4   13.99    0.59
   5   1  -4   12.82    0.83
  -5   1   4   14.08    0.63
  -4  -1   4    4.08    0.25
   4  -1  -4    4.68    0.35
  -4  -1   4    4.02    0.27
   4  -1  -4    4.20    0.25
  -4  -1   4    4.24    0.24
   4   1  -4    4.24    0.28
  -4   1   4    4.04    0.22
   4   1  -4    4.28    0.20
  -4   1   4    4.27    0.30
  -4   1   4    3.75    0.27
   4   1  -4    3.50    0.43
  -3  -1   4    0.86    0.18
   3  -1  -4    0.92    0.07
  -3  -1   4    0.87    0.13
  -3  -1   4    0.72    0.14
   3  -1  -4    0.83    0.13
   3  -1  -4    0.84    0.18
  -3  -1   4    0.73    0.10
   3   1  -4    0.93    0.12
  -3   1   4    0.74    0.13
  -3   1   4    0.69    0.17
  -3   1   4    0.68    0.12
   3   1  -4    0.68    0.25
  -2  -1   4    6.69    0.37
  -2  -1   4    6.64    0.31
   2  -1  -4    7.11    0.26
   2  -1  -4    6.89    0.42
  -2  -1   4    7.13    0.30
   2  -1  -4    6.93    0.31
  -2   1   4    7.26    0.29
  -2   1   4    6.64    0.30
  -2   1   4    7.36    0.34
   2   1  -4    6.31    0.51
   2   1  -4    7.44    0.29
  -1  -1   4   14.33    0.67
  -1  -1   4   16.51    0.58
   1  -1  -4   16.75    0.83
  -1  -1   4   15.74    0.61
   1  -1  -4   16.83    0.56
  -1   1   4   16.18    0.62
  -1   1   4   16.61    0.61
  -1   1   4   16.87    0.61
  -1   1   4   16.27    0.59
   1   1  -4   16.18    0.59
   1   1  -4   16.96    0.88
   0  -1  -4    0.55    0.14
   0  -1  -4    0.70    0.13
   0  -1   4    0.48    0.15
   0  -1   4    0.64    0.09
   0  -1  -4    0.68    0.13
   0  -1   4    0.72    0.14
   0   1   4    0.75    0.13
   0   1  -4    0.65    0.12
   0   1  -4    0.59    0.22
   0   1   4    0.66    0.12
   0   1  -4    0.81    0.16
   0   1   4    0.69    0.13
   1  -1   4    1.35    0.11
  -1  -1  -4    1.30    0.20
  -1  -1  -4    1.33    0.15
   1  -1   4    1.48    0.15
   1  -1   4    1.53    0.14
  -1  -1  -4    1.71    0.20
   1   1   4    1.48    0.13
  -1   1  -4    1.38    0.18
  -1   1  -4    1.19    0.20
  -1   1  -4    1.23    0.22
   1   1   4    1.29    0.14
   1   1   4    1.64    0.14
  -2  -1  -4   -0.03    0.22
   2  -1   4    0.04    0.07
  -2  -1  -4    0.07    0.13
   2  -1   4    0.15    0.11
  -2  -1  -4   -0.07    0.09
   2  -1   4    0.08    0.11
   2   1   4   -0.01    0.11
   2   1   4    0.11    0.08
  -2   1  -4   -0.07    0.17
   2   1   4    0.12    0.10
  -2   1  -4   -0.07    0.18
  -2   1  -4    0.07    0.19
  -3  -1  -4   -0.10    0.13
   3  -1   4   -0.04    0.11
  -3  -1  -4   -0.18    0.26
   3  -1   4   -0.05    0.10
  -3  -1  -4    0.00    0.08
  -3   1  -4    0.39    0.20
   3   1   4    0.04    0.10
  -3   1  -4    0.10    0.22
   3   1   4    0.12    0.11
  -3   1  -4    0.02    0.16
   3   1   4    0.04    0.08
   4  -1   4    3.32    0.23
  -4  -1  -4    3.53    0.26
  -4  -1  -4    3.10    0.41
   4  -1   4    3.47    0.24
  -4   1  -4    3.59    0.22
   4   1   4    3.61    0.20
   4   1   4    3.76    0.24
  -4   1  -4    2.85    0.37
   4   1   4    3.48    0.22
  -4   1  -4    3.49    0.27
  -4   1  -4    2.75    0.29
  -5  -1  -4    7.11    0.64
   5  -1   4    6.85    0.34
   5  -1   4    6.88    0.35
  -5  -1  -4    7.19    0.34
  -5   1  -4    6.73    0.61
  -5   1  -4    6.67    0.39
  -5   1  -4    7.17    0.33
   5   1   4    6.99    0.34
   5   1   4    6.59    0.35
   5   1   4    6.96    0.32
   6  -1   4    2.05    0.20
  -6  -1  -4    1.90    0.18
   6  -1   4    1.86    0.20
  -6  -1  -4    1.93    0.42
   6   1   4    1.95    0.17
  -6   1  -4    1.54    0.40
  -6   1  -4    1.56    0.21
  -6   1  -4    1.84    0.19
   6   1   4    1.67    0.20
   7  -1   4    0.72    0.19
  -7  -1  -4    1.32    0.46
  -7  -1  -4    1.16    0.18
   7  -1   4    1.15    0.19
  -7   1  -4    1.34    0.20
   7   1   4    0.85    0.19
  -7   1  -4    0.98    0.19
  -7   1  -4    1.29    0.43
   8  -1   4    3.67    0.32
  -8  -1  -4    3.35    0.54
   8  -1   4    5.09    0.33
  -8   1  -4    4.43    0.56
   8   1   4    4.46    0.36
  -8   1  -4    4.30    0.34
  -9  -1  -4    4.90    0.62
   9  -1   4    4.53    0.36
  -9   1  -4    5.09    0.38
   9   1   4    4.46    0.39
  -9   1  -4    5.04    0.62
  10  -1   4    1.12    0.30
 -10   1  -4    0.53    0.25
  10   1   4    1.65    0.25
  11  -2  -4    0.10    0.22
  11  -2  -4   -0.26    0.30
 -11   2   4    0.04    0.31
  11   2  -4   -0.17    0.27
  10  -2  -4  136.71    4.74
  10  -2  -4  134.54    4.46
 -10  -2   4  136.46    4.47
  10   2  -4  136.24    4.73
 -10   2   4  138.37    4.84
 -10   2   4  137.20    4.46
  10   2  -4  134.65    4.47
  -9  -2   4    0.41    0.26
   9  -2  -4    0.19    0.17
  -9  -2   4    0.39    0.27
   9  -2  -4    0.26    0.23
   9   2  -4    0.36    0.18
  -9   2   4    0.43    0.30
  -9   2   4    0.16    0.25
   9   2  -4    0.22    0.21
  -8  -2   4   34.71    1.33
   8  -2  -4   34.34    1.29
  -8  -2   4   33.78    1.25
   8  -2  -4   34.86    1.20
   8   2  -4   33.69    1.29
  -8   2   4   34.32    1.25
  -8   2   4   36.02    1.36
   7  -2  -4    0.89    0.18
   7  -2  -4    0.62    0.19
  -7  -2   4    1.00    0.19
  -7  -2   4    0.61    0.22
  -7  -2   4    0.81    0.23
   7   2  -4    0.64    0.27
  -7   2   4    1.00    0.17
  -7   2   4    0.86    0.23
   7   2  -4    0.88    0.20
  -7   2   4    0.70    0.25
  -6  -2   4  150.04    5.01
   6  -2  -4  144.59    4.97
  -6  -2   4  149.36    4.70
   6  -2  -4  151.07    6.42
  -6  -2   4  142.54    4.64
  -6   2   4  138.55    5.02
   6   2  -4  151.88    4.99
  -6   2   4  148.92    4.69
  -6   2   4  138.73    4.64
   6   2  -4  135.43    6.48
  -5  -2   4    0.44    0.20
  -5  -2   4    0.50    0.17
   5  -2  -4    0.65    0.19
   5  -2  -4    0.40    0.15
  -5  -2   4    0.57    0.15
  -5   2   4    0.53    0.22
   5   2  -4    0.57    0.28
   5   2  -4    0.25    0.18
  -5   2   4    0.63    0.13
  -5   2   4    0.67    0.22
   5   2  -4    0.56    0.10
   4  -2  -4  226.07    7.66
  -4  -2   4  225.36    7.25
  -4  -2   4  216.84    7.12
   4  -2  -4  224.16    6.84
   4  -2  -4  234.44    9.93
  -4  -2   4  231.41    7.69
  -4  -2   4  215.71    7.69
   4   2  -4  222.59    6.87
  -4   2   4  216.91    7.71
  -4   2   4  225.53    7.14
  -4   2   4  229.88    7.24
   4   2  -4  239.84    9.99
  -3  -2   4    4.22    0.24
  -3  -2   4    4.14    0.22
   3  -2  -4    4.35    0.33
  -3  -2   4    4.42    0.32
   3  -2  -4    4.21    0.17
  -3  -2   4    4.35    0.24
   3  -2  -4    4.00    0.23
  -3   2   4    4.64    0.26
  -3   2   4    4.33    0.31
   3   2  -4    4.78    0.45
   3   2  -4    4.10    0.20
  -3   2   4    4.33    0.22
   2  -2  -4  124.71    4.11
  -2  -2   4  120.73    3.82
   2  -2  -4  127.84    5.34
  -2  -2   4  114.85    3.90
  -2  -2   4  112.91    4.16
   2  -2  -4  126.14    3.69
  -2   2   4  120.32    3.90
   2   2  -4  120.88    5.40
  -2   2   4  121.75    4.14
   2   2  -4  120.45    4.11
   2   2  -4  119.01    3.70
  -1  -2   4    0.19    0.19
   1  -2  -4    0.17    0.14
  -1  -2   4    0.22    0.14
  -1  -2   4    0.26    0.08
   1  -2  -4    0.15    0.08
   1  -2  -4    0.18    0.08
  -1   2   4    0.11    0.12
   1   2  -4    0.15    0.08
  -1   2   4    0.14    0.15
  -1   2   4    0.25    0.14
   1   2  -4    0.27    0.13
   0  -2  -4   43.58    1.37
   0  -2  -4   43.62    1.55
   0  -2  -4   43.80    1.50
   0  -2  -4   44.30    1.97
   0  -2   4   45.78    1.39
   0  -2   4   42.18    1.45
   0  -2   4   41.96    1.54
   0   2  -4   43.76    1.53
   0   2   4   44.02    1.43
   0   2   4   44.13    1.45
   0   2  -4   45.05    1.40
  -1  -2  -4    2.11    0.22
   1  -2   4    2.26    0.20
   1  -2   4    2.28    0.12
  -1  -2  -4    2.21    0.18
   1  -2   4    2.22    0.20
  -1  -2  -4    2.15    0.25
  -1   2  -4    2.81    0.24
   1   2   4    2.52    0.13
   1   2   4    2.60    0.20
   1   2   4    2.36    0.19
  -1   2  -4    2.32    0.21
   2  -2   4   17.18    0.60
  -2  -2  -4   15.04    0.73
  -2  -2  -4   15.91    0.58
   2  -2   4   16.18    0.64
  -2  -2  -4   16.67    0.79
   2  -2   4   17.06    0.55
  -2   2  -4   17.66    0.69
  -2   2  -4   15.51    0.63
   2   2   4   17.22    0.60
   2   2   4   16.43    0.60
   2   2   4   16.75    0.60
  -3  -2  -4    0.89    0.30
   3  -2   4    0.60    0.14
  -3  -2  -4    0.46    0.13
   3  -2   4    0.42    0.14
  -3   2  -4    0.05    0.20
   3   2   4    0.61    0.13
  -3   2  -4    0.67    0.23
  -3   2  -4    0.56    0.10
   3   2   4    0.57    0.08
   3   2   4    0.68    0.13
  -4  -2  -4  164.13    4.89
   4  -2   4  160.42    5.13
   4  -2   4  159.06    5.42
  -4  -2  -4  141.29    5.55
   4   2   4  162.72    5.39
  -4   2  -4  155.19    5.53
  -4   2  -4  164.17    4.93
   4   2   4  162.04    5.13
  -4   2  -4  162.19    5.02
   4   2   4  159.88    5.04
  -5  -2  -4    1.25    0.17
   5  -2   4    1.21    0.18
  -5  -2  -4    1.10    0.41
   5  -2   4    1.09    0.19
  -5   2  -4    0.91    0.35
  -5   2  -4    1.13    0.25
   5   2   4    1.20    0.19
  -5   2  -4    1.42    0.16
   5   2   4    1.37    0.18
  -6  -2  -4   67.66    2.18
  -6  -2  -4   68.62    2.61
   6  -2   4   68.99    2.42
   6  -2   4   68.53    2.29
   6   2   4   70.71    2.27
  -6   2  -4   64.92    2.57
   6   2   4   68.87    2.30
  -6   2  -4   73.31    2.25
  -6   2  -4   73.24    2.22
   7  -2   4   -0.11    0.16
  -7  -2  -4   -0.21    0.40
  -7  -2  -4    0.29    0.15
   7  -2   4    0.39    0.18
  -7   2  -4   -0.06    0.15
  -7   2  -4    0.24    0.40
   7   2   4    0.23    0.17
   7   2   4    0.03    0.18
  -7   2  -4   -0.02    0.18
   8  -2   4  113.52    3.82
   8  -2   4  117.04    4.03
  -8  -2  -4  119.75    4.27
   8   2   4  115.41    3.83
  -8   2  -4  114.45    4.24
  -8   2  -4  116.90    3.75
   8   2   4  119.20    3.77
   9  -2   4    0.52    0.24
   9  -2   4    1.19    0.25
  -9  -2  -4    0.81    0.51
   9   2   4    1.07    0.24
  -9   2  -4    0.00    0.49
   9   2   4    0.70    0.26
  11  -3  -4    0.45    0.23
  10  -3  -4    5.68    0.47
 -10  -3   4    6.02    0.52
  10  -3  -4    6.50    0.37
 -10   3   4    6.16    0.50
  10   3  -4    7.05    0.41
 -10   3   4    6.28    0.56
  10   3  -4    5.67    0.46
  -9  -3   4    0.65    0.29
   9  -3  -4    0.39    0.24
   9  -3  -4    0.58    0.18
   9   3  -4    0.63    0.19
   9   3  -4    0.35    0.23
  -9   3   4    0.58    0.27
  -9   3   4    0.29    0.31
  -8  -3   4    0.52    0.25
  -8  -3   4    0.44    0.27
   8  -3  -4    0.57    0.22
   8  -3  -4    0.84    0.16
  -8   3   4    0.83    0.27
  -8   3   4    1.15    0.32
   8   3  -4    0.82    0.22
  -7  -3   4   28.45    1.11
  -7  -3   4   29.67    1.06
  -7  -3   4   29.13    1.03
   7  -3  -4   27.94    1.08
   7   3  -4   29.61    1.10
  -7   3   4   29.22    1.07
  -7   3   4   27.53    1.15
   6  -3  -4    9.46    0.57
  -6  -3   4   10.17    0.50
  -6  -3   4   10.19    0.48
   6  -3  -4    9.55    0.46
  -6  -3   4    9.75    0.43
  -6   3   4    9.61    0.40
   6   3  -4    9.77    0.70
   6   3  -4   10.41    0.49
  -6   3   4    9.41    0.50
  -6   3   4    9.89    0.55
   5  -3  -4    0.33    0.18
  -5  -3   4    0.34    0.15
  -5  -3   4    0.29    0.18
  -5  -3   4    0.33    0.19
   5  -3  -4    0.38    0.16
   5   3  -4    0.35    0.10
  -5   3   4    0.42    0.23
   5   3  -4    0.28    0.28
  -5   3   4    0.38    0.13
  -5   3   4    0.09    0.23
   4  -3  -4    0.02    0.13
  -4  -3   4    0.46    0.22
   4  -3  -4    0.23    0.17
  -4  -3   4    0.02    0.15
  -4  -3   4    0.12    0.14
   4  -3  -4    0.12    0.07
  -4  -3   4    0.30    0.14
  -4   3   4    0.04    0.21
   4   3  -4    0.10    0.25
   4   3  -4    0.10    0.10
  -4   3   4    0.02    0.20
  -4   3   4    0.04    0.11
  -3  -3   4    2.10    0.17
  -3  -3   4    2.18    0.25
   3  -3  -4    1.70    0.20
  -3  -3   4    2.25    0.19
  -3  -3   4    2.45    0.18
   3  -3  -4    2.09    0.18
   3  -3  -4    2.38    0.13
  -3   3   4    2.44    0.21
  -3   3   4    2.24    0.25
   3   3  -4    2.11    0.16
  -3   3   4    2.08    0.15
  -2  -3   4    0.48    0.13
  -2  -3   4    0.52    0.22
   2  -3  -4    0.41    0.15
   2  -3  -4    0.60    0.10
   2  -3  -4    0.51    0.08
  -2  -3   4    0.61    0.11
  -2   3   4    0.62    0.12
  -2   3   4    0.79    0.16
  -2   3   4    0.44    0.18
   2   3  -4    0.56    0.11
   2   3  -4    0.57    0.11
  -1  -3   4    4.00    0.32
   1  -3  -4    3.59    0.19
  -1  -3   4    3.71    0.25
   1  -3  -4    3.58    0.18
  -1  -3   4    3.71    0.17
   1  -3  -4    3.67    0.30
   1   3  -4    3.99    0.22
  -1   3   4    3.85    0.25
  -1   3   4    3.74    0.27
   1   3  -4    3.88    0.24
  -1   3   4    4.00    0.27
   0  -3   4    0.37    0.14
   0  -3   4    0.14    0.15
   0  -3  -4    0.18    0.12
   0  -3  -4    0.18    0.05
   0  -3  -4    0.04    0.09
   0   3   4    0.33    0.15
   0   3  -4    0.22    0.14
   0   3   4   -0.04    0.12
   0   3  -4    0.36    0.13
   1  -3   4    0.40    0.13
  -1  -3  -4    0.26    0.21
   1  -3   4   -0.01    0.13
  -1  -3  -4    0.21    0.11
  -1   3  -4    0.43    0.15
   1   3   4    0.21    0.14
   1   3   4    0.21    0.12
  -1   3  -4    0.14    0.16
  -2  -3  -4    0.18    0.25
   2  -3   4    0.37    0.05
  -2  -3  -4    0.24    0.12
   2  -3   4    0.10    0.13
   2  -3   4    0.38    0.14
  -2   3  -4    0.24    0.19
   2   3   4    0.23    0.13
   2   3   4    0.21    0.12
  -2   3  -4    0.40    0.18
   3  -3   4    1.20    0.17
  -3  -3  -4    0.89    0.33
   3  -3   4    1.39    0.17
  -3  -3  -4    1.36    0.16
  -3   3  -4    1.67    0.24
   3   3   4    1.32    0.17
  -3   3  -4    1.23    0.26
  -3   3  -4    1.60    0.13
   3   3   4    1.69    0.16
   4  -3   4    1.86    0.20
   4  -3   4    2.13    0.19
  -4  -3  -4    1.85    0.18
  -4  -3  -4    1.40    0.40
  -4   3  -4    2.29    0.18
  -4   3  -4    1.77    0.27
   4   3   4    1.84    0.20
  -4   3  -4    1.49    0.33
   4   3   4    1.73    0.18
  -5  -3  -4    0.62    0.39
  -5  -3  -4    0.75    0.16
   5  -3   4    0.72    0.17
   5  -3   4    0.53    0.17
   5   3   4    0.51    0.18
   5   3   4    0.81    0.19
  -5   3  -4    0.86    0.33
  -5   3  -4    0.79    0.24
  -5   3  -4    0.76    0.13
   6  -3   4    6.15    0.36
   6  -3   4    5.33    0.33
  -6  -3  -4    4.86    0.56
  -6  -3  -4    5.62    0.30
  -6   3  -4    5.54    0.40
   6   3   4    5.95    0.33
  -6   3  -4    5.19    0.49
  -6   3  -4    6.02    0.30
   6   3   4    5.82    0.35
   7  -3   4    6.00    0.38
  -7  -3  -4    6.56    0.34
  -7  -3  -4    6.99    0.64
   7  -3   4    6.82    0.38
   7   3   4    6.51    0.38
   7   3   4    7.05    0.39
  -7   3  -4    6.57    0.59
  -8  -3  -4    0.67    0.49
   8  -3   4    1.07    0.22
  -8  -3  -4    1.13    0.19
   8  -3   4    0.97    0.22
   8   3   4    0.66    0.22
   8   3   4    0.92    0.23
  -8   3  -4    0.91    0.46
   9  -3   4    0.49    0.24
   9  -3   4    0.17    0.23
  -9  -3  -4    0.91    0.50
   9   3   4    0.14    0.24
   9   3   4   -0.19    0.25
  -9   3  -4    0.20    0.49
  10  -3   4    3.13    0.33
  10  -4  -4   42.92    1.66
 -10  -4   4   44.38    1.63
 -10   4   4   45.43    1.60
 -10   4   4   43.49    1.77
  10   4  -4   43.11    1.54
  -9  -4   4    0.89    0.31
   9  -4  -4    0.69    0.18
   9  -4  -4    0.38    0.25
   9   4  -4    0.60    0.24
  -9   4   4    0.81    0.37
   9   4  -4    0.79    0.20
  -9   4   4    0.49    0.27
   8  -4  -4    7.97    0.47
   8  -4  -4    8.55    0.39
  -8  -4   4    8.94    0.51
  -8  -4   4    8.56    0.51
  -8   4   4    7.92    0.50
   8   4  -4    8.35    0.45
   8   4  -4    8.70    0.41
  -8   4   4    7.95    0.60
  -7  -4   4    0.28    0.18
  -7  -4   4    0.22    0.23
  -7  -4   4    0.45    0.23
   7  -4  -4    0.35    0.13
   7  -4  -4    0.26    0.20
  -7   4   4    0.16    0.27
   7   4  -4    0.20    0.20
  -7   4   4    0.27    0.23
  -6  -4   4    8.65    0.47
   6  -4  -4    8.09    0.43
  -6  -4   4    8.99    0.40
  -6  -4   4    8.83    0.45
   6   4  -4    8.79    0.65
  -6   4   4    8.52    0.50
   6   4  -4    7.95    0.45
  -6   4   4    9.23    0.52
  -6   4   4    8.59    0.37
  -5  -4   4    0.07    0.19
  -5  -4   4    0.12    0.22
   5  -4  -4    0.16    0.18
  -5  -4   4    0.14    0.15
  -5  -4   4   -0.21    0.18
  -5   4   4    0.27    0.26
  -5   4   4    0.30    0.25
  -5   4   4   -0.02    0.12
   5   4  -4    0.02    0.28
   4  -4  -4   38.59    1.24
  -4  -4   4   40.74    1.43
   4  -4  -4   39.15    1.40
  -4  -4   4   40.83    1.33
  -4  -4   4   39.44    1.47
  -4  -4   4   39.32    1.33
   4   4  -4   39.46    1.26
  -4   4   4   39.46    1.47
  -4   4   4   39.94    1.31
  -4   4   4   39.13    1.38
   3  -4  -4    0.52    0.14
  -3  -4   4    0.58    0.15
   3  -4  -4    0.47    0.10
  -3  -4   4    0.58    0.14
  -3  -4   4    0.50    0.26
  -3   4   4    0.32    0.24
   3   4  -4    0.54    0.12
   3   4  -4    0.39    0.14
  -3   4   4    0.30    0.10
  -3   4   4    0.48    0.22
  -2  -4   4  127.66    4.75
   2  -4  -4  142.91    4.21
  -2  -4   4  136.16    4.44
   2  -4  -4  136.95    4.67
  -2  -4   4  139.63    4.34
  -2   4   4  139.11    4.75
   2   4  -4  137.73    4.22
   2   4  -4  138.06    4.71
  -2   4   4  139.10    4.39
  -2   4   4  137.87    4.41
   1  -4  -4    3.49    0.19
  -1  -4   4    3.45    0.23
   1  -4  -4    3.53    0.20
  -1  -4   4    3.56    0.33
   1   4  -4    3.83    0.17
   1   4  -4    4.03    0.23
  -1   4   4    3.76    0.23
   1   4  -4    4.12    0.24
  -1   4   4    3.62    0.30
  -1   4   4    4.39    0.34
   0  -4  -4  412.19   13.59
   0  -4   4  380.28   12.84
   0  -4  -4  409.32   12.28
   0  -4   4  389.93   13.60
   0   4   4  399.19   12.61
   0   4   4  384.65   12.85
   0   4  -4  415.44   12.23
   0   4  -4  430.23   13.65
   0   4   4  392.04   13.68
   1  -4   4    8.55    0.41
   1  -4   4    8.09    0.36
  -1  -4  -4    8.05    0.50
  -1  -4  -4    8.34    0.35
   1   4   4    8.18    0.40
  -1   4  -4    8.81    0.42
  -1   4  -4    9.08    0.41
   1   4   4    8.37    0.36
  -2  -4  -4  366.93   13.42
   2  -4   4  390.24   12.56
   2  -4   4  385.15   13.30
  -2  -4  -4  390.56   11.95
   2   4   4  386.83   12.34
  -2   4  -4  411.65   13.38
   2   4   4  394.04   12.55
  -2   4  -4  414.72   11.99
   3  -4   4    0.05    0.16
  -3  -4  -4    0.35    0.34
  -3  -4  -4   -0.04    0.13
   3  -4   4   -0.13    0.15
   3   4   4    0.08    0.15
  -3   4  -4    0.06    0.21
   3   4   4    0.13    0.14
  -3   4  -4    0.11    0.25
   4  -4   4   33.66    1.22
   4  -4   4   35.53    1.14
  -4  -4  -4   31.54    1.40
  -4  -4  -4   32.90    1.10
   4   4   4   34.97    1.14
   4   4   4   33.48    1.15
  -4   4  -4   32.41    1.32
  -4   4  -4   32.48    1.17
  -5  -4  -4    1.82    0.19
  -5  -4  -4    2.06    0.44
   5  -4   4    1.83    0.22
   5  -4   4    2.05    0.20
  -5   4  -4    1.84    0.36
   5   4   4    2.04    0.23
  -5   4  -4    1.67    0.29
   5   4   4    1.84    0.20
   6  -4   4   69.43    2.29
  -6  -4  -4   68.50    2.18
   6  -4   4   68.79    2.43
  -6  -4  -4   68.23    2.63
  -6   4  -4   67.19    2.56
   6   4   4   67.18    2.28
  -6   4  -4   71.69    2.25
   6   4   4   71.24    2.30
  -7  -4  -4    0.11    0.42
   7  -4   4    0.31    0.20
  -7  -4  -4    0.32    0.16
   7  -4   4   -0.07    0.19
   7   4   4   -0.01    0.19
  -7   4  -4   -0.04    0.37
   7   4   4    0.31    0.21
   8  -4   4   28.40    1.04
  -8  -4  -4   30.38    1.39
  -8  -4  -4   28.14    0.97
   8  -4   4   28.81    1.11
  -8   4  -4   26.49    1.35
   8   4   4   28.44    1.06
   8   4   4   27.88    1.06
   9  -4   4    0.17    0.23
   9  -4   4    1.03    0.27
  -9  -4  -4    1.03    0.52
  -9   4  -4   -0.06    0.48
   9   4   4    0.04    0.25
   9   4   4    0.09    0.25
 -10  -5   4    1.27    0.36
  10  -5  -4    0.67    0.34
 -10   5   4    1.05    0.32
 -10   5   4    1.32    0.42
  10   5  -4    1.40    0.25
  -9  -5   4    3.82    0.42
   9  -5  -4    3.02    0.35
  -9   5   4    3.56    0.37
  -9   5   4    4.06    0.47
   9   5  -4    3.92    0.32
  -8  -5   4    7.35    0.54
   8  -5  -4    7.31    0.47
   8   5  -4    7.71    0.45
  -8   5   4    8.53    0.52
  -8   5   4    7.44    0.61
   8   5  -4    8.46    0.40
  -7  -5   4    1.11    0.27
  -7  -5   4    1.61    0.27
  -7  -5   4    1.47    0.22
   7  -5  -4    1.51    0.25
  -7   5   4    0.95    0.31
  -7   5   4    1.19    0.27
   7   5  -4    1.34    0.23
  -6  -5   4    1.02    0.18
   6  -5  -4    1.18    0.21
  -6  -5   4    0.80    0.23
  -6  -5   4    0.93    0.24
   6   5  -4    0.90    0.31
  -6   5   4    1.20    0.32
   6   5  -4    1.39    0.22
  -6   5   4    1.09    0.25
  -5  -5   4   25.04    0.90
   5  -5  -4   24.67    0.95
  -5  -5   4   24.88    1.01
  -5  -5   4   26.14    0.93
  -5  -5   4   25.53    0.99
  -5   5   4   25.91    1.06
  -5   5   4   25.58    0.98
  -5   5   4   25.93    0.87
  -4  -5   4    6.02    0.32
  -4  -5   4    6.08    0.46
  -4  -5   4    6.18    0.37
   4  -5  -4    6.30    0.28
   4  -5  -4    6.70    0.36
  -4   5   4    6.32    0.49
  -4   5   4    5.99    0.49
  -4   5   4    6.37    0.27
   4   5  -4    6.19    0.29
   4   5  -4    6.01    0.36
  -3  -5   4    4.41    0.25
   3  -5  -4    3.87    0.27
  -3  -5   4    4.26    0.28
   3  -5  -4    3.39    0.22
  -3  -5   4    3.91    0.36
   3   5  -4    4.38    0.29
  -3   5   4    4.10    0.20
  -3   5   4    3.95    0.36
  -3   5   4    4.49    0.39
   3   5  -4    4.06    0.25
  -2  -5   4    9.51    0.56
   2  -5  -4    8.97    0.38
  -2  -5   4    8.82    0.37
   2  -5  -4    9.02    0.36
  -2   5   4    9.45    0.53
   2   5  -4    9.17    0.36
   2   5  -4    8.83    0.39
  -2   5   4    9.02    0.33
   2   5  -4    9.52    0.43
  -2   5   4    9.61    0.49
  -1  -5   4   14.94    0.57
   1  -5  -4   15.10    0.54
   1  -5  -4   14.84    0.57
  -1  -5   4   15.05    0.68
  -1   5   4   14.82    0.63
  -1   5   4   15.38    0.54
  -1   5   4   15.53    0.71
   1   5  -4   15.93    0.63
   1   5  -4   15.07    0.56
   1   5  -4   16.24    0.54
   0  -5   4    0.78    0.16
   0  -5   4    0.41    0.20
   0  -5  -4    0.63    0.09
   0  -5  -4    0.46    0.13
   0   5   4    0.47    0.25
   0   5   4    0.22    0.21
   0   5  -4    0.68    0.16
   0   5  -4    0.70    0.20
   0   5   4    0.30    0.16
  -1  -5  -4    1.65    0.16
   1  -5   4    1.73    0.23
   1  -5   4    1.83    0.19
   1   5   4    1.63    0.24
   1   5   4    1.81    0.18
  -1   5  -4    1.84    0.22
  -1   5  -4    1.86    0.24
   1   5   4    1.20    0.30
  -2  -5  -4   -0.05    0.13
   2  -5   4    0.01    0.15
  -2  -5  -4    0.25    0.32
   2  -5   4    0.10    0.18
   2   5   4   -0.09    0.14
  -2   5  -4    0.20    0.22
  -2   5  -4    0.15    0.23
   2   5   4    0.08    0.18
  -3  -5  -4    0.66    0.38
   3  -5   4    0.65    0.17
  -3  -5  -4    0.61    0.15
   3  -5   4    0.63    0.19
   3   5   4    0.44    0.20
  -3   5  -4    0.57    0.24
  -3   5  -4    0.71    0.28
   3   5   4    0.69    0.16
   4  -5   4    2.69    0.23
  -4  -5  -4    2.26    0.43
  -4  -5  -4    2.73    0.23
   4  -5   4    2.37    0.24
   4   5   4    2.49    0.21
  -4   5  -4    2.19    0.29
  -4   5  -4    2.22    0.33
   4   5   4    2.77    0.25
  -5  -5  -4    7.88    0.72
   5  -5   4    9.60    0.47
  -5  -5  -4    9.63    0.41
   5  -5   4    9.64    0.42
   5   5   4    9.63    0.42
  -5   5  -4    9.26    0.53
   5   5   4    9.21    0.46
  -5   5  -4    9.49    0.65
  -6  -5  -4    0.25    0.43
  -6  -5  -4    0.22    0.16
   6  -5   4    0.03    0.17
   6  -5   4    0.12    0.20
   6   5   4    0.27    0.18
   6   5   4    0.11    0.20
  -6   5  -4    0.09    0.28
  -6   5  -4   -0.09    0.34
  -7  -5  -4    0.07    0.15
   7  -5   4   -0.31    0.18
  -7  -5  -4   -0.44    0.45
   7  -5   4    0.10    0.22
   7   5   4   -0.21    0.19
  -7   5  -4   -0.13    0.37
   7   5   4    0.19    0.22
  -8  -5  -4    5.98    0.36
  -8  -5  -4    5.17    0.67
   8  -5   4    5.92    0.42
  -8   5  -4    4.79    0.61
   8   5   4    5.93    0.44
   8   5   4    5.39    0.42
   9  -5   4   10.19    0.57
   9   5   4    8.73    0.52
   9  -6  -4    0.10    0.29
  -9  -6   4   -0.49    0.32
   9   6  -4   -0.03    0.20
  -9   6   4   -0.01    0.27
  -9   6   4    0.05    0.37
   8  -6  -4   26.01    1.05
  -8  -6   4   27.40    1.08
   8   6  -4   25.08    0.95
  -8   6   4   26.00    1.03
  -8   6   4   26.02    1.19
  -7  -6   4    0.67    0.29
   7  -6  -4    0.66    0.23
  -7  -6   4    0.54    0.25
  -7   6   4    0.54    0.33
   7   6  -4    1.12    0.17
   7   6  -4    0.71    0.21
  -7   6   4    0.26    0.24
  -6  -6   4   91.40    2.90
  -6  -6   4   87.11    3.10
   6  -6  -4   87.50    3.07
  -6  -6   4   87.17    2.89
  -6   6   4   85.58    2.90
  -6   6   4   88.78    3.16
  -5  -6   4    1.06    0.24
  -5  -6   4    1.32    0.28
   5  -6  -4    0.91    0.21
  -5  -6   4    0.86    0.17
  -5   6   4    1.16    0.28
  -5   6   4    1.34    0.31
   5   6  -4    1.31    0.21
   4  -6  -4  171.68    5.76
  -4  -6   4  169.59    5.82
  -4  -6   4  173.12    5.44
   4  -6  -4  164.85    5.16
  -4   6   4  166.14    5.41
   4   6  -4  171.07    5.18
  -4   6   4  168.87    5.85
   4   6  -4  163.23    5.80
   3  -6  -4    6.05    0.30
  -3  -6   4    6.10    0.30
  -3  -6   4    5.67    0.47
   3  -6  -4    5.84    0.33
   3   6  -4    6.44    0.32
  -3   6   4    6.76    0.47
   3   6  -4    6.16    0.33
  -3   6   4    5.87    0.51
   3   6  -4    6.64    0.37
  -2  -6   4   37.13    1.24
   2  -6  -4   37.34    1.31
  -2  -6   4   36.47    1.43
   2  -6  -4   35.89    1.19
   2   6  -4   36.18    1.21
  -2   6   4   37.61    1.33
  -2   6   4   38.28    1.43
   2   6  -4   37.10    1.36
   1  -6  -4    1.14    0.16
  -1  -6   4    1.05    0.27
  -1  -6   4    1.12    0.16
   1  -6  -4    1.11    0.13
   1   6  -4    0.85    0.17
   1   6  -4    0.98    0.22
  -1   6   4    1.11    0.31
  -1   6   4    1.05    0.27
   0  -6   4    6.28    0.31
   0  -6   4    6.36    0.43
   0  -6  -4    5.66    0.31
   0   6   4    7.19    0.52
   0   6  -4    7.05    0.42
   0   6  -4    6.11    0.34
   0   6   4    6.62    0.44
  -1  -6  -4    0.28    0.15
   1  -6   4   -0.16    0.19
  -1   6  -4    0.34    0.22
   1   6   4    0.18    0.30
   1   6   4    0.05    0.23
  -1   6  -4    0.26    0.20
  -2  -6  -4    0.17    0.14
   2  -6   4    0.30    0.19
  -2   6  -4    0.07    0.21
  -2   6  -4   -0.10    0.23
   2   6   4    0.39    0.22
  -3  -6  -4    3.01    0.44
   3  -6   4    3.23    0.30
  -3  -6  -4    3.73    0.27
   3   6   4    3.52    0.25
  -3   6  -4    3.18    0.35
  -3   6  -4    3.78    0.32
   3   6   4    3.29    0.29
  -4  -6  -4   62.27    2.02
  -4  -6  -4   59.36    2.42
   4  -6   4   62.02    2.25
   4   6   4   66.67    2.10
  -4   6  -4   66.35    2.34
   4   6   4   62.53    2.11
  -4   6  -4   65.05    2.08
  -5  -6  -4    0.40    0.43
   5  -6   4    0.16    0.20
  -5  -6  -4    0.01    0.15
  -5   6  -4    0.19    0.31
   5   6   4   -0.23    0.21
  -5   6  -4   -0.52    0.25
   5   6   4    0.09    0.17
   6  -6   4   30.91    1.19
  -6  -6  -4   30.07    1.43
  -6  -6  -4   31.87    1.06
  -6   6  -4   31.74    1.33
  -6   6  -4   30.48    1.15
   6   6   4   31.35    1.14
   6   6   4   31.29    1.10
   7  -6   4    1.12    0.25
  -7  -6  -4    0.76    0.20
  -7  -6  -4    0.90    0.50
   7   6   4    0.43    0.23
  -7   6  -4    1.16    0.45
   7   6   4    0.50    0.25
  -8  -6  -4   96.89    3.55
  -8  -6  -4   94.42    2.95
   8  -6   4   91.20    3.29
  -8   6  -4   92.15    3.48
   8   6   4   94.21    3.10
   8   6   4   90.42    3.09
   9   6   4   -0.05    0.27
  -9   7   4    0.82    0.41
  -9   7   4    0.79    0.31
   8  -7  -4   -0.09    0.27
  -8   7   4    0.09    0.37
  -8   7   4    0.22    0.28
   7  -7  -4   18.10    0.79
  -7   7   4   18.36    0.80
   7   7  -4   17.97    0.76
  -7   7   4   19.53    0.95
   6  -7  -4    4.61    0.38
  -6  -7   4    4.44    0.42
  -6   7   4    4.90    0.40
  -6   7   4    5.06    0.50
   6   7  -4    4.94    0.36
  -5  -7   4    0.21    0.27
   5  -7  -4   -0.19    0.19
   5   7  -4    0.29    0.21
  -5   7   4   -0.34    0.33
  -5   7   4   -0.03    0.25
   4  -7  -4   -0.07    0.16
   4  -7  -4    0.19    0.17
  -4  -7   4    0.39    0.26
   4   7  -4    0.03    0.18
  -4   7   4    0.38    0.31
   4   7  -4   -0.07    0.14
  -4   7   4    0.20    0.29
   3  -7  -4    1.73    0.19
  -3  -7   4    1.31    0.29
   3  -7  -4    1.80    0.18
  -3   7   4    2.00    0.34
   3   7  -4    1.83    0.20
   3   7  -4    1.60    0.24
  -3   7   4    2.00    0.36
   2  -7  -4   -0.14    0.14
  -2  -7   4    0.18    0.28
   2   7  -4   -0.14    0.18
   2   7  -4    0.20    0.16
  -2   7   4   -0.26    0.27
  -2   7   4   -0.10    0.28
   1  -7  -4    0.87    0.17
  -1  -7   4    1.50    0.28
   1   7  -4    1.13    0.22
   1   7  -4    1.07    0.18
  -1   7   4    1.11    0.34
  -1   7   4    1.29    0.29
   0  -7   4    0.18    0.23
   0  -7  -4    0.31    0.15
   0   7   4   -0.05    0.29
   0   7  -4    0.22    0.20
   0   7  -4    0.25    0.18
   0   7   4    0.03    0.24
  -1  -7  -4    0.00    0.14
   1  -7   4    0.17    0.20
  -1   7  -4    0.06    0.22
   1   7   4    0.37    0.24
   1   7   4    0.12    0.31
  -1   7  -4    0.01    0.18
  -2  -7  -4    0.08    0.15
   2  -7   4    0.36    0.20
  -2   7  -4   -0.18    0.20
   2   7   4    0.21    0.24
  -2   7  -4    0.03    0.24
   2   7   4    0.40    0.34
   3  -7   4    1.64    0.25
  -3  -7  -4    1.53    0.20
   3   7   4    1.53    0.27
  -3   7  -4    1.46    0.29
  -3   7  -4    1.69    0.32
  -4  -7  -4    1.18    0.19
  -4  -7  -4    0.65    0.43
   4  -7   4    1.72    0.24
  -4   7  -4    1.51    0.30
  -4   7  -4    1.52    0.36
   4   7   4    1.44    0.27
  -5  -7  -4    0.07    0.44
   5  -7   4    0.43    0.21
  -5  -7  -4    0.22    0.18
  -5   7  -4   -0.10    0.32
   5   7   4   -0.19    0.23
  -5   7  -4    0.02    0.27
   6  -7   4    4.75    0.42
  -6  -7  -4    3.00    0.60
  -6  -7  -4    4.23    0.34
  -6   7  -4    3.72    0.45
  -6   7  -4    3.62    0.48
   6   7   4    4.21    0.37
  -7  -7  -4    4.67    0.34
   7  -7   4    5.28    0.42
  -7  -7  -4    5.07    0.68
   7   7   4    4.43    0.41
  -7   7  -4    4.35    0.57
  -8  -7  -4    0.40    0.21
   8  -8  -4    6.51    0.47
  -8   8   4    6.65    0.63
   7  -8  -4    0.19    0.26
  -7   8   4   -0.09    0.43
  -7   8   4    0.36    0.27
   6  -8  -4    3.63    0.34
   6   8  -4    4.50    0.31
  -6   8   4    3.88    0.38
   6   8  -4    3.90    0.36
  -6   8   4    4.20    0.50
   5  -8  -4    0.96    0.22
  -5   8   4    0.77    0.28
   5   8  -4    0.72    0.18
  -5   8   4    0.19    0.36
   5   8  -4    0.53    0.22
   4  -8  -4   38.63    1.43
  -4  -8   4   39.36    1.51
   4   8  -4   38.82    1.48
   4   8  -4   39.15    1.31
  -4   8   4   39.30    1.58
  -4   8   4   40.28    1.44
   3  -8  -4   -0.06    0.16
  -3  -8   4    0.18    0.28
  -3   8   4   -0.25    0.32
   3   8  -4    0.37    0.17
   3   8  -4    0.12    0.23
  -3   8   4    0.44    0.32
  -2  -8   4   41.02    1.55
   2  -8  -4   39.25    1.31
  -2   8   4   38.14    1.59
  -2   8   4   41.30    1.46
   2   8  -4   40.92    1.51
   2   8  -4   40.11    1.34
   1  -8  -4    5.93    0.35
  -1  -8   4    5.57    0.46
   1   8  -4    6.60    0.36
  -1   8   4    5.89    0.56
  -1   8   4    5.71    0.50
   1   8  -4    6.10    0.44
   0  -8  -4  135.24    4.19
   0  -8   4  135.82    4.71
   0   8   4  135.96    4.39
   0   8  -4  134.08    4.22
   0   8  -4  139.11    4.72
   0   8   4  131.98    4.80
   1  -8   4   10.94    0.57
  -1  -8  -4   10.43    0.45
   1   8   4    9.89    0.69
  -1   8  -4   10.51    0.50
   1   8   4   10.09    0.59
  -1   8  -4   10.81    0.58
  -2  -8  -4  257.33    7.89
   2  -8   4  256.83    8.80
  -2   8  -4  256.28    7.93
  -2   8  -4  273.95    8.88
   2   8   4  256.26    8.20
   2   8   4  243.66    8.93
   3  -8   4    1.73    0.27
  -3  -8  -4    1.65    0.22
  -3   8  -4    1.60    0.35
   3   8   4    1.91    0.42
   3   8   4    1.13    0.32
  -3   8  -4    1.35    0.28
   4  -8   4    7.21    0.45
  -4  -8  -4    6.71    0.38
   4   8   4    6.64    0.49
  -4   8  -4    7.08    0.57
   4   8   4    6.31    0.59
  -4   8  -4    6.62    0.50
  -5  -8  -4    1.96    0.53
   5  -8   4    3.38    0.33
  -5  -8  -4    3.05    0.27
   5   8   4    2.96    0.37
  -5   8  -4    3.09    0.47
  -5   8  -4    3.35    0.38
  -6  -8  -4   27.19    1.40
  -6  -8  -4   27.39    0.99
   6  -8   4   28.48    1.12
   6   8   4   26.62    1.10
  -6   8  -4   28.17    1.29
  -7  -8  -4    0.15    0.21
   7  -9  -4    1.61    0.30
  -7   9   4    1.23    0.50
   6  -9  -4    2.04    0.28
  -6   9   4    1.42    0.48
   6   9  -4    2.50    0.26
  -5   9   4    8.38    0.78
   5   9  -4    8.76    0.55
   5   9  -4    9.64    0.46
  -5   9   4    9.43    0.60
   4   9  -4    1.83    0.23
  -4   9   4    0.84    0.42
   4   9  -4    1.43    0.27
  -4   9   4    2.29    0.36
  -3  -9   4    0.73    0.31
   3  -9  -4    0.32    0.19
  -3   9   4    0.44    0.39
   3   9  -4    0.43    0.26
   3   9  -4    0.91    0.20
  -3   9   4    1.13    0.35
   2  -9  -4    3.24    0.27
  -2  -9   4    3.80    0.42
   2   9  -4    3.11    0.33
  -2   9   4    3.08    0.40
   2   9  -4    3.32    0.28
  -2   9   4    3.66    0.48
  -1  -9   4    5.14    0.44
   1  -9  -4    3.68    0.32
   1   9  -4    4.30    0.34
   1   9  -4    4.25    0.38
  -1   9   4    4.88    0.52
  -1   9   4    4.68    0.43
   0  -9   4   -0.01    0.27
   0  -9  -4   -0.07    0.17
   0   9  -4   -0.13    0.25
   0   9   4    0.01    0.29
   0   9   4    0.38    0.38
   0   9  -4   -0.08    0.19
   1  -9   4    0.99    0.27
  -1  -9  -4    0.91    0.20
   1   9   4    0.50    0.33
  -1   9  -4    0.93    0.31
  -1   9  -4    0.65    0.23
   1   9   4    0.78    0.39
   2  -9   4    0.22    0.26
  -2  -9  -4    0.33    0.19
   2   9   4   -0.21    0.39
  -2   9  -4   -0.23    0.22
   2   9   4   -0.68    0.29
  -2   9  -4   -0.01    0.28
   3  -9   4    0.37    0.25
  -3  -9  -4    0.49    0.19
  -3   9  -4    0.37    0.28
  -3   9  -4   -0.12    0.32
   3   9   4   -0.08    0.33
   3   9   4    0.48    0.42
   4  -9   4    0.88    0.28
  -4  -9  -4    0.42    0.20
   4   9   4   -0.01    0.35
   4   9   4    1.05    0.44
  -4   9  -4   -0.16    0.30
  -4   9  -4    0.18    0.36
  -5  -9  -4    3.09    0.29
   5  -9   4    3.60    0.37
   5   9   4    3.39    0.54
  -5   9  -4    3.11    0.48
  -5   9  -4    3.71    0.40
   5   9   4    2.65    0.43
   6  10  -4   43.08    1.48
   5  10  -4    0.83    0.24
  -5  10   4    0.17    0.46
   4  10  -4   92.68    3.45
   4  10  -4  101.78    3.10
  -4  10   4   95.81    3.59
   3 -10  -4    4.11    0.33
   3  10  -4    4.75    0.42
   3  10  -4    5.01    0.41
  -3  10   4    3.67    0.56
   2 -10  -4    8.28    0.45
  -2  10   4    7.15    0.68
   2  10  -4    7.90    0.53
  -2  10   4    8.91    0.64
   2  10  -4    7.54    0.48
  -1 -10   4    1.71    0.37
   1 -10  -4    1.33    0.23
  -1  10   4    1.63    0.41
   1  10  -4    1.20    0.31
  -1  10   4    1.32    0.49
   1  10  -4    1.61    0.25
   0 -10   4    0.79    0.31
   0 -10  -4    0.45    0.20
   0  10  -4    0.26    0.29
   0  10  -4    0.35    0.23
   0  10   4    0.67    0.37
   0  10   4    0.60    0.44
   1 -10   4    1.51    0.34
  -1 -10  -4    0.80    0.22
  -1  10  -4    0.61    0.34
   1  10   4    0.78    0.45
   1  10   4    1.07    0.39
  -1  10  -4    1.28    0.28
  -2 -10  -4    6.21    0.40
   2 -10   4    7.14    0.51
   2  10   4    6.49    0.53
   2  10   4    5.46    0.62
  -2  10  -4    6.23    0.50
  -2  10  -4    6.93    0.57
   3 -10   4    3.76    0.38
  -3 -10  -4    3.70    0.31
   3  10   4    3.24    0.46
  -3  10  -4    3.65    0.48
  -3  10  -4    3.70    0.40
   3  10   4    3.97    0.57
   4 -10   4   20.20    0.89
   4  10   4   18.76    1.10
  -4  10  -4   19.07    0.87
  -4  10  -4   19.66    1.01
   4  10   4   17.53    0.91
  -5  10  -4   -0.62    0.35
   3  11  -4   -0.60    0.29
   2 -11  -4    0.32    0.24
   2  11  -4    0.50    0.25
  -2  11   4   -0.55    0.46
   2  11  -4   -0.30    0.28
   1 -11  -4    1.29    0.25
   1  11  -4    0.85    0.34
   1  11  -4    1.05    0.27
  -1  11   4    0.77    0.50
   0 -11   4    0.86    0.34
   0 -11  -4    0.28    0.24
   0  11   4    0.27    0.49
   0  11  -4    0.59    0.27
   0  11  -4    0.27    0.32
   1 -11   4    0.78    0.32
  -1 -11  -4    0.19    0.22
  -1  11  -4   -0.35    0.34
   1  11   4   -0.56    0.46
  -1  11  -4   -0.34    0.25
   2 -11   4    0.96    0.32
   2  11   4   -0.13    0.40
  -2  11  -4   -0.61    0.33
   3  11   4   -0.31    0.38
 -11   0   5   -0.13    0.34
  11   0  -5   -0.24    0.27
  11   0  -5   -0.19    0.21
  10   0  -5    8.47    0.44
 -10   0   5    8.18    0.60
  10   0  -5    7.61    0.50
  -9   0   5    0.10    0.27
   9   0  -5   -0.04    0.22
  -8   0   5   34.86    1.30
   8   0  -5   36.08    1.35
  -8   0   5   36.30    1.26
  -8   0   5   36.36    1.38
  -7   0   5    0.67    0.18
   7   0  -5    0.63    0.20
   7   0  -5    0.66    0.26
  -7   0   5    0.56    0.22
  -7   0   5    0.50    0.24
  -6   0   5  174.21    5.87
   6   0  -5  192.04    6.31
  -6   0   5  176.45    6.33
  -6   0   5  182.26    5.95
   6   0  -5  197.12    8.19
  -5   0   5    3.16    0.27
   5   0  -5    3.71    0.44
  -5   0   5    2.82    0.27
   5   0  -5    3.37    0.29
  -5   0   5    3.20    0.25
   4   0  -5  377.61   11.33
  -4   0   5  358.24   12.67
  -4   0   5  373.34   11.95
   4   0  -5  390.45   12.65
  -4   0   5  368.20   11.73
   4   0  -5  371.26   16.41
   3   0  -5    0.23    0.24
  -3   0   5    0.16    0.13
  -3   0   5    0.11    0.09
  -3   0   5    0.14    0.16
   3   0  -5    0.22    0.13
  -2   0   5  423.72   14.71
  -2   0   5  418.49   13.93
   2   0  -5  451.48   13.23
   2   0  -5  438.78   19.07
  -2   0   5  437.11   13.69
   1   0  -5    1.37    0.18
   1   0  -5    1.54    0.26
  -1   0   5    1.83    0.20
  -1   0   5    1.51    0.15
  -1   0   5    1.47    0.20
   0   0  -5  152.41    5.09
   0   0   5  149.69    4.70
   0   0   5  147.74    4.81
   0   0  -5  144.55    6.61
   0   0   5  148.10    5.10
   0   0  -5  153.25    4.60
  -1   0  -5    0.35    0.19
   1   0   5    0.21    0.10
  -1   0  -5    0.07    0.18
   1   0   5   -0.02    0.14
  -1   0  -5    0.01    0.17
   1   0   5    0.22    0.14
   2   0   5  119.69    4.25
  -2   0  -5  128.49    3.87
  -2   0  -5  127.15    5.52
   2   0   5  123.73    4.03
  -2   0  -5  125.19    4.33
   2   0   5  124.59    3.94
   3   0   5    0.91    0.12
  -3   0  -5    0.80    0.16
   3   0   5    0.85    0.16
   3   0   5    0.87    0.13
  -3   0  -5    0.80    0.30
  -3   0  -5    0.61    0.22
   4   0   5   31.65    1.09
   4   0   5   31.59    1.13
   4   0   5   32.37    1.05
  -4   0  -5   32.01    1.08
  -4   0  -5   30.32    1.29
  -5   0  -5    0.64    0.38
   5   0   5    0.51    0.15
   5   0   5    0.45    0.14
   5   0   5    0.32    0.17
  -5   0  -5    0.43    0.21
  -6   0  -5   26.82    0.93
  -6   0  -5   25.32    1.20
   6   0   5   26.65    0.97
   6   0   5   27.26    0.93
   6   0   5   26.12    0.95
  -7   0  -5    0.08    0.17
   7   0   5    0.28    0.17
  -7   0  -5    0.69    0.42
   7   0   5   -0.15    0.18
  -8   0  -5    0.48    0.45
   8   0   5    0.59    0.22
   8   0   5    1.35    0.21
   9   0   5    0.94    0.26
  -9   0  -5    0.68    0.52
   9   0   5    1.56    0.23
  10   0   5   95.25    3.13
  11  -1  -5   -0.01    0.29
  11  -1  -5    0.97    0.24
  11   1  -5    0.16    0.28
  10  -1  -5    3.59    0.31
  10  -1  -5    2.60    0.34
 -10  -1   5    2.79    0.39
 -10   1   5    3.08    0.39
  10   1  -5    3.01    0.35
  10   1  -5    3.94    0.32
  -9  -1   5    2.13    0.32
   9  -1  -5    1.36    0.26
   9  -1  -5    1.95    0.21
   9   1  -5    1.41    0.28
  -9   1   5    1.75    0.31
  -8  -1   5    6.05    0.36
   8  -1  -5    5.72    0.39
  -8  -1   5    5.63    0.45
   8   1  -5    5.86    0.40
  -8   1   5    5.86    0.44
  -8   1   5    5.48    0.45
  -8   1   5    5.68    0.35
  -7  -1   5    0.26    0.20
   7  -1  -5    0.40    0.19
  -7  -1   5    0.43    0.18
   7  -1  -5    0.37    0.21
  -7  -1   5    0.32    0.22
   7   1  -5    0.26    0.28
   7   1  -5    0.16    0.19
  -7   1   5    0.16    0.23
  -7   1   5    0.15    0.16
  -7   1   5    0.47    0.24
  -6  -1   5    0.57    0.18
   6  -1  -5    0.38    0.18
  -6  -1   5    0.46    0.19
  -6  -1   5    0.30    0.23
   6  -1  -5    0.68    0.24
  -6   1   5    0.54    0.23
  -6   1   5    0.62    0.22
  -6   1   5    0.55    0.17
   6   1  -5    0.56    0.32
   6   1  -5    0.60    0.22
  -5  -1   5   18.70    0.69
   5  -1  -5   19.11    0.96
  -5  -1   5   17.50    0.72
  -5  -1   5   17.30    0.70
   5  -1  -5   18.23    0.73
  -5   1   5   18.94    0.73
   5   1  -5   16.14    1.01
  -5   1   5   18.81    0.68
   5   1  -5   19.87    0.61
   5   1  -5   19.12    0.75
  -5   1   5   18.68    0.72
  -4  -1   5    1.16    0.13
  -4  -1   5    1.03    0.18
   4  -1  -5    1.14    0.17
  -4  -1   5    1.13    0.16
   4  -1  -5    0.76    0.24
   4  -1  -5    1.20    0.09
  -4   1   5    1.26    0.16
  -4   1   5    1.23    0.16
   4   1  -5    1.27    0.14
   4   1  -5    1.15    0.30
  -4   1   5    1.38    0.22
  -3  -1   5    0.77    0.15
   3  -1  -5    0.36    0.09
  -3  -1   5    0.36    0.07
   3  -1  -5    0.36    0.13
   3  -1  -5    0.42    0.21
  -3  -1   5    0.57    0.14
  -3  -1   5    0.30    0.16
  -3   1   5    0.26    0.14
   3   1  -5    0.50    0.13
  -3   1   5    0.46    0.17
  -3   1   5    0.41    0.11
   3   1  -5    0.27    0.26
  -2  -1   5    0.13    0.14
   2  -1  -5    0.03    0.12
  -2  -1   5   -0.02    0.13
   2  -1  -5    0.10    0.20
  -2  -1   5    0.18    0.19
   2  -1  -5    0.01    0.11
  -2   1   5    0.19    0.16
   2   1  -5    0.07    0.14
   2   1  -5   -0.18    0.24
  -2   1   5   -0.01    0.09
  -2   1   5    0.01    0.14
   1  -1  -5    3.52    0.23
   1  -1  -5    3.79    0.35
  -1  -1   5    3.76    0.31
  -1  -1   5    3.20    0.21
  -1  -1   5    3.25    0.26
   1   1  -5    3.22    0.27
  -1   1   5    3.65    0.19
  -1   1   5    3.36    0.24
   1   1  -5    3.77    0.41
  -1   1   5    3.26    0.24
  -1   1   5    3.14    0.28
   0  -1   5    2.50    0.16
   0  -1  -5    2.18    0.19
   0  -1   5    2.62    0.23
   0  -1  -5    2.55    0.22
   0  -1   5    2.47    0.22
   0  -1  -5    2.46    0.29
   0   1  -5    2.05    0.28
   0   1   5    2.35    0.22
   0   1  -5    1.81    0.22
   0   1   5    2.49    0.22
   0   1   5    2.38    0.19
   0   1  -5    2.46    0.20
   1  -1   5    3.95    0.19
  -1  -1  -5    4.01    0.31
   1  -1   5    3.83    0.24
   1  -1   5    3.90    0.26
  -1  -1  -5    3.61    0.32
  -1  -1  -5    3.77    0.27
   1   1   5    3.93    0.26
  -1   1  -5    3.48    0.29
  -1   1  -5    3.88    0.30
   1   1   5    3.47    0.25
  -1   1  -5    3.75    0.40
   1   1   5    3.72    0.22
   2  -1   5    0.14    0.13
  -2  -1  -5   -0.03    0.15
  -2  -1  -5   -0.12    0.21
   2  -1   5    0.01    0.08
  -2  -1  -5    0.26    0.13
   2  -1   5    0.11    0.11
  -2   1  -5    0.11    0.19
  -2   1  -5    0.09    0.19
   2   1   5    0.10    0.11
  -2   1  -5    0.20    0.22
   2   1   5    0.21    0.11
   2   1   5    0.13    0.13
   3  -1   5    1.87    0.19
  -3  -1  -5    1.84    0.22
  -3  -1  -5    2.01    0.22
   3  -1   5    1.88    0.18
  -3  -1  -5    2.16    0.35
   3  -1   5    2.18    0.16
   3   1   5    2.16    0.20
  -3   1  -5    2.03    0.32
   3   1   5    1.89    0.17
  -3   1  -5    1.42    0.24
  -3   1  -5    2.18    0.26
   3   1   5    1.70    0.17
  -4  -1  -5    2.01    0.24
  -4  -1  -5    1.46    0.38
   4  -1   5    2.28    0.19
   4  -1   5    2.54    0.18
   4  -1   5    2.37    0.21
   4   1   5    2.47    0.20
  -4   1  -5    2.34    0.28
   4   1   5    2.14    0.20
   4   1   5    2.42    0.20
  -4   1  -5    1.62    0.37
   5  -1   5   20.12    0.76
  -5  -1  -5   19.82    0.72
   5  -1   5   21.10    0.70
  -5  -1  -5   17.42    0.96
   5  -1   5   19.76    0.74
   5   1   5   19.26    0.74
   5   1   5   21.19    0.73
   5   1   5   20.10    0.74
  -5   1  -5   19.64    0.95
  -5   1  -5   21.24    0.77
  -6  -1  -5    0.54    0.18
  -6  -1  -5    0.31    0.38
   6  -1   5    0.52    0.18
   6  -1   5    0.61    0.16
   6   1   5    0.42    0.18
  -6   1  -5    0.71    0.21
  -6   1  -5    0.08    0.37
   6   1   5    0.53    0.17
   7  -1   5    0.08    0.16
   7  -1   5   -0.05    0.18
  -7  -1  -5    0.56    0.44
  -7  -1  -5    0.26    0.17
   7   1   5    0.04    0.20
   7   1   5    0.27    0.17
  -7   1  -5    0.26    0.19
  -7   1  -5    0.25    0.40
  -8  -1  -5    7.15    0.68
   8  -1   5    8.29    0.45
  -8   1  -5    8.58    0.76
   8   1   5    9.58    0.46
   8   1   5    8.80    0.46
   9  -1   5    2.11    0.29
  -9  -1  -5    1.86    0.55
   9   1   5    2.07    0.26
   9   1   5    1.92    0.30
  -9   1  -5    2.40    0.58
  11  -2  -5    0.61    0.23
  11   2  -5   -0.69    0.26
  10  -2  -5   56.13    1.91
 -10  -2   5   55.55    1.99
  10  -2  -5   56.14    2.06
  10   2  -5   56.35    1.93
 -10   2   5   55.55    1.98
  10   2  -5   56.84    2.06
   9  -2  -5    0.23    0.25
   9  -2  -5    0.95    0.19
  -9  -2   5    0.35    0.27
  -9   2   5    0.41    0.28
   9   2  -5    0.43    0.23
  -8  -2   5   83.27    2.75
   8  -2  -5   80.92    2.90
  -8  -2   5   80.63    2.74
  -8   2   5   84.19    2.95
   8   2  -5   87.46    2.92
  -8   2   5   80.85    2.73
  -8   2   5   81.00    2.75
  -7  -2   5    0.60    0.24
   7  -2  -5    1.09    0.23
   7  -2  -5    0.73    0.21
  -7  -2   5    1.09    0.21
  -7  -2   5    1.13    0.20
   7   2  -5    0.93    0.32
   7   2  -5    1.10    0.23
  -7   2   5    0.94    0.26
  -7   2   5    1.03    0.25
  -7   2   5    0.96    0.18
  -6  -2   5   31.29    1.14
  -6  -2   5   31.57    1.18
  -6  -2   5   32.44    1.12
   6  -2  -5   33.03    1.53
   6  -2  -5   32.10    1.18
  -6   2   5   31.44    1.10
   6   2  -5   32.03    1.21
  -6   2   5   31.94    1.21
  -6   2   5   31.55    1.16
   6   2  -5   31.66    1.62
   5  -2  -5    1.80    0.20
  -5  -2   5    1.33    0.18
  -5  -2   5    1.51    0.22
  -5  -2   5    1.49    0.17
   5  -2  -5    1.60    0.26
   5   2  -5    1.25    0.34
  -5   2   5    1.45    0.26
  -5   2   5    1.28    0.21
   5   2  -5    1.59    0.14
  -5   2   5    1.47    0.17
   5   2  -5    1.80    0.25
   4  -2  -5   61.59    2.64
  -4  -2   5   56.35    2.00
  -4  -2   5   55.42    1.89
  -4  -2   5   55.40    2.06
  -4  -2   5   57.52    1.92
   4  -2  -5   58.01    2.02
   4  -2  -5   59.84    1.77
   4   2  -5   55.58    1.80
  -4   2   5   57.58    1.91
  -4   2   5   57.39    1.92
  -4   2   5   57.35    2.03
   4   2  -5   62.29    2.70
   3  -2  -5    0.86    0.14
  -3  -2   5    0.45    0.22
   3  -2  -5    1.06    0.09
  -3  -2   5    1.03    0.15
   3  -2  -5    0.85    0.20
  -3  -2   5    0.72    0.16
  -3   2   5    0.82    0.14
   3   2  -5    0.96    0.26
  -3   2   5    1.05    0.22
  -3   2   5    0.94    0.15
   3   2  -5    0.95    0.14
  -2  -2   5   15.59    0.59
  -2  -2   5   15.75    0.71
   2  -2  -5   17.66    0.86
   2  -2  -5   16.35    0.56
  -2  -2   5   16.18    0.63
   2  -2  -5   16.66    0.62
   2   2  -5   16.62    0.93
   2   2  -5   16.58    0.60
  -2   2   5   16.86    0.63
  -2   2   5   16.82    0.63
  -2   2   5   16.23    0.62
   2   2  -5   16.67    0.59
   1  -2  -5    1.95    0.15
  -1  -2   5    1.52    0.23
   1  -2  -5    1.48    0.21
  -1  -2   5    1.85    0.20
  -1  -2   5    1.97    0.15
   1  -2  -5    2.00    0.16
   1   2  -5    1.60    0.28
   1   2  -5    1.75    0.19
  -1   2   5    1.59    0.20
  -1   2   5    1.86    0.18
   1   2  -5    2.03    0.14
  -1   2   5    2.14    0.17
   0  -2   5  157.97    5.65
   0  -2   5  159.18    5.33
   0  -2  -5  173.15    5.06
   0  -2  -5  172.73    7.29
   0  -2  -5  158.55    5.66
   0  -2   5  168.33    5.19
   0   2   5  164.71    5.22
   0   2  -5  169.64    5.64
   0   2  -5  169.19    5.09
   0   2  -5  161.77    7.34
   0   2   5  164.02    5.33
  -1  -2  -5    0.28    0.14
   1  -2   5    0.32    0.15
   1  -2   5    0.47    0.08
  -1  -2  -5    0.74    0.21
   1  -2   5    0.41    0.14
  -1  -2  -5    0.39    0.14
  -1   2  -5    0.54    0.16
   1   2   5    0.50    0.10
  -1   2  -5    0.57    0.21
   1   2   5    0.82    0.15
   1   2   5    0.49    0.15
  -1   2  -5    0.71    0.18
  -2  -2  -5  185.60    8.07
   2  -2   5  184.68    5.91
  -2  -2  -5  182.95    6.34
  -2  -2  -5  186.97    5.63
   2  -2   5  185.17    6.25
   2  -2   5  189.60    5.76
  -2   2  -5  185.53    8.13
  -2   2  -5  183.99    6.30
   2   2   5  188.53    6.23
   2   2   5  183.30    5.80
  -2   2  -5  166.91    5.66
   2   2   5  180.61    5.91
   3  -2   5    0.38    0.09
  -3  -2  -5    0.17    0.12
   3  -2   5    0.03    0.15
   3  -2   5    0.25    0.15
  -3  -2  -5    0.49    0.31
  -3  -2  -5    0.07    0.17
   3   2   5    0.31    0.14
   3   2   5    0.18    0.10
  -3   2  -5    0.22    0.22
  -3   2  -5   -0.06    0.24
  -3   2  -5    0.11    0.26
   3   2   5    0.36    0.16
   4  -2   5  258.68    8.30
   4  -2   5  264.14    8.11
  -4  -2  -5  259.36    7.90
   4  -2   5  254.76    8.77
  -4  -2  -5  241.11    8.91
   4   2   5  258.21    8.30
  -4   2  -5  265.43    7.94
   4   2   5  261.14    8.14
  -4   2  -5  262.23    8.89
   5  -2   5    2.31    0.21
   5  -2   5    2.31    0.21
  -5  -2  -5    2.35    0.22
  -5  -2  -5    2.35    0.42
   5   2   5    2.85    0.25
   5   2   5    2.70    0.23
  -5   2  -5    2.09    0.37
  -5   2  -5    1.98    0.27
   6  -2   5    6.90    0.38
  -6  -2  -5    7.54    0.38
   6  -2   5    6.96    0.37
  -6  -2  -5    7.37    0.68
  -6   2  -5    7.48    0.35
  -6   2  -5    7.31    0.44
  -6   2  -5    7.44    0.63
   6   2   5    7.08    0.38
   6   2   5    7.35    0.38
   7  -2   5    0.28    0.19
  -7  -2  -5    0.53    0.17
  -7  -2  -5    0.51    0.42
   7  -2   5    0.48    0.19
  -7   2  -5    0.41    0.40
   7   2   5    0.45    0.19
   7   2   5    0.38    0.20
  -7   2  -5    0.16    0.22
  -8  -2  -5   48.60    1.57
   8  -2   5   47.42    1.65
   8  -2   5   47.24    1.73
  -8  -2  -5   49.49    2.00
  -8   2  -5   47.08    1.99
   8   2   5   46.72    1.66
   8   2   5   49.62    1.65
   9  -2   5   -0.18    0.24
  -9  -2  -5    0.10    0.50
  -9   2  -5    0.67    0.50
   9   2   5    0.49    0.23
   9   2   5    0.14    0.26
  11  -3  -5    4.30    0.35
  11   3  -5    3.86    0.39
  10  -3  -5    5.72    0.36
 -10  -3   5    4.83    0.47
  10  -3  -5    5.51    0.48
 -10   3   5    5.77    0.48
  10   3  -5    6.36    0.40
  10   3  -5    6.14    0.48
  -9  -3   5    0.13    0.27
   9  -3  -5    0.42    0.26
   9  -3  -5    0.56    0.17
  -9   3   5    0.46    0.31
   9   3  -5    0.18    0.23
  -9   3   5    0.47    0.28
  -8  -3   5    1.53    0.23
  -8  -3   5    1.65    0.29
   8  -3  -5    1.61    0.26
   8   3  -5    1.64    0.27
  -8   3   5    1.54    0.29
  -8   3   5    1.91    0.32
  -7  -3   5    1.03    0.20
  -7  -3   5    0.74    0.26
   7  -3  -5    0.93    0.22
   7  -3  -5    0.91    0.22
   7   3  -5    0.78    0.32
  -7   3   5    1.11    0.17
  -7   3   5    1.06    0.25
  -7   3   5    1.21    0.27
   7   3  -5    1.06    0.24
   6  -3  -5    0.05    0.18
   6  -3  -5    0.24    0.19
  -6  -3   5    0.21    0.22
  -6  -3   5    0.21    0.17
  -6  -3   5    0.31    0.17
  -6   3   5    0.30    0.15
   6   3  -5    0.59    0.30
  -6   3   5    0.23    0.23
  -6   3   5    0.40    0.22
   6   3  -5    0.38    0.22
  -5  -3   5    7.70    0.48
   5  -3  -5    7.94    0.54
  -5  -3   5    7.53    0.38
  -5  -3   5    7.78    0.38
  -5  -3   5    6.68    0.42
   5  -3  -5    7.87    0.39
   5   3  -5    7.93    0.32
  -5   3   5    7.75    0.48
  -5   3   5    6.84    0.44
  -5   3   5    8.05    0.35
   5   3  -5    8.78    0.66
  -4  -3   5    0.63    0.14
  -4  -3   5    0.36    0.16
  -4  -3   5    0.66    0.18
   4  -3  -5    0.64    0.15
  -4  -3   5    0.38    0.25
   4  -3  -5    0.55    0.08
   4  -3  -5    0.43    0.19
  -4   3   5    0.55    0.19
  -4   3   5    0.40    0.13
   4   3  -5    0.60    0.12
  -4   3   5    0.51    0.25
   4   3  -5    0.19    0.29
   3  -3  -5    0.14    0.18
   3  -3  -5    0.01    0.08
  -3  -3   5    0.08    0.16
  -3  -3   5   -0.05    0.23
   3  -3  -5    0.09    0.12
  -3  -3   5    0.43    0.14
   3   3  -5   -0.02    0.09
  -3   3   5    0.00    0.19
  -3   3   5    0.11    0.13
  -3   3   5    0.04    0.17
   3   3  -5   -0.02    0.12
   3   3  -5   -0.18    0.25
   2  -3  -5    0.29    0.17
  -2  -3   5    0.54    0.12
   2  -3  -5    0.22    0.10
  -2  -3   5    0.17    0.23
  -2  -3   5    0.44    0.16
   2  -3  -5    0.22    0.10
  -2   3   5    0.43    0.16
  -2   3   5    0.46    0.15
  -2   3   5    0.15    0.19
   2   3  -5    0.16    0.14
   2   3  -5    0.20    0.09
  -1  -3   5    0.21    0.08
   1  -3  -5    0.13    0.15
  -1  -3   5    0.17    0.15
   1  -3  -5    0.15    0.11
  -1  -3   5    0.32    0.21
   1  -3  -5    0.18    0.08
  -1   3   5    0.08    0.16
  -1   3   5    0.37    0.17
   1   3  -5    0.11    0.15
   1   3  -5    0.16    0.11
  -1   3   5    0.31    0.17
   0  -3   5    0.90    0.20
   0  -3   5    0.96    0.17
   0  -3  -5    0.88    0.09
   0  -3  -5    0.80    0.17
   0  -3  -5    1.11    0.14
   0   3   5    1.28    0.17
   0   3  -5    1.12    0.16
   0   3   5    1.02    0.17
   0   3  -5    1.22    0.19
   1  -3   5   -0.03    0.16
  -1  -3  -5   -0.02    0.14
   1  -3   5    0.09    0.16
  -1  -3  -5    0.16    0.13
  -1  -3  -5    0.04    0.24
   1   3   5    0.24    0.15
   1   3   5   -0.03    0.15
  -1   3  -5    0.18    0.20
  -1   3  -5    0.22    0.17
   2  -3   5    3.27    0.27
  -2  -3  -5    3.38    0.24
  -2  -3  -5    3.04    0.34
   2  -3   5    2.94    0.26
   2  -3   5    3.13    0.15
  -2   3  -5    3.13    0.27
   2   3   5    3.33    0.23
  -2   3  -5    3.17    0.28
   2   3   5    3.40    0.26
   3  -3   5   13.82    0.57
  -3  -3  -5   12.11    0.72
  -3  -3  -5   13.46    0.51
   3  -3   5   14.00    0.54
   3   3   5   13.89    0.52
  -3   3  -5   13.64    0.65
   3   3   5   13.23    0.53
  -3   3  -5   12.26    0.59
  -4  -3  -5    0.08    0.17
   4  -3   5   -0.21    0.17
   4  -3   5   -0.17    0.17
  -4  -3  -5    0.50    0.37
  -4   3  -5    0.43    0.28
  -4   3  -5    0.07    0.29
   4   3   5    0.20    0.17
   4   3   5   -0.10    0.16
   5  -3   5    2.29    0.22
  -5  -3  -5    1.86    0.43
  -5  -3  -5    2.39    0.21
   5  -3   5    2.15    0.22
  -5   3  -5    2.15    0.29
  -5   3  -5    1.89    0.36
   5   3   5    2.97    0.24
   5   3   5    2.52    0.23
   6  -3   5    2.74    0.25
   6  -3   5    2.93    0.27
  -6  -3  -5    2.50    0.49
  -6  -3  -5    2.79    0.23
  -6   3  -5    2.32    0.41
  -6   3  -5    2.54    0.31
   6   3   5    3.01    0.26
   6   3   5    2.97    0.26
   7  -3   5    5.25    0.34
   7  -3   5    4.24    0.35
  -7  -3  -5    4.66    0.58
  -7  -3  -5    4.74    0.32
  -7   3  -5    4.73    0.36
   7   3   5    4.29    0.34
  -7   3  -5    4.74    0.55
   7   3   5    5.12    0.36
  -8  -3  -5    2.58    0.57
   8  -3   5    3.86    0.35
  -8  -3  -5    2.60    0.24
   8  -3   5    2.32    0.29
   8   3   5    3.00    0.31
   8   3   5    2.94    0.30
  -8   3  -5    2.68    0.53
   9  -3   5    0.64    0.24
  -9  -3  -5    0.70    0.53
   9  -3   5   -0.40    0.23
   9   3   5    0.03    0.25
   9   3   5   -0.25    0.24
  -9   3  -5    0.79    0.54
 -10  -4   5    6.58    0.54
  10  -4  -5    6.26    0.50
  10   4  -5    5.54    0.48
  10   4  -5    6.63    0.44
 -10   4   5    6.00    0.52
   9  -4  -5   -0.41    0.26
  -9  -4   5    0.55    0.32
   9  -4  -5    0.23    0.17
  -9   4   5    0.19    0.32
   9   4  -5    0.04    0.25
  -9   4   5    0.08    0.29
   9   4  -5    0.52    0.19
   8  -4  -5   39.22    1.31
  -8  -4   5   37.79    1.39
   8  -4  -5   37.16    1.42
  -8  -4   5   38.47    1.35
  -8   4   5   38.88    1.50
  -8   4   5   36.40    1.38
   8   4  -5   38.69    1.44
  -7  -4   5    0.22    0.18
   7  -4  -5   -0.13    0.20
  -7  -4   5   -0.29    0.23
  -7   4   5   -0.22    0.26
  -7   4   5    0.15    0.25
   7   4  -5   -0.24    0.29
   7   4  -5    0.09    0.21
  -7   4   5   -0.02    0.15
  -6  -4   5  120.44    3.86
  -6  -4   5  121.53    3.90
   6  -4  -5  118.90    4.12
  -6  -4   5  122.77    4.14
  -6   4   5  115.24    4.17
  -6   4   5  117.14    3.88
   6   4  -5  124.61    5.40
  -6   4   5  118.25    3.87
   6   4  -5  115.61    4.15
  -5  -4   5    5.18    0.42
  -5  -4   5    5.19    0.31
   5  -4  -5    4.85    0.42
  -5  -4   5    5.08    0.36
  -5  -4   5    5.30    0.33
   5  -4  -5    5.37    0.32
  -5   4   5    5.26    0.28
  -5   4   5    5.94    0.44
   5   4  -5    5.30    0.27
  -5   4   5    4.94    0.41
   5   4  -5    5.22    0.59
  -4  -4   5  240.47    7.85
  -4  -4   5  251.28    7.71
   4  -4  -5  248.91   10.74
  -4  -4   5  243.39    8.35
   4  -4  -5  248.47    8.29
   4  -4  -5  248.92    7.42
  -4   4   5  243.90    7.75
   4   4  -5  234.09    8.31
   4   4  -5  248.82    7.45
  -4   4   5  246.85    7.82
   4   4  -5  237.56   10.81
  -4   4   5  236.02    8.35
  -3  -4   5    0.24    0.16
  -3  -4   5    0.49    0.16
   3  -4  -5    0.25    0.19
   3  -4  -5    0.51    0.11
  -3  -4   5    0.86    0.29
   3  -4  -5    0.54    0.14
   3   4  -5    0.24    0.13
  -3   4   5    0.45    0.12
   3   4  -5    0.57    0.14
  -3   4   5    0.81    0.26
  -3   4   5    0.64    0.22
  -2  -4   5  375.13   12.38
  -2  -4   5  349.72   13.14
   2  -4  -5  406.83   11.77
   2  -4  -5  399.54   13.11
  -2  -4   5  393.10   12.11
   2  -4  -5  397.79   16.95
  -2   4   5  393.16   12.36
   2   4  -5  400.68   13.13
  -2   4   5  369.83   13.16
  -2   4   5  369.22   12.16
   2   4  -5  394.31   11.77
   1  -4  -5    3.81    0.21
   1  -4  -5    4.30    0.36
   1  -4  -5    4.03    0.23
  -1  -4   5    4.46    0.37
  -1  -4   5    3.96    0.29
  -1   4   5    4.12    0.29
  -1   4   5    4.43    0.34
   1   4  -5    4.29    0.26
   1   4  -5    4.64    0.28
  -1   4   5    3.86    0.33
   0  -4   5   74.74    2.67
   0  -4   5   74.47    2.51
   0  -4  -5   75.74    2.37
   0  -4  -5   77.01    2.59
   0   4   5   77.44    2.50
   0   4   5   77.84    2.48
   0   4  -5   73.61    2.41
   0   4   5   77.83    2.71
   0   4  -5   78.63    2.65
  -1  -4  -5    1.15    0.29
  -1  -4  -5    1.19    0.15
   1  -4   5    1.00    0.18
   1  -4   5    1.14    0.20
  -1   4  -5    1.75    0.24
   1   4   5    0.92    0.19
   1   4   5    1.21    0.21
  -1   4  -5    1.04    0.21
   2  -4   5   72.34    2.52
  -2  -4  -5   68.83    2.62
  -2  -4  -5   70.01    2.26
   2  -4   5   73.44    2.37
  -2   4  -5   75.53    2.56
   2   4   5   72.90    2.36
  -2   4  -5   73.87    2.31
   2   4   5   69.95    2.34
   3  -4   5    0.09    0.18
   3  -4   5    0.24    0.18
  -3  -4  -5   -0.15    0.15
  -3  -4  -5   -0.20    0.33
  -3   4  -5   -0.06    0.25
   3   4   5    0.08    0.18
   3   4   5    0.14    0.16
  -3   4  -5    0.43    0.25
   4  -4   5   31.92    1.09
  -4  -4  -5   31.73    1.05
  -4  -4  -5   28.57    1.33
   4  -4   5   31.96    1.16
  -4   4  -5   32.37    1.25
   4   4   5   31.40    1.09
   4   4   5   32.81    1.09
  -4   4  -5   29.41    1.11
   5  -4   5    0.59    0.17
  -5  -4  -5    0.63    0.40
   5  -4   5    0.57    0.19
  -5  -4  -5    0.95    0.18
  -5   4  -5    0.71    0.32
   5   4   5    0.40    0.20
  -5   4  -5    0.53    0.28
   5   4   5    0.67    0.19
  -6  -4  -5   21.86    1.12
  -6  -4  -5   20.81    0.77
   6  -4   5   21.49    0.85
   6  -4   5   21.47    0.81
  -6   4  -5   22.88    0.88
   6   4   5   21.51    0.81
   6   4   5   21.53    0.83
  -6   4  -5   21.96    1.05
  -7  -4  -5    0.51    0.46
   7  -4   5    0.16    0.19
   7  -4   5    0.02    0.20
  -7  -4  -5   -0.12    0.16
   7   4   5   -0.04    0.21
   7   4   5   -0.01    0.21
  -7   4  -5    0.41    0.39
   8  -4   5    1.59    0.27
  -8  -4  -5    1.42    0.22
   8  -4   5    1.51    0.25
  -8  -4  -5    1.34    0.53
   8   4   5    1.06    0.27
   8   4   5    1.54    0.27
  -8   4  -5    1.21    0.48
   9  -4   5    1.66    0.27
   9  -4   5    0.72    0.26
   9   4   5    0.76    0.28
 -10  -5   5    0.70    0.37
  10   5  -5    1.48    0.26
 -10   5   5    1.75    0.36
   9  -5  -5    5.16    0.43
  -9  -5   5    5.59    0.49
   9   5  -5    5.69    0.38
   9   5  -5    4.76    0.44
  -9   5   5    5.57    0.46
  -9   5   5    5.53    0.49
  -8  -5   5    7.22    0.53
  -8  -5   5    6.59    0.41
   8  -5  -5    6.32    0.47
  -8   5   5    6.67    0.49
   8   5  -5    6.82    0.46
  -8   5   5    6.70    0.52
  -7  -5   5    2.13    0.31
   7  -5  -5    1.91    0.27
  -7  -5   5    2.02    0.24
   7   5  -5    2.10    0.28
  -7   5   5    1.63    0.31
  -7   5   5    2.00    0.32
   7   5  -5    1.27    0.34
  -6  -5   5    1.90    0.29
  -6  -5   5    1.94    0.22
  -6  -5   5    1.48    0.27
   6  -5  -5    1.67    0.23
  -6   5   5    1.46    0.30
  -6   5   5    1.75    0.30
   6   5  -5    1.35    0.34
   6   5  -5    1.90    0.17
   5  -5  -5   16.75    0.70
  -5  -5   5   17.98    0.70
  -5  -5   5   17.82    0.79
  -5  -5   5   17.88    0.67
  -5   5   5   17.66    0.75
   5   5  -5   17.22    1.01
   5   5  -5   17.50    0.62
  -5   5   5   17.49    0.79
   4  -5  -5    0.74    0.18
  -4  -5   5    0.89    0.27
   4  -5  -5    0.90    0.13
  -4  -5   5    0.85    0.18
  -4  -5   5    0.64    0.21
  -4   5   5    0.79    0.25
   4   5  -5    0.88    0.16
  -4   5   5    1.02    0.30
  -4   5   5    0.91    0.12
   4   5  -5    0.85    0.17
  -3  -5   5    0.72    0.29
  -3  -5   5    0.92    0.18
   3  -5  -5    0.92    0.16
  -3  -5   5    0.72    0.17
   3  -5  -5    0.68    0.13
  -3   5   5    0.82    0.12
   3   5  -5    0.55    0.17
  -3   5   5    0.90    0.25
  -3   5   5    0.53    0.30
   3   5  -5    0.75    0.17
   2  -5  -5   -0.07    0.13
  -2  -5   5   -0.04    0.16
  -2  -5   5    0.21    0.27
   2  -5  -5   -0.03    0.12
   2   5  -5    0.08    0.15
  -2   5   5    0.10    0.12
  -2   5   5   -0.10    0.25
  -2   5   5   -0.01    0.25
   2   5  -5    0.18    0.15
  -1  -5   5    4.88    0.42
  -1  -5   5    5.54    0.31
   1  -5  -5    5.01    0.24
   1  -5  -5    5.19    0.28
  -1   5   5    5.25    0.44
  -1   5   5    5.07    0.30
   1   5  -5    5.14    0.32
  -1   5   5    5.07    0.41
   1   5  -5    5.06    0.32
   0  -5   5    1.63    0.27
   0  -5  -5    2.23    0.19
   0  -5   5    2.03    0.22
   0   5   5    1.96    0.22
   0   5  -5    2.29    0.24
   0   5   5    2.07    0.27
   0   5   5    2.02    0.31
   0   5  -5    2.23    0.24
   1  -5   5    7.77    0.43
   1  -5   5    7.79    0.39
  -1  -5  -5    6.93    0.35
  -1   5  -5    8.06    0.44
  -1   5  -5    8.62    0.43
   1   5   5    8.33    0.44
   1   5   5    7.76    0.38
   2  -5   5    0.68    0.21
  -2  -5  -5   -0.01    0.34
  -2  -5  -5    0.44    0.16
   2  -5   5    0.63    0.17
  -2   5  -5    0.61    0.26
  -2   5  -5    0.40    0.24
   2   5   5    0.48    0.17
   2   5   5    0.85    0.22
  -3  -5  -5    0.14    0.36
   3  -5   5    0.11    0.18
  -3  -5  -5    0.12    0.15
   3  -5   5    0.17    0.16
  -3   5  -5    0.05    0.22
   3   5   5    0.13    0.19
  -3   5  -5    0.17    0.27
   3   5   5    0.15    0.16
  -4  -5  -5    3.79    0.49
   4  -5   5    4.14    0.30
  -4  -5  -5    4.51    0.28
   4  -5   5    4.15    0.33
   4   5   5    4.48    0.30
  -4   5  -5    4.38    0.35
  -4   5  -5    5.07    0.45
   4   5   5    4.11    0.33
   5  -5   5   28.37    1.09
  -5  -5  -5   25.84    1.29
   5  -5   5   29.65    1.02
  -5  -5  -5   28.29    0.98
   5   5   5   29.94    1.02
  -5   5  -5   26.37    1.05
   5   5   5   28.17    1.03
  -5   5  -5   30.66    1.21
   6  -5   5    0.32    0.21
   6  -5   5    0.35    0.19
  -6  -5  -5    0.37    0.44
  -6  -5  -5    0.27    0.17
  -6   5  -5    0.00    0.34
   6   5   5   -0.15    0.20
   6   5   5    0.11    0.21
  -6   5  -5   -0.22    0.27
   7  -5   5    1.25    0.24
  -7  -5  -5    1.20    0.21
  -7  -5  -5    1.20    0.51
   7  -5   5    1.71    0.27
   7   5   5    0.88    0.25
  -7   5  -5    0.96    0.45
   7   5   5    1.20    0.27
  -8  -5  -5   10.00    0.93
  -8  -5  -5   10.68    0.50
   8  -5   5   11.32    0.57
   8   5   5   11.00    0.60
  -8   5  -5   10.62    0.88
   8   5   5    9.98    0.56
  -9  -6   5    0.35    0.36
   9  -6  -5    0.50    0.31
  -9   6   5    1.49    0.42
  -9   6   5    1.48    0.35
   9   6  -5    1.30    0.23
  -8  -6   5   76.61    2.49
   8  -6  -5   73.51    2.60
   8   6  -5   71.42    2.43
   8   6  -5   70.69    2.60
  -8   6   5   69.24    2.45
  -8   6   5   74.14    2.69
  -7  -6   5    2.21    0.26
  -7  -6   5    1.85    0.32
   7  -6  -5    2.01    0.29
  -7   6   5    2.31    0.39
  -7   6   5    1.98    0.33
   7   6  -5    2.37    0.29
  -6  -6   5    9.17    0.57
  -6  -6   5    9.11    0.44
  -6  -6   5    9.38    0.53
   6  -6  -5    8.94    0.49
  -6   6   5    9.59    0.61
  -6   6   5    9.93    0.56
   6   6  -5    9.23    0.40
   6   6  -5    9.26    0.75
  -5  -6   5    0.16    0.26
   5  -6  -5   -0.05    0.19
  -5  -6   5    0.14    0.17
  -5   6   5    0.06    0.27
  -5   6   5    0.23    0.29
   5   6  -5    0.28    0.18
   5   6  -5   -0.07    0.13
  -4  -6   5   15.09    0.59
  -4  -6   5   15.57    0.72
   4  -6  -5   14.89    0.62
   4   6  -5   15.29    0.57
  -4   6   5   15.74    0.72
   4   6  -5   14.77    0.63
  -4   6   5   15.75    0.73
  -3  -6   5    4.24    0.27
   3  -6  -5    4.65    0.28
   3  -6  -5    4.92    0.26
  -3  -6   5    4.89    0.43
   3   6  -5    4.38    0.32
  -3   6   5    4.74    0.40
   3   6  -5    5.08    0.30
  -3   6   5    4.75    0.43
  -2  -6   5    0.29    0.29
  -2  -6   5    0.39    0.15
   2  -6  -5    0.24    0.13
   2  -6  -5    0.74    0.15
  -2   6   5    0.03    0.26
  -2   6   5    0.24    0.28
   2   6  -5    0.25    0.16
   2   6  -5    0.32    0.18
   1  -6  -5    0.33    0.14
  -1  -6   5    0.50    0.16
  -1  -6   5    0.63    0.28
  -1   6   5   -0.27    0.26
   1   6  -5    0.33    0.18
  -1   6   5    0.27    0.28
   1   6  -5    0.03    0.19
   0  -6  -5   54.93    1.80
   0  -6   5   57.23    2.05
   0  -6   5   59.00    1.89
   0   6   5   57.40    1.91
   0   6  -5   54.69    1.83
   0   6   5   55.72    2.10
   0   6  -5   58.56    2.03
  -1  -6  -5    0.52    0.15
   1  -6   5    0.48    0.18
   1  -6   5    0.58    0.22
  -1   6  -5    0.14    0.22
   1   6   5    0.42    0.30
  -1   6  -5    0.53    0.21
   1   6   5    0.23    0.23
  -2  -6  -5   74.65    2.44
   2  -6   5   78.48    2.73
  -2   6  -5   79.69    2.76
   2   6   5   77.98    2.56
  -2   6  -5   77.61    2.50
  -3  -6  -5    1.40    0.41
   3  -6   5    1.24    0.23
  -3  -6  -5    1.24    0.18
   3   6   5    1.29    0.19
  -3   6  -5    1.19    0.29
  -3   6  -5    1.35    0.26
   3   6   5    1.38    0.25
  -4  -6  -5  180.92    5.67
   4  -6   5  184.98    6.32
  -4  -6  -5  165.10    6.47
   4   6   5  185.29    5.88
  -4   6  -5  190.73    6.40
   4   6   5  186.48    5.94
  -4   6  -5  194.23    5.73
  -5  -6  -5    0.76    0.18
   5  -6   5    1.53    0.24
  -5  -6  -5    1.15    0.48
  -5   6  -5    0.84    0.28
  -5   6  -5    0.69    0.34
   5   6   5    0.57    0.25
   5   6   5    0.81    0.20
  -6  -6  -5    5.67    0.64
   6  -6   5    5.61    0.40
  -6  -6  -5    5.35    0.36
   6   6   5    4.93    0.42
  -6   6  -5    7.51    0.62
  -6   6  -5    4.64    0.44
   6   6   5    4.68    0.37
  -7  -6  -5    0.85    0.21
  -7  -6  -5   -0.12    0.54
   7  -6   5    0.40    0.26
   7   6   5    0.21    0.28
  -7   6  -5    0.13    0.42
   7   6   5    0.11    0.24
   8  -6   5   40.54    1.59
  -8  -6  -5   41.74    1.41
   8   6   5   40.64    1.49
  -8   6  -5   45.01    1.85
  -9   7   5    0.66    0.41
  -9   7   5    1.96    0.36
   8  -7  -5    0.61    0.29
  -8   7   5    1.22    0.31
  -8   7   5    0.77    0.40
   7  -7  -5    0.28    0.26
  -7   7   5    0.83    0.40
  -7   7   5    0.99    0.32
   7   7  -5    1.03    0.25
  -6  -7   5    0.42    0.29
   6  -7  -5    0.28    0.21
   6   7  -5    0.51    0.17
  -6   7   5    0.56    0.31
  -6   7   5    0.78    0.33
   5  -7  -5    2.87    0.26
  -5  -7   5    3.10    0.37
   5   7  -5    2.96    0.23
  -5   7   5    2.69    0.41
  -5   7   5    3.15    0.38
   4  -7  -5    0.11    0.18
  -4  -7   5    0.27    0.27
  -4   7   5    0.21    0.30
   4   7  -5    0.13    0.19
   4   7  -5    0.45    0.17
  -4   7   5    0.66    0.34
  -3  -7   5   -0.10    0.26
   3  -7  -5    0.32    0.15
  -3   7   5   -0.12    0.29
   3   7  -5    0.08    0.18
   3   7  -5    0.09    0.17
  -3   7   5    0.42    0.30
   2  -7  -5    0.06    0.13
  -2  -7   5    0.16    0.29
  -2   7   5    0.01    0.28
   2   7  -5    0.01    0.16
  -2   7   5    0.69    0.28
   2   7  -5    0.34    0.19
   1  -7  -5    0.14    0.15
  -1  -7   5    0.40    0.28
  -1   7   5    0.00    0.25
   1   7  -5    0.16    0.17
  -1   7   5   -0.29    0.29
   1   7  -5   -0.38    0.19
   0  -7   5    0.95    0.26
   0  -7  -5    0.80    0.16
   0   7   5    1.16    0.28
   0   7   5    1.33    0.34
   0   7  -5    0.58    0.23
   0   7  -5    0.86    0.21
  -1  -7  -5    0.75    0.18
   1  -7   5    0.73    0.24
   1   7   5    0.91    0.34
  -1   7  -5    0.67    0.22
   1   7   5    0.21    0.25
  -1   7  -5    0.33    0.24
  -2  -7  -5    2.46    0.23
   2  -7   5    2.61    0.29
  -2   7  -5    2.14    0.29
   2   7   5    2.98    0.43
   2   7   5    2.13    0.32
  -2   7  -5    2.57    0.33
  -3  -7  -5    8.63    0.42
   3  -7   5    8.56    0.48
   3   7   5    8.74    0.51
  -3   7  -5    8.43    0.50
  -3   7  -5    9.48    0.59
   4  -7   5    0.36    0.22
  -4  -7  -5    0.04    0.41
  -4  -7  -5    0.27    0.18
   4   7   5   -0.33    0.24
  -4   7  -5   -0.03    0.24
  -4   7  -5    0.33    0.31
  -5  -7  -5    0.30    0.20
   5  -7   5    0.30    0.23
  -5  -7  -5    0.43    0.49
  -5   7  -5    0.07    0.29
   5   7   5   -0.13    0.25
  -5   7  -5   -0.05    0.32
   6  -7   5    1.40    0.27
  -6  -7  -5    1.06    0.22
  -6  -7  -5    2.29    0.59
   6   7   5    0.94    0.30
  -6   7  -5    2.39    0.44
  -6   7  -5    0.71    0.36
   7  -7   5    4.07    0.37
  -7  -7  -5    3.38    0.67
  -7  -7  -5    5.04    0.35
  -7   7  -5    3.93    0.54
   7   7   5    3.17    0.38
   8  -8  -5   35.15    1.37
  -8   8   5   35.00    1.34
  -8   8   5   34.68    1.52
   7  -8  -5    0.60    0.27
  -7   8   5    0.33    0.42
  -7   8   5    0.60    0.32
   6  -8  -5   43.60    1.63
  -6   8   5   43.51    1.62
  -6   8   5   44.48    1.79
   6   8  -5   45.35    1.47
  -5  -8   5    6.88    0.53
   5  -8  -5    6.30    0.41
  -5   8   5    6.16    0.59
   5   8  -5    7.17    0.39
  -5   8   5    6.52    0.56
  -4  -8   5   89.00    3.09
   4   8  -5   83.01    3.04
  -4   8   5   86.29    2.91
   4   8  -5   86.36    2.73
  -4   8   5   85.48    3.13
  -3  -8   5    2.50    0.37
   3  -8  -5    2.65    0.23
   3   8  -5    2.85    0.26
  -3   8   5    3.27    0.41
  -3   8   5    3.23    0.42
   3   8  -5    2.83    0.29
   2  -8  -5  266.02    8.01
  -2  -8   5  261.68    8.99
  -2   8   5  256.95    8.33
   2   8  -5  264.72    8.96
   2   8  -5  261.01    8.03
  -2   8   5  257.43    9.05
   1  -8  -5    6.67    0.36
  -1  -8   5    6.34    0.50
  -1   8   5    5.87    0.52
  -1   8   5    7.75    0.60
   1   8  -5    6.44    0.39
   1   8  -5    7.01    0.45
   0  -8   5   17.55    0.79
   0  -8  -5   16.22    0.63
   0   8   5   16.05    0.86
   0   8  -5   15.93    0.67
   0   8   5   16.29    0.74
   0   8  -5   16.17    0.74
  -1  -8  -5    2.75    0.24
   1  -8   5    2.61    0.32
   1   8   5    2.37    0.44
   1   8   5    2.91    0.35
  -1   8  -5    3.16    0.33
  -1   8  -5    2.71    0.30
  -2  -8  -5   23.59    0.84
   2  -8   5   24.09    0.96
  -2   8  -5   22.86    0.90
   2   8   5   21.22    1.10
   2   8   5   23.93    0.96
  -2   8  -5   23.30    0.99
  -3  -8  -5    0.29    0.19
   3  -8   5    0.58    0.24
   3   8   5   -0.29    0.28
  -3   8  -5   -0.17    0.27
  -3   8  -5    0.54    0.32
   3   8   5    0.34    0.38
   4  -8   5   29.15    1.17
  -4  -8  -5   29.85    1.04
   4   8   5   28.38    1.16
  -4   8  -5   29.75    1.13
  -4   8  -5   31.08    1.26
   5  -8   5    0.87    0.28
  -5  -8  -5    0.67    0.22
  -5  -8  -5    0.28    0.51
  -5   8  -5    0.36    0.36
  -5   8  -5    0.68    0.30
   5   8   5    0.73    0.32
   6  -8   5   12.73    0.65
  -6  -8  -5   10.72    0.94
  -6  -8  -5   12.84    0.58
   6   8   5   11.33    0.67
  -6   8  -5   14.02    0.82
   7  -9  -5    0.75    0.28
  -7   9   5    0.10    0.45
  -6   9   5    0.45    0.47
  -6   9   5    1.26    0.35
   6   9  -5    0.72    0.23
  -5   9   5    6.51    0.55
  -5   9   5    6.17    0.60
   5   9  -5    6.78    0.42
  -4  -9   5    0.24    0.31
  -4   9   5    0.79    0.38
   4   9  -5    0.05    0.21
  -4   9   5    0.05    0.40
  -3  -9   5    0.36    0.32
   3  -9  -5    0.82    0.20
   3   9  -5    0.03    0.24
   3   9  -5    0.17    0.21
  -3   9   5    0.33    0.38
  -3   9   5    0.54    0.38
  -2  -9   5    0.29    0.30
   2  -9  -5    0.08    0.18
   2   9  -5    0.21    0.24
  -2   9   5    0.19    0.34
   2   9  -5   -0.08    0.19
  -2   9   5    0.13    0.40
   1  -9  -5    2.54    0.25
  -1  -9   5    2.82    0.37
   1   9  -5    2.85    0.28
   1   9  -5    2.23    0.31
  -1   9   5    2.14    0.45
  -1   9   5    1.94    0.38
   0  -9   5    0.59    0.31
   0  -9  -5    0.06    0.18
   0   9  -5   -0.05    0.21
   0   9   5    0.07    0.38
   0   9   5    0.03    0.30
   0   9  -5    0.39    0.26
   1  -9   5    2.24    0.35
  -1  -9  -5    2.18    0.25
   1   9   5    2.48    0.47
  -1   9  -5    2.64    0.31
  -1   9  -5    2.34    0.33
   1   9   5    2.50    0.39
  -2  -9  -5    0.29    0.20
   2  -9   5    0.21    0.26
  -2   9  -5   -0.20    0.25
   2   9   5    0.25    0.42
  -2   9  -5    0.05    0.28
   2   9   5   -0.07    0.32
   3  -9   5    0.19    0.27
  -3  -9  -5    0.07    0.19
   3   9   5    0.21    0.43
  -3   9  -5   -0.01    0.31
   3   9   5   -0.33    0.31
  -3   9  -5   -0.36    0.28
   4  -9   5    1.06    0.30
  -4  -9  -5    1.00    0.24
   4   9   5    0.37    0.36
  -4   9  -5    0.68    0.38
  -4   9  -5    0.83    0.33
   4   9   5    1.78    0.49
   5  -9   5   12.35    0.68
  -5  -9  -5   12.19    0.57
   5   9   5   11.70    0.70
  -5   9  -5   10.97    0.67
  -5   9  -5   11.68    0.76
   5   9   5   11.48    0.86
   6  10  -5    2.05    0.29
  -5  10   5   -0.04    0.44
   5  10  -5    1.03    0.25
   4  10  -5    2.64    0.31
  -4  10   5    2.65    0.53
  -4  10   5    3.94    0.48
  -3  10   5    3.80    0.55
  -3  10   5    4.28    0.51
   3  10  -5    5.41    0.40
  -2 -10   5    6.31    0.59
   2 -10  -5    6.54    0.41
  -2  10   5    7.22    0.66
   2  10  -5    6.63    0.44
  -2  10   5    6.85    0.56
   2  10  -5    5.27    0.49
   1 -10  -5    1.15    0.23
  -1 -10   5    0.98    0.35
  -1  10   5    1.44    0.41
  -1  10   5    0.33    0.44
   1  10  -5    1.15    0.26
   1  10  -5    0.78    0.29
   0 -10   5   14.55    0.77
   0 -10  -5   13.57    0.61
   0  10   5   14.73    0.98
   0  10  -5   14.78    0.73
   0  10  -5   13.92    0.66
   0  10   5   13.86    0.76
  -1 -10  -5    1.42    0.25
   1 -10   5    1.06    0.34
   1  10   5    0.30    0.47
  -1  10  -5    0.88    0.29
  -1  10  -5    0.91    0.34
   1  10   5    0.36    0.38
   2 -10   5   26.47    1.10
  -2 -10  -5   25.08    0.94
  -2  10  -5   23.91    0.99
   2  10   5   25.64    1.08
   2  10   5   23.18    1.25
  -2  10  -5   25.30    1.12
   3 -10   5    1.14    0.31
  -3 -10  -5    0.99    0.24
   3  10   5    0.98    0.39
  -3  10  -5    1.12    0.35
   3  10   5    0.58    0.50
  -3  10  -5    1.05    0.39
  -4  10  -5  106.20    3.80
   4  10   5  103.34    3.53
  -4  10  -5  104.22    3.40
   2 -11  -5   -0.15    0.22
  -1 -11   5    0.45    0.37
   1 -11  -5    0.20    0.22
   1  11  -5   -0.17    0.33
   0 -11   5    1.59    0.39
   0 -11  -5    1.09    0.26
   0  11   5    0.98    0.42
   0  11  -5    0.73    0.35
   1 -11   5    0.68    0.34
   1  11   5   -0.05    0.39
  -1  11  -5   -0.11    0.34
  -2  11  -5    0.09    0.34
   2  11   5   -0.01    0.40
  11   0  -6   -0.28    0.31
  10   0  -6   86.12    2.94
 -10   0   6   89.41    2.99
  10   0  -6   89.60    3.15
  -9   0   6    0.22    0.21
  -9   0   6    0.02    0.27
   9   0  -6    0.23    0.25
   8   0  -6  120.55    4.10
  -8   0   6  115.97    3.83
  -8   0   6  115.70    3.85
  -7   0   6   -0.03    0.23
   7   0  -6    0.18    0.28
  -7   0   6    0.16    0.17
   7   0  -6   -0.02    0.21
  -6   0   6  170.64    5.58
  -6   0   6  172.83    5.66
   6   0  -6  178.52    6.00
   6   0  -6  177.08    7.80
   5   0  -6    3.76    0.33
  -5   0   6    3.87    0.33
  -5   0   6    3.55    0.29
   5   0  -6    2.69    0.41
  -4   0   6   71.25    2.22
   4   0  -6   67.49    2.10
  -4   0   6   67.23    2.24
   4   0  -6   69.07    2.38
  -4   0   6   65.70    2.32
   4   0  -6   65.87    3.13
   3   0  -6    1.12    0.19
  -3   0   6    1.30    0.22
   3   0  -6    0.78    0.27
  -3   0   6    1.17    0.18
  -3   0   6    1.14    0.19
   2   0  -6  119.02    3.62
  -2   0   6  108.58    4.03
  -2   0   6  120.71    3.82
  -2   0   6  119.91    3.73
  -1   0   6    0.30    0.19
  -1   0   6    0.21    0.13
  -1   0   6    0.22    0.18
   1   0  -6    0.43    0.19
   1   0  -6    0.10    0.24
   0   0  -6   32.57    1.08
   0   0   6   31.27    1.05
   0   0  -6   33.11    1.14
   0   0   6   32.62    1.18
   0   0  -6   30.73    1.54
   0   0   6   31.50    1.10
  -1   0  -6    0.01    0.20
   1   0   6    0.18    0.12
   1   0   6    0.16    0.17
  -1   0  -6    0.11    0.20
   1   0   6    0.25    0.17
  -1   0  -6   -0.16    0.17
  -2   0  -6   45.44    1.52
   2   0   6   43.74    1.62
   2   0   6   47.12    1.50
   2   0   6   45.33    1.55
  -2   0  -6   46.72    1.69
  -2   0  -6   47.31    2.12
   3   0   6    0.31    0.17
   3   0   6    0.12    0.14
   3   0   6    0.30    0.12
  -3   0  -6   -0.05    0.23
  -3   0  -6    0.28    0.28
  -3   0  -6    0.08    0.17
   4   0   6    1.16    0.15
   4   0   6    0.24    0.18
  -4   0  -6    0.83    0.37
  -4   0  -6    0.13    0.25
   4   0   6    0.57    0.16
   5   0   6    4.46    0.27
  -5   0  -6    3.36    0.31
  -5   0  -6    3.83    0.45
   5   0   6    4.29    0.26
   5   0   6    4.11    0.30
   6   0   6  167.60    5.18
  -6   0  -6  169.72    5.76
  -6   0  -6  161.76    5.06
   6   0   6  153.66    5.29
   7   0   6    1.50    0.21
   7   0   6    1.27    0.23
  -7   0  -6    1.18    0.22
  -7   0  -6    1.25    0.42
   8   0   6    5.55    0.42
   8   0   6    7.43    0.40
  -8   0  -6    6.48    0.66
   9   0   6    0.12    0.27
  -9   0  -6    0.02    0.49
  11   1  -6    1.40    0.35
  10  -1  -6   -0.48    0.28
  10  -1  -6    0.38    0.21
 -10  -1   6    0.35    0.32
  10   1  -6   -0.11    0.27
 -10   1   6    0.02    0.31
  10   1  -6    0.47    0.20
   9  -1  -6    5.67    0.44
  -9  -1   6    5.84    0.40
  -9  -1   6    6.46    0.49
  -9   1   6    5.30    0.38
  -9   1   6    6.35    0.50
   9   1  -6    6.44    0.45
   8  -1  -6    1.21    0.26
   8  -1  -6    0.99    0.31
  -8  -1   6    0.85    0.27
  -8  -1   6    1.36    0.23
   8   1  -6    1.39    0.27
  -8   1   6    1.29    0.29
  -8   1   6    0.99    0.21
  -7  -1   6    0.26    0.18
  -7  -1   6   -0.04    0.22
   7  -1  -6    0.06    0.25
   7  -1  -6    0.23    0.20
   7   1  -6    0.00    0.30
   7   1  -6    0.19    0.21
  -7   1   6    0.39    0.24
  -7   1   6    0.20    0.17
   6  -1  -6   -0.03    0.20
  -6  -1   6    0.45    0.24
  -6  -1   6    0.18    0.18
   6  -1  -6    0.28    0.28
   6   1  -6    0.19    0.31
  -6   1   6    0.31    0.22
   6   1  -6    0.37    0.22
  -6   1   6    0.21    0.16
   5  -1  -6    6.92    0.57
  -5  -1   6    6.50    0.39
   5  -1  -6    6.56    0.38
  -5  -1   6    6.32    0.36
  -5   1   6    6.72    0.35
   5   1  -6    5.92    0.67
  -5   1   6    6.88    0.43
  -5   1   6    6.83    0.35
   5   1  -6    6.30    0.41
   4  -1  -6    3.62    0.31
  -4  -1   6    3.33    0.30
  -4  -1   6    3.44    0.29
   4  -1  -6    4.17    0.49
  -4  -1   6    3.75    0.29
   4  -1  -6    3.77    0.19
  -4   1   6    3.40    0.29
  -4   1   6    3.83    0.30
   4   1  -6    2.99    0.41
   4   1  -6    3.64    0.26
  -4   1   6    3.43    0.24
  -3  -1   6    0.05    0.18
  -3  -1   6    0.06    0.16
   3  -1  -6   -0.05    0.16
  -3  -1   6    0.17    0.22
   3  -1  -6    0.31    0.26
   3  -1  -6    0.13    0.13
  -3   1   6    0.38    0.10
   3   1  -6    0.45    0.16
  -3   1   6    0.16    0.17
   3   1  -6    0.07    0.28
  -3   1   6    0.10    0.19
   2  -1  -6    0.00    0.23
  -2  -1   6   -0.01    0.20
   2  -1  -6    0.30    0.14
  -2  -1   6    0.03    0.14
  -2  -1   6    0.04    0.17
  -2   1   6   -0.02    0.16
  -2   1   6    0.30    0.17
  -2   1   6    0.13    0.08
   2   1  -6    0.14    0.17
   2   1  -6    0.05    0.25
  -1  -1   6    1.86    0.26
   1  -1  -6    1.93    0.28
  -1  -1   6    1.93    0.23
   1  -1  -6    2.07    0.21
  -1  -1   6    2.18    0.19
   1   1  -6    2.45    0.32
  -1   1   6    2.12    0.21
  -1   1   6    1.56    0.23
  -1   1   6    2.12    0.19
  -1   1   6    2.41    0.17
   1   1  -6    2.43    0.24
   0  -1  -6    0.21    0.17
   0  -1  -6   -0.06    0.13
   0  -1   6    0.21    0.10
   0  -1   6    0.13    0.16
   0  -1  -6    0.40    0.20
   0  -1   6    0.57    0.19
   0   1   6    0.38    0.17
   0   1  -6    0.02    0.22
   0   1   6    0.38    0.17
   0   1  -6    0.31    0.15
   0   1  -6    0.16    0.20
   0   1   6    0.26    0.13
   1  -1   6    8.70    0.40
   1  -1   6    8.77    0.42
  -1  -1  -6    8.70    0.42
  -1  -1  -6    9.37    0.45
  -1  -1  -6    8.25    0.52
   1  -1   6    8.44    0.33
   1   1   6    9.30    0.42
  -1   1  -6    9.27    0.44
  -1   1  -6    7.85    0.56
   1   1   6    8.73    0.36
  -1   1  -6    7.50    0.45
   1   1   6    8.40    0.40
   2  -1   6    1.44    0.13
  -2  -1  -6    1.11    0.22
  -2  -1  -6    1.14    0.20
   2  -1   6    1.52    0.18
   2  -1   6    1.55    0.20
  -2  -1  -6    1.17    0.27
   2   1   6    1.43    0.20
   2   1   6    1.60    0.18
   2   1   6    1.44    0.16
  -2   1  -6    1.71    0.27
  -2   1  -6    1.30    0.26
  -2   1  -6    1.40    0.26
   3  -1   6   -0.18    0.16
   3  -1   6    0.06    0.11
  -3  -1  -6   -0.04    0.22
   3  -1   6    0.24    0.16
  -3  -1  -6    0.10    0.28
  -3  -1  -6    0.24    0.15
  -3   1  -6   -0.09    0.21
   3   1   6    0.14    0.14
   3   1   6    0.29    0.13
   3   1   6    0.22    0.17
  -3   1  -6   -0.04    0.25
  -3   1  -6    0.11    0.29
  -4  -1  -6    6.10    0.41
   4  -1   6    7.28    0.31
  -4  -1  -6    7.55    0.58
   4  -1   6    7.36    0.37
   4  -1   6    7.00    0.38
   4   1   6    7.16    0.34
  -4   1  -6    7.24    0.56
   4   1   6    7.05    0.38
   4   1   6    7.41    0.35
  -4   1  -6    7.64    0.46
   5  -1   6   13.38    0.56
   5  -1   6   14.15    0.57
  -5  -1  -6   13.13    0.56
  -5  -1  -6   12.91    0.77
   5  -1   6   14.18    0.52
   5   1   6   14.18    0.54
  -5   1  -6   14.33    0.77
   5   1   6   13.27    0.56
  -5   1  -6   14.59    0.63
  -6  -1  -6    0.21    0.38
   6  -1   6    0.21    0.17
   6  -1   6    0.13    0.14
  -6  -1  -6   -0.23    0.18
   6  -1   6    0.09    0.18
  -6   1  -6   -0.06    0.22
  -6   1  -6    0.03    0.37
   6   1   6   -0.01    0.18
   6   1   6    0.15    0.17
  -7  -1  -6    2.70    0.26
   7  -1   6    2.36    0.27
   7  -1   6    2.73    0.23
  -7  -1  -6    2.38    0.49
   7   1   6    2.37    0.27
   7   1   6    2.66    0.26
  -7   1  -6    2.92    0.50
  -7   1  -6    2.77    0.29
   8  -1   6   -0.04    0.24
  -8  -1  -6    0.09    0.44
  -8  -1  -6    0.32    0.20
  -8   1  -6    0.11    0.46
   8   1   6   -0.27    0.24
   8   1   6    0.24    0.20
   9  -1   6    0.43    0.26
  -9  -1  -6    0.80    0.52
  -9   1  -6    0.97    0.49
   9   1   6    0.23    0.24
   9   1   6    0.23    0.27
  11   2  -6   -0.58    0.28
 -10  -2   6    8.01    0.58
  10  -2  -6    7.93    0.43
  10  -2  -6    7.14    0.56
 -10   2   6    7.54    0.58
  10   2  -6    6.68    0.54
  10   2  -6    7.64    0.44
  -9  -2   6    0.13    0.22
  -9  -2   6    0.24    0.28
   9  -2  -6   -0.28    0.24
  -9   2   6    0.25    0.28
  -9   2   6   -0.03    0.20
   9   2  -6   -0.10    0.24
  -8  -2   6   54.97    1.93
   8  -2  -6   56.64    2.59
  -8  -2   6   55.22    1.91
   8  -2  -6   56.14    2.02
  -8   2   6   55.13    1.90
   8   2  -6   55.83    2.04
  -8   2   6   58.30    1.95
  -7  -2   6    0.75    0.25
   7  -2  -6    0.47    0.21
  -7  -2   6    0.61    0.20
   7  -2  -6    0.49    0.23
   7   2  -6    0.63    0.24
  -7   2   6    0.64    0.25
  -7   2   6    0.63    0.18
   7   2  -6    0.39    0.33
   6  -2  -6    0.32    0.19
  -6  -2   6    0.89    0.23
  -6  -2   6    0.77    0.19
   6  -2  -6    0.71    0.26
   6   2  -6    0.51    0.22
  -6   2   6    0.54    0.20
  -6   2   6    0.48    0.16
   6   2  -6    0.47    0.31
  -6   2   6    0.80    0.24
   5  -2  -6    4.40    0.47
  -5  -2   6    4.17    0.31
   5  -2  -6    4.68    0.32
  -5  -2   6    4.10    0.36
   5   2  -6    4.27    0.25
  -5   2   6    3.76    0.31
   5   2  -6    4.75    0.57
  -5   2   6    4.67    0.40
  -5   2   6    4.13    0.28
   4  -2  -6  162.48    4.82
   4  -2  -6  162.92    7.04
  -4  -2   6  152.92    5.13
  -4  -2   6  148.03    5.46
   4  -2  -6  162.86    5.42
  -4  -2   6  156.49    5.03
   4   2  -6  161.14    4.86
   4   2  -6  166.14    7.09
  -4   2   6  159.78    5.06
  -4   2   6  157.44    5.12
  -4   2   6  152.94    5.42
   3  -2  -6    0.42    0.14
   3  -2  -6    0.56    0.11
  -3  -2   6    0.46    0.16
   3  -2  -6    0.46    0.23
  -3  -2   6    0.78    0.18
  -3  -2   6    0.04    0.23
   3   2  -6    0.69    0.16
   3   2  -6    0.45    0.29
  -3   2   6    0.27    0.13
  -3   2   6    0.75    0.23
  -3   2   6    0.52    0.17
   2  -2  -6  190.36    8.28
  -2  -2   6  187.04    6.05
  -2  -2   6  181.98    5.90
   2  -2  -6  192.32    6.37
   2  -2  -6  196.42    5.72
  -2  -2   6  180.56    6.42
   2   2  -6  191.59    8.32
   2   2  -6  194.30    5.74
  -2   2   6  181.00    6.38
  -2   2   6  186.99    6.05
  -2   2   6  177.11    5.93
  -1  -2   6    0.94    0.13
   1  -2  -6    0.69    0.12
   1  -2  -6    0.91    0.16
   1  -2  -6    0.57    0.20
  -1  -2   6    0.86    0.19
  -1  -2   6    0.80    0.24
   1   2  -6    0.88    0.27
  -1   2   6    0.80    0.21
   1   2  -6    0.66    0.17
   1   2  -6    1.04    0.11
  -1   2   6    0.90    0.17
  -1   2   6    1.10    0.15
   0  -2   6  355.75   12.60
   0  -2   6  358.62   11.62
   0  -2  -6  385.67   11.31
   0  -2   6  356.12   11.89
   0  -2  -6  387.33   16.28
   0  -2  -6  357.51   12.63
   0   2   6  365.92   11.89
   0   2  -6  395.53   12.61
   0   2  -6  383.41   11.33
   0   2   6  352.52   12.55
   0   2   6  372.99   11.66
   0   2  -6  383.24   16.34
  -1  -2  -6    2.26    0.26
   1  -2   6    1.98    0.22
  -1  -2  -6    2.01    0.21
  -1  -2  -6    1.72    0.23
   1  -2   6    2.11    0.15
   1  -2   6    2.34    0.23
   1   2   6    1.92    0.16
  -1   2  -6    2.22    0.22
   1   2   6    2.32    0.20
  -1   2  -6    2.60    0.27
  -1   2  -6    1.78    0.30
   1   2   6    1.97    0.22
   2  -2   6   13.28    0.53
   2  -2   6   12.07    0.42
  -2  -2  -6   13.16    0.50
  -2  -2  -6   11.25    0.62
   2  -2   6   11.65    0.50
  -2  -2  -6   11.36    0.63
   2   2   6   11.42    0.48
  -2   2  -6   12.03    0.72
   2   2   6   11.30    0.48
   2   2   6   11.14    0.49
  -2   2  -6   11.81    0.57
  -2   2  -6   10.17    0.56
   3  -2   6    0.54    0.11
  -3  -2  -6    0.47    0.20
  -3  -2  -6    0.37    0.15
   3  -2   6    0.37    0.19
   3  -2   6    0.52    0.17
  -3  -2  -6    0.66    0.34
   3   2   6    0.66    0.16
   3   2   6    0.45    0.18
  -3   2  -6    0.62    0.24
  -3   2  -6    0.69    0.28
  -3   2  -6    0.40    0.27
   4  -2   6  105.23    3.74
  -4  -2  -6  110.27    3.88
   4  -2   6  109.31    3.44
   4  -2   6  107.87    3.54
  -4  -2  -6  108.43    3.39
  -4   2  -6  112.68    3.84
   4   2   6  108.14    3.48
  -4   2  -6  106.39    3.43
   4   2   6  109.89    3.55
  -5  -2  -6    1.59    0.22
   5  -2   6    1.72    0.22
  -5  -2  -6    1.16    0.39
   5  -2   6    1.75    0.20
  -5   2  -6    1.59    0.29
   5   2   6    1.49    0.20
  -5   2  -6    1.63    0.38
   5   2   6    1.66    0.22
   6  -2   6  170.59    5.85
  -6  -2  -6  168.61    5.28
   6  -2   6  166.79    5.54
  -6  -2  -6  169.93    6.04
  -6   2  -6  173.49    6.02
  -6   2  -6  178.44    5.32
   6   2   6  172.53    5.45
   6   2   6  167.87    5.55
  -7  -2  -6    1.12    0.45
   7  -2   6    0.45    0.19
   7  -2   6   -0.04    0.20
  -7  -2  -6    0.00    0.18
   7   2   6    0.33    0.21
  -7   2  -6    0.28    0.42
   7   2   6    0.06    0.18
  -7   2  -6    0.05    0.23
  -8  -2  -6    3.53    0.60
   8  -2   6    3.55    0.33
  -8  -2  -6    3.84    0.33
  -8   2  -6    4.24    0.60
   8   2   6    3.55    0.31
   8   2   6    3.00    0.32
  -9  -2  -6   -0.05    0.49
   9  -2   6    0.02    0.27
  -9   2  -6    1.06    0.49
   9   2   6    0.00    0.22
   9   2   6   -0.40    0.25
  10  -3  -6    0.95    0.20
 -10  -3   6   -0.25    0.33
  10  -3  -6    0.27    0.30
 -10   3   6    0.76    0.34
  10   3  -6    1.07    0.23
  10   3  -6    0.19    0.28
  -9  -3   6    2.93    0.38
   9  -3  -6    2.19    0.33
  -9  -3   6    2.81    0.31
   9   3  -6    3.14    0.36
  -9   3   6    2.61    0.37
  -8  -3   6    0.79    0.22
   8  -3  -6    0.42    0.23
  -8  -3   6    0.53    0.28
   8  -3  -6    0.60    0.24
   8   3  -6    0.98    0.26
  -8   3   6    0.34    0.19
  -8   3   6    0.89    0.29
  -7  -3   6    0.09    0.19
   7  -3  -6    0.27    0.20
  -7  -3   6   -0.18    0.22
   7  -3  -6    0.31    0.23
  -7   3   6   -0.40    0.23
   7   3  -6    0.09    0.23
   7   3  -6    0.07    0.31
  -7   3   6   -0.06    0.22
  -7   3   6   -0.22    0.16
   6  -3  -6    0.05    0.21
  -6  -3   6    0.31    0.19
   6  -3  -6    0.06    0.18
  -6  -3   6    0.22    0.21
  -6   3   6    0.20    0.20
  -6   3   6    0.35    0.16
  -6   3   6    0.27    0.26
   6   3  -6    0.36    0.30
   6   3  -6    0.20    0.22
  -5  -3   6    1.74    0.23
  -5  -3   6    1.70    0.25
   5  -3  -6    1.76    0.22
   5  -3  -6    1.91    0.29
  -5  -3   6    1.96    0.33
   5   3  -6    1.98    0.19
  -5   3   6    2.41    0.31
   5   3  -6    1.94    0.35
  -5   3   6    1.92    0.25
  -5   3   6    2.20    0.21
  -4  -3   6    2.05    0.32
  -4  -3   6    1.73    0.22
   4  -3  -6    1.80    0.21
   4  -3  -6    1.39    0.27
   4  -3  -6    1.98    0.15
  -4  -3   6    1.90    0.22
  -4   3   6    1.70    0.30
   4   3  -6    2.12    0.19
  -4   3   6    1.90    0.22
   4   3  -6    1.68    0.34
  -4   3   6    1.61    0.19
  -3  -3   6    5.28    0.44
  -3  -3   6    5.21    0.31
   3  -3  -6    5.55    0.30
   3  -3  -6    5.58    0.46
   3  -3  -6    5.24    0.25
  -3  -3   6    5.63    0.34
  -3   3   6    5.81    0.32
  -3   3   6    5.20    0.41
   3   3  -6    5.78    0.25
   3   3  -6    5.24    0.56
   3   3  -6    5.49    0.31
  -3   3   6    5.58    0.31
  -2  -3   6    3.24    0.22
   2  -3  -6    3.23    0.21
   2  -3  -6    3.12    0.38
  -2  -3   6    3.84    0.29
   2  -3  -6    2.99    0.21
  -2  -3   6    3.64    0.34
  -2   3   6    3.17    0.29
   2   3  -6    3.31    0.19
  -2   3   6    3.31    0.28
   2   3  -6    3.40    0.27
   2   3  -6    2.37    0.36
  -2   3   6    3.10    0.27
   1  -3  -6    1.36    0.23
  -1  -3   6    1.69    0.15
  -1  -3   6    1.80    0.27
  -1  -3   6    1.52    0.23
   1  -3  -6    1.67    0.17
   1  -3  -6    1.51    0.16
   1   3  -6    1.55    0.22
  -1   3   6    1.44    0.21
   1   3  -6    1.23    0.30
  -1   3   6    1.58    0.22
   1   3  -6    1.63    0.15
  -1   3   6    1.51    0.23
   0  -3  -6    1.38    0.17
   0  -3  -6    1.25    0.11
   0  -3   6    1.03    0.24
   0  -3  -6    1.52    0.23
   0  -3  -6    1.04    0.21
   0  -3   6    1.16    0.20
   0   3  -6    1.44    0.18
   0   3   6    1.60    0.21
   0   3   6    1.17    0.20
   0   3  -6    1.13    0.29
   0   3  -6    1.65    0.23
   1  -3   6    0.69    0.18
   1  -3   6    0.57    0.20
  -1  -3  -6    0.50    0.18
  -1  -3  -6    0.33    0.25
  -1  -3  -6    0.62    0.17
  -1   3  -6    1.14    0.24
  -1   3  -6    0.86    0.19
   1   3   6    0.58    0.18
   1   3   6    0.50    0.19
  -2  -3  -6   -0.03    0.16
   2  -3   6   -0.11    0.18
  -2  -3  -6   -0.06    0.17
   2  -3   6    0.06    0.18
  -2  -3  -6    0.14    0.29
   2   3   6    0.11    0.17
  -2   3  -6    0.05    0.20
  -2   3  -6   -0.13    0.25
   2   3   6    0.12    0.17
   3  -3   6    6.71    0.37
  -3  -3  -6    6.39    0.55
   3  -3   6    6.05    0.37
  -3  -3  -6    6.40    0.36
  -3   3  -6    6.26    0.46
   3   3   6    6.76    0.36
  -3   3  -6    6.51    0.54
  -3   3  -6    7.40    0.50
   3   3   6    6.63    0.38
   4  -3   6    0.75    0.19
  -4  -3  -6    0.90    0.19
   4  -3   6    0.83    0.19
  -4  -3  -6    0.56    0.35
   4   3   6    1.01    0.19
  -4   3  -6    0.85    0.29
  -4   3  -6    0.34    0.28
   4   3   6    0.64    0.18
   5  -3   6    2.55    0.24
  -5  -3  -6    2.49    0.24
   5  -3   6    2.46    0.24
  -5  -3  -6    2.41    0.44
   5   3   6    2.49    0.24
   5   3   6    2.53    0.24
  -5   3  -6    2.60    0.33
  -5   3  -6    2.73    0.39
  -6  -3  -6    1.48    0.47
  -6  -3  -6    1.52    0.22
   6  -3   6    1.25    0.22
   6  -3   6    1.45    0.23
  -6   3  -6    1.89    0.40
  -6   3  -6    1.36    0.30
   6   3   6    1.20    0.22
   6   3   6    1.12    0.22
  -7  -3  -6    7.89    0.40
  -7  -3  -6    7.72    0.72
   7  -3   6    7.97    0.45
   7  -3   6    7.15    0.43
  -7   3  -6    7.35    0.50
   7   3   6    7.80    0.44
   7   3   6    7.88    0.46
  -7   3  -6    8.92    0.75
  -8  -3  -6    0.58    0.20
   8  -3   6    0.78    0.24
   8  -3   6    0.27    0.24
  -8  -3  -6    0.64    0.51
   8   3   6    0.25    0.26
   8   3   6    0.25    0.23
  -8   3  -6    0.24    0.48
   9  -3   6    0.61    0.27
 -10  -4   6   66.45    2.24
  10  -4  -6   65.02    2.34
  10   4  -6   61.64    2.33
 -10   4   6   62.96    2.23
  10   4  -6   62.78    2.18
  -9  -4   6    0.04    0.25
  -9  -4   6    0.51    0.31
   9  -4  -6    0.27    0.29
   9  -4  -6    0.94    0.18
  -9   4   6    0.72    0.32
   9   4  -6    0.58    0.27
   8  -4  -6   80.17    2.78
  -8  -4   6   77.40    2.63
  -8  -4   6   78.84    2.64
  -8   4   6   77.50    2.59
  -8   4   6   79.78    2.64
   8   4  -6   76.25    2.80
   7  -4  -6    0.04    0.22
  -7  -4   6    0.08    0.25
  -7  -4   6    0.16    0.19
   7   4  -6    0.05    0.24
  -7   4   6    0.08    0.16
   7   4  -6    0.22    0.30
  -7   4   6    0.12    0.25
  -7   4   6    0.17    0.26
  -6  -4   6  162.91    5.43
   6  -4  -6  170.67    5.83
   6  -4  -6  173.72    7.54
  -6  -4   6  172.97    5.52
   6   4  -6  175.40    7.61
  -6   4   6  172.58    5.49
  -6   4   6  162.04    5.87
  -6   4   6  169.87    5.47
   5  -4  -6    5.51    0.35
  -5  -4   6    6.48    0.47
   5  -4  -6    5.62    0.47
  -5  -4   6    5.35    0.36
  -5  -4   6    5.54    0.37
  -5   4   6    6.33    0.45
  -5   4   6    5.01    0.38
   5   4  -6    6.63    0.62
   5   4  -6    5.54    0.29
  -5   4   6    6.30    0.30
   4  -4  -6   36.00    1.68
  -4  -4   6   35.75    1.21
   4  -4  -6   35.67    1.28
  -4  -4   6   34.64    1.23
  -4  -4   6   35.17    1.37
  -4   4   6   35.93    1.31
  -4   4   6   36.44    1.20
   4   4  -6   34.50    1.16
   4   4  -6   34.24    1.77
  -4   4   6   35.61    1.28
  -3  -4   6   -0.30    0.26
   3  -4  -6    0.05    0.11
  -3  -4   6    0.12    0.18
   3  -4  -6    0.31    0.22
  -3  -4   6   -0.11    0.16
   3  -4  -6    0.12    0.14
  -3   4   6    0.03    0.19
   3   4  -6    0.08    0.12
  -3   4   6    0.07    0.26
   3   4  -6   -0.11    0.16
   3   4  -6   -0.25    0.31
  -3   4   6    0.22    0.16
  -2  -4   6   72.89    2.34
   2  -4  -6   69.79    2.42
   2  -4  -6   71.64    2.19
  -2  -4   6   69.39    2.52
   2  -4  -6   68.82    3.18
  -2   4   6   70.79    2.32
  -2   4   6   70.32    2.49
   2   4  -6   71.54    2.44
  -2   4   6   69.62    2.32
   2   4  -6   70.49    2.23
  -1  -4   6    1.45    0.21
   1  -4  -6    0.83    0.22
   1  -4  -6    0.78    0.15
   1  -4  -6    1.03    0.12
  -1  -4   6    1.33    0.27
  -1   4   6    1.12    0.22
  -1   4   6    1.37    0.24
   1   4  -6    0.96    0.23
   1   4  -6    1.03    0.17
  -1   4   6    1.23    0.23
   0  -4  -6   30.47    1.45
   0  -4   6   29.08    1.09
   0  -4   6   30.50    1.18
   0  -4  -6   30.56    1.02
   0   4   6   32.20    1.08
   0   4  -6   31.28    1.07
   0   4  -6   31.81    1.13
   0   4   6   30.24    1.19
   0   4   6   31.97    1.09
   1  -4   6    0.14    0.21
  -1  -4  -6    0.40    0.16
  -1  -4  -6    0.39    0.27
   1  -4   6    0.10    0.18
   1   4   6    0.32    0.21
   1   4   6    0.20    0.19
  -1   4  -6    0.12    0.23
  -1   4  -6    0.32    0.20
   2  -4   6   33.38    1.16
  -2  -4  -6   32.72    1.11
  -2  -4  -6   32.61    1.35
   2  -4   6   33.47    1.24
   2   4   6   33.89    1.16
  -2   4  -6   34.20    1.17
  -2   4  -6   32.71    1.25
   2   4   6   33.11    1.16
   3  -4   6    0.25    0.20
  -3  -4  -6    0.30    0.17
  -3  -4  -6    0.24    0.33
   3  -4   6    0.41    0.18
   3   4   6    0.36    0.19
  -3   4  -6    0.32    0.25
   3   4   6    0.09    0.18
  -3   4  -6    0.18    0.26
  -4  -4  -6    0.33    0.37
   4  -4   6    0.26    0.20
  -4  -4  -6    0.01    0.17
   4   4   6   -0.13    0.18
  -4   4  -6    0.47    0.27
  -4   4  -6    0.74    0.28
   4   4   6    0.34    0.18
  -5  -4  -6    3.77    0.54
   5  -4   6    3.99    0.33
   5  -4   6    4.72    0.35
  -5  -4  -6    4.61    0.31
  -5   4  -6    4.99    0.45
  -5   4  -6    4.08    0.40
   5   4   6    4.80    0.32
   5   4   6    4.42    0.34
  -6  -4  -6  114.26    4.22
  -6  -4  -6  114.74    3.62
   6  -4   6  117.53    3.80
   6  -4   6  112.32    4.02
  -6   4  -6  120.00    4.16
   6   4   6  115.65    3.76
  -6   4  -6  118.05    3.69
   6   4   6  116.10    3.81
   7  -4   6    1.81    0.27
  -7  -4  -6    1.56    0.51
   7  -4   6    2.55    0.28
  -7  -4  -6    2.28    0.24
  -7   4  -6    1.48    0.34
   7   4   6    1.66    0.27
  -7   4  -6    2.74    0.49
   7   4   6    1.98    0.28
  -8  -4  -6    9.40    0.47
   8  -4   6    9.79    0.54
  -8  -4  -6    8.52    0.78
   8  -4   6    9.88    0.50
   8   4   6    9.39    0.53
   8   4   6    8.32    0.54
  -8   4  -6    9.83    0.81
   9  -4   6    1.37    0.28
 -10  -5   6   -0.31    0.32
  10   5  -6    0.08    0.30
   9  -5  -6    5.71    0.46
  -9  -5   6    7.13    0.58
  -9   5   6    6.93    0.54
   9   5  -6    6.05    0.47
  -8  -5   6    0.40    0.23
  -8  -5   6    1.08    0.32
   8  -5  -6    0.98    0.28
   8   5  -6    0.74    0.28
  -8   5   6    0.88    0.31
  -7  -5   6    0.41    0.20
  -7  -5   6    0.59    0.27
   7  -5  -6    0.03    0.22
  -7   5   6    0.62    0.27
   7   5  -6    0.54    0.25
  -7   5   6    0.46    0.28
   7   5  -6    0.41    0.30
   6  -5  -6   -0.10    0.20
  -6  -5   6    0.06    0.19
  -6  -5   6    0.09    0.29
  -6  -5   6   -0.09    0.24
  -6   5   6    0.39    0.30
   6   5  -6    0.19    0.30
  -6   5   6    0.14    0.26
  -5  -5   6    7.51    0.44
  -5  -5   6    7.34    0.40
   5  -5  -6    7.23    0.41
  -5  -5   6    7.72    0.54
   5   5  -6    6.88    0.68
   5   5  -6    7.03    0.34
  -5   5   6    7.80    0.51
  -5   5   6    7.04    0.47
   4  -5  -6    2.61    0.23
  -4  -5   6    2.46    0.33
  -4  -5   6    2.57    0.24
   4   5  -6    2.40    0.38
  -4   5   6    2.81    0.30
  -4   5   6    2.91    0.35
   4   5  -6    2.40    0.20
  -4   5   6    2.88    0.22
  -3  -5   6    1.28    0.30
  -3  -5   6    1.09    0.19
   3  -5  -6    1.10    0.15
   3  -5  -6    0.87    0.16
  -3   5   6    0.81    0.28
   3   5  -6    0.92    0.16
  -3   5   6    0.92    0.15
   3   5  -6    1.13    0.20
  -3   5   6    0.85    0.25
   2  -5  -6    0.47    0.14
  -2  -5   6    0.57    0.19
   2  -5  -6    0.43    0.15
  -2  -5   6    0.54    0.29
  -2   5   6    0.58    0.17
  -2   5   6    0.81    0.27
  -2   5   6    0.32    0.26
   2   5  -6    0.52    0.19
   2   5  -6    0.44    0.16
  -1  -5   6    7.94    0.39
  -1  -5   6    7.19    0.49
   1  -5  -6    6.70    0.34
  -1   5   6    7.27    0.47
   1   5  -6    7.00    0.41
  -1   5   6    7.41    0.45
   1   5  -6    7.33    0.39
  -1   5   6    7.32    0.40
   0  -5  -6    2.05    0.20
   0  -5   6    2.18    0.24
   0  -5   6    1.84    0.29
   0   5   6    2.35    0.34
   0   5  -6    2.35    0.28
   0   5   6    2.00    0.27
   0   5   6    2.12    0.25
   0   5  -6    2.10    0.23
   1  -5   6   19.55    0.81
  -1  -5  -6   19.06    0.70
   1  -5   6   19.23    0.74
  -1   5  -6   19.79    0.78
   1   5   6   19.32    0.77
  -1   5  -6   20.59    0.80
   1   5   6   19.81    0.73
   2  -5   6    2.52    0.26
   2  -5   6    2.67    0.23
  -2  -5  -6    2.37    0.38
  -2  -5  -6    2.66    0.22
   2   5   6    2.34    0.27
   2   5   6    3.22    0.28
  -2   5  -6    2.89    0.31
  -2   5  -6    2.94    0.30
   3  -5   6    4.20    0.34
   3  -5   6    5.12    0.32
  -3  -5  -6    4.01    0.30
  -3  -5  -6    3.68    0.47
   3   5   6    3.96    0.34
  -3   5  -6    3.97    0.37
   3   5   6    4.73    0.31
  -3   5  -6    4.43    0.35
   4  -5   6   11.25    0.49
  -4  -5  -6    9.69    0.47
  -4  -5  -6    8.63    0.73
   4  -5   6   10.77    0.53
   4   5   6   11.02    0.48
  -4   5  -6   10.27    0.56
   4   5   6   11.31    0.52
  -4   5  -6   10.09    0.63
  -5  -5  -6   16.89    0.65
   5  -5   6   17.51    0.69
   5  -5   6   17.09    0.73
  -5  -5  -6   14.65    0.94
   5   5   6   18.14    0.69
  -5   5  -6   17.46    0.85
  -5   5  -6   16.33    0.78
   5   5   6   17.32    0.72
  -6  -5  -6   -0.18    0.44
   6  -5   6    0.33    0.22
   6  -5   6    0.72    0.22
  -6  -5  -6    0.42    0.20
   6   5   6   -0.14    0.22
   6   5   6    0.29    0.23
  -6   5  -6    0.45    0.37
  -6   5  -6   -0.22    0.31
  -7  -5  -6    0.60    0.54
   7  -5   6    0.39    0.24
   7  -5   6    0.05    0.22
  -7  -5  -6    0.36    0.21
   7   5   6   -0.07    0.25
   7   5   6    0.04    0.23
  -7   5  -6    0.19    0.40
  -8  -5  -6    0.15    0.20
   8  -5   6    0.53    0.25
  -8   5  -6    0.41    0.45
   8   5   6   -0.26    0.26
   8   5   6   -0.24    0.25
   9  -6  -6    0.31    0.30
   9   6  -6    1.17    0.23
   9   6  -6   -0.01    0.28
  -9   6   6    0.88    0.35
   8  -6  -6   21.73    0.96
  -8  -6   6   24.12    0.91
   8   6  -6   22.22    0.98
  -8   6   6   24.28    0.98
  -7  -6   6    2.31    0.28
   7  -6  -6    2.26    0.31
   7   6  -6    3.34    0.34
  -7   6   6    2.78    0.39
   7   6  -6    2.59    0.42
  -7   6   6    2.74    0.37
   6  -6  -6    7.97    0.47
  -6  -6   6    8.00    0.44
  -6  -6   6    9.28    0.58
   6   6  -6    7.92    0.74
  -6   6   6    8.70    0.57
  -6   6   6    7.75    0.55
  -5  -6   6    0.03    0.18
  -5  -6   6    0.29    0.30
   5  -6  -6    0.09    0.20
  -5   6   6    0.05    0.30
   5   6  -6    0.57    0.32
   5   6  -6    0.23    0.16
  -5   6   6    0.16    0.28
  -4  -6   6   62.05    2.08
   4  -6  -6   62.25    2.18
  -4  -6   6   62.49    2.28
  -4   6   6   61.88    2.27
  -4   6   6   62.83    2.14
   4   6  -6   61.82    1.98
  -3  -6   6    2.57    0.23
  -3  -6   6    3.23    0.36
   3  -6  -6    2.55    0.24
   3  -6  -6    2.64    0.22
  -3   6   6    2.76    0.34
  -3   6   6    2.75    0.35
   3   6  -6    3.07    0.24
   2  -6  -6   76.79    2.41
  -2  -6   6   78.55    2.55
  -2  -6   6   78.94    2.78
  -2   6   6   77.42    2.77
  -2   6   6   76.00    2.56
   2   6  -6   76.54    2.45
   2   6  -6   76.40    2.70
  -1  -6   6   -0.04    0.17
   1  -6  -6    0.11    0.15
  -1  -6   6   -0.22    0.24
   1   6  -6    0.26    0.17
   1   6  -6   -0.06    0.19
  -1   6   6    0.13    0.24
  -1   6   6    0.01    0.27
   0  -6   6  258.06    8.06
   0  -6  -6  248.92    7.66
   0  -6   6  243.56    8.57
   0   6   6  244.86    8.63
   0   6   6  247.19    7.94
   0   6  -6  261.78    8.57
   0   6  -6  247.85    7.70
  -1  -6  -6    0.64    0.16
   1  -6   6    0.72    0.24
   1  -6   6    0.87    0.19
   1   6   6    0.65    0.23
  -1   6  -6    0.81    0.23
   1   6   6    0.79    0.31
  -1   6  -6    0.47    0.24
   2  -6   6    8.86    0.44
  -2  -6  -6    7.92    0.39
   2  -6   6    7.76    0.46
  -2   6  -6    7.77    0.47
   2   6   6    8.49    0.47
  -2   6  -6    7.94    0.48
  -3  -6  -6    0.09    0.40
  -3  -6  -6    0.47    0.17
   3  -6   6    0.22    0.21
  -3   6  -6    0.24    0.25
  -3   6  -6    0.51    0.29
   3   6   6    0.26    0.23
   4  -6   6   80.63    2.86
  -4  -6  -6   80.67    3.04
  -4  -6  -6   78.24    2.56
  -4   6  -6   84.02    2.63
   4   6   6   79.68    2.68
   4   6   6   80.63    2.68
  -4   6  -6   83.26    2.93
  -5  -6  -6    0.44    0.19
   5  -6   6    0.56    0.23
  -5  -6  -6   -0.26    0.45
  -5   6  -6    0.12    0.34
   5   6   6    0.33    0.21
  -5   6  -6    0.27    0.29
   5   6   6    0.21    0.24
  -6  -6  -6   90.10    3.55
  -6  -6  -6   95.84    3.00
   6  -6   6   94.51    3.34
  -6   6  -6   91.06    3.08
   6   6   6   95.57    3.14
  -6   6  -6  101.40    3.47
   6   6   6   94.31    3.13
  -7  -6  -6   -0.24    0.51
  -7  -6  -6    0.11    0.21
   7  -6   6    0.44    0.25
   7   6   6    0.02    0.27
  -7   6  -6   -0.13    0.40
   7   6   6   -0.20    0.25
   8  -7  -6    0.19    0.30
  -8   7   6    0.39    0.34
   7  -7  -6   -0.03    0.26
   7   7  -6    0.20    0.35
  -7   7   6    0.50    0.33
  -7   7   6    0.16    0.36
  -6  -7   6   -0.04    0.30
   6  -7  -6    0.01    0.23
  -6   7   6    0.25    0.33
   6   7  -6    0.05    0.17
   6   7  -6    0.41    0.35
  -6   7   6   -0.17    0.33
   5  -7  -6    0.27    0.20
  -5  -7   6    0.36    0.31
   5   7  -6    0.24    0.17
  -5   7   6    0.79    0.33
  -5   7   6    0.63    0.33
  -4  -7   6    1.03    0.33
  -4   7   6    1.16    0.35
  -4   7   6    1.44    0.33
   4   7  -6    1.60    0.21
   3  -7  -6    4.18    0.29
  -3  -7   6    4.93    0.42
   3   7  -6    4.08    0.31
  -3   7   6    4.72    0.43
  -3   7   6    3.93    0.42
   2  -7  -6    2.31    0.21
  -2  -7   6    2.21    0.35
   2   7  -6    2.62    0.25
  -2   7   6    1.90    0.36
   2   7  -6    2.35    0.24
  -2   7   6    2.37    0.34
  -1  -7   6    1.46    0.31
   1  -7  -6    1.59    0.20
   1   7  -6    1.88    0.25
  -1   7   6    1.76    0.31
  -1   7   6    1.60    0.35
   1   7  -6    1.88    0.25
   0  -7  -6    1.11    0.19
   0  -7   6    1.29    0.29
   0   7   6    0.86    0.29
   0   7  -6    1.01    0.24
   0   7   6    0.96    0.34
   0   7  -6    1.11    0.25
  -1  -7  -6    2.44    0.23
   1  -7   6    2.05    0.30
  -1   7  -6    2.05    0.29
  -1   7  -6    2.32    0.30
   1   7   6    1.58    0.31
   1   7   6    1.97    0.39
   2  -7   6    0.06    0.22
  -2  -7  -6   -0.01    0.18
   2   7   6    0.14    0.35
  -2   7  -6    0.19    0.25
   2   7   6    0.08    0.26
  -2   7  -6    0.04    0.26
   3  -7   6    6.24    0.43
  -3  -7  -6    6.10    0.36
  -3   7  -6    6.31    0.48
  -3   7  -6    5.66    0.44
   3   7   6    5.11    0.44
   4  -7   6    0.51    0.23
  -4  -7  -6    0.48    0.19
  -4  -7  -6    0.15    0.44
  -4   7  -6    0.11    0.27
   4   7   6   -0.35    0.24
  -4   7  -6   -0.02    0.29
  -5  -7  -6    0.57    0.51
   5  -7   6    0.77    0.27
  -5  -7  -6    0.68    0.22
   5   7   6    0.86    0.29
  -5   7  -6    0.40    0.33
  -5   7  -6    0.79    0.38
  -6  -7  -6    1.30    0.24
  -6  -7  -6    0.94    0.56
   6  -7   6    1.28    0.29
   6   7   6    0.96    0.32
  -6   7  -6    1.13    0.44
  -6   7  -6    0.65    0.36
   8  -8  -6   28.46    1.19
  -8   8   6   29.95    1.20
   7  -8  -6    1.40    0.31
  -7   8   6    1.83    0.37
  -7   8   6    1.28    0.43
  -6  -8   6  145.17    4.87
   6  -8  -6  131.58    4.82
   6   8  -6  140.05    4.32
  -6   8   6  132.97    4.91
  -6   8   6  137.65    4.55
   6   8  -6  143.22    6.36
  -5  -8   6    6.36    0.56
  -5   8   6    6.28    0.59
  -5   8   6    7.79    0.64
   5   8  -6    7.87    0.42
  -4  -8   6    7.18    0.54
  -4   8   6    8.07    0.60
  -4   8   6    6.90    0.59
   4   8  -6    8.09    0.43
  -3  -8   6    0.61    0.30
   3  -8  -6    0.92    0.19
  -3   8   6    0.51    0.36
  -3   8   6    0.73    0.33
   3   8  -6    0.70    0.21
   2  -8  -6   23.28    0.83
  -2  -8   6   24.50    1.05
  -2   8   6   23.11    1.06
   2   8  -6   22.45    0.86
  -2   8   6   23.04    0.99
   1  -8  -6    1.82    0.21
  -1  -8   6    2.50    0.36
  -1   8   6    1.88    0.35
  -1   8   6    2.13    0.39
   1   8  -6    2.08    0.27
   1   8  -6    1.98    0.27
   0  -8  -6   27.97    0.97
   0  -8   6   28.33    1.16
   0   8   6   28.91    1.09
   0   8   6   27.05    1.22
   0   8  -6   27.74    1.09
   0   8  -6   27.31    1.02
   1  -8   6    0.58    0.28
  -1  -8  -6    0.44    0.18
  -1   8  -6    0.41    0.26
   1   8   6    0.22    0.29
  -1   8  -6    0.16    0.23
   1   8   6    0.42    0.40
   2  -8   6   18.03    0.80
  -2  -8  -6   17.57    0.67
  -2   8  -6   16.99    0.75
   2   8   6   16.89    0.77
   2   8   6   15.96    0.93
  -2   8  -6   17.40    0.81
   3  -8   6    0.47    0.26
  -3  -8  -6    0.00    0.19
  -3   8  -6    0.53    0.30
   3   8   6   -0.05    0.29
   3   8   6    0.40    0.40
  -3   8  -6    0.09    0.29
  -4  -8  -6    1.25    0.25
   4  -8   6    1.64    0.31
  -4   8  -6    1.55    0.34
   4   8   6    1.42    0.36
   4   8   6    1.76    0.46
  -4   8  -6    1.72    0.37
  -5  -8  -6    2.26    0.58
   5  -8   6    3.25    0.37
  -5  -8  -6    3.32    0.31
  -5   8  -6    3.83    0.48
   5   8   6    3.68    0.41
  -5   8  -6    3.16    0.40
  -6   8  -6   58.35    2.06
  -6   8  -6   60.41    2.31
  -7   9   6    0.56    0.43
  -7   9   6    0.80    0.36
  -6   9   6   -0.11    0.43
   6   9  -6    0.10    0.21
  -6   9   6    0.39    0.37
  -5  -9   6    3.81    0.44
  -5   9   6    3.17    0.49
   5   9  -6    3.97    0.33
  -5   9   6    3.53    0.48
  -4  -9   6    0.51    0.34
  -4   9   6    0.80    0.39
  -4   9   6    0.56    0.40
   4   9  -6    0.42    0.24
  -3  -9   6    0.19    0.33
  -3   9   6    0.08    0.38
  -3   9   6   -0.37    0.35
   3   9  -6    0.29    0.23
   2  -9  -6   -0.14    0.18
  -2  -9   6    0.07    0.33
   2   9  -6   -0.02    0.22
  -2   9   6    0.08    0.41
  -2   9   6   -0.16    0.33
  -1  -9   6    1.41    0.36
   1  -9  -6    1.04    0.22
  -1   9   6    1.17    0.42
  -1   9   6    1.47    0.36
   1   9  -6    1.03    0.27
   0  -9   6    0.23    0.33
   0  -9  -6    0.07    0.18
   0   9   6   -0.32    0.40
   0   9   6   -0.19    0.32
   0   9  -6    0.15    0.25
   0   9  -6    0.32    0.27
   1  -9   6    7.14    0.54
  -1  -9  -6    6.56    0.39
  -1   9  -6    6.37    0.52
   1   9   6    6.71    0.54
  -1   9  -6    6.61    0.52
   1   9   6    6.41    0.61
   2  -9   6    0.08    0.28
  -2  -9  -6    0.19    0.20
   2   9   6   -0.44    0.41
  -2   9  -6    0.03    0.31
   2   9   6   -0.29    0.31
  -2   9  -6    0.03    0.30
   3  -9   6    1.29    0.31
  -3  -9  -6    1.03    0.24
   3   9   6    0.75    0.34
  -3   9  -6    0.87    0.34
  -3   9  -6    1.13    0.33
   3   9   6    0.85    0.47
  -4  -9  -6    3.41    0.32
   4  -9   6    3.68    0.39
  -4   9  -6    4.02    0.48
   4   9   6    3.30    0.44
   4   9   6    3.75    0.58
  -4   9  -6    3.39    0.40
  -5   9  -6    4.87    0.47
  -5   9  -6    5.78    0.53
  -5  10   6   -0.55    0.42
  -5  10   6    0.58    0.39
   5  10  -6   -0.18    0.24
   4  10  -6   18.79    0.80
  -4  10   6   18.39    1.03
  -4  10   6   19.82    0.99
  -3 -10   6    2.92    0.42
   3  10  -6    3.34    0.34
  -3  10   6    1.98    0.49
  -3  10   6    3.29    0.50
   2 -10  -6   25.40    0.94
  -2 -10   6   27.65    1.17
   2  10  -6   25.96    0.99
  -2  10   6   24.60    1.14
  -2  10   6   23.99    1.22
  -1 -10   6    1.07    0.38
   1 -10  -6    0.23    0.22
   1  10  -6    0.27    0.26
  -1  10   6    0.37    0.38
  -1  10   6   -0.26    0.43
   0 -10   6  132.65    4.54
   0 -10  -6  127.93    4.01
   0  10   6  122.78    4.62
   0  10  -6  125.72    4.06
   0  10   6  128.82    4.22
  -1 -10  -6    0.14    0.21
   1 -10   6    0.21    0.32
  -1  10  -6   -0.32    0.30
   1  10   6    0.19    0.38
   1  10   6    0.55    0.50
  -1  10  -6   -0.13    0.28
  -2 -10  -6    3.35    0.33
   2 -10   6    5.53    0.48
  -2  10  -6    3.98    0.45
  -2  10  -6    3.85    0.42
   2  10   6    4.31    0.49
   2  10   6    3.30    0.58
   3  10   6    0.10    0.38
  -3  10  -6    0.03    0.33
  -2  11   6    0.82    0.44
  -1 -11   6    0.16    0.35
   1 -11  -6   -0.06    0.23
  -1  11   6    0.13    0.41
   0  11   6    0.12    0.41
  10   0  -7   60.13    2.26
 -10   0   7   61.54    2.12
 -10   0   7   62.41    2.18
   9   0  -7   -0.10    0.26
  -9   0   7    0.00    0.21
  -9   0   7    0.26    0.29
  -8   0   7   14.85    0.71
  -8   0   7   13.74    0.61
   8   0  -7   14.53    0.91
   8   0  -7   13.75    0.68
   7   0  -7    0.02    0.30
  -7   0   7    0.87    0.26
  -7   0   7    0.20    0.21
   7   0  -7    0.30    0.24
  -6   0   7  103.64    3.31
  -6   0   7  100.71    3.35
   6   0  -7   96.67    4.64
   6   0  -7  105.82    3.56
   5   0  -7    1.49    0.26
  -5   0   7    1.48    0.22
  -5   0   7    1.48    0.25
   5   0  -7    1.44    0.39
   4   0  -7   31.88    1.08
   4   0  -7   32.85    1.67
  -4   0   7   34.71    1.15
   4   0  -7   32.17    1.24
  -4   0   7   32.10    1.16
  -3   0   7    0.13    0.24
   3   0  -7    0.24    0.33
  -3   0   7    0.29    0.18
  -3   0   7    0.35    0.18
   3   0  -7    0.45    0.21
   2   0  -7   41.18    2.03
  -2   0   7   39.45    1.53
   2   0  -7   43.32    1.38
  -2   0   7   42.08    1.44
  -2   0   7   41.89    1.40
  -1   0   7    0.64    0.21
  -1   0   7    0.68    0.23
   1   0  -7    0.52    0.23
  -1   0   7    0.46    0.15
   1   0  -7    0.64    0.29
   0   0   7    2.26    0.18
   0   0  -7    3.04    0.29
   0   0   7    1.94    0.25
   0   0  -7    2.27    0.34
   0   0   7    1.99    0.23
   1   0   7    4.40    0.26
  -1   0  -7    3.95    0.47
  -1   0  -7    4.35    0.33
   1   0   7    4.05    0.33
  -1   0  -7    4.19    0.34
   1   0   7    4.18    0.33
   2   0   7  198.25    6.52
   2   0   7  189.52    6.88
  -2   0  -7  203.96    8.93
  -2   0  -7  208.99    6.24
   2   0   7  202.88    6.37
  -2   0  -7  208.93    6.95
  -3   0  -7    1.56    0.29
  -3   0  -7    1.24    0.32
   3   0   7    1.40    0.17
   3   0   7    1.57    0.20
  -3   0  -7    1.31    0.25
   3   0   7    1.37    0.23
  -4   0  -7    0.83    0.31
   5   0   7    1.80    0.23
  -5   0  -7    2.31    0.30
  -5   0  -7    2.27    0.38
   5   0   7    2.21    0.20
  -6   0  -7   43.13    1.46
   6   0   7   43.57    1.43
   6   0   7   40.37    1.48
  -6   0  -7   43.92    1.74
   7   0   7    2.98    0.26
  -7   0  -7    3.41    0.49
   7   0   7    3.23    0.31
  -7   0  -7    2.32    0.29
  -8   0  -7  146.36    5.05
  -8   0  -7  137.53    4.38
   8   0   7  136.01    4.59
  10  -1  -7   -0.09    0.29
 -10  -1   7    0.25    0.34
 -10  -1   7   -0.12    0.25
  10   1  -7   -0.21    0.29
 -10   1   7    0.23    0.32
  -9  -1   7    3.10    0.32
  -9  -1   7    2.87    0.39
   9  -1  -7    2.42    0.34
   9   1  -7    2.53    0.35
  -9   1   7    3.85    0.39
  -9   1   7    3.07    0.31
  -8  -1   7    2.91    0.35
  -8  -1   7    3.06    0.30
   8  -1  -7    2.65    0.32
   8  -1  -7    2.72    0.39
  -8   1   7    2.76    0.27
   8   1  -7    3.16    0.36
  -8   1   7    3.24    0.36
   8   1  -7    2.53    0.45
  -7  -1   7    0.33    0.24
   7  -1  -7   -0.22    0.29
  -7  -1   7    0.41    0.21
   7  -1  -7    0.11    0.22
  -7   1   7    0.55    0.20
   7   1  -7    0.48    0.25
  -7   1   7    0.46    0.25
   7   1  -7    0.13    0.35
  -6  -1   7    1.95    0.27
   6  -1  -7    1.59    0.34
   6  -1  -7    1.75    0.26
  -6  -1   7    1.46    0.23
   6   1  -7    1.54    0.27
   6   1  -7    1.56    0.37
  -6   1   7    1.57    0.26
  -6   1   7    1.34    0.21
  -5  -1   7    6.59    0.39
   5  -1  -7    6.82    0.69
   5  -1  -7    6.14    0.41
  -5  -1   7    6.80    0.42
   5   1  -7    6.31    0.67
  -5   1   7    7.05    0.46
   5   1  -7    5.73    0.44
  -5   1   7    6.67    0.40
   4  -1  -7    2.62    0.22
  -4  -1   7    2.31    0.23
   4  -1  -7    2.31    0.39
   4  -1  -7    2.56    0.26
  -4  -1   7    2.01    0.31
  -4  -1   7    2.85    0.27
  -4   1   7    2.40    0.25
   4   1  -7    2.07    0.40
   4   1  -7    2.66    0.24
  -4   1   7    2.69    0.28
  -3  -1   7    1.93    0.30
  -3  -1   7    1.99    0.21
   3  -1  -7    1.64    0.21
   3  -1  -7    1.53    0.22
  -3  -1   7    1.43    0.24
   3  -1  -7    1.34    0.34
  -3   1   7    1.53    0.24
   3   1  -7    1.45    0.37
   3   1  -7    1.97    0.23
  -3   1   7    1.67    0.24
  -2  -1   7    1.33    0.26
  -2  -1   7    1.67    0.24
   2  -1  -7    1.11    0.31
  -2  -1   7    1.50    0.18
   2  -1  -7    1.46    0.21
  -2   1   7    1.43    0.21
   2   1  -7    1.05    0.32
  -2   1   7    1.76    0.25
  -2   1   7    1.46    0.23
   2   1  -7    1.23    0.23
   1  -1  -7   18.94    0.68
   1  -1  -7   19.24    1.00
  -1  -1   7   17.10    0.71
  -1  -1   7   18.77    0.76
  -1  -1   7   18.35    0.64
   1   1  -7   16.10    0.70
  -1   1   7   19.11    0.66
  -1   1   7   18.32    0.66
  -1   1   7   15.68    0.72
  -1   1   7   17.82    0.71
   1   1  -7   18.89    1.02
   0  -1  -7    3.19    0.29
   0  -1  -7    2.82    0.25
   0  -1  -7    3.68    0.43
   0  -1   7    3.23    0.27
   0  -1   7    3.05    0.29
   0  -1   7    3.46    0.21
   0   1  -7    2.97    0.30
   0   1   7    3.57    0.26
   0   1  -7    2.82    0.36
   0   1   7    3.36    0.30
   0   1   7    3.46    0.31
   0   1  -7    3.53    0.26
  -1  -1  -7   10.01    0.48
   1  -1   7    9.78    0.46
  -1  -1  -7   10.28    0.50
  -1  -1  -7    9.69    0.63
   1  -1   7    9.68    0.49
   1  -1   7    9.95    0.38
  -1   1  -7    8.71    0.52
  -1   1  -7   10.91    0.49
   1   1   7    9.81    0.42
   1   1   7   10.11    0.47
   1   1   7    9.48    0.46
  -1   1  -7    9.59    0.64
   2  -1   7    1.15    0.23
   2  -1   7    1.35    0.16
  -2  -1  -7    1.27    0.23
  -2  -1  -7    1.48    0.28
   2  -1   7    1.26    0.22
  -2  -1  -7    1.47    0.26
  -2   1  -7    0.94    0.27
   2   1   7    1.19    0.22
  -2   1  -7    1.10    0.27
   2   1   7    1.50    0.21
   2   1   7    1.72    0.19
  -2   1  -7    1.21    0.29
   3  -1   7    4.03    0.31
   3  -1   7    4.52    0.34
   3  -1   7    4.50    0.25
  -3  -1  -7    4.25    0.39
  -3  -1  -7    4.11    0.37
  -3  -1  -7    3.96    0.33
  -3   1  -7    4.62    0.41
   3   1   7    4.09    0.30
   3   1   7    4.21    0.33
   3   1   7    4.72    0.29
  -3   1  -7    3.13    0.35
  -3   1  -7    4.10    0.37
  -4  -1  -7    2.04    0.27
   4  -1   7    2.08    0.24
  -4  -1  -7    2.58    0.36
   4  -1   7    2.36    0.19
   4  -1   7    2.51    0.22
  -4   1  -7    2.33    0.35
   4   1   7    2.26    0.21
   4   1   7    2.53    0.25
  -4   1  -7    1.78    0.30
   5  -1   7    0.84    0.19
   5  -1   7    0.84    0.21
  -5  -1  -7    0.99    0.38
  -5  -1  -7    0.76    0.24
   5  -1   7    0.60    0.14
  -5   1  -7    0.76    0.26
   5   1   7    0.60    0.18
   5   1   7    0.47    0.21
  -5   1  -7    0.91    0.37
  -6  -1  -7    0.52    0.40
  -6  -1  -7    0.57    0.23
   6  -1   7    0.50    0.21
   6   1   7    0.43    0.22
  -6   1  -7    0.98    0.38
   6   1   7    0.79    0.19
  -6   1  -7    0.59    0.26
  -7  -1  -7    0.59    0.23
  -7  -1  -7   -0.26    0.40
   7  -1   7    0.19    0.23
  -7   1  -7    0.46    0.26
   7   1   7    0.44    0.23
  -7   1  -7    0.46    0.41
   7   1   7    0.27    0.20
   8  -1   7    0.83    0.26
  -8  -1  -7    1.06    0.24
  -8  -1  -7    0.64    0.49
   8   1   7    0.55    0.23
   8   1   7    0.51    0.27
  -8   1  -7    0.67    0.48
   9   1   7   -0.35    0.25
 -10  -2   7    7.64    0.56
  10  -2  -7    5.98    0.52
 -10  -2   7    6.82    0.51
  10   2  -7    6.52    0.53
 -10   2   7    6.48    0.52
   9  -2  -7    0.02    0.27
  -9  -2   7   -0.05    0.24
  -9  -2   7    0.34    0.31
  -9   2   7    0.46    0.30
   9   2  -7    0.66    0.30
  -9   2   7    0.32    0.23
   8  -2  -7  107.35    3.75
  -8  -2   7  107.66    3.54
  -8  -2   7  107.26    3.51
   8  -2  -7  111.37    4.83
  -8   2   7  109.59    3.52
  -8   2   7  106.26    3.52
   8   2  -7   97.97    4.87
   8   2  -7  106.72    3.76
  -7  -2   7    0.06    0.24
   7  -2  -7    0.07    0.21
   7  -2  -7   -0.07    0.26
  -7  -2   7   -0.16    0.20
  -7   2   7   -0.01    0.18
   7   2  -7   -0.10    0.24
   7   2  -7   -0.04    0.34
  -7   2   7    0.21    0.25
  -6  -2   7   69.36    2.40
   6  -2  -7   75.65    3.32
  -6  -2   7   72.18    2.38
   6  -2  -7   72.05    2.54
   6   2  -7   75.83    3.37
  -6   2   7   72.79    2.40
  -6   2   7   71.27    2.39
   6   2  -7   65.49    2.56
   5  -2  -7    2.03    0.25
  -5  -2   7    1.85    0.25
  -5  -2   7    1.65    0.31
   5  -2  -7    1.56    0.34
  -5  -2   7    1.86    0.24
  -5   2   7    2.07    0.22
  -5   2   7    2.41    0.30
   5   2  -7    1.70    0.38
  -4  -2   7  244.27    8.91
  -4  -2   7  257.49    8.22
   4  -2  -7  268.76    8.87
   4  -2  -7  264.47   11.52
   4  -2  -7  270.71    7.93
  -4  -2   7  251.22    8.40
  -4   2   7  245.89    8.25
   4   2  -7  274.32   11.56
   4   2  -7  271.91    7.96
  -4   2   7  256.12    8.39
   3  -2  -7    0.52    0.15
  -3  -2   7    0.52    0.21
   3  -2  -7    0.66    0.18
   3  -2  -7    0.47    0.29
  -3  -2   7    0.44    0.16
  -3  -2   7    0.36    0.26
  -3   2   7    0.43    0.24
   3   2  -7    0.52    0.31
  -3   2   7    0.54    0.14
   3   2  -7    0.74    0.18
  -3   2   7    0.48    0.21
  -2  -2   7   11.66    0.52
  -2  -2   7   10.98    0.45
   2  -2  -7   11.26    0.49
   2  -2  -7   12.16    0.47
   2  -2  -7   12.97    0.75
  -2   2   7   11.87    0.55
  -2   2   7   10.50    0.51
   2   2  -7   12.43    0.50
   2   2  -7   12.21    0.77
  -2   2   7   10.94    0.46
  -1  -2   7   -0.13    0.24
  -1  -2   7    0.16    0.13
   1  -2  -7    0.25    0.24
   1  -2  -7   -0.26    0.18
  -1  -2   7    0.24    0.20
   1  -2  -7    0.08    0.15
  -1   2   7    0.09    0.15
  -1   2   7    0.02    0.20
   1   2  -7    0.11    0.26
   1   2  -7    0.16    0.20
   1   2  -7    0.15    0.11
  -1   2   7    0.16    0.18
   0  -2  -7  158.71    4.74
   0  -2   7  149.77    5.28
   0  -2   7  149.05    4.83
   0  -2  -7  154.97    6.81
   0  -2  -7  152.89    5.27
   0  -2   7  147.13    4.98
   0   2   7  143.07    5.23
   0   2  -7  158.53    4.76
   0   2   7  150.73    4.98
   0   2   7  155.57    4.88
   0   2  -7  161.25    6.86
   0   2  -7  161.79    5.25
  -1  -2  -7    1.50    0.24
   1  -2   7    1.26    0.25
  -1  -2  -7    1.53    0.25
   1  -2   7    1.41    0.13
   1  -2   7    1.96    0.24
  -1  -2  -7    1.33    0.25
   1   2   7    1.64    0.21
  -1   2  -7    1.50    0.22
  -1   2  -7    1.26    0.28
   1   2   7    1.46    0.18
   1   2   7    1.26    0.23
  -1   2  -7    1.37    0.27
  -2  -2  -7  357.87   11.87
   2  -2   7  342.74   11.79
   2  -2   7  341.60   11.15
  -2  -2  -7  348.50   15.23
  -2  -2  -7  346.20   10.61
  -2   2  -7  368.81   15.29
   2   2   7  340.76   11.14
   2   2   7  344.56   10.92
  -2   2  -7  367.77   11.85
  -2   2  -7  314.08   10.63
   3  -2   7    0.00    0.20
  -3  -2  -7   -0.32    0.28
  -3  -2  -7    0.15    0.21
   3  -2   7   -0.06    0.19
  -3   2  -7    0.22    0.26
  -3   2  -7    0.28    0.27
   3   2   7    0.11    0.16
  -3   2  -7    0.04    0.22
   3   2   7    0.36    0.19
   4  -2   7    0.67    0.19
   4  -2   7    0.63    0.20
  -4  -2  -7    0.55    0.33
  -4  -2  -7    0.67    0.22
  -4   2  -7    0.72    0.27
  -4   2  -7    0.12    0.30
   4   2   7    0.43    0.19
   4   2   7    0.70    0.17
   5  -2   7    1.08    0.22
   5  -2   7    1.01    0.20
  -5  -2  -7    0.51    0.37
  -5  -2  -7    1.23    0.24
  -5   2  -7    1.40    0.35
   5   2   7    0.71    0.20
   5   2   7    0.74    0.22
  -5   2  -7    0.91    0.28
  -6  -2  -7    3.61    0.30
   6  -2   7    3.66    0.30
  -6  -2  -7    4.56    0.52
   6  -2   7    3.72    0.32
   6   2   7    3.47    0.29
   6   2   7    3.36    0.31
  -6   2  -7    3.25    0.34
  -6   2  -7    3.52    0.47
  -7  -2  -7    2.50    0.51
   7  -2   7    2.39    0.29
  -7  -2  -7    2.51    0.28
  -7   2  -7    2.48    0.33
   7   2   7    2.73    0.28
   7   2   7    2.78    0.30
  -7   2  -7    2.62    0.51
  -8  -2  -7   89.17    3.32
  -8  -2  -7   85.25    2.80
   8  -2   7   83.95    2.94
   8   2   7   88.64    2.90
  -8   2  -7   95.14    3.32
   8   2   7   86.76    2.96
  10  -3  -7   -0.44    0.31
 -10  -3   7   -0.08    0.27
 -10  -3   7   -0.36    0.33
 -10   3   7    0.16    0.35
  10   3  -7   -0.42    0.30
  -9  -3   7    0.83    0.33
  -9  -3   7    0.94    0.27
   9  -3  -7    0.99    0.30
   9   3  -7    1.07    0.31
  -9   3   7    0.55    0.22
  -9   3   7    1.55    0.36
  -8  -3   7    1.95    0.27
   8  -3  -7    1.65    0.29
  -8  -3   7    1.91    0.31
   8  -3  -7    1.88    0.32
  -8   3   7    2.27    0.24
   8   3  -7    1.74    0.31
  -8   3   7    2.21    0.33
  -7  -3   7    3.04    0.29
  -7  -3   7    3.29    0.32
   7  -3  -7    3.11    0.31
   7  -3  -7    3.10    0.36
  -7   3   7    3.14    0.35
  -7   3   7    3.00    0.26
   7   3  -7    3.54    0.45
   7   3  -7    2.87    0.34
  -6  -3   7    5.92    0.42
  -6  -3   7    5.93    0.38
   6  -3  -7    5.26    0.38
   6  -3  -7    5.95    0.52
  -6   3   7    6.10    0.45
  -6   3   7    5.93    0.33
   6   3  -7    5.66    0.44
   6   3  -7    5.80    0.59
   5  -3  -7   -0.02    0.18
  -5  -3   7    0.45    0.21
   5  -3  -7    0.12    0.25
  -5  -3   7   -0.12    0.19
  -5  -3   7   -0.05    0.27
  -5   3   7    0.52    0.25
  -5   3   7    0.16    0.16
   5   3  -7    0.12    0.29
   5   3  -7    0.24    0.15
  -4  -3   7   -0.19    0.27
   4  -3  -7   -0.06    0.18
   4  -3  -7    0.05    0.27
  -4  -3   7    0.05    0.20
  -4  -3   7   -0.10    0.18
  -4   3   7    0.20    0.26
  -4   3   7   -0.04    0.18
  -4   3   7   -0.05    0.17
   4   3  -7   -0.12    0.29
   4   3  -7    0.15    0.17
  -3  -3   7   19.07    0.69
   3  -3  -7   19.28    0.65
  -3  -3   7   19.01    0.74
  -3  -3   7   18.44    0.83
   3  -3  -7   18.33    0.73
   3  -3  -7   19.87    1.03
  -3   3   7   19.27    0.74
   3   3  -7   19.16    1.08
   3   3  -7   19.24    0.69
  -3   3   7   17.84    0.76
  -3   3   7   18.62    0.73
  -2  -3   7   -0.12    0.25
  -2  -3   7   -0.01    0.14
   2  -3  -7   -0.09    0.25
   2  -3  -7    0.07    0.14
  -2  -3   7    0.02    0.19
   2  -3  -7   -0.08    0.14
  -2   3   7    0.05    0.16
  -2   3   7    0.10    0.22
   2   3  -7   -0.07    0.29
   2   3  -7    0.44    0.19
  -2   3   7    0.11    0.20
   1  -3  -7    0.69    0.17
   1  -3  -7    0.44    0.24
   1  -3  -7    0.77    0.13
  -1  -3   7    0.72    0.22
  -1  -3   7    0.94    0.27
  -1   3   7    1.02    0.20
  -1   3   7    0.51    0.21
  -1   3   7    0.69    0.24
   1   3  -7    0.57    0.31
   1   3  -7    0.90    0.22
   1   3  -7    0.55    0.14
   0  -3  -7   -0.07    0.19
   0  -3   7    0.02    0.20
   0  -3  -7    0.04    0.20
   0  -3   7   -0.15    0.23
   0   3   7    0.10    0.19
   0   3  -7   -0.11    0.27
   0   3   7   -0.32    0.20
   0   3  -7   -0.28    0.20
   0   3  -7    0.12    0.16
  -1  -3  -7    0.33    0.20
   1  -3   7    0.33    0.23
  -1  -3  -7    0.12    0.20
  -1  -3  -7    0.40    0.26
   1  -3   7    0.30    0.19
  -1   3  -7    0.16    0.24
   1   3   7    0.29    0.20
   1   3   7    0.37    0.20
  -1   3  -7    0.16    0.29
  -1   3  -7    0.50    0.21
   2  -3   7   -0.11    0.20
   2  -3   7    0.05    0.21
  -2  -3  -7    0.11    0.18
  -2  -3  -7    0.12    0.29
  -2  -3  -7   -0.08    0.20
   2   3   7   -0.20    0.20
  -2   3  -7    0.17    0.26
  -2   3  -7   -0.08    0.27
   2   3   7    0.20    0.20
  -2   3  -7    0.48    0.23
  -3  -3  -7   14.58    0.60
   3  -3   7   14.98    0.61
   3  -3   7   14.63    0.63
  -3  -3  -7   15.07    0.78
  -3   3  -7   12.93    0.66
   3   3   7   15.16    0.61
  -3   3  -7   15.03    0.87
  -3   3  -7   15.07    0.70
   3   3   7   14.37    0.60
  -4  -3  -7    3.38    0.42
   4  -3   7    4.02    0.33
   4  -3   7    3.63    0.29
  -4  -3  -7    3.43    0.28
   4   3   7    3.32    0.28
  -4   3  -7    2.64    0.36
  -4   3  -7    3.09    0.35
   4   3   7    3.44    0.30
   5  -3   7    2.27    0.25
   5  -3   7    2.39    0.27
  -5  -3  -7    2.59    0.26
  -5  -3  -7    2.05    0.42
   5   3   7    2.58    0.25
  -5   3  -7    2.07    0.35
   5   3   7    2.38    0.26
  -5   3  -7    2.27    0.37
   6  -3   7    1.31    0.23
  -6  -3  -7    1.11    0.23
   6  -3   7    1.17    0.24
  -6  -3  -7    1.90    0.45
   6   3   7    1.58    0.25
  -6   3  -7    1.80    0.40
  -6   3  -7    0.90    0.29
   6   3   7    1.05    0.24
  -7  -3  -7    0.29    0.22
   7  -3   7   -0.14    0.24
   7  -3   7    0.41    0.23
  -7  -3  -7   -0.32    0.44
  -7   3  -7   -0.28    0.39
   7   3   7   -0.27    0.24
  -7   3  -7   -0.22    0.29
   7   3   7   -0.14    0.23
   8  -3   7    0.25    0.25
  -8  -3  -7    0.90    0.50
  -8  -3  -7    0.30    0.21
   8   3   7    0.22    0.27
   8   3   7    0.25    0.24
  -8   3  -7    0.93    0.48
 -10  -4   7   67.71    2.26
  10   4  -7   60.29    2.35
   9  -4  -7    0.06    0.30
  -9  -4   7    0.20    0.27
  -9  -4   7    0.59    0.34
  -9   4   7    0.45    0.34
   9   4  -7    0.60    0.30
   8  -4  -7    5.99    0.45
  -8  -4   7    6.34    0.51
  -8  -4   7    6.15    0.44
  -8   4   7    6.97    0.52
  -8   4   7    5.70    0.35
   8   4  -7    6.04    0.48
   7  -4  -7   -0.08    0.23
  -7  -4   7   -0.20    0.23
  -7  -4   7   -0.10    0.21
   7  -4  -7    0.16    0.26
  -7   4   7   -0.18    0.27
  -7   4   7    0.19    0.17
   7   4  -7    0.05    0.25
   7   4  -7    0.24    0.31
  -6  -4   7   69.09    2.50
  -6  -4   7   67.67    2.32
  -6  -4   7   68.63    2.29
   6  -4  -7   67.58    3.16
   6  -4  -7   67.38    2.43
  -6   4   7   69.38    2.28
   6   4  -7   70.24    3.23
  -6   4   7   70.82    2.34
   5  -4  -7    2.09    0.30
  -5  -4   7    2.18    0.26
  -5  -4   7    2.08    0.26
  -5  -4   7    2.42    0.35
   5  -4  -7    1.93    0.22
  -5   4   7    2.59    0.22
   5   4  -7    2.04    0.36
   5   4  -7    2.41    0.22
  -5   4   7    2.58    0.32
   4  -4  -7   34.15    1.60
   4  -4  -7   32.22    1.20
  -4  -4   7   33.43    1.29
  -4  -4   7   32.85    1.18
   4   4  -7   33.89    1.68
  -4   4   7   31.61    1.22
  -4   4   7   32.60    1.21
   4   4  -7   31.86    1.11
  -4   4   7   33.89    1.14
   3  -4  -7    0.18    0.13
  -3  -4   7   -0.02    0.27
   3  -4  -7    0.15    0.24
  -3  -4   7    0.01    0.19
   3  -4  -7    0.08    0.15
  -3   4   7    0.08    0.18
  -3   4   7   -0.06    0.18
  -3   4   7    0.25    0.25
   3   4  -7    0.11    0.20
   3   4  -7   -0.06    0.33
   2  -4  -7   32.73    1.18
   2  -4  -7   33.70    1.09
  -2  -4   7   34.22    1.18
   2  -4  -7   33.20    1.60
  -2  -4   7   33.53    1.30
  -2   4   7   32.86    1.24
  -2   4   7   34.40    1.18
  -2   4   7   33.52    1.19
   2   4  -7   30.99    1.68
   2   4  -7   32.98    1.13
   1  -4  -7    0.68    0.24
  -1  -4   7    0.63    0.28
  -1  -4   7    0.54    0.22
   1  -4  -7    0.66    0.17
  -1   4   7    0.31    0.23
   1   4  -7    0.64    0.33
   1   4  -7    1.04    0.23
  -1   4   7    0.62    0.23
  -1   4   7    0.56    0.23
   0  -4   7    0.25    0.25
   0  -4   7    0.21    0.20
   0  -4  -7    0.21    0.22
   0  -4  -7    0.61    0.18
   0   4  -7    0.53    0.23
   0   4   7    0.48    0.23
   0   4   7    0.38    0.22
   0   4   7    0.51    0.23
  -1  -4  -7    4.45    0.32
   1  -4   7    5.07    0.39
  -1  -4  -7    4.51    0.40
  -1  -4  -7    4.71    0.41
   1  -4   7    4.96    0.33
   1   4   7    4.18    0.35
  -1   4  -7    5.10    0.36
   1   4   7    4.77    0.35
  -1   4  -7    4.68    0.39
  -2  -4  -7  139.08    4.28
  -2  -4  -7  140.53    4.84
   2  -4   7  135.75    4.49
   2  -4   7  136.27    4.76
   2   4   7  137.55    4.49
  -2   4  -7  140.32    4.32
  -2   4  -7  139.39    4.78
   2   4   7  135.04    4.42
  -3  -4  -7    2.55    0.40
   3  -4   7    2.76    0.26
   3  -4   7    2.93    0.28
  -3  -4  -7    2.34    0.25
  -3   4  -7    2.97    0.36
  -3   4  -7    2.92    0.33
  -3   4  -7    2.72    0.32
   3   4   7    2.78    0.25
   3   4   7    2.71    0.26
  -4  -4  -7    2.10    0.44
   4  -4   7    3.10    0.28
   4  -4   7    3.11    0.29
  -4  -4  -7    3.00    0.27
  -4   4  -7    3.14    0.36
   4   4   7    2.94    0.28
   4   4   7    3.15    0.27
  -4   4  -7    3.51    0.37
  -5  -4  -7    3.64    0.51
   5  -4   7    3.94    0.32
   5  -4   7    4.23    0.34
  -5  -4  -7    4.00    0.32
   5   4   7    3.77    0.31
  -5   4  -7    3.69    0.41
  -5   4  -7    3.28    0.40
   5   4   7    3.48    0.31
  -6  -4  -7   50.98    1.98
  -6  -4  -7   46.59    1.60
   6  -4   7   47.75    1.67
   6  -4   7   46.76    1.76
  -6   4  -7   47.16    1.67
   6   4   7   48.13    1.66
  -6   4  -7   50.43    1.91
   6   4   7   48.95    1.67
  -7  -4  -7    0.46    0.51
   7  -4   7    1.09    0.27
  -7  -4  -7    1.03    0.23
   7  -4   7    1.72    0.28
   7   4   7    1.21    0.29
   7   4   7    0.89    0.29
  -7   4  -7    0.92    0.34
  -7   4  -7    1.15    0.44
   8  -4   7  100.35    3.63
   8  -4   7  101.62    3.44
  -8  -4  -7  105.69    3.91
  -8  -4  -7  101.24    3.28
   8   4   7  101.62    3.45
   8   4   7  101.24    3.40
  -8   4  -7  113.65    3.84
  10   5  -7    0.15    0.32
  -9  -5   7    3.55    0.36
   9  -5  -7    3.36    0.41
  -9  -5   7    3.65    0.43
  -9   5   7    4.30    0.44
   9   5  -7    3.45    0.41
  -8  -5   7    2.47    0.37
  -8  -5   7    2.43    0.31
   8  -5  -7    1.97    0.32
   8   5  -7    2.62    0.36
  -8   5   7    2.21    0.37
  -7  -5   7    0.05    0.21
   7  -5  -7    0.00    0.24
   7   5  -7    0.72    0.27
   7   5  -7    0.35    0.32
  -7   5   7   -0.03    0.29
   6  -5  -7   -0.03    0.22
  -6  -5   7    0.06    0.30
  -6  -5   7    0.31    0.21
  -6   5   7    0.54    0.30
   6   5  -7    0.14    0.32
  -5  -5   7   10.19    0.61
  -5  -5   7    9.97    0.48
   5  -5  -7   10.21    0.50
  -5   5   7    9.72    0.53
   5   5  -7   10.05    0.44
  -5   5   7   10.67    0.60
   5   5  -7    9.63    0.76
   4  -5  -7    4.06    0.30
  -4  -5   7    4.14    0.32
  -4  -5   7    4.71    0.41
   4  -5  -7    4.02    0.45
   4   5  -7    4.79    0.32
   4   5  -7    3.84    0.47
  -4   5   7    4.67    0.40
  -4   5   7    4.27    0.36
  -3  -5   7    1.04    0.22
   3  -5  -7    0.97    0.17
  -3  -5   7    0.75    0.28
   3  -5  -7    0.84    0.25
   3  -5  -7    1.20    0.16
  -3   5   7    0.83    0.28
   3   5  -7    1.17    0.34
  -3   5   7    1.10    0.18
   3   5  -7    0.68    0.21
  -3   5   7    1.01    0.24
  -2  -5   7    3.13    0.36
   2  -5  -7    2.78    0.24
  -2  -5   7    2.75    0.27
  -2   5   7    3.19    0.25
  -2   5   7    2.35    0.31
  -2   5   7    2.69    0.30
   2   5  -7    2.96    0.28
  -1  -5   7   30.70    1.05
   1  -5  -7   28.85    0.98
  -1  -5   7   29.81    1.17
  -1   5   7   29.04    1.05
   1   5  -7   28.38    1.03
  -1   5   7   28.78    1.15
  -1   5   7   28.65    1.07
   0  -5   7    7.14    0.40
   0  -5   7    6.93    0.48
   0  -5  -7    7.28    0.36
   0   5  -7    6.84    0.39
   0   5  -7    7.76    0.43
   0   5   7    6.97    0.50
   0   5   7    7.62    0.42
   0   5   7    6.94    0.43
  -1  -5  -7   15.32    0.58
   1  -5   7   14.54    0.68
   1  -5   7   14.26    0.60
  -1   5  -7   15.17    0.64
  -1   5  -7   15.28    0.65
   1   5   7   15.26    0.64
   1   5   7   15.47    0.61
   2  -5   7    3.31    0.31
   2  -5   7    3.46    0.28
  -2  -5  -7    2.79    0.41
  -2  -5  -7    3.07    0.26
  -2   5  -7    3.29    0.31
   2   5   7    3.50    0.31
  -2   5  -7    3.23    0.32
   2   5   7    3.30    0.30
  -3  -5  -7    0.06    0.18
   3  -5   7    0.32    0.20
   3  -5   7    0.50    0.22
  -3  -5  -7    0.02    0.35
  -3   5  -7    0.37    0.26
  -3   5  -7    0.27    0.26
   3   5   7   -0.13    0.21
   3   5   7    0.38    0.21
  -4  -5  -7    1.04    0.21
   4  -5   7    1.13    0.24
   4  -5   7    1.09    0.23
  -4  -5  -7    0.95    0.40
   4   5   7    1.41    0.23
   4   5   7    0.87    0.24
  -4   5  -7    0.82    0.30
  -4   5  -7    1.42    0.32
  -5  -5  -7   -0.31    0.39
  -5  -5  -7    0.01    0.19
   5  -5   7    0.23    0.22
   5  -5   7    0.09    0.22
  -5   5  -7    0.41    0.32
   5   5   7    0.23    0.21
  -5   5  -7   -0.28    0.31
   5   5   7    0.21    0.23
   6  -5   7    0.39    0.25
   6  -5   7    0.27    0.24
  -6  -5  -7    0.01    0.46
  -6  -5  -7    0.04    0.20
  -6   5  -7    0.03    0.34
  -6   5  -7    0.39    0.39
   6   5   7    0.28    0.25
   6   5   7   -0.13    0.24
   7  -5   7    0.94    0.27
   7  -5   7    0.37    0.24
  -7  -5  -7    0.31    0.22
  -7  -5  -7    0.29    0.50
   7   5   7    0.03    0.27
  -7   5  -7   -0.34    0.34
   7   5   7   -0.04    0.27
  -7   5  -7    0.24    0.43
  -9  -6   7   -0.13    0.26
   9  -6  -7   -0.37    0.30
   9   6  -7    0.30    0.31
  -8  -6   7   52.11    1.83
   8  -6  -7   52.02    1.93
   8   6  -7   50.20    1.95
  -8   6   7   54.04    1.88
  -7  -6   7    0.95    0.24
   7  -6  -7    0.34    0.27
  -7   6   7    1.15    0.34
   7   6  -7    0.87    0.35
   6  -6  -7   31.56    1.23
  -6  -6   7   33.49    1.32
  -6  -6   7   32.67    1.17
   6   6  -7   31.00    1.69
  -6   6   7   33.40    1.26
  -5  -6   7    0.68    0.32
   5  -6  -7   -0.19    0.20
  -5  -6   7    0.07    0.20
  -5   6   7   -0.13    0.25
   5   6  -7    0.29    0.36
   5   6  -7    0.09    0.17
  -5   6   7    0.36    0.33
   4  -6  -7  183.54    6.12
  -4  -6   7  175.60    6.20
  -4  -6   7  179.26    5.81
   4   6  -7  181.40    8.06
  -4   6   7  174.88    6.19
   4   6  -7  181.99    5.53
  -4   6   7  176.23    5.77
   3  -6  -7    0.00    0.15
  -3  -6   7    0.00    0.19
  -3  -6   7   -0.02    0.27
   3   6  -7   -0.02    0.18
  -3   6   7   -0.05    0.27
  -3   6   7    0.20    0.26
  -2  -6   7    7.96    0.41
   2  -6  -7    7.45    0.36
  -2  -6   7    7.89    0.54
  -2   6   7    7.15    0.49
   2   6  -7    6.83    0.41
  -1  -6   7    0.33    0.28
  -1  -6   7    0.37    0.19
   1  -6  -7    0.28    0.16
  -1   6   7    0.06    0.25
   1   6  -7    0.16    0.21
  -1   6   7    0.17    0.25
   0  -6   7  108.64    3.85
   0  -6   7  111.21    3.59
   0  -6  -7  109.95    3.41
   0   6   7  111.70    3.56
   0   6  -7  108.09    3.46
   0   6  -7  109.64    3.81
   0   6   7  107.75    3.88
   1  -6   7    0.01    0.24
   1  -6   7    0.57    0.20
  -1  -6  -7    0.32    0.18
  -1   6  -7    0.21    0.25
   1   6   7    0.33    0.29
  -1   6  -7    0.03    0.21
   1   6   7   -0.05    0.23
  -2  -6  -7  180.99    5.64
   2  -6   7  179.37    5.91
   2  -6   7  180.97    6.29
  -2   6  -7  187.63    5.68
  -2   6  -7  190.88    6.31
   2   6   7  175.86    5.84
  -3  -6  -7    0.32    0.19
  -3  -6  -7    0.57    0.39
   3  -6   7    0.56    0.24
  -3   6  -7    0.73    0.28
  -3   6  -7    0.69    0.28
   3   6   7    0.55    0.26
  -4  -6  -7    1.36    0.22
   4  -6   7    1.51    0.28
  -4  -6  -7    2.28    0.49
  -4   6  -7    1.46    0.32
  -4   6  -7    1.30    0.32
   4   6   7    1.02    0.27
  -5  -6  -7    0.17    0.46
   5  -6   7    0.12    0.25
  -5  -6  -7   -0.10    0.19
   5   6   7    0.13    0.26
  -5   6  -7   -0.48    0.32
  -5   6  -7    0.35    0.35
   6  -6   7    0.38    0.25
  -6  -6  -7    0.97    0.52
  -6  -6  -7    0.39    0.22
  -6   6  -7    0.46    0.41
   6   6   7    0.16    0.26
  -6   6  -7   -0.32    0.35
   7  -6   7    5.64    0.46
  -7  -6  -7    3.89    0.33
  -7   6  -7    5.45    0.56
   8  -7  -7    0.74    0.33
   8   7  -7    2.13    0.34
  -8   7   7    1.30    0.38
   7  -7  -7    2.34    0.34
  -7   7   7    3.12    0.42
   7   7  -7    2.86    0.47
   6  -7  -7    3.59    0.34
  -6  -7   7    4.03    0.43
   6   7  -7    3.39    0.51
  -6   7   7    5.13    0.48
  -5  -7   7   -0.17    0.30
  -5   7   7   -0.15    0.30
   5   7  -7    0.07    0.34
   5   7  -7    0.03    0.19
  -5   7   7    0.30    0.33
  -4  -7   7   -0.20    0.28
  -4   7   7   -0.51    0.28
   4   7  -7   -0.07    0.20
  -4   7   7    0.25    0.34
   3  -7  -7   14.25    0.55
  -3  -7   7   14.98    0.76
  -3   7   7   13.28    0.73
   3   7  -7   14.66    0.62
  -3   7   7   14.12    0.72
  -2  -7   7    0.05    0.31
   2  -7  -7   -0.05    0.16
   2   7  -7   -0.08    0.20
  -2   7   7   -0.22    0.27
  -2   7   7    0.06    0.31
  -1  -7   7   -0.35    0.28
   1  -7  -7    0.06    0.16
  -1   7   7   -0.12    0.28
  -1   7   7   -0.12    0.31
   1   7  -7    0.13    0.23
   0  -7  -7    0.23    0.18
   0  -7   7    0.18    0.28
   0   7   7    0.15    0.33
   0   7   7    0.17    0.26
   0   7  -7    0.07    0.26
  -1  -7  -7    0.19    0.19
   1  -7   7    0.10    0.26
   1   7   7   -0.16    0.32
  -1   7  -7    0.18    0.25
   1   7   7    0.41    0.26
  -1   7  -7   -0.08    0.23
  -2  -7  -7    0.07    0.18
   2  -7   7    0.30    0.26
   2   7   7   -0.02    0.25
  -2   7  -7    0.03    0.26
   2   7   7    0.22    0.37
  -2   7  -7   -0.01    0.25
  -3  -7  -7   10.17    0.49
   3  -7   7   10.90    0.60
  -3   7  -7   11.27    0.63
   3   7   7    9.82    0.57
  -3   7  -7    9.59    0.56
   4  -7   7    1.54    0.30
  -4  -7  -7    1.64    0.25
  -4  -7  -7    0.87    0.46
  -4   7  -7    1.40    0.32
   4   7   7    1.58    0.32
  -4   7  -7    1.93    0.35
   5  -7   7    1.79    0.31
  -5  -7  -7    1.90    0.26
  -5  -7  -7    0.99    0.52
  -5   7  -7    2.16    0.43
   5   7   7    1.39    0.33
  -5   7  -7    1.38    0.37
  -6  -7  -7    1.42    0.26
   6  -7   7    1.46    0.30
  -6  -7  -7    0.41    0.54
  -6   7  -7    1.55    0.41
   6   7   7    0.91    0.38
  -6   7  -7    0.62    0.38
  -7   8   7    0.80    0.39
   7   8  -7    0.58    0.41
  -6  -8   7   28.46    1.20
   6   8  -7   26.43    1.58
  -6   8   7   27.86    1.19
  -5  -8   7    2.93    0.41
   5   8  -7    3.21    0.29
  -5   8   7    2.96    0.45
  -5   8   7    2.04    0.42
   5   8  -7    3.28    0.50
  -4  -8   7   29.96    1.26
   4   8  -7   29.79    1.07
  -4   8   7   30.88    1.25
  -4   8   7   29.28    1.28
  -3  -8   7    0.32    0.32
  -3   8   7    0.68    0.36
  -3   8   7   -0.26    0.31
   3   8  -7   -0.03    0.22
  -2  -8   7   18.33    0.86
   2  -8  -7   17.88    0.67
  -2   8   7   17.21    0.81
  -2   8   7   15.94    0.85
   2   8  -7   17.01    0.73
  -1  -8   7    0.43    0.31
   1  -8  -7    0.49    0.19
  -1   8   7    0.43    0.37
   1   8  -7    0.50    0.26
  -1   8   7    0.63    0.31
   0  -8  -7    0.62    0.20
   0  -8   7    0.20    0.32
   0   8  -7    0.26    0.26
   0   8   7    0.60    0.31
   0   8   7    0.34    0.35
  -1  -8  -7    3.46    0.30
   1  -8   7    4.05    0.42
   1   8   7    4.31    0.40
  -1   8  -7    3.44    0.37
   1   8   7    4.14    0.49
   2  -8   7   61.73    2.23
  -2  -8  -7   57.34    1.97
  -2   8  -7   59.62    2.02
   2   8   7   63.17    2.35
  -2   8  -7   61.78    2.23
   2   8   7   59.08    2.08
   3  -8   7    3.12    0.37
  -3  -8  -7    3.21    0.30
   3   8   7    2.99    0.38
  -3   8  -7    3.59    0.39
   3   8   7    4.69    0.56
  -3   8  -7    3.15    0.40
  -4  -8  -7    8.87    0.50
   4  -8   7    9.11    0.57
   4   8   7    8.67    0.63
  -4   8  -7    8.41    0.56
  -4   8  -7    8.20    0.64
   4   8   7    9.17    0.76
  -5  -8  -7    4.50    0.65
  -5   8  -7    5.12    0.47
   5   8   7    4.75    0.49
  -5   8  -7    4.73    0.51
   6   9  -7    0.92    0.46
  -6   9   7    0.83    0.41
  -5  -9   7    2.85    0.42
  -5   9   7    2.29    0.47
  -5   9   7    3.28    0.49
   5   9  -7    2.83    0.32
  -4  -9   7    0.86    0.34
  -4   9   7    0.97    0.43
  -4   9   7    1.15    0.44
   4   9  -7    0.64    0.25
  -3  -9   7    0.47    0.34
  -3   9   7    0.27    0.40
   3   9  -7   -0.03    0.24
  -3   9   7    0.15    0.38
   2  -9  -7    0.18    0.21
  -2  -9   7   -0.06    0.32
  -2   9   7    0.09    0.37
  -2   9   7   -0.25    0.36
   2   9  -7   -0.02    0.25
   1  -9  -7    9.15    0.46
  -1  -9   7   10.02    0.69
  -1   9   7    9.42    0.63
   1   9  -7    9.45    0.55
  -1   9   7    9.68    0.72
   0  -9   7    2.77    0.42
   0  -9  -7    1.88    0.26
   0   9   7    1.90    0.46
   0   9  -7    1.65    0.34
   0   9   7    1.53    0.38
  -1  -9  -7    3.68    0.31
   1  -9   7    3.85    0.44
   1   9   7    3.87    0.54
  -1   9  -7    4.06    0.42
   1   9   7    2.94    0.41
   2  -9   7    1.04    0.34
  -2  -9  -7    0.75    0.24
  -2   9  -7    0.44    0.31
   2   9   7    0.57    0.34
   2   9   7    1.28    0.48
   3  -9   7    0.52    0.31
  -3  -9  -7    0.45    0.24
  -3   9  -7    0.13    0.34
   3   9   7   -0.33    0.33
  -3   9  -7   -0.15    0.31
   3   9   7   -0.11    0.43
  -4   9  -7    1.50    0.39
  -4 -10   7  102.79    3.67
  -4  10   7  104.41    3.50
  -4  10   7   97.33    3.74
   4  10  -7  104.23    3.29
  -3 -10   7    0.73    0.34
  -3  10   7   -0.08    0.40
   3  10  -7   -0.02    0.28
  -3  10   7    0.54    0.43
  -2 -10   7    4.36    0.48
   2 -10  -7    4.25    0.34
  -2  10   7    4.32    0.51
  -2  10   7    4.56    0.58
   2  10  -7    3.75    0.40
   1 -10  -7    0.01    0.23
  -1 -10   7    0.03    0.37
   1  10  -7    0.08    0.28
  -1  10   7   -0.21    0.42
  -1  10   7    0.40    0.41
   0 -10  -7   56.65    1.91
   0 -10   7   61.35    2.23
   0  10   7   55.74    2.31
   0  10  -7   55.31    1.98
   0  10   7   59.62    2.08
  -1 -10  -7   -0.07    0.23
   1 -10   7    0.27    0.33
   1  10   7   -0.08    0.48
   1  10   7   -0.07    0.37
  10   0  -8   56.69    2.15
 -10   0   8   58.52    2.04
 -10   0   8   56.34    2.00
  -9   0   8   -0.04    0.24
   9   0  -8    0.15    0.30
  -9   0   8    0.18    0.32
   8   0  -8   29.99    1.23
  -8   0   8   30.83    1.16
   8   0  -8   29.97    1.62
  -8   0   8   30.71    1.13
   7   0  -8    0.39    0.36
  -7   0   8    0.74    0.26
  -7   0   8    0.32    0.22
   7   0  -8    0.19    0.26
   6   0  -8   25.82    1.05
  -6   0   8   27.33    0.99
   6   0  -8   24.53    1.44
  -6   0   8   25.60    0.97
   5   0  -8    0.70    0.24
  -5   0   8    0.82    0.23
  -5   0   8    0.68    0.23
   5   0  -8    0.40    0.37
  -4   0   8    0.41    0.22
  -4   0   8    0.37    0.22
   4   0  -8    0.08    0.25
   4   0  -8    0.81    0.38
   4   0  -8    0.53    0.21
   3   0  -8    1.08    0.25
  -3   0   8    1.27    0.23
  -3   0   8    1.49    0.25
  -3   0   8    1.52    0.29
   3   0  -8    0.84    0.37
   2   0  -8  179.85    8.22
   2   0  -8  180.76    5.68
  -2   0   8  188.25    6.33
  -2   0   8  183.44    5.84
  -2   0   8  188.59    5.98
  -1   0   8    5.10    0.39
  -1   0   8    5.34    0.41
  -1   0   8    5.69    0.32
   1   0  -8    5.80    0.41
   1   0  -8    5.21    0.60
   0   0   8    2.33    0.27
   0   0  -8    2.06    0.30
   0   0  -8    2.13    0.19
   0   0   8    2.12    0.26
   0   0   8    2.18    0.20
   0   0  -8    1.93    0.35
   1   0   8    0.41    0.22
  -1   0  -8    0.52    0.30
   1   0   8    1.06    0.24
  -1   0  -8    0.82    0.21
   1   0   8    0.58    0.16
  -1   0  -8    0.47    0.28
   2   0   8  114.54    4.14
  -2   0  -8  121.64    5.37
  -2   0  -8  122.26    3.78
  -2   0  -8  120.68    4.17
   2   0   8  121.08    3.82
   2   0   8  120.26    3.93
  -3   0  -8    5.62    0.45
   3   0   8    5.92    0.32
   3   0   8    6.24    0.38
  -3   0  -8    6.11    0.47
   3   0   8    5.92    0.37
  -4   0  -8  356.67   10.78
   4   0   8  340.81   11.05
  -4   0  -8  369.21   12.06
   4   0   8  339.10   11.29
  -5   0  -8    0.27    0.26
   5   0   8    0.09    0.21
   5   0   8   -0.05    0.16
  -5   0  -8   -0.04    0.31
   6   0   8    8.32    0.46
  -6   0  -8    8.21    0.53
  -6   0  -8    8.91    0.69
  -7   0  -8    0.28    0.27
   7   0   8    0.62    0.25
  -7   0  -8    0.08    0.40
  -8   0  -8   11.02    0.80
  -8   0  -8    9.47    0.55
   8   0   8    9.47    0.55
  10  -1  -8    1.32    0.36
 -10  -1   8    1.18    0.31
 -10  -1   8    1.27    0.35
 -10   1   8    1.36    0.31
 -10   1   8    0.93    0.37
  10   1  -8    1.18    0.37
  -9  -1   8    0.13    0.25
   9  -1  -8    0.35    0.31
  -9  -1   8    0.52    0.33
   9   1  -8    0.12    0.29
  -9   1   8    0.52    0.33
  -9   1   8    0.17    0.24
  -8  -1   8    4.38    0.38
   8  -1  -8    3.35    0.48
  -8  -1   8    5.25    0.44
   8  -1  -8    4.32    0.39
   8   1  -8    4.32    0.41
  -8   1   8    4.80    0.39
   8   1  -8    2.69    0.50
  -8   1   8    4.92    0.41
  -7  -1   8    2.18    0.27
   7  -1  -8    1.45    0.41
  -7  -1   8    2.37    0.30
   7  -1  -8    2.76    0.33
   7   1  -8    1.85    0.32
  -7   1   8    2.33    0.27
  -7   1   8    2.31    0.32
   7   1  -8    1.49    0.41
   6  -1  -8    0.42    0.24
  -6  -1   8    0.42    0.22
  -6  -1   8    0.73    0.24
   6  -1  -8    0.06    0.36
   6   1  -8    0.41    0.25
   6   1  -8    0.39    0.38
  -6   1   8    0.65    0.21
  -6   1   8    0.57    0.24
   5  -1  -8   30.29    1.57
  -5  -1   8   29.20    1.09
   5  -1  -8   30.21    1.16
  -5  -1   8   31.42    1.07
  -5   1   8   31.48    1.09
  -5   1   8   28.10    1.08
   5   1  -8   28.34    1.17
   5   1  -8   29.61    1.60
  -4  -1   8    7.02    0.41
  -4  -1   8    7.88    0.41
  -4  -1   8    6.28    0.50
   4  -1  -8    7.40    0.74
   4  -1  -8    7.55    0.47
  -4   1   8    7.62    0.44
  -4   1   8    7.71    0.43
   4   1  -8    6.96    0.41
   4   1  -8    7.45    0.72
   3  -1  -8    0.43    0.37
  -3  -1   8    0.37    0.20
   3  -1  -8    0.62    0.22
  -3  -1   8    0.27    0.28
   3  -1  -8   -0.26    0.22
  -3  -1   8    0.67    0.24
   3   1  -8    0.20    0.34
  -3   1   8    0.13    0.22
   3   1  -8    0.50    0.23
  -3   1   8   -0.01    0.23
  -2  -1   8    1.78    0.21
   2  -1  -8    1.26    0.36
   2  -1  -8    1.31    0.25
  -2  -1   8    1.13    0.26
  -2  -1   8    1.32    0.27
  -2   1   8    1.28    0.26
  -2   1   8    1.35    0.25
  -2   1   8    1.24    0.22
   2   1  -8    1.50    0.36
   2   1  -8    1.29    0.26
  -1  -1   8    0.09    0.15
  -1  -1   8   -0.02    0.23
   1  -1  -8    0.23    0.31
  -1  -1   8    0.18    0.24
   1  -1  -8    0.07    0.25
  -1   1   8    0.05    0.22
  -1   1   8   -0.10    0.17
  -1   1   8   -0.08    0.21
   1   1  -8   -0.15    0.24
   1   1  -8    0.08    0.32
   0  -1  -8    5.98    0.46
   0  -1   8    5.89    0.30
   0  -1  -8    5.89    0.34
   0  -1   8    5.68    0.39
   0  -1  -8    5.78    0.56
   0  -1   8    6.41    0.45
   0   1   8    6.27    0.39
   0   1  -8    4.84    0.38
   0   1  -8    5.65    0.61
   0   1   8    6.16    0.38
   0   1   8    6.48    0.35
  -1  -1  -8    3.99    0.35
  -1  -1  -8    4.87    0.35
  -1  -1  -8    4.23    0.50
   1  -1   8    4.21    0.35
   1  -1   8    4.58    0.25
   1  -1   8    4.05    0.34
  -1   1  -8    3.95    0.43
   1   1   8    4.45    0.31
   1   1   8    3.97    0.36
  -1   1  -8    4.16    0.35
   1   1   8    4.68    0.37
  -1   1  -8    4.32    0.37
   2  -1   8    0.58    0.23
   2  -1   8    0.38    0.22
  -2  -1  -8    0.63    0.28
  -2  -1  -8    0.24    0.23
   2  -1   8    0.26    0.14
  -2  -1  -8    0.30    0.24
   2   1   8    0.35    0.18
  -2   1  -8    0.12    0.28
  -2   1  -8    0.52    0.24
   2   1   8    0.57    0.21
  -2   1  -8    0.38    0.27
   2   1   8    0.18    0.23
   3  -1   8    1.32    0.24
  -3  -1  -8    1.23    0.27
  -3  -1  -8    1.01    0.29
   3  -1   8    1.21    0.21
   3   1   8    1.20    0.19
  -3   1  -8    0.69    0.29
  -3   1  -8    1.17    0.29
   3   1   8    1.22    0.23
   4  -1   8    0.93    0.20
  -4  -1  -8    1.26    0.32
  -4  -1  -8    0.67    0.27
   4  -1   8    0.92    0.23
   4   1   8    1.02    0.23
  -4   1  -8    1.01    0.29
   4   1   8    0.76    0.18
  -4   1  -8    1.35    0.31
   5  -1   8    0.45    0.22
  -5  -1  -8    0.72    0.34
  -5  -1  -8    0.20    0.24
  -5   1  -8    0.47    0.29
  -5   1  -8    0.32    0.34
   5   1   8    0.28    0.21
   5   1   8    0.29    0.18
   6  -1   8    2.75    0.29
  -6  -1  -8    2.38    0.44
  -6  -1  -8    2.96    0.32
  -6   1  -8    3.17    0.34
  -6   1  -8    3.11    0.47
   6   1   8    2.70    0.30
   6   1   8    2.97    0.26
   7  -1   8    1.15    0.27
  -7  -1  -8    0.61    0.42
  -7  -1  -8    0.78    0.27
  -7   1  -8    0.64    0.41
   7   1   8    0.44    0.26
  -7   1  -8    1.02    0.31
   7   1   8    0.87    0.23
   8  -1   8    2.33    0.33
  -8  -1  -8    2.10    0.50
  -8  -1  -8    2.58    0.31
   8   1   8    1.73    0.31
  -8   1  -8    2.69    0.51
  -8   1  -8    2.41    0.33
  10  -2  -8   22.42    1.04
 -10  -2   8   24.69    1.04
 -10  -2   8   23.67    0.99
 -10   2   8   22.91    0.95
 -10   2   8   25.56    1.05
  10   2  -8   22.55    1.05
  -9  -2   8    0.21    0.26
  -9  -2   8    0.62    0.31
   9  -2  -8   -0.04    0.30
  -9   2   8    0.47    0.23
   9   2  -8   -0.28    0.31
  -9   2   8    0.56    0.32
  -8  -2   8  113.65    3.87
   8  -2  -8  120.28    5.31
  -8  -2   8  119.54    3.84
   8  -2  -8  120.56    4.11
  -8   2   8  116.90    3.86
   8   2  -8  115.56    5.35
  -8   2   8  118.57    3.85
   8   2  -8  110.15    4.12
  -7  -2   8    0.19    0.25
   7  -2  -8   -0.20    0.31
  -7  -2   8    0.38    0.22
   7  -2  -8    0.05    0.24
  -7   2   8    0.15    0.27
  -7   2   8    0.14    0.20
   7   2  -8   -0.03    0.36
   7   2  -8    0.17    0.27
   6  -2  -8    7.44    0.67
  -6  -2   8    7.46    0.44
   6  -2  -8    8.00    0.46
  -6  -2   8    6.85    0.43
  -6   2   8    7.29    0.41
   6   2  -8    7.26    0.68
   6   2  -8    6.81    0.49
  -6   2   8    7.15    0.50
   5  -2  -8    0.13    0.31
  -5  -2   8   -0.04    0.20
  -5  -2   8   -0.17    0.27
  -5  -2   8   -0.08    0.20
   5  -2  -8    0.17    0.22
  -5   2   8    0.22    0.24
  -5   2   8   -0.03    0.18
   5   2  -8   -0.20    0.31
   4  -2  -8  107.73    3.73
  -4  -2   8  101.81    3.77
  -4  -2   8  106.48    3.45
  -4  -2   8  105.31    3.54
   4  -2  -8  109.51    4.88
  -4   2   8  105.13    3.53
  -4   2   8  102.73    3.48
   4   2  -8  112.31    4.90
   4   2  -8  115.00    3.34
  -3  -2   8    0.32    0.18
   3  -2  -8    0.16    0.18
   3  -2  -8    0.21    0.20
  -3  -2   8    0.26    0.28
  -3  -2   8    0.20    0.23
   3  -2  -8    0.02    0.32
  -3   2   8    0.18    0.22
   3   2  -8    0.44    0.22
  -3   2   8    0.22    0.25
   3   2  -8    0.08    0.31
   2  -2  -8  350.01   11.88
   2  -2  -8  359.49   15.43
  -2  -2   8  332.90   11.25
   2  -2  -8  368.06   10.68
  -2  -2   8  351.54   10.99
  -2  -2   8  343.41   11.92
  -2   2   8  331.71   11.02
   2   2  -8  361.44   15.45
   2   2  -8  368.11   10.70
  -2   2   8  333.98   11.25
  -1  -2   8    1.35    0.30
  -1  -2   8    1.55    0.17
   1  -2  -8    1.44    0.33
   1  -2  -8    1.40    0.24
  -1  -2   8    1.09    0.25
   1  -2  -8    1.14    0.21
   1   2  -8    1.60    0.34
  -1   2   8    1.46    0.26
  -1   2   8    1.10    0.23
   1   2  -8    1.40    0.27
   0  -2   8    0.97    0.24
   0  -2  -8    0.86    0.25
   0  -2  -8    0.91    0.28
   0  -2   8    1.21    0.27
   0  -2  -8    0.49    0.19
   0   2   8    0.86    0.24
   0   2   8    0.56    0.19
   0   2  -8    0.45    0.27
   0   2  -8    0.54    0.29
   0   2   8    0.65    0.20
  -1  -2  -8    0.03    0.24
  -1  -2  -8    0.22    0.26
   1  -2   8    0.00    0.22
  -1  -2  -8    0.16    0.21
   1  -2   8    0.09    0.21
   1   2   8   -0.08    0.22
  -1   2  -8   -0.15    0.19
   1   2   8    0.04    0.18
  -1   2  -8   -0.30    0.28
  -1   2  -8    0.04    0.25
  -2  -2  -8   32.56    1.17
  -2  -2  -8   33.85    1.61
   2  -2   8   34.69    1.21
  -2  -2  -8   33.88    1.30
   2  -2   8   34.71    1.27
   2   2   8   33.64    1.20
  -2   2  -8   34.79    1.66
  -2   2  -8   31.21    1.20
  -2   2  -8   35.94    1.28
   2   2   8   33.07    1.16
   3  -2   8    5.14    0.36
   3  -2   8    5.05    0.36
  -3  -2  -8    4.58    0.38
  -3  -2  -8    4.59    0.41
   3   2   8    4.45    0.31
   3   2   8    4.89    0.35
  -3   2  -8    3.54    0.37
  -3   2  -8    5.58    0.44
  -3   2  -8    4.54    0.46
  -4  -2  -8  101.82    3.29
   4  -2   8  102.04    3.43
  -4  -2  -8  108.67    3.72
   4  -2   8  103.83    3.61
  -4   2  -8  113.42    3.70
   4   2   8  100.94    3.34
   4   2   8  102.81    3.42
  -4   2  -8   97.81    3.31
   5  -2   8    0.37    0.23
  -5  -2  -8    0.06    0.22
   5  -2   8    0.53    0.21
  -5  -2  -8   -0.01    0.34
  -5   2  -8    0.27    0.28
  -5   2  -8    0.70    0.34
   5   2   8    0.35    0.22
   5   2   8   -0.34    0.17
  -6  -2  -8   16.54    0.93
   6  -2   8   15.41    0.66
  -6  -2  -8   14.68    0.68
  -6   2  -8   16.36    0.86
  -6   2  -8   15.24    0.71
   6   2   8   14.79    0.67
   6   2   8   15.25    0.64
  -7  -2  -8    0.38    0.46
  -7  -2  -8   -0.15    0.22
   7  -2   8   -0.26    0.25
  -7   2  -8    0.67    0.41
   7   2   8   -0.08    0.24
   7   2   8   -0.40    0.22
  -7   2  -8    0.03    0.30
  -8  -2  -8   19.33    1.10
  -8  -2  -8   17.50    0.74
   8   2   8   16.55    0.74
  -8   2  -8   19.11    1.03
 -10  -3   8    2.99    0.43
  10   3  -8    2.60    0.40
   9  -3  -8    0.03    0.30
  -9  -3   8    0.45    0.28
  -9  -3   8    0.26    0.30
  -9   3   8    0.15    0.22
  -9   3   8    0.12    0.32
   9   3  -8    0.23    0.33
   8  -3  -8    1.03    0.34
  -8  -3   8    1.15    0.31
   8  -3  -8    1.04    0.30
  -8  -3   8    0.80    0.26
  -8   3   8    1.20    0.31
   8   3  -8    0.86    0.39
   8   3  -8    1.17    0.32
  -8   3   8    1.09    0.24
  -7  -3   8   12.13    0.60
  -7  -3   8   13.00    0.63
   7  -3  -8   13.34    0.64
   7  -3  -8   13.17    0.84
   7   3  -8   12.18    0.69
   7   3  -8   13.83    0.92
  -7   3   8   13.46    0.66
  -7   3   8   12.77    0.56
   6  -3  -8    3.16    0.31
  -6  -3   8    2.71    0.29
   6  -3  -8    2.78    0.40
  -6  -3   8    3.04    0.31
  -6   3   8    2.86    0.33
  -6   3   8    2.74    0.26
   6   3  -8    2.52    0.43
   5  -3  -8    7.74    0.41
   5  -3  -8    7.24    0.62
  -5  -3   8    6.82    0.42
  -5  -3   8    6.00    0.41
  -5  -3   8    7.68    0.53
   5   3  -8    6.86    0.68
  -5   3   8    6.54    0.40
  -5   3   8    7.12    0.47
   4  -3  -8    0.59    0.20
  -4  -3   8    1.09    0.20
  -4  -3   8    0.30    0.27
   4  -3  -8    0.49    0.30
  -4  -3   8    0.82    0.23
  -4   3   8    0.62    0.27
   4   3  -8    0.57    0.30
   4   3  -8    0.67    0.18
  -4   3   8    0.61    0.21
   3  -3  -8    3.16    0.40
   3  -3  -8    3.49    0.27
   3  -3  -8    3.21    0.31
  -3  -3   8    3.25    0.35
  -3  -3   8    3.70    0.32
   3   3  -8    3.22    0.42
  -3   3   8    3.50    0.34
   3   3  -8    3.86    0.32
  -3   3   8    3.74    0.30
  -2  -3   8    0.10    0.21
   2  -3  -8    0.03    0.18
   2  -3  -8    0.03    0.15
   2  -3  -8   -0.01    0.29
  -2  -3   8    0.12    0.28
   2   3  -8    0.26    0.20
  -2   3   8   -0.16    0.22
  -2   3   8   -0.12    0.24
   2   3  -8    0.04    0.29
   1  -3  -8    4.26    0.35
  -1  -3   8    4.14    0.33
  -1  -3   8    4.54    0.39
   1  -3  -8    4.34    0.28
   1  -3  -8    4.49    0.54
  -1   3   8    4.57    0.35
  -1   3   8    4.66    0.35
   1   3  -8    3.64    0.43
  -1   3   8    4.22    0.32
   1   3  -8    4.61    0.36
   0  -3   8    7.62    0.50
   0  -3   8    8.24    0.44
   0  -3  -8    7.69    0.57
   0  -3  -8    8.00    0.43
   0   3   8    8.06    0.43
   0   3  -8    8.06    0.65
   0   3  -8    8.17    0.48
   0   3   8    8.27    0.44
  -1  -3  -8    8.41    0.56
   1  -3   8    7.66    0.43
  -1  -3  -8    8.34    0.47
  -1  -3  -8    8.32    0.49
   1  -3   8    8.17    0.48
  -1   3  -8    8.30    0.66
   1   3   8    8.04    0.42
   1   3   8    8.46    0.45
  -1   3  -8    8.72    0.44
  -1   3  -8    8.49    0.50
   2  -3   8    1.12    0.22
  -2  -3  -8    1.21    0.24
   2  -3   8    1.16    0.25
  -2  -3  -8    1.14    0.28
  -2  -3  -8    0.83    0.21
   2   3   8    1.17    0.23
  -2   3  -8    1.29    0.25
  -2   3  -8    0.95    0.29
  -2   3  -8    1.12    0.29
   2   3   8    1.13    0.23
  -3  -3  -8    0.74    0.23
   3  -3   8    0.58    0.23
  -3  -3  -8    0.32    0.31
   3  -3   8    0.79    0.22
   3   3   8    0.65    0.22
  -3   3  -8    0.41    0.25
   3   3   8    0.44    0.20
  -3   3  -8    0.71    0.26
  -3   3  -8    0.11    0.30
  -4  -3  -8    1.23    0.37
   4  -3   8    0.84    0.23
   4  -3   8    0.97    0.23
  -4  -3  -8    0.79    0.24
   4   3   8    0.39    0.21
  -4   3  -8    0.50    0.30
   4   3   8    0.47    0.22
  -4   3  -8    0.53    0.30
   5  -3   8   -0.02    0.21
  -5  -3  -8   -0.19    0.22
  -5  -3  -8    0.24    0.36
   5  -3   8    0.17    0.22
  -5   3  -8    0.00    0.31
  -5   3  -8   -0.66    0.29
   5   3   8   -0.01    0.21
   5   3   8   -0.11    0.21
  -6  -3  -8    5.06    0.42
  -6  -3  -8    5.12    0.58
   6  -3   8    5.37    0.41
   6  -3   8    5.88    0.41
  -6   3  -8    5.12    0.53
  -6   3  -8    5.19    0.44
   6   3   8    5.32    0.42
   6   3   8    5.35    0.40
  -7  -3  -8    3.62    0.33
  -7  -3  -8    4.12    0.56
   7  -3   8    4.24    0.36
  -7   3  -8    3.52    0.41
   7   3   8    3.90    0.36
   7   3   8    3.40    0.35
  -7   3  -8    4.22    0.56
  -8  -3  -8    0.79    0.25
   8   3   8    0.46    0.28
  -8   3  -8    1.43    0.48
 -10  -4   8   43.41    1.63
  -9  -4   8    0.41    0.29
  -9  -4   8    0.54    0.31
   9  -4  -8    0.07    0.30
   9   4  -8    0.04    0.33
  -9   4   8    1.14    0.35
   8  -4  -8   31.18    1.57
  -8  -4   8   29.86    1.15
   8  -4  -8   29.60    1.21
  -8  -4   8   31.72    1.19
  -8   4   8   31.68    1.23
   8   4  -8   31.62    1.63
  -8   4   8   28.95    1.11
   8   4  -8   29.22    1.25
   7  -4  -8    0.24    0.27
  -7  -4   8   -0.12    0.22
  -7  -4   8    0.18    0.26
   7  -4  -8   -0.47    0.24
  -7   4   8    0.49    0.30
  -7   4   8    0.07    0.17
   7   4  -8    0.22    0.28
   7   4  -8   -0.33    0.31
  -6  -4   8   21.61    0.99
   6  -4  -8   21.64    1.19
  -6  -4   8   20.50    0.85
   6  -4  -8   21.41    0.88
  -6   4   8   21.63    0.81
  -6   4   8   21.76    0.91
   6   4  -8   22.71    1.24
  -5  -4   8    0.89    0.33
   5  -4  -8    0.40    0.29
  -5  -4   8    0.81    0.23
   5  -4  -8    0.41    0.21
   5   4  -8    0.82    0.20
  -5   4   8    0.58    0.28
   5   4  -8    0.77    0.33
  -5   4   8    0.63    0.20
  -4  -4   8    0.11    0.27
   4  -4  -8    0.41    0.27
  -4  -4   8    0.09    0.20
   4  -4  -8    0.34    0.18
  -4   4   8    0.87    0.28
   4   4  -8    0.14    0.18
  -4   4   8   -0.09    0.18
   4   4  -8    0.41    0.30
  -3  -4   8    1.97    0.25
  -3  -4   8    2.00    0.32
   3  -4  -8    1.48    0.30
   3  -4  -8    1.58    0.20
   3  -4  -8    1.78    0.18
  -3   4   8    2.01    0.25
   3   4  -8    1.66    0.36
  -3   4   8    1.94    0.30
   3   4  -8    1.76    0.23
  -2  -4   8  136.95    4.72
  -2  -4   8  137.21    4.43
   2  -4  -8  140.34    4.18
   2  -4  -8  138.03    6.06
  -2   4   8  135.83    4.43
  -2   4   8  130.25    4.67
   2   4  -8  130.04    6.11
   2   4  -8  135.83    4.21
  -2   4   8  134.59    4.36
  -1  -4   8    7.14    0.49
   1  -4  -8    6.57    0.54
  -1  -4   8    7.37    0.42
   1  -4  -8    6.93    0.36
  -1   4   8    7.66    0.43
  -1   4   8    7.55    0.43
  -1   4   8    7.29    0.43
   1   4  -8    6.24    0.64
   1   4  -8    6.79    0.41
   0  -4  -8    0.11    0.21
   0  -4  -8   -0.08    0.19
   0  -4   8    0.04    0.21
   0  -4   8   -0.04    0.25
   0   4   8    0.60    0.22
   0   4   8    0.37    0.22
   0   4  -8    0.07    0.21
   0   4  -8    0.10    0.28
   0   4   8    0.26    0.21
   1  -4   8    1.92    0.29
  -1  -4  -8    1.77    0.26
   1  -4   8    1.91    0.25
  -1  -4  -8    2.06    0.29
  -1  -4  -8    1.84    0.24
   1   4   8    2.26    0.24
  -1   4  -8    2.29    0.29
   1   4   8    2.04    0.25
  -1   4  -8    1.63    0.34
  -2  -4  -8  124.54    4.22
  -2  -4  -8  118.79    3.74
   2  -4   8  118.74    4.15
   2  -4   8  119.54    3.91
   2   4   8  118.18    3.85
   2   4   8  117.33    3.91
  -2   4  -8  122.12    4.16
  -2   4  -8  113.33    5.40
  -2   4  -8  122.20    3.78
   3  -4   8    2.16    0.26
  -3  -4  -8    1.87    0.38
  -3  -4  -8    1.84    0.25
   3  -4   8    1.95    0.27
   3   4   8    2.29    0.27
   3   4   8    1.84    0.27
  -3   4  -8    1.87    0.34
  -3   4  -8    2.02    0.31
  -3   4  -8    1.64    0.33
   4  -4   8  242.04    7.96
  -4  -4  -8  256.74    8.55
  -4  -4  -8  243.19    7.58
   4  -4   8  241.52    8.42
  -4   4  -8  236.00    7.63
   4   4   8  244.56    7.81
   4   4   8  248.09    7.96
  -4   4  -8  257.10    8.49
   5  -4   8    0.91    0.26
  -5  -4  -8    0.80    0.23
  -5  -4  -8    1.01    0.40
   5  -4   8    0.70    0.24
   5   4   8    0.82    0.23
  -5   4  -8    0.80    0.35
   5   4   8    0.50    0.23
  -5   4  -8    0.40    0.30
  -6  -4  -8    3.13    0.31
  -6  -4  -8    3.41    0.57
   6  -4   8    3.50    0.34
   6  -4   8    3.24    0.33
  -6   4  -8    3.48    0.46
  -6   4  -8    2.24    0.38
   6   4   8    3.10    0.33
   6   4   8    2.97    0.32
  -7  -4  -8   -0.12    0.46
   7  -4   8    0.11    0.25
   7  -4   8    0.31    0.28
  -7  -4  -8    0.07    0.22
  -7   4  -8   -0.17    0.38
  -7   4  -8   -0.18    0.33
   7   4   8   -0.19    0.26
   7   4   8   -0.20    0.25
  -9  -5   8    1.02    0.30
   9  -5  -8    1.32    0.35
  -9   5   8    1.94    0.38
   9   5  -8    1.30    0.36
  -8  -5   8    4.78    0.41
   8  -5  -8    5.33    0.45
   8   5  -8    6.18    0.50
  -8   5   8    6.73    0.55
   7  -5  -8   -0.48    0.25
  -7  -5   8    0.13    0.25
   7   5  -8   -0.04    0.33
  -7   5   8    0.10    0.31
   7   5  -8    0.53    0.28
   6  -5  -8   -0.16    0.22
  -6  -5   8   -0.22    0.21
  -6  -5   8    0.01    0.32
  -6   5   8    0.06    0.30
   6   5  -8   -0.58    0.30
   5  -5  -8   36.81    1.79
  -5  -5   8   36.34    1.45
   5  -5  -8   36.22    1.35
  -5  -5   8   36.34    1.31
   5   5  -8   35.97    1.23
  -5   5   8   37.06    1.36
   5   5  -8   36.56    1.87
   4  -5  -8    9.80    0.48
  -4  -5   8    9.45    0.62
   4  -5  -8    9.33    0.69
  -4  -5   8   10.79    0.50
   4   5  -8    9.99    0.78
  -4   5   8   10.67    0.60
   4   5  -8   10.40    0.49
  -3  -5   8    2.67    0.35
  -3  -5   8    3.44    0.30
   3  -5  -8    2.75    0.21
   3  -5  -8    2.48    0.33
   3   5  -8    2.40    0.28
  -3   5   8    2.58    0.32
  -3   5   8    3.03    0.26
   3   5  -8    2.33    0.42
   2  -5  -8    3.34    0.27
   2  -5  -8    2.25    0.32
  -2  -5   8    2.95    0.36
  -2  -5   8    3.77    0.33
  -2   5   8    3.34    0.30
  -2   5   8    3.42    0.28
   2   5  -8    2.48    0.41
  -2   5   8    3.16    0.33
   2   5  -8    2.99    0.29
  -1  -5   8    1.96    0.25
   1  -5  -8    1.71    0.21
   1  -5  -8    1.53    0.28
  -1  -5   8    2.15    0.33
  -1   5   8    2.03    0.27
  -1   5   8    1.92    0.28
   1   5  -8    1.67    0.37
   1   5  -8    1.91    0.26
  -1   5   8    1.88    0.27
   0  -5  -8    2.79    0.26
   0  -5   8    2.89    0.27
   0  -5   8    3.11    0.35
   0   5  -8    3.03    0.30
   0   5  -8    2.87    0.41
   0   5   8    3.27    0.34
   0   5   8    3.29    0.29
   0   5   8    2.66    0.29
  -1  -5  -8    1.33    0.21
   1  -5   8    1.23    0.23
   1  -5   8    1.31    0.29
  -1   5  -8    1.24    0.28
   1   5   8    1.07    0.25
   1   5   8    1.34    0.28
  -1   5  -8    1.40    0.36
   1   5   8    1.53    0.24
   2  -5   8   -0.19    0.23
  -2  -5  -8   -0.06    0.19
   2  -5   8    0.13    0.20
  -2  -5  -8    0.16    0.32
  -2   5  -8   -0.24    0.26
  -2   5  -8    0.16    0.23
  -2   5  -8    0.14    0.30
   2   5   8   -0.12    0.23
   2   5   8    0.18    0.21
  -3  -5  -8    0.96    0.37
   3  -5   8    1.21    0.27
   3  -5   8    1.10    0.24
  -3  -5  -8    1.09    0.23
  -3   5  -8    1.30    0.31
   3   5   8    0.94    0.27
  -3   5  -8    1.33    0.33
   3   5   8    1.60    0.26
  -3   5  -8    1.22    0.29
   4  -5   8    0.78    0.26
   4  -5   8    0.74    0.24
  -4  -5  -8    1.00    0.23
  -4  -5  -8    0.60    0.41
   4   5   8    0.69    0.24
  -4   5  -8    0.41    0.31
   4   5   8    0.40    0.24
  -4   5  -8    0.02    0.30
  -5  -5  -8    0.39    0.43
  -5  -5  -8    0.48    0.24
   5  -5   8    1.02    0.27
   5  -5   8    1.36    0.27
   5   5   8    1.37    0.28
  -5   5  -8    0.57    0.34
  -5   5  -8    1.06    0.36
   5   5   8    0.45    0.28
  -6  -5  -8    0.72    0.25
   6  -5   8    1.30    0.29
   6  -5   8    1.45    0.30
  -6  -5  -8    0.73    0.47
   6   5   8    0.98    0.29
   6   5   8    0.78    0.27
  -6   5  -8    1.51    0.39
  -6   5  -8    0.32    0.34
  -7  -5  -8    0.02    0.48
  -7  -5  -8    0.15    0.23
   7  -5   8    0.83    0.27
   7  -5   8    0.25    0.29
   7   5   8   -0.48    0.25
  -7   5  -8   -0.45    0.41
  -7   5  -8   -0.20    0.35
   9   6  -8    0.06    0.35
   8  -6  -8   91.00    3.26
  -8  -6   8   88.58    3.08
  -8   6   8   94.30    3.11
   8   6  -8   92.51    3.30
  -7  -6   8   -0.24    0.23
   7  -6  -8   -0.77    0.26
   7   6  -8   -0.01    0.32
  -7   6   8    0.13    0.33
   6  -6  -8    5.30    0.42
  -6  -6   8    5.62    0.49
  -6  -6   8    4.63    0.42
  -6   6   8    4.87    0.47
   6   6  -8    5.66    0.64
  -5  -6   8   -0.30    0.28
  -5  -6   8   -0.12    0.22
  -5   6   8    0.28    0.32
   5   6  -8   -0.10    0.20
   5   6  -8   -0.10    0.35
  -4  -6   8   78.40    2.80
  -4  -6   8   79.53    2.60
   4   6  -8   78.85    2.48
  -4   6   8   76.91    2.62
   4   6  -8   72.86    3.64
  -3  -6   8    0.00    0.21
  -3  -6   8    0.22    0.29
   3  -6  -8    0.12    0.16
  -3   6   8    0.10    0.28
  -3   6   8   -0.26    0.25
   3   6  -8    0.07    0.21
   3   6  -8    0.37    0.34
   2  -6  -8  189.81    5.67
  -2  -6   8  194.29    5.98
  -2  -6   8  183.12    6.38
   2   6  -8  174.22    5.71
  -2   6   8  176.94    6.36
  -2   6   8  184.01    5.91
   2   6  -8  186.02    8.28
  -1  -6   8    0.14    0.31
  -1  -6   8    0.23    0.20
   1  -6  -8    0.01    0.17
  -1   6   8    0.02    0.26
  -1   6   8   -0.09    0.26
   1   6  -8   -0.11    0.22
   0  -6   8    6.68    0.39
   0  -6  -8    6.35    0.37
   0  -6   8    5.97    0.50
   0   6  -8    6.50    0.44
   0   6   8    6.18    0.47
   0   6   8    6.12    0.51
   1  -6   8    1.14    0.30
  -1  -6  -8    0.97    0.22
   1  -6   8    1.02    0.22
  -1   6  -8    0.93    0.27
   1   6   8    1.34    0.32
   1   6   8    0.61    0.26
   2  -6   8    5.16    0.44
   2  -6   8    4.80    0.36
  -2  -6  -8    4.78    0.36
   2   6   8    4.55    0.38
  -2   6  -8    5.26    0.43
   3  -6   8    8.07    0.50
  -3  -6  -8    6.79    0.62
  -3  -6  -8    7.36    0.43
   3   6   8    7.50    0.49
  -3   6  -8    7.39    0.55
  -3   6  -8    7.38    0.52
   4  -6   8   46.52    1.79
  -4  -6  -8   50.13    1.95
  -4  -6  -8   48.34    1.62
  -4   6  -8   50.09    1.70
   4   6   8   46.10    1.70
  -4   6  -8   49.04    1.85
  -5  -6  -8    0.72    0.24
   5  -6   8    0.66    0.28
  -5  -6  -8   -0.09    0.49
   5   6   8   -0.21    0.26
  -5   6  -8    0.37    0.34
  -5   6  -8    0.22    0.36
  -6  -6  -8   21.75    1.22
   6  -6   8   20.65    0.91
  -6  -6  -8   19.88    0.81
  -6   6  -8   21.86    1.04
   6   6   8   20.16    0.88
  -6   6  -8   17.54    0.93
   8  -7  -8   -0.82    0.31
   8   7  -8    0.74    0.30
   7  -7  -8    9.45    0.60
  -7   7   8   11.38    0.73
   7   7  -8    9.85    0.87
  -6  -7   8    1.81    0.39
   6   7  -8    0.74    0.41
  -6   7   8    1.37    0.40
  -5  -7   8    1.56    0.35
  -5   7   8    1.92    0.39
   5   7  -8    2.06    0.27
   5   7  -8    2.34    0.46
  -4  -7   8   -0.23    0.28
  -4   7   8    0.11    0.33
   4   7  -8    0.13    0.21
   4   7  -8    0.15    0.38
  -3  -7   8    2.28    0.38
  -3   7   8    2.79    0.36
  -3   7   8    2.33    0.37
   3   7  -8    2.47    0.29
   2  -7  -8    0.18    0.18
  -2  -7   8   -0.12    0.30
  -2   7   8   -0.14    0.28
  -2   7   8   -0.08    0.29
   2   7  -8    0.20    0.24
  -1  -7   8    4.01    0.43
   1  -7  -8    4.63    0.34
  -1   7   8    4.20    0.43
  -1   7   8    4.16    0.38
   1   7  -8    3.92    0.36
   0  -7  -8    3.28    0.29
   0  -7   8    3.24    0.40
   0   7  -8    4.08    0.36
   0   7   8    3.38    0.37
   0   7   8    4.16    0.43
   1  -7   8    5.11    0.48
  -1  -7  -8    5.28    0.38
   1   7   8    5.56    0.49
  -1   7  -8    5.05    0.43
   1   7   8    4.67    0.41
  -2  -7  -8    1.29    0.23
   2  -7   8    1.58    0.32
   2   7   8    1.24    0.37
   2   7   8    0.75    0.30
  -2   7  -8    0.95    0.29
  -3  -7  -8    0.22    0.22
   3  -7   8    0.00    0.27
   3   7   8    0.08    0.29
  -3   7  -8   -0.26    0.27
  -4  -7  -8    0.12    0.43
   4  -7   8    0.76    0.28
  -4  -7  -8    0.90    0.25
  -4   7  -8    0.52    0.35
   4   7   8    0.23    0.30
  -4   7  -8    1.04    0.38
  -5  -7  -8    0.54    0.23
   5  -7   8    0.75    0.29
  -5  -7  -8   -0.83    0.46
  -5   7  -8   -0.33    0.32
  -5   7  -8   -0.18    0.33
   5   7   8   -0.30    0.29
  -6   7  -8    4.47    0.53
  -7  -8   8   -0.20    0.32
   7   8  -8    0.29    0.40
  -6  -8   8   11.94    0.75
   6   8  -8   12.45    1.03
  -6   8   8   12.70    0.80
  -5  -8   8    0.50    0.35
  -5   8   8    0.48    0.41
   5   8  -8    1.10    0.44
   5   8  -8    0.83    0.26
  -4  -8   8    1.69    0.37
  -4   8   8    1.79    0.44
   4   8  -8    1.58    0.28
   4   8  -8    1.89    0.46
  -3  -8   8    1.68    0.38
  -3   8   8    1.97    0.39
   3   8  -8    1.78    0.30
  -3   8   8    2.25    0.39
   2  -8  -8   58.67    1.93
  -2  -8   8   61.84    2.25
  -2   8   8   58.76    2.25
   2   8  -8   59.12    2.00
  -2   8   8   59.64    2.09
   1  -8  -8    7.11    0.43
  -1  -8   8    7.37    0.59
  -1   8   8    6.73    0.54
  -1   8   8    7.37    0.59
   1   8  -8    7.13    0.53
   0  -8   8    5.05    0.47
   0  -8  -8    4.43    0.38
   0   8   8    4.53    0.50
   0   8   8    4.93    0.43
   0   8  -8    4.20    0.41
  -1  -8  -8    3.73    0.33
   1  -8   8    4.50    0.46
   1   8   8    3.85    0.41
  -1   8  -8    3.96    0.39
   1   8   8    4.32    0.52
  -2  -8  -8   94.24    3.13
   2  -8   8  100.64    3.53
   2   8   8  106.03    3.63
  -2   8  -8   96.98    3.19
   2   8   8   95.54    3.28
  -3  -8  -8   -0.30    0.23
   3  -8   8    0.37    0.31
   3   8   8    0.10    0.44
   3   8   8   -0.39    0.31
  -3   8  -8   -0.10    0.31
  -4  -8  -8  105.94    3.50
   4  -8   8  104.07    3.89
   4   8   8  117.65    4.06
  -4   8  -8  111.80    3.55
  -5  -9   8   14.17    0.82
  -5   9   8   15.25    0.87
   5   9  -8   16.58    1.20
   5   9  -8   14.64    0.70
  -4  -9   8    3.57    0.43
  -4   9   8    3.77    0.52
   4   9  -8    3.32    0.35
  -3  -9   8    0.21    0.36
   3   9  -8    0.13    0.27
  -3   9   8    0.19    0.35
  -3   9   8    0.44    0.40
   2  -9  -8    0.84    0.24
  -2  -9   8    0.85    0.36
  -2   9   8    0.75    0.38
  -2   9   8    0.60    0.41
   2   9  -8    0.06    0.30
   1  -9  -8    0.80    0.22
  -1  -9   8    1.03    0.38
   1   9  -8    0.90    0.31
  -1   9   8    0.71    0.42
  -1   9   8    1.12    0.39
   0  -9   8    2.36    0.42
   0  -9  -8    2.50    0.29
   0   9   8    2.69    0.40
   0   9  -8    1.85    0.36
   0   9   8    2.16    0.49
   1  -9   8    0.81    0.37
  -1  -9  -8    0.78    0.24
  -1   9  -8    0.27    0.31
   1   9   8    0.42    0.34
   1   9   8    0.80    0.45
   2  -9   8   -0.06    0.32
  -2  -9  -8    0.17    0.23
   2   9   8   -0.17    0.42
  -2   9  -8   -0.26    0.29
   2   9   8   -0.18    0.33
   3   9   8    0.89    0.47
  -3  10   8   -0.41    0.42
  -2  10   8   74.84    2.70
  -2  10   8   74.72    2.82
   1 -10  -8    0.42    0.25
  -1  10   8   -0.01    0.41
  -1  10   8    0.03    0.41
   0  10   8    9.28    0.76
 -10   0   9   13.71    0.71
 -10   0   9   11.08    0.64
  -9   0   9    0.15    0.32
  -9   0   9    0.19    0.27
   9   0  -9    0.03    0.32
  -8   0   9    1.40    0.32
  -8   0   9    1.07    0.27
   8   0  -9    0.38    0.40
   8   0  -9    0.99    0.34
  -7   0   9    0.68    0.26
   7   0  -9    0.46    0.28
   7   0  -9    0.87    0.41
  -7   0   9    1.32    0.28
  -6   0   9  162.98    4.91
   6   0  -9  142.91    6.90
  -6   0   9  153.88    5.00
   6   0  -9  149.74    5.30
  -5   0   9    6.12    0.37
  -5   0   9    5.28    0.40
   5   0  -9    3.62    0.54
   5   0  -9    4.76    0.45
   4   0  -9    0.08    0.36
   4   0  -9    0.56    0.25
  -4   0   9    0.09    0.22
  -4   0   9    0.58    0.21
   3   0  -9    0.88    0.38
   3   0  -9    0.78    0.25
  -3   0   9    0.45    0.23
  -3   0   9    0.47    0.27
  -3   0   9    0.89    0.21
   2   0  -9  110.13    3.49
   2   0  -9  107.60    5.07
  -2   0   9  111.53    3.67
  -2   0   9  117.17    3.89
  -2   0   9  109.80    3.57
  -1   0   9    0.94    0.26
  -1   0   9    0.40    0.25
   1   0  -9    0.48    0.27
  -1   0   9    0.48    0.18
   1   0  -9    0.52    0.34
   0   0  -9  479.68   15.14
   0   0   9  494.16   15.90
   0   0  -9  472.49   21.80
   0   0   9  499.85   15.55
   0   0   9  533.28   16.83
  -1   0  -9   -0.14    0.28
  -1   0  -9    0.11    0.27
   1   0   9    0.18    0.21
   1   0   9   -0.14    0.22
   1   0   9    0.10    0.16
   2   0   9    3.02    0.29
  -2   0  -9    3.55    0.33
  -2   0  -9    3.13    0.35
   2   0   9    2.99    0.30
  -2   0  -9    2.43    0.35
   2   0   9    3.10    0.25
  -3   0  -9    0.56    0.28
  -3   0  -9    0.87    0.28
   3   0   9    1.28    0.26
   3   0   9    0.96    0.18
   4   0   9    6.01    0.41
  -4   0  -9    5.64    0.44
  -4   0  -9    5.62    0.50
  -5   0  -9   -0.33    0.29
   5   0   9   -0.18    0.22
  -5   0  -9   -0.03    0.28
  -6   0  -9   61.56    2.23
  -6   0  -9   58.45    1.96
   6   0   9   54.94    2.00
   7   0   9    1.70    0.31
  -7   0  -9    1.80    0.33
  -7   0  -9    2.34    0.46
 -10  -1   9    0.85    0.35
 -10   1   9    1.20    0.30
  -9  -1   9    8.20    0.60
   9  -1  -9    7.44    0.59
  -9  -1   9    7.48    0.52
  -9   1   9    7.71    0.50
  -9   1   9    8.48    0.61
   9   1  -9    6.91    0.63
   8  -1  -9    6.61    0.80
   8  -1  -9    8.01    0.55
  -8  -1   9    7.53    0.50
  -8  -1   9    8.98    0.56
  -8   1   9    9.03    0.54
  -8   1   9    8.31    0.48
   8   1  -9    6.03    0.68
   8   1  -9    7.41    0.56
  -7  -1   9    0.33    0.25
  -7  -1   9    0.21    0.24
   7  -1  -9   -0.08    0.40
   7  -1  -9    0.26    0.28
  -7   1   9    0.19    0.25
   7   1  -9   -0.34    0.28
   7   1  -9   -0.34    0.36
  -7   1   9    0.03    0.22
   6  -1  -9   -0.13    0.37
   6  -1  -9    0.03    0.27
  -6  -1   9    0.12    0.23
  -6  -1   9    0.27    0.24
   6   1  -9   -0.16    0.25
  -6   1   9    0.32    0.25
  -6   1   9   -0.02    0.22
   6   1  -9    0.03    0.36
   5  -1  -9    1.10    0.27
  -5  -1   9    1.28    0.22
  -5  -1   9    1.66    0.27
   5  -1  -9    1.18    0.41
  -5   1   9    1.55    0.26
   5   1  -9    1.34    0.31
  -5   1   9    1.25    0.25
   5   1  -9    1.16    0.41
   4  -1  -9    2.25    0.29
  -4  -1   9    1.98    0.28
  -4  -1   9    2.54    0.24
   4  -1  -9    2.13    0.44
  -4  -1   9    2.21    0.34
   4   1  -9    2.16    0.25
   4   1  -9    2.06    0.40
  -4   1   9    2.22    0.27
  -4   1   9    2.60    0.29
  -3  -1   9   11.32    0.53
  -3  -1   9   11.39    0.49
  -3  -1   9   11.22    0.59
   3  -1  -9   10.43    0.52
   3  -1  -9    8.82    0.55
   3  -1  -9   11.26    0.85
   3   1  -9   10.19    0.80
   3   1  -9   11.05    0.51
  -3   1   9   10.22    0.51
  -3   1   9   11.27    0.54
  -2  -1   9    0.47    0.17
  -2  -1   9    0.54    0.23
   2  -1  -9    0.19    0.35
  -2  -1   9    0.10    0.26
   2  -1  -9    0.47    0.26
  -2   1   9    0.40    0.24
  -2   1   9    0.23    0.19
  -2   1   9    0.51    0.25
   2   1  -9    0.29    0.34
   2   1  -9    0.42    0.25
   1  -1  -9    1.77    0.40
  -1  -1   9    1.79    0.27
   1  -1  -9    2.16    0.32
  -1  -1   9    2.15    0.31
  -1  -1   9    2.19    0.20
  -1   1   9    2.17    0.24
   1   1  -9    2.45    0.30
   1   1  -9    1.94    0.37
  -1   1   9    1.91    0.30
  -1   1   9    2.38    0.30
   0  -1   9    1.03    0.24
   0  -1  -9    1.27    0.34
   0  -1   9    1.23    0.27
   0  -1  -9    1.10    0.28
   0  -1   9    1.07    0.16
   0   1   9    0.93    0.24
   0   1  -9    0.62    0.31
   0   1  -9    0.47    0.27
   0   1   9    0.91    0.20
   0   1   9    1.29    0.23
   1  -1   9    0.03    0.23
  -1  -1  -9   -0.02    0.27
  -1  -1  -9    0.14    0.28
   1  -1   9   -0.06    0.20
   1   1   9    0.03    0.17
  -1   1  -9    0.11    0.28
   1   1   9    0.15    0.21
   1   1   9   -0.08    0.21
  -1   1  -9    0.14    0.26
  -2  -1  -9    1.52    0.29
  -2  -1  -9    1.73    0.26
  -2  -1  -9    2.28    0.32
   2  -1   9    2.21    0.27
   2  -1   9    1.83    0.26
   2   1   9    1.72    0.26
  -2   1  -9    1.84    0.31
  -2   1  -9    1.41    0.31
   2   1   9    1.98    0.22
   3  -1   9    1.75    0.26
   3  -1   9    1.71    0.27
  -3  -1  -9    1.93    0.31
  -3  -1  -9    2.07    0.33
  -3   1  -9    1.22    0.28
  -3   1  -9    1.27    0.31
   3   1   9    1.55    0.26
   3   1   9    1.34    0.21
  -4  -1  -9    1.57    0.34
  -4  -1  -9    1.15    0.30
   4  -1   9    1.47    0.27
   4   1   9    1.71    0.22
  -4   1  -9    1.50    0.32
   4   1   9    1.94    0.27
  -4   1  -9    1.87    0.34
  -5  -1  -9    8.19    0.52
  -5  -1  -9    9.22    0.62
   5  -1   9    9.00    0.50
   5   1   9    8.58    0.49
   5   1   9    8.70    0.45
  -5   1  -9    9.64    0.59
  -5   1  -9    9.72    0.64
  -6  -1  -9    0.00    0.38
   6  -1   9    0.49    0.26
  -6  -1  -9   -0.05    0.26
  -6   1  -9   -0.25    0.30
  -6   1  -9    0.27    0.38
   6   1   9    0.27    0.27
  -7  -1  -9    1.77    0.31
   7  -1   9    1.35    0.32
  -7  -1  -9    0.57    0.44
  -7   1  -9    0.62    0.42
  -7   1  -9    1.29    0.34
   7   1   9    1.21    0.30
 -10  -2   9    4.74    0.46
 -10   2   9    3.78    0.40
   9  -2  -9   -0.26    0.33
  -9  -2   9    0.20    0.30
  -9  -2   9   -0.03    0.28
  -9   2   9   -0.34    0.24
   9   2  -9   -0.28    0.32
  -9   2   9    0.01    0.31
  -8  -2   9   47.61    1.63
  -8  -2   9   44.07    1.63
   8  -2  -9   45.53    2.28
   8  -2  -9   45.61    1.74
  -8   2   9   45.47    1.62
   8   2  -9   42.36    1.75
  -8   2   9   46.74    1.64
   8   2  -9   47.42    2.31
  -7  -2   9    0.30    0.25
   7  -2  -9   -0.28    0.35
   7  -2  -9    0.13    0.26
  -7  -2   9    0.47    0.26
   7   2  -9    0.12    0.36
  -7   2   9    0.14    0.22
   7   2  -9    0.37    0.30
  -7   2   9    0.11    0.26
  -6  -2   9  164.77    5.73
  -6  -2   9  181.94    5.63
   6  -2  -9  178.48    7.91
   6  -2  -9  181.10    6.08
  -6   2   9  169.62    5.73
   6   2  -9  166.88    6.09
  -6   2   9  173.83    5.64
   6   2  -9  189.88    7.92
  -5  -2   9    1.17    0.32
  -5  -2   9    1.81    0.24
   5  -2  -9    1.47    0.28
  -5  -2   9    1.77    0.27
   5  -2  -9    1.68    0.42
  -5   2   9    1.84    0.28
  -5   2   9    1.59    0.26
   5   2  -9    1.38    0.40
   4  -2  -9    0.18    0.34
   4  -2  -9    0.37    0.21
  -4  -2   9    0.46    0.29
  -4  -2   9    0.55    0.24
  -4  -2   9    0.71    0.19
  -4   2   9    0.48    0.24
   4   2  -9    0.45    0.21
   4   2  -9    0.59    0.34
  -4   2   9    0.67    0.23
   3  -2  -9    1.41    0.38
  -3  -2   9    1.93    0.26
   3  -2  -9    1.82    0.25
   3  -2  -9    1.60    0.22
  -3  -2   9    2.18    0.21
  -3  -2   9    1.73    0.30
  -3   2   9    2.27    0.28
   3   2  -9    1.63    0.35
  -3   2   9    1.80    0.27
   3   2  -9    1.83    0.25
  -2  -2   9   32.09    1.20
   2  -2  -9   31.36    1.24
   2  -2  -9   33.98    1.14
  -2  -2   9   34.01    1.30
   2  -2  -9   33.82    1.69
   2   2  -9   33.76    1.68
  -2   2   9   33.33    1.17
  -2   2   9   31.88    1.20
   2   2  -9   34.18    1.16
   1  -2  -9    0.17    0.32
  -1  -2   9    0.27    0.26
   1  -2  -9    0.46    0.23
  -1  -2   9    0.13    0.22
  -1   2   9    0.25    0.24
   1   2  -9    0.35    0.26
   1   2  -9    0.33    0.28
  -1   2   9   -0.06    0.20
   0  -2   9   92.11    3.32
   0  -2  -9   95.38    4.29
   0  -2   9   90.29    3.13
   0  -2  -9   95.79    3.00
   0   2   9   94.65    3.05
   0   2   9   93.39    3.12
   0   2  -9   96.80    3.01
   0   2  -9   97.33    4.31
  -1  -2  -9   -0.18    0.25
   1  -2   9    0.24    0.21
  -1  -2  -9    0.10    0.20
  -1  -2  -9   -0.24    0.24
   1  -2   9   -0.04    0.24
   1   2   9   -0.10    0.20
   1   2   9    0.11    0.19
  -1   2  -9   -0.11    0.26
  -1   2  -9    0.17    0.25
   2  -2   9    6.58    0.44
  -2  -2  -9    6.13    0.45
  -2  -2  -9    6.25    0.51
  -2  -2  -9    6.07    0.47
  -2   2  -9    6.75    0.57
   2   2   9    6.15    0.38
  -2   2  -9    5.25    0.46
   2   2   9    6.77    0.41
   3  -2   9    0.28    0.23
   3  -2   9    0.16    0.23
  -3  -2  -9   -0.28    0.26
  -3  -2  -9   -0.09    0.26
  -3   2  -9    0.34    0.29
   3   2   9    0.55    0.23
  -3   2  -9   -0.10    0.25
   3   2   9    0.03    0.20
   4  -2   9   43.34    1.58
   4  -2   9   45.94    1.64
  -4  -2  -9   45.19    1.54
  -4  -2  -9   45.20    1.73
  -4   2  -9   41.74    1.55
   4   2   9   44.15    1.52
  -4   2  -9   48.01    1.72
   4   2   9   43.37    1.56
   5  -2   9    1.68    0.28
  -5  -2  -9    1.03    0.36
  -5  -2  -9    1.40    0.29
  -5   2  -9    1.90    0.35
   5   2   9    1.79    0.30
   5   2   9    1.37    0.23
  -5   2  -9    1.42    0.33
  -6  -2  -9  108.09    3.67
  -6  -2  -9   98.22    3.20
   6  -2   9   94.71    3.32
   6   2   9  100.37    3.25
   6   2   9   93.50    3.32
  -6   2  -9  105.43    3.63
  -6   2  -9   98.48    3.23
  -7  -2  -9    0.67    0.46
  -7  -2  -9    0.27    0.27
   7  -2   9    0.58    0.28
   7   2   9    0.30    0.26
  -7   2  -9   -0.03    0.31
   7   2   9    0.43    0.29
  -7   2  -9    0.03    0.41
 -10  -3   9    2.91    0.42
 -10   3   9    1.88    0.33
  -9  -3   9    0.85    0.32
  -9  -3   9    0.86    0.34
   9  -3  -9    0.95    0.35
  -9   3   9    1.17    0.35
  -9   3   9    1.29    0.27
   9   3  -9    0.54    0.34
   8  -3  -9    1.83    0.44
  -8  -3   9    2.63    0.34
   8  -3  -9    1.98    0.37
  -8  -3   9    2.90    0.37
   8   3  -9    1.97    0.45
  -8   3   9    2.59    0.31
   8   3  -9    2.75    0.40
  -8   3   9    3.07    0.38
  -7  -3   9    1.37    0.30
   7  -3  -9    1.21    0.38
   7  -3  -9    1.53    0.30
  -7  -3   9    1.14    0.27
  -7   3   9    1.50    0.31
   7   3  -9    1.81    0.33
   7   3  -9    1.02    0.39
  -7   3   9    1.48    0.26
   6  -3  -9    1.35    0.39
  -6  -3   9    1.49    0.27
   6  -3  -9    1.30    0.28
  -6  -3   9    1.28    0.28
  -6   3   9    1.74    0.31
   6   3  -9    1.24    0.37
  -6   3   9    1.71    0.25
   5  -3  -9    0.04    0.23
  -5  -3   9    0.21    0.23
  -5  -3   9    0.43    0.30
   5  -3  -9   -0.03    0.34
   5   3  -9    0.49    0.33
  -5   3   9    0.44    0.23
  -5   3   9    0.26    0.25
  -4  -3   9    3.67    0.38
   4  -3  -9    3.49    0.31
  -4  -3   9    4.26    0.36
   4  -3  -9    2.44    0.43
  -4   3   9    3.27    0.35
  -4   3   9    3.60    0.33
   4   3  -9    4.26    0.32
   4   3  -9    3.61    0.44
   3  -3  -9   16.38    0.61
  -3  -3   9   15.74    0.67
  -3  -3   9   15.31    0.74
   3  -3  -9   15.50    0.67
   3  -3  -9   16.18    1.01
   3   3  -9   15.25    0.63
   3   3  -9   16.16    0.97
  -3   3   9   16.61    0.68
  -3   3   9   15.21    0.68
   2  -3  -9    1.27    0.22
   2  -3  -9    0.95    0.33
  -2  -3   9    1.44    0.30
  -2  -3   9    1.37    0.24
   2  -3  -9    1.29    0.20
  -2   3   9    1.44    0.26
   2   3  -9    1.23    0.23
   2   3  -9    1.01    0.31
  -2   3   9    1.38    0.25
  -1  -3   9    1.29    0.28
   1  -3  -9    1.05    0.32
   1  -3  -9    1.08    0.24
  -1  -3   9    0.89    0.23
  -1   3   9    1.12    0.22
  -1   3   9    1.18    0.27
   1   3  -9    0.63    0.24
   1   3  -9    0.84    0.32
   0  -3   9    0.81    0.23
   0  -3  -9    0.47    0.26
   0  -3  -9    0.57    0.25
   0  -3   9    0.66    0.26
   0   3  -9    0.55    0.28
   0   3  -9    0.66    0.26
   0   3   9    0.59    0.22
   0   3   9    0.63    0.23
  -1  -3  -9    1.20    0.26
  -1  -3  -9    0.74    0.25
   1  -3   9    0.81    0.26
   1  -3   9    1.38    0.24
  -1  -3  -9    0.80    0.25
   1   3   9    1.00    0.23
   1   3   9    1.18    0.24
  -1   3  -9    0.92    0.28
  -1   3  -9    0.98    0.31
   2  -3   9    4.92    0.37
   2  -3   9    5.12    0.44
  -2  -3  -9    4.73    0.42
  -2  -3  -9    4.53    0.44
  -2  -3  -9    4.21    0.36
  -2   3  -9    4.45    0.40
   2   3   9    4.53    0.35
   2   3   9    5.14    0.37
  -2   3  -9    4.81    0.53
   3  -3   9    6.93    0.47
  -3  -3  -9    7.09    0.54
   3  -3   9    6.78    0.43
  -3  -3  -9    7.71    0.47
  -3   3  -9    6.87    0.51
   3   3   9    6.74    0.43
   3   3   9    6.84    0.46
   4  -3   9    0.38    0.25
   4  -3   9    0.38    0.24
  -4  -3  -9   -0.13    0.24
  -4  -3  -9    0.45    0.34
   4   3   9    0.26    0.23
  -4   3  -9    0.00    0.29
  -4   3  -9    0.24    0.29
   4   3   9   -0.21    0.20
   5  -3   9    1.42    0.27
  -5  -3  -9    0.93    0.40
   5  -3   9    1.48    0.28
  -5  -3  -9    0.91    0.27
   5   3   9    1.24    0.28
  -5   3  -9    1.42    0.37
  -5   3  -9    0.48    0.31
   5   3   9    0.79    0.26
   6  -3   9    1.69    0.31
  -6  -3  -9    1.33    0.43
  -6  -3  -9    1.16    0.29
   6   3   9    1.48    0.30
   6   3   9    0.79    0.27
  -6   3  -9    1.16    0.43
  -6   3  -9    0.63    0.33
  -7  -3  -9    6.30    0.62
   7  -3   9    6.08    0.47
  -7  -3  -9    6.50    0.49
  -7   3  -9    6.99    0.62
   7   3   9    5.74    0.44
   7   3   9    5.96    0.47
  -7   3  -9    6.40    0.51
  -9  -4   9   -0.21    0.28
   9  -4  -9   -0.45    0.31
  -9   4   9    0.07    0.34
   9   4  -9    0.48    0.34
   8  -4  -9    1.11    0.35
   8  -4  -9    1.32    0.40
  -8  -4   9    1.64    0.32
  -8   4   9    1.73    0.37
   8   4  -9    1.75    0.43
   8   4  -9    1.47    0.35
  -8   4   9    1.80    0.30
  -7  -4   9    1.25    0.28
   7  -4  -9    0.64    0.29
   7  -4  -9    0.92    0.35
   7   4  -9    1.32    0.31
  -7   4   9    1.04    0.24
   7   4  -9    0.68    0.35
  -7   4   9    1.61    0.34
   6  -4  -9  117.63    4.12
   6  -4  -9  117.14    5.37
  -6  -4   9  116.20    4.18
  -6  -4   9  114.65    3.91
  -6   4   9  118.62    3.88
   6   4  -9  120.77    5.39
  -6   4   9  121.41    3.89
  -5  -4   9    6.64    0.43
  -5  -4   9    6.90    0.54
   5  -4  -9    6.95    0.65
   5  -4  -9    6.84    0.44
   5   4  -9    6.09    0.64
  -5   4   9    6.56    0.41
  -5   4   9    6.76    0.50
   4  -4  -9    3.52    0.42
  -4  -4   9    2.85    0.36
  -4  -4   9    2.36    0.29
   4  -4  -9    2.47    0.26
   4   4  -9    2.57    0.27
   4   4  -9    2.05    0.38
  -4   4   9    2.27    0.34
  -4   4   9    2.62    0.29
   3  -4  -9    0.26    0.17
  -3  -4   9    0.26    0.22
  -3  -4   9    0.20    0.28
   3  -4  -9    0.16    0.28
  -3   4   9   -0.06    0.22
   3   4  -9   -0.02    0.29
  -3   4   9    0.10    0.27
   3   4  -9   -0.19    0.19
  -2  -4   9  117.45    3.90
   2  -4  -9  124.49    3.70
   2  -4  -9  118.91    5.35
  -2  -4   9  116.86    4.16
   2   4  -9  118.06    3.71
  -2   4   9  117.72    3.91
  -2   4   9  118.19    3.84
   2   4  -9  117.37    5.39
  -1  -4   9    0.18    0.27
  -1  -4   9   -0.19    0.21
   1  -4  -9    0.16    0.20
   1  -4  -9    0.03    0.27
   1   4  -9   -0.13    0.21
  -1   4   9   -0.13    0.21
  -1   4   9    0.30    0.24
   1   4  -9    0.46    0.32
   0  -4  -9  359.49   15.77
   0  -4   9  350.63   12.23
   0  -4   9  335.89   11.52
   0  -4  -9  372.42   10.97
   0   4  -9  374.86   10.99
   0   4   9  358.05   11.53
   0   4  -9  357.33   15.83
   0   4   9  358.10   11.31
   1  -4   9    0.32    0.21
   1  -4   9   -0.23    0.25
  -1  -4  -9   -0.05    0.24
  -1  -4  -9    0.09    0.23
  -1  -4  -9    0.24    0.23
   1   4   9   -0.07    0.21
  -1   4  -9    0.29    0.26
   1   4   9    0.15    0.22
  -1   4  -9    0.25    0.28
   2  -4   9    0.47    0.26
  -2  -4  -9   -0.02    0.23
   2  -4   9    0.29    0.21
  -2  -4  -9    0.26    0.29
  -2   4  -9    0.02    0.26
  -2   4  -9   -0.01    0.27
   2   4   9    0.79    0.24
   2   4   9    0.83    0.23
   3  -4   9    0.42    0.24
  -3  -4  -9    0.42    0.24
  -3  -4  -9   -0.02    0.32
   3  -4   9    0.04    0.24
   3   4   9    0.21    0.23
  -3   4  -9   -0.02    0.31
   3   4   9    0.23    0.23
  -4  -4  -9    7.42    0.60
   4  -4   9    8.69    0.48
  -4  -4  -9    8.88    0.50
   4  -4   9    8.94    0.51
   4   4   9    8.66    0.49
  -4   4  -9    6.86    0.60
   4   4   9    8.59    0.51
   5  -4   9    0.54    0.26
  -5  -4  -9    0.21    0.25
  -5  -4  -9   -0.01    0.37
   5  -4   9    0.16    0.25
   5   4   9    0.57    0.28
  -5   4  -9    0.58    0.35
  -5   4  -9    0.38    0.35
   5   4   9    0.02    0.24
  -6  -4  -9   48.01    1.90
   6  -4   9   43.93    1.63
   6  -4   9   45.48    1.71
  -6  -4  -9   43.96    1.57
  -6   4  -9   49.25    1.85
  -6   4  -9   43.24    1.63
   6   4   9   46.24    1.62
   6   4   9   46.24    1.64
   7  -4   9    1.84    0.37
  -7   4  -9    0.65    0.37
  -7   4  -9    1.24    0.43
  -8  -5   9    9.18    0.60
   8  -5  -9    8.40    0.64
  -8   5   9   11.32    0.70
   8   5  -9   11.00    0.87
   8   5  -9   11.17    0.65
  -7  -5   9    1.27    0.30
   7  -5  -9    1.11    0.32
  -7   5   9    1.31    0.35
   7   5  -9    1.05    0.39
   6  -5  -9   -0.31    0.24
  -6  -5   9    0.01    0.32
  -6  -5   9   -0.16    0.25
   6  -5  -9    0.26    0.31
  -6   5   9    0.57    0.33
   6   5  -9   -0.08    0.31
   5  -5  -9    3.78    0.44
  -5  -5   9    4.22    0.43
   5  -5  -9    4.10    0.34
  -5  -5   9    4.24    0.36
  -5   5   9    4.28    0.42
   5   5  -9    3.96    0.48
  -4  -5   9    1.51    0.27
  -4  -5   9    0.65    0.30
   4  -5  -9    0.71    0.32
  -4   5   9    1.01    0.31
   4   5  -9    0.98    0.23
   4   5  -9    0.77    0.35
  -3  -5   9    5.39    0.40
   3  -5  -9    4.48    0.54
  -3  -5   9    4.56    0.42
   3   5  -9    4.13    0.35
   3   5  -9    3.93    0.49
  -3   5   9    4.41    0.38
   2  -5  -9    0.15    0.28
   2  -5  -9   -0.08    0.19
  -2  -5   9    0.00    0.21
  -2  -5   9    0.12    0.28
  -2   5   9    0.04    0.25
   2   5  -9    0.06    0.23
   2   5  -9    0.22    0.32
  -2   5   9    0.36    0.24
  -1  -5   9    1.46    0.33
   1  -5  -9    1.93    0.24
  -1  -5   9    2.08    0.25
   1  -5  -9    1.76    0.32
  -1   5   9    1.81    0.28
   1   5  -9    1.95    0.29
  -1   5   9    2.16    0.29
   1   5  -9    2.18    0.41
   0  -5   9    0.73    0.22
   0  -5  -9    0.73    0.23
   0  -5   9    0.75    0.30
   0   5  -9    0.68    0.25
   0   5   9    1.06    0.25
   0   5  -9    0.92    0.36
   0   5   9    1.00    0.27
   0   5   9    0.57    0.25
   1  -5   9    0.40    0.22
  -1  -5  -9    0.33    0.22
   1  -5   9    0.06    0.27
   1   5   9    0.22    0.22
  -1   5  -9    0.07    0.27
   1   5   9    0.17    0.26
  -1   5  -9    0.01    0.33
   1   5   9    0.16    0.24
   2  -5   9    0.42    0.29
   2  -5   9    0.73    0.23
  -2  -5  -9    0.16    0.24
  -2  -5  -9    0.61    0.31
   2   5   9    0.55    0.22
   2   5   9    0.20    0.24
  -2   5  -9    0.51    0.30
  -2   5  -9    0.37    0.28
  -3  -5  -9    0.10    0.35
   3  -5   9   -0.18    0.24
   3  -5   9   -0.03    0.21
  -3  -5  -9    0.28    0.23
   3   5   9   -0.01    0.24
   3   5   9    0.50    0.24
  -3   5  -9   -0.11    0.31
   4  -5   9    2.37    0.33
   4  -5   9    2.42    0.30
  -4  -5  -9    1.70    0.28
  -4  -5  -9    1.59    0.41
   4   5   9    2.01    0.30
  -4   5  -9    1.60    0.37
   4   5   9    1.70    0.30
   5  -5   9   14.36    0.68
  -5  -5  -9   14.46    0.66
   5  -5   9   13.84    0.72
  -5  -5  -9   14.85    0.92
  -5   5  -9   13.60    0.74
   5   5   9   14.24    0.69
   5   5   9   14.24    0.69
  -6  -5  -9    0.14    0.25
   6  -5   9    0.34    0.26
  -6  -5  -9   -0.22    0.42
   6  -5   9    0.20    0.27
  -6   5  -9   -0.93    0.34
   6   5   9   -0.09    0.27
   6   5   9   -0.59    0.28
   8  -6  -9   39.14    1.52
  -8  -6   9   36.44    1.43
   8   6  -9   39.11    1.54
  -7  -6   9   -0.17    0.28
   7  -6  -9   -0.59    0.29
   7   6  -9   -0.43    0.34
  -7   6   9    0.25    0.34
  -6  -6   9   96.87    3.25
  -6  -6   9   95.92    3.49
   6   6  -9   95.82    4.50
  -6   6   9   99.48    3.26
  -5  -6   9   -0.03    0.22
  -5  -6   9    0.00    0.31
  -5   6   9    0.06    0.32
   5   6  -9    0.05    0.33
  -4  -6   9    2.22    0.35
  -4  -6   9    1.66    0.28
   4   6  -9    1.87    0.27
   4   6  -9    1.85    0.42
  -4   6   9    1.79    0.37
  -3  -6   9    4.37    0.42
  -3  -6   9    4.83    0.38
   3   6  -9    3.57    0.51
   3   6  -9    4.47    0.35
  -3   6   9    4.44    0.40
  -2  -6   9    5.01    0.38
   2  -6  -9    4.92    0.34
  -2  -6   9    5.18    0.46
   2   6  -9    4.60    0.36
   2   6  -9    4.18    0.52
  -2   6   9    4.29    0.39
   1  -6  -9    2.06    0.25
  -1  -6   9    2.38    0.27
  -1  -6   9    1.73    0.35
   1   6  -9    2.40    0.30
   1   6  -9    1.87    0.42
  -1   6   9    2.37    0.32
   0  -6   9   39.26    1.57
   0  -6  -9   39.98    1.36
   0  -6   9   38.94    1.41
   0   6   9   41.75    1.54
   0   6  -9   42.38    1.40
   0   6  -9   37.85    2.04
   0   6   9   38.86    1.43
   1  -6   9    1.44    0.33
   1  -6   9    1.49    0.25
  -1  -6  -9    1.29    0.25
  -1   6  -9    1.66    0.30
  -1   6  -9    1.84    0.41
   1   6   9    1.27    0.29
   1   6   9    2.13    0.35
   2  -6   9   14.38    0.73
   2  -6   9   14.43    0.63
  -2  -6  -9   13.87    0.64
  -2   6  -9   13.01    0.97
   2   6   9   15.97    0.78
   2   6   9   13.35    0.66
  -2   6  -9   13.86    0.68
   3  -6   9    0.86    0.30
  -3  -6  -9    1.15    0.27
  -3  -6  -9    1.08    0.40
   3   6   9    0.87    0.29
  -3   6  -9    0.91    0.33
   4  -6   9   42.44    1.64
  -4  -6  -9   42.64    1.75
  -4  -6  -9   42.49    1.48
   4   6   9   42.80    1.54
  -4   6  -9   43.88    1.57
  -5  -6  -9    0.77    0.49
  -5  -6  -9    0.48    0.25
   5  -6   9    0.66    0.28
  -5   6  -9    0.19    0.37
   5   6   9    0.12    0.31
  -7  -7   9    0.98    0.38
   7   7  -9    0.79    0.41
  -7   7   9    1.52    0.42
  -6  -7   9    1.08    0.39
   6   7  -9    0.91    0.40
  -6   7   9    1.43    0.39
  -5  -7   9    1.03    0.35
   5   7  -9    0.91    0.42
   5   7  -9    0.82    0.28
  -5   7   9    1.16    0.40
  -4  -7   9    1.76    0.35
  -4   7   9    1.80    0.40
   4   7  -9    1.97    0.31
   4   7  -9    1.53    0.44
  -3  -7   9    9.82    0.63
   3   7  -9    9.30    0.85
  -3   7   9   10.25    0.62
   3   7  -9    8.19    0.51
  -2  -7   9    0.77    0.33
   2  -7  -9    1.26    0.23
   2   7  -9    1.07    0.42
  -2   7   9    0.42    0.33
   2   7  -9    1.05    0.29
  -1  -7   9    0.72    0.34
   1  -7  -9    0.24    0.21
  -1   7   9    0.02    0.30
   1   7  -9    0.58    0.37
   1   7  -9    0.32    0.26
   0  -7  -9    0.73    0.23
   0  -7   9    0.82    0.33
   0   7   9    0.20    0.28
   0   7  -9    0.33    0.27
   0   7   9    0.57    0.30
   1  -7   9    0.90    0.34
  -1  -7  -9    0.72    0.23
  -1   7  -9    0.45    0.28
   1   7   9    0.32    0.28
   1   7   9    0.97    0.34
  -2  -7  -9    3.33    0.33
   2  -7   9    3.52    0.43
   2   7   9    4.24    0.46
  -2   7  -9    3.90    0.49
  -2   7  -9    3.35    0.38
   2   7   9    3.45    0.39
  -3  -7  -9    5.58    0.43
   3  -7   9    6.14    0.53
  -3   7  -9    5.06    0.47
   3   7   9    6.87    0.61
   3   7   9    4.86    0.45
  -4  -7  -9    0.78    0.27
  -4  -7  -9    0.17    0.44
   4  -7   9    0.48    0.31
  -4   7  -9   -0.28    0.34
   4   7   9   -0.14    0.30
  -6  -8   9   58.73    2.24
   6   8  -9   57.71    2.91
  -5  -8   9    6.12    0.56
   5   8  -9    5.61    0.48
   5   8  -9    7.27    0.82
  -5   8   9    7.50    0.65
  -4  -8   9    8.89    0.61
   4   8  -9    8.65    0.94
  -4   8   9   11.49    0.71
   4   8  -9    6.84    0.54
  -3  -8   9    1.67    0.37
   3   8  -9    1.45    0.45
   3   8  -9    0.81    0.29
  -3   8   9    0.78    0.39
   2  -8  -9   97.06    3.12
  -2  -8   9   97.86    3.54
   2   8  -9  104.38    4.64
   2   8  -9   96.11    3.16
  -2   8   9   95.55    3.29
   1  -8  -9    0.89    0.25
  -1  -8   9    1.23    0.38
   1   8  -9    1.27    0.31
  -1   8   9    1.32    0.42
  -1   8   9    1.06    0.34
   0  -8   9  156.89    5.42
   0  -8  -9  152.81    4.81
   0   8  -9  150.13    4.85
   0   8   9  150.87    5.00
   0   8   9  158.39    5.43
   1  -8   9    1.86    0.41
  -1  -8  -9    1.67    0.28
  -1   8  -9    1.17    0.31
   1   8   9    1.30    0.42
   1   8   9    0.99    0.34
   2  -8   9    1.80    0.39
  -2  -8  -9    1.87    0.29
  -2   8  -9    0.90    0.34
   2   8   9    1.62    0.36
   2   8   9    2.14    0.44
  -3   8  -9    0.15    0.32
   3   8   9    0.98    0.44
   5   9  -9    1.74    0.35
   4   9  -9    0.83    0.32
  -3  -9   9    2.96    0.43
  -3   9   9    2.86    0.46
   3   9  -9    1.96    0.36
  -2  -9   9   -0.08    0.34
   2   9  -9   -0.39    0.28
  -2   9   9    0.67    0.40
   1  -9  -9    1.13    0.26
  -1  -9   9    1.16    0.39
  -1   9   9    0.79    0.46
  -1   9   9    1.56    0.38
   1   9  -9    0.71    0.34
   0  -9   9    0.44    0.39
   0  -9  -9    0.18    0.26
   0   9   9    0.61    0.37
   0   9  -9    0.07    0.31
   0   9   9    0.14    0.41
  -1  -9  -9    0.44    0.26
   1   9   9   -0.60    0.37
   2   9   9    0.33    0.45
  -9   0  10    0.12    0.32
  -9   0  10    0.79    0.32
   9   0 -10    0.32    0.35
   8   0 -10    3.84    0.48
   8   0 -10    3.69    0.58
  -8   0  10    6.18    0.51
  -8   0  10    4.95    0.43
   7   0 -10    0.18    0.30
   7   0 -10    0.03    0.41
  -7   0  10    0.23    0.27
  -7   0  10    0.51    0.25
   6   0 -10   35.68    1.49
  -6   0  10   41.39    1.38
  -6   0  10   38.79    1.41
   6   0 -10   37.51    2.01
   5   0 -10   -0.27    0.38
  -5   0  10    0.20    0.25
   5   0 -10    0.05    0.27
  -5   0  10    0.49    0.22
  -4   0  10  340.68   10.73
   4   0 -10  330.81   11.36
  -4   0  10  324.09   10.49
   4   0 -10  334.18   14.75
  -3   0  10    2.65    0.25
  -3   0  10    2.55    0.33
  -3   0  10    2.51    0.30
   3   0 -10    2.01    0.43
   3   0 -10    2.13    0.29
  -2   0  10    2.93    0.31
   2   0 -10    2.30    0.31
  -2   0  10    2.69    0.25
  -2   0  10    3.62    0.34
   2   0 -10    1.77    0.41
   1   0 -10   -0.02    0.31
  -1   0  10    0.02    0.23
  -1   0  10    0.01    0.23
  -1   0  10    0.02    0.16
   1   0 -10    0.33    0.27
   0   0 -10    2.39    0.41
   0   0 -10    1.57    0.31
   0   0  10    3.05    0.25
   0   0  10    3.32    0.31
   0   0  10    2.44    0.29
  -1   0 -10    0.15    0.30
   1   0  10    0.33    0.23
  -1   0 -10    0.36    0.29
   1   0  10    0.41    0.22
   1   0  10    0.28    0.17
  -2   0 -10   70.69    3.23
   2   0  10   71.43    2.37
  -2   0 -10   66.96    2.30
   3   0  10    2.54    0.31
  -3   0 -10    2.48    0.36
   4   0  10   45.20    1.60
  -4   0 -10   44.84    1.59
   5   0  10    2.01    0.33
  -5   0 -10    1.74    0.37
  -6   0 -10   26.68    1.19
  -6   0 -10   26.74    1.04
   6   0  10   24.57    1.04
  -7   0 -10    0.07    0.36
  -9  -1  10   -0.05    0.31
  -9  -1  10    0.17    0.32
   9  -1 -10   -0.66    0.45
   9  -1 -10   -0.03    0.35
  -9   1  10    0.20    0.33
   9   1 -10   -0.23    0.34
  -9   1  10    0.26    0.31
  -8  -1  10    0.06    0.29
   8  -1 -10    0.17    0.34
   8  -1 -10    0.01    0.44
  -8  -1  10    0.10    0.30
  -8   1  10    0.25    0.29
   8   1 -10   -0.55    0.43
   8   1 -10    0.17    0.32
  -8   1  10   -0.01    0.27
   7  -1 -10    6.71    0.53
  -7  -1  10    7.68    0.49
  -7  -1  10    6.93    0.50
   7  -1 -10    4.50    0.64
   7   1 -10    5.79    0.53
   7   1 -10    6.30    0.75
  -7   1  10    6.37    0.49
  -7   1  10    7.41    0.47
   6  -1 -10    0.02    0.41
  -6  -1  10    1.02    0.25
  -6  -1  10    0.86    0.27
   6  -1 -10    0.42    0.29
   6   1 -10    0.72    0.29
  -6   1  10    0.44    0.25
   6   1 -10    0.19    0.41
  -6   1  10    0.31    0.25
  -5  -1  10    1.95    0.25
  -5  -1  10    2.52    0.31
   5  -1 -10    1.82    0.33
   5  -1 -10    1.29    0.45
   5   1 -10    2.00    0.45
   5   1 -10    2.07    0.32
  -5   1  10    1.87    0.27
  -5   1  10    2.31    0.31
   4  -1 -10    0.66    0.42
  -4  -1  10    0.91    0.26
  -4  -1  10    0.81    0.32
  -4  -1  10    0.99    0.21
   4  -1 -10    0.72    0.27
   4   1 -10    0.64    0.40
  -4   1  10    0.82    0.23
  -4   1  10    1.37    0.29
  -3  -1  10    2.40    0.29
  -3  -1  10    2.51    0.33
   3  -1 -10    1.96    0.29
   3  -1 -10    2.07    0.45
  -3  -1  10    2.15    0.23
   3  -1 -10    2.32    0.30
  -3   1  10    2.64    0.27
   3   1 -10    1.95    0.41
  -3   1  10    2.73    0.30
   3   1 -10    2.47    0.28
   2  -1 -10    1.27    0.29
  -2  -1  10    1.92    0.28
  -2  -1  10    2.11    0.21
   2  -1 -10    1.37    0.41
  -2  -1  10    2.28    0.31
  -2   1  10    2.09    0.25
  -2   1  10    1.97    0.28
   2   1 -10    2.03    0.29
  -2   1  10    1.83    0.29
   2   1 -10    1.61    0.38
  -1  -1  10   -0.09    0.22
   1  -1 -10   -0.12    0.32
   1  -1 -10    0.05    0.27
  -1  -1  10    0.31    0.23
  -1   1  10    0.30    0.24
  -1   1  10    0.23    0.18
   1   1 -10    0.25    0.26
  -1   1  10   -0.09    0.22
   1   1 -10    0.38    0.31
   0  -1  10    0.79    0.25
   0  -1 -10    0.01    0.29
   0  -1  10    0.61    0.23
   0  -1 -10    0.38    0.31
   0   1  10    0.42    0.19
   0   1 -10    0.31    0.32
   0   1 -10    0.44    0.27
   0   1  10    0.88    0.23
   0   1  10    0.26    0.23
  -1  -1 -10    4.31    0.39
  -1  -1 -10    3.64    0.44
   1  -1  10    5.34    0.41
   1  -1  10    4.85    0.38
   1   1  10    4.62    0.37
  -1   1 -10    3.59    0.44
  -1   1 -10    4.22    0.38
   1   1  10    3.88    0.31
  -2  -1 -10    0.35    0.28
   2  -1  10    0.68    0.26
   2  -1  10    0.79    0.26
  -2  -1 -10    0.38    0.30
   2   1  10    1.09    0.26
  -2   1 -10    0.60    0.31
   2   1  10    0.51    0.20
  -2   1 -10    0.39    0.29
  -3  -1 -10    0.98    0.31
   3  -1  10    1.14    0.27
   3   1  10    0.75    0.21
  -3   1 -10    0.41    0.31
   3   1  10    0.48    0.26
  -4  -1 -10    0.69    0.30
   4  -1  10    0.79    0.27
  -4   1 -10    0.68    0.32
   4   1  10    0.85    0.27
  -5  -1 -10    0.89    0.35
  -5  -1 -10    0.95    0.33
   5  -1  10    0.67    0.29
  -5   1 -10    1.03    0.34
   5   1  10    1.35    0.29
   6  -1  10    2.80    0.35
  -6  -1 -10    2.91    0.39
  -6  -1 -10    3.37    0.46
   6   1  10    2.83    0.35
  -6   1 -10    2.15    0.38
  -7  -1 -10    4.44    0.54
  -9  -2  10    0.22    0.30
   9  -2 -10   -0.43    0.34
  -9  -2  10   -0.07    0.31
   9  -2 -10   -0.10    0.43
  -9   2  10    0.11    0.28
   9   2 -10    0.24    0.35
  -9   2  10    0.06    0.30
   8  -2 -10    2.62    0.53
  -8  -2  10    2.91    0.37
  -8  -2  10    2.93    0.36
   8  -2 -10    2.78    0.42
  -8   2  10    2.90    0.37
  -8   2  10    2.52    0.35
   8   2 -10    2.79    0.41
   8   2 -10    2.81    0.52
  -7  -2  10    1.29    0.29
   7  -2 -10    0.82    0.44
  -7  -2  10    0.99    0.28
   7  -2 -10    0.50    0.32
  -7   2  10    0.74    0.27
   7   2 -10    0.35    0.41
   7   2 -10    0.59    0.30
  -7   2  10    1.07    0.28
   6  -2 -10    2.27    0.50
   6  -2 -10    3.08    0.37
  -6  -2  10    3.57    0.35
  -6  -2  10    3.82    0.32
   6   2 -10    4.00    0.39
  -6   2  10    2.70    0.33
   6   2 -10    2.95    0.47
  -6   2  10    3.32    0.34
  -5  -2  10   -0.17    0.31
  -5  -2  10    0.72    0.26
   5  -2 -10    0.15    0.40
  -5  -2  10    0.25    0.20
   5  -2 -10    0.41    0.27
   5   2 -10    0.07    0.34
  -5   2  10    0.49    0.25
  -5   2  10    0.07    0.24
  -4  -2  10  104.01    3.50
   4  -2 -10  104.92    4.85
   4  -2 -10  100.24    3.69
  -4  -2  10  106.25    3.73
  -4   2  10   99.36    3.42
  -4   2  10  104.62    3.50
   4   2 -10  108.22    4.83
   4   2 -10  113.98    3.31
  -3  -2  10    2.73    0.34
   3  -2 -10    2.16    0.28
   3  -2 -10    1.42    0.44
   3  -2 -10    2.16    0.29
  -3  -2  10    2.61    0.29
   3   2 -10    2.57    0.28
  -3   2  10    2.73    0.29
   3   2 -10    1.73    0.37
  -3   2  10    2.22    0.30
  -2  -2  10    5.91    0.45
  -2  -2  10    5.39    0.41
   2  -2 -10    6.12    0.42
   2  -2 -10    5.39    0.66
   2  -2 -10    5.74    0.39
  -2   2  10    5.51    0.38
   2   2 -10    6.60    0.44
  -2   2  10    6.29    0.42
   2   2 -10    5.55    0.61
   1  -2 -10    0.40    0.33
   1  -2 -10    0.75    0.27
  -1  -2  10    0.45    0.23
  -1  -2  10    0.69    0.28
  -1   2  10    0.40    0.24
   1   2 -10    0.18    0.26
   1   2 -10    0.78    0.32
  -1   2  10    0.61    0.22
   0  -2 -10   73.19    2.33
   0  -2  10   68.13    2.41
   0  -2 -10   72.47    3.32
   0  -2  10   70.86    2.56
   0   2 -10   74.73    3.33
   0   2  10   71.04    2.34
   0   2 -10   70.38    2.32
   0   2  10   70.78    2.41
  -1  -2 -10    0.43    0.28
  -1  -2 -10    0.44    0.29
   1  -2  10    0.77    0.28
   1  -2  10    0.83    0.25
   1   2  10    0.77    0.24
   1   2  10    0.54    0.21
  -1   2 -10    0.88    0.30
  -1   2 -10    0.83    0.32
   2  -2  10  155.52    5.09
   2  -2  10  153.62    5.39
  -2  -2 -10  156.04    4.88
   2   2  10  155.62    5.09
   2   2  10  157.45    4.97
  -2   2 -10  159.92    6.98
  -2   2 -10  152.19    4.88
   3  -2  10    0.67    0.25
  -3  -2 -10    0.43    0.30
   3  -2  10    0.71    0.26
   3   2  10    0.75    0.26
   3   2  10    0.63    0.22
  -3   2 -10    0.20    0.30
  -4  -2 -10    1.69    0.32
   4  -2  10    1.48    0.29
  -4  -2 -10    1.46    0.33
   4   2  10    1.22    0.29
  -4   2 -10    0.72    0.32
   4   2  10    1.23    0.25
   5  -2  10    0.24    0.28
  -5  -2 -10    0.41    0.30
  -5  -2 -10    0.40    0.33
   5   2  10    0.40    0.28
  -5   2 -10    0.19    0.33
   5   2  10   -0.09    0.24
  -6  -2 -10   81.27    2.66
  -6  -2 -10   84.30    2.99
   6  -2  10   79.84    2.74
   6   2  10   78.65    2.74
  -6   2 -10   78.73    2.66
  -7  -2 -10    0.80    0.43
   9  -3 -10    0.18    0.43
   9  -3 -10    0.25    0.37
  -9   3  10    0.40    0.29
   9   3 -10    0.48    0.36
  -9   3  10    0.64    0.37
   8  -3 -10   -0.06    0.32
   8  -3 -10    0.87    0.42
  -8  -3  10    0.43    0.30
  -8   3  10    0.69    0.32
  -8   3  10    0.56    0.27
   8   3 -10    0.17    0.33
   8   3 -10   -0.38    0.39
   7  -3 -10    9.13    0.90
   7  -3 -10    9.56    0.63
  -7  -3  10    9.28    0.57
  -7   3  10    9.98    0.59
   7   3 -10   10.71    0.86
  -7   3  10    9.65    0.55
   7   3 -10   10.07    0.62
   6  -3 -10    0.56    0.41
   6  -3 -10    0.71    0.28
  -6  -3  10    1.66    0.30
   6   3 -10    0.90    0.37
  -6   3  10    1.19    0.30
  -6   3  10    1.23    0.27
  -5  -3  10    0.90    0.27
   5  -3 -10    0.61    0.43
  -5  -3  10    0.78    0.32
   5  -3 -10    1.20    0.28
   5   3 -10    1.04    0.37
  -5   3  10    1.02    0.28
  -5   3  10    0.77    0.27
   4  -3 -10    0.42    0.25
  -4  -3  10    0.72    0.25
  -4  -3  10    0.45    0.30
   4  -3 -10    0.69    0.40
   4   3 -10    0.23    0.32
  -4   3  10    0.57    0.27
  -4   3  10    0.93    0.27
   4   3 -10    0.72    0.23
  -3  -3  10    4.65    0.39
  -3  -3  10    5.30    0.44
   3  -3 -10    4.44    0.37
   3  -3 -10    4.83    0.37
   3  -3 -10    4.45    0.53
   3   3 -10    4.18    0.48
  -3   3  10    4.98    0.42
  -3   3  10    4.78    0.40
   3   3 -10    5.31    0.39
   2  -3 -10    3.95    0.50
  -2  -3  10    4.71    0.44
  -2  -3  10    4.79    0.38
   2  -3 -10    4.82    0.39
   2   3 -10    4.77    0.57
  -2   3  10    5.05    0.42
  -2   3  10    4.78    0.38
   2   3 -10    4.99    0.41
  -1  -3  10    1.81    0.32
   1  -3 -10    1.17    0.37
   1  -3 -10    2.19    0.30
  -1  -3  10    1.82    0.28
  -1   3  10    2.36    0.29
   1   3 -10    1.40    0.28
  -1   3  10    1.95    0.26
   1   3 -10    1.46    0.34
   0  -3  10    0.24    0.27
   0  -3 -10    0.10    0.27
   0  -3 -10    0.04    0.28
   0  -3  10    0.10    0.23
   0   3 -10    0.21    0.26
   0   3  10    0.12    0.25
   0   3  10   -0.18    0.20
   0   3 -10    0.11    0.30
  -1  -3 -10    0.16    0.27
   1  -3  10    0.13    0.26
  -1  -3 -10    0.42    0.26
   1  -3  10    0.20    0.23
  -1   3 -10    0.21    0.27
   1   3  10   -0.36    0.20
  -1   3 -10    0.36    0.30
   1   3  10    0.18    0.23
   2  -3  10    0.30    0.23
   2  -3  10    0.16    0.26
  -2  -3 -10    0.38    0.28
  -2   3 -10   -0.06    0.27
  -2   3 -10   -0.05    0.28
   2   3  10   -0.15    0.22
   2   3  10    0.40    0.24
  -3  -3 -10    7.50    0.54
   3  -3  10    8.42    0.53
   3  -3  10    7.16    0.48
   3   3  10    7.51    0.44
  -3   3 -10    6.54    0.53
   3   3  10    7.77    0.50
  -4  -3 -10    0.19    0.32
   4  -3  10    0.99    0.28
   4  -3  10    0.47    0.26
  -4  -3 -10    0.32    0.30
  -4   3 -10    0.13    0.32
   4   3  10    0.61    0.27
   4   3  10    0.34    0.24
   5  -3  10    0.92    0.28
  -5  -3 -10    0.77    0.32
  -5  -3 -10    0.07    0.35
   5   3  10   -0.02    0.26
  -5   3 -10   -0.04    0.33
   5   3  10    0.72    0.29
  -6  -3 -10    5.30    0.57
  -6  -3 -10    4.75    0.42
   6  -3  10    5.87    0.47
  -6   3 -10    4.19    0.46
   6   3  10    4.70    0.40
   6   3  10    5.54    0.47
   9  -4 -10    1.02    0.41
  -8  -4  10    7.37    0.55
   8  -4 -10    7.84    0.59
   8  -4 -10    7.96    0.84
  -8   4  10    9.01    0.63
   8   4 -10    8.97    0.61
   8   4 -10    8.45    0.81
  -7  -4  10    0.17    0.28
   7  -4 -10    0.11    0.41
   7  -4 -10    0.10    0.30
  -7   4  10   -0.11    0.31
   7   4 -10   -0.62    0.32
   7   4 -10    0.37    0.29
  -7   4  10   -0.18    0.24
   6  -4 -10   47.06    1.75
  -6  -4  10   47.49    1.68
  -6  -4  10   45.74    1.82
   6  -4 -10   46.47    2.33
  -6   4  10   45.77    1.67
  -6   4  10   45.68    1.64
   6   4 -10   47.30    2.30
  -5  -4  10    0.68    0.26
   5  -4 -10    0.74    0.37
  -5  -4  10    0.49    0.32
   5  -4 -10    0.18    0.25
  -5   4  10    0.93    0.29
   5   4 -10    0.49    0.32
  -5   4  10    0.78    0.25
   4  -4 -10  246.24   10.80
  -4  -4  10  248.02    7.87
  -4  -4  10  244.03    8.34
   4   4 -10  247.73    7.46
  -4   4  10  227.02    7.73
  -4   4  10  245.27    7.86
   4   4 -10  238.39   10.80
  -3  -4  10    0.44    0.28
  -3  -4  10    0.73    0.25
   3  -4 -10    0.76    0.35
   3   4 -10    0.29    0.31
  -3   4  10    0.91    0.28
   3   4 -10    0.42    0.21
  -3   4  10    0.38    0.26
   2  -4 -10    0.46    0.33
   2  -4 -10    0.70    0.23
  -2  -4  10    0.29    0.23
  -2  -4  10    0.03    0.27
   2   4 -10    0.49    0.32
  -2   4  10    0.15    0.25
   2   4 -10    0.12    0.24
  -2   4  10   -0.14    0.24
  -1  -4  10    0.51    0.29
   1  -4 -10    0.40    0.23
   1  -4 -10    0.35    0.32
  -1  -4  10    0.52    0.23
  -1   4  10    0.53    0.24
   1   4 -10    0.42    0.30
  -1   4  10    0.80    0.27
   1   4 -10    0.32    0.27
   0  -4 -10    4.46    0.56
   0  -4  10    4.68    0.42
   0  -4  10    5.01    0.41
   0  -4 -10    4.34    0.37
   0   4 -10    4.57    0.56
   0   4  10    5.77    0.42
   0   4 -10    4.42    0.38
   0   4  10    5.05    0.39
   1  -4  10   -0.02    0.28
   1  -4  10   -0.07    0.22
  -1  -4 -10    0.23    0.25
  -1  -4 -10   -0.17    0.25
  -1   4 -10   -0.07    0.29
  -1   4 -10    0.44    0.28
   1   4  10    0.19    0.24
   1   4  10    0.21    0.22
   2  -4  10   56.41    2.07
  -2  -4 -10   54.76    1.87
   2  -4  10   56.39    1.92
  -2   4 -10   56.32    2.65
   2   4  10   54.98    1.92
   2   4  10   54.72    1.89
  -2   4 -10   56.59    1.90
   3  -4  10    1.62    0.29
   3  -4  10    2.04    0.34
  -3  -4 -10    1.50    0.30
  -3  -4 -10    1.94    0.35
   3   4  10    1.96    0.30
   3   4  10    1.72    0.29
  -3   4 -10    1.68    0.36
   4  -4  10   37.27    1.34
  -4  -4 -10   35.13    1.49
  -4  -4 -10   36.38    1.33
   4  -4  10   37.79    1.43
   4   4  10   35.09    1.31
   4   4  10   36.47    1.34
  -4   4 -10   35.92    1.36
   5  -4  10    1.94    0.33
  -5  -4 -10    0.99    0.41
  -5  -4 -10    1.60    0.32
   5  -4  10    1.95    0.33
   5   4  10    2.19    0.33
  -5   4 -10    0.91    0.38
   5   4  10    1.19    0.30
   6  -4  10   20.15    0.85
  -6  -4 -10   19.41    1.03
  -6   4 -10   18.09    0.97
   6   4  10   16.90    0.83
   6   4  10   19.81    0.86
  -8  -5  10   -0.14    0.29
   8  -5 -10   -0.74    0.31
   8   5 -10    0.27    0.31
   8   5 -10   -0.16    0.37
   7  -5 -10    3.28    0.41
   7  -5 -10    2.99    0.50
  -7  -5  10    3.39    0.39
   7   5 -10    2.93    0.48
  -7   5  10    3.53    0.42
   6  -5 -10    0.09    0.36
  -6  -5  10   -0.08    0.34
  -6  -5  10    0.28    0.26
   6  -5 -10   -0.17    0.32
  -6   5  10    0.32    0.32
   6   5 -10    0.09    0.33
  -5  -5  10    2.15    0.31
  -5  -5  10    2.29    0.38
   5  -5 -10    1.43    0.41
  -5   5  10    2.27    0.37
   5   5 -10    1.61    0.41
   4  -5 -10    0.29    0.34
  -4  -5  10    0.62    0.25
  -4  -5  10    0.65    0.30
   4   5 -10    0.74    0.24
   4   5 -10    0.42    0.34
  -4   5  10    0.88    0.32
  -3  -5  10    0.95    0.24
  -3  -5  10    0.60    0.30
   3  -5 -10    1.03    0.35
   3   5 -10    0.98    0.35
  -3   5  10    1.23    0.31
   3   5 -10    0.80    0.24
   2  -5 -10    0.37    0.22
  -2  -5  10    0.77    0.30
   2  -5 -10   -0.04    0.29
  -2  -5  10    0.46    0.22
  -2   5  10    0.41    0.26
   2   5 -10    0.59    0.34
   2   5 -10    0.17    0.22
  -1  -5  10    1.53    0.33
   1  -5 -10    1.49    0.34
   1  -5 -10    2.18    0.28
  -1  -5  10    1.58    0.25
  -1   5  10    1.40    0.28
   1   5 -10    1.32    0.37
   1   5 -10    2.06    0.29
  -1   5  10    2.27    0.31
   0  -5  10    0.59    0.24
   0  -5 -10    0.84    0.25
   0  -5  10    1.47    0.34
   0  -5 -10    0.72    0.28
   0   5  10    1.23    0.26
   0   5 -10    1.18    0.29
   0   5  10    1.07    0.27
   0   5 -10    0.79    0.34
   1  -5  10   10.09    0.55
  -1  -5 -10   10.74    0.55
   1  -5  10   10.82    0.66
   1   5  10   10.01    0.54
  -1   5 -10    9.94    0.81
   1   5  10   11.57    0.55
  -1   5 -10   10.42    0.58
   2  -5  10    1.89    0.35
   2  -5  10    1.93    0.27
  -2  -5 -10    1.52    0.29
  -2   5 -10    1.21    0.37
   2   5  10    2.03    0.29
  -2   5 -10    1.40    0.35
   2   5  10    0.97    0.29
   3  -5  10    0.66    0.31
   3  -5  10    0.59    0.26
  -3  -5 -10    0.30    0.34
  -3  -5 -10    0.17    0.27
   3   5  10    0.13    0.26
  -3   5 -10   -0.50    0.33
   3   5  10    0.65    0.28
   4  -5  10    2.41    0.32
  -4  -5 -10    2.31    0.34
  -4  -5 -10    1.63    0.41
   4  -5  10    2.22    0.35
   4   5  10    2.12    0.33
  -4   5 -10    1.36    0.40
   4   5  10    2.50    0.35
   5  -5  10    4.28    0.42
   5  -5  10    5.15    0.42
  -5  -5 -10    3.27    0.37
  -5  -5 -10    3.63    0.53
   5   5  10    2.95    0.39
  -5   5 -10    3.01    0.45
   5   5  10    4.46    0.40
   8   6 -10   -0.05    0.35
  -7  -6  10    2.77    0.37
  -7   6  10    2.53    0.41
   7   6 -10    2.15    0.46
  -6  -6  10    0.38    0.28
  -6  -6  10   -0.41    0.32
  -6   6  10    0.59    0.37
   6   6 -10    0.28    0.38
  -5  -6  10   -0.06    0.27
  -5  -6  10    0.36    0.33
  -5   6  10    1.19    0.35
   5   6 -10    0.24    0.36
  -4  -6  10   49.84    1.87
  -4  -6  10   51.39    1.73
   4   6 -10   48.41    2.43
   4   6 -10   46.63    1.64
  -4   6  10   47.84    1.76
  -3  -6  10    6.22    0.42
  -3  -6  10    5.50    0.51
   3   6 -10    4.42    0.37
   3   6 -10    3.62    0.53
  -3   6  10    4.98    0.44
   2  -6 -10   12.87    0.58
  -2  -6  10   13.42    0.62
  -2  -6  10   12.94    0.72
   2   6 -10   12.84    0.63
   2   6 -10   13.75    0.97
  -2   6  10   13.05    0.66
  -1  -6  10    0.26    0.22
  -1  -6  10   -0.03    0.31
   1  -6 -10    0.24    0.23
  -1   6  10    0.33    0.28
   1   6 -10   -0.49    0.25
   1   6 -10    0.31    0.36
   0  -6 -10   64.95    2.06
   0  -6  10   59.88    2.13
   0  -6  10   65.38    2.34
   0   6  10   62.62    2.13
   0   6 -10   62.29    2.08
   0   6 -10   61.15    3.02
  -1  -6 -10    0.12    0.24
   1  -6  10   -0.04    0.22
   1  -6  10    0.26    0.32
  -1   6 -10    0.02    0.37
  -1   6 -10   -0.19    0.30
   1   6  10   -0.07    0.28
   2  -6  10  100.04    3.60
  -2  -6 -10  103.59    3.23
   2  -6  10   99.50    3.35
  -2   6 -10   97.94    4.66
   2   6  10   99.22    3.31
  -2   6 -10  103.41    3.26
   3  -6  10    0.65    0.34
  -3  -6 -10    0.27    0.34
  -3  -6 -10    0.56    0.28
  -3   6 -10    0.07    0.35
   3   6  10    0.21    0.31
  -4  -6 -10    0.91    0.42
  -4  -6 -10    1.08    0.30
   4  -6  10    1.25    0.33
  -4   6 -10    1.39    0.40
   4   6  10    0.69    0.31
  -5  -6 -10   -0.29    0.39
  -6  -7  10    1.21    0.38
  -6   7  10    1.44    0.42
   6   7 -10    1.40    0.43
  -5  -7  10    0.17    0.33
   5   7 -10    0.09    0.39
  -5   7  10    0.65    0.39
  -4  -7  10    0.39    0.32
   4   7 -10    0.89    0.43
   4   7 -10    0.46    0.27
  -4   7  10    0.38    0.39
  -3  -7  10    3.77    0.43
   3   7 -10    3.20    0.52
  -3   7  10    2.99    0.43
   3   7 -10    2.56    0.35
   2  -7 -10    3.98    0.34
  -2  -7  10    4.36    0.46
   2   7 -10    3.04    0.36
   2   7 -10    3.31    0.54
  -2   7  10    3.30    0.41
   1  -7 -10    2.39    0.30
  -1  -7  10    2.00    0.39
  -1   7  10    1.93    0.36
   1   7 -10    1.29    0.45
   1   7 -10    1.90    0.32
   0  -7  10    0.73    0.36
   0  -7 -10    0.47    0.24
   0   7  10   -0.17    0.29
   0   7 -10    0.42    0.39
   0   7 -10   -0.18    0.27
  -1  -7 -10    0.44    0.26
   1  -7  10    0.94    0.36
   1   7  10    0.72    0.32
  -1   7 -10    0.11    0.29
  -1   7 -10    1.05    0.41
   2  -7  10    0.42    0.34
  -2  -7 -10    0.56    0.27
  -2   7 -10    0.28    0.39
   2   7  10   -0.08    0.29
  -2   7 -10    0.00    0.31
   3  -7  10    6.69    0.57
  -3  -7 -10    4.96    0.42
  -3   7 -10    4.57    0.48
   3   7  10    4.97    0.45
   3   7  10    7.12    0.59
  -4  -8  10  108.99    3.84
   4   8 -10  108.00    5.05
   4   8 -10  105.41    3.44
  -4   8  10  107.01    3.63
  -3  -8  10    0.21    0.33
   3   8 -10   -0.11    0.43
  -3   8  10    0.59    0.38
   3   8 -10   -0.05    0.27
  -2  -8  10    2.66    0.42
   2   8 -10    1.95    0.52
   2   8 -10    1.00    0.33
  -2   8  10    2.36    0.40
   1  -8 -10    1.41    0.29
  -1  -8  10    1.94    0.43
   1   8 -10    1.15    0.34
   1   8 -10    1.86    0.48
  -1   8  10    1.31    0.37
   0  -8 -10    9.89    0.57
   0  -8  10   11.69    0.76
   0   8 -10   10.11    0.90
   0   8  10    8.36    0.61
   0   8 -10    8.52    0.61
   1  -8  10    0.29    0.35
  -1  -8 -10    0.49    0.28
   1   8  10    0.50    0.33
  -1   8 -10   -0.38    0.29
  -1   8 -10    0.92    0.41
  -2   8 -10   32.66    1.82
   1  -9 -10    0.91    0.28
  -9   0  11    0.22    0.31
  -8   0  11  141.31    4.37
  -8   0  11  137.09    4.46
   8   0 -11  125.89    4.73
   8   0 -11  130.41    6.16
  -7   0  11    1.03    0.29
   7   0 -11   -0.14    0.47
  -7   0  11    0.61    0.30
   7   0 -11    0.51    0.34
  -6   0  11    6.67    0.45
  -6   0  11    7.32    0.52
   6   0 -11    6.60    0.80
   6   0 -11    5.95    0.51
   5   0 -11    0.53    0.29
   5   0 -11    0.00    0.43
  -5   0  11    0.36    0.22
  -5   0  11    0.60    0.27
  -4   0  11    5.58    0.38
   4   0 -11    6.03    0.48
   4   0 -11    5.09    0.61
  -4   0  11    5.80    0.45
   3   0 -11    1.76    0.45
  -3   0  11    2.97    0.26
  -3   0  11    2.46    0.36
  -3   0  11    2.89    0.32
   3   0 -11    2.27    0.31
  -2   0  11   70.98    2.45
   2   0 -11   73.34    2.35
  -2   0  11   75.00    2.60
   2   0 -11   72.13    3.41
  -2   0  11   69.95    2.36
   1   0 -11    1.56    0.32
  -1   0  11    1.49    0.29
  -1   0  11    1.94    0.29
   1   0 -11    1.48    0.39
   0   0  11   58.34    2.01
   0   0 -11   54.66    1.87
   0   0 -11   51.08    2.65
   0   0  11   57.05    1.93
  -1   0 -11    0.79    0.36
   1   0  11    2.00    0.29
  -1   0 -11    1.68    0.33
  -2   0 -11   22.98    0.98
   2   0  11   26.58    0.99
   3   0  11    0.77    0.27
  -3   0 -11    0.24    0.33
  -4   0 -11   26.34    1.12
   4   0  11   28.32    1.08
   5   0  11   -0.16    0.31
  -5   0 -11    0.38    0.35
   9  -1 -11   -0.01    0.52
  -9  -1  11    1.17    0.33
  -9   1  11    1.08    0.33
   9   1 -11    0.36    0.46
  -9   1  11    1.11    0.34
   8  -1 -11    0.33    0.36
  -8  -1  11    0.65    0.32
   8  -1 -11   -0.03    0.48
  -8  -1  11    0.64    0.30
  -8   1  11    0.61    0.31
   8   1 -11    0.40    0.35
   8   1 -11   -0.16    0.44
  -8   1  11    0.91    0.32
   7  -1 -11    1.23    0.39
  -7  -1  11    2.04    0.35
  -7  -1  11    2.95    0.33
   7  -1 -11    0.65    0.50
  -7   1  11    1.97    0.31
   7   1 -11    2.63    0.40
   7   1 -11    1.63    0.47
  -7   1  11    2.25    0.34
  -6  -1  11    2.66    0.30
   6  -1 -11    1.36    0.49
  -6  -1  11    2.95    0.35
   6  -1 -11    2.07    0.36
  -6   1  11    2.91    0.34
   6   1 -11    2.69    0.36
  -6   1  11    2.66    0.32
   6   1 -11    2.56    0.50
   5  -1 -11    1.41    0.31
  -5  -1  11    1.39    0.24
  -5  -1  11    1.27    0.29
   5  -1 -11    0.68    0.46
   5   1 -11    2.13    0.33
  -5   1  11    1.02    0.25
   5   1 -11    1.31    0.44
  -5   1  11    1.18    0.30
  -4  -1  11    1.55    0.29
   4  -1 -11    1.43    0.30
  -4  -1  11    1.51    0.33
   4  -1 -11    0.93    0.45
   4   1 -11    1.20    0.41
  -4   1  11    1.44    0.25
  -4   1  11    1.89    0.30
   3  -1 -11    0.05    0.27
   3  -1 -11   -0.49    0.38
  -3  -1  11   -0.07    0.29
  -3  -1  11    0.12    0.23
   3  -1 -11    0.01    0.24
  -3   1  11    0.08    0.25
   3   1 -11    0.08    0.24
   3   1 -11    0.02    0.35
  -3   1  11    0.32    0.22
  -2  -1  11    1.21    0.28
   2  -1 -11    0.23    0.38
   2  -1 -11    0.40    0.29
  -2  -1  11    0.91    0.26
  -2   1  11    0.70    0.22
   2   1 -11    0.94    0.26
   2   1 -11    0.51    0.35
  -2   1  11    0.73    0.27
  -2   1  11    0.59    0.26
  -1  -1  11    3.68    0.35
  -1  -1  11    3.90    0.34
   1  -1 -11    2.23    0.45
   1  -1 -11    2.81    0.37
  -1   1  11    3.82    0.29
  -1   1  11    3.61    0.34
   1   1 -11    3.24    0.34
   1   1 -11    3.30    0.46
   0  -1  11   -0.12    0.24
   0  -1 -11    0.11    0.28
   0  -1 -11   -0.18    0.34
   0  -1  11   -0.11    0.25
   0   1 -11    0.02    0.31
   0   1 -11   -0.21    0.26
   0   1  11    0.10    0.24
   0   1  11    0.12    0.19
  -1  -1 -11   -0.17    0.29
   1  -1  11    0.40    0.25
  -1  -1 -11   -0.12    0.29
   1  -1  11   -0.01    0.24
   1   1  11   -0.09    0.18
   1   1  11    0.06    0.25
  -1   1 -11   -0.07    0.30
  -1   1 -11   -0.04    0.29
   2  -1  11    0.30    0.25
  -2  -1 -11    0.87    0.33
   2   1  11    1.10    0.28
  -2   1 -11    0.72    0.32
   3  -1  11    7.19    0.48
  -3  -1 -11    6.66    0.54
  -3   1 -11    6.95    0.58
   3   1  11    6.85    0.48
   4  -1  11    1.22    0.30
  -4  -1 -11    0.80    0.36
   4   1  11    1.25    0.31
  -4   1 -11    1.73    0.36
  -5  -1 -11    1.17    0.36
   5  -1  11    1.41    0.32
  -5   1 -11    0.93    0.38
   5   1  11    1.74    0.33
   9  -2 -11   -0.41    0.44
  -9  -2  11    0.07    0.32
  -9   2  11   -0.19    0.31
  -8  -2  11   88.82    3.02
   8  -2 -11   84.04    3.20
   8  -2 -11   83.86    4.19
   8   2 -11   95.83    4.17
  -8   2  11   87.93    2.96
   8   2 -11   88.57    3.21
  -8   2  11   86.05    2.99
   7  -2 -11    0.56    0.34
   7  -2 -11    0.52    0.48
  -7  -2  11    0.93    0.31
   7   2 -11    1.08    0.33
   7   2 -11    0.74    0.41
  -7   2  11    1.02    0.31
  -7   2  11    1.11    0.31
   6  -2 -11   12.63    0.76
   6  -2 -11   13.21    1.08
  -6  -2  11   15.24    0.69
  -6   2  11   13.34    0.68
   6   2 -11   14.21    1.03
  -6   2  11   14.38    0.68
   6   2 -11   14.69    0.73
  -5  -2  11    1.23    0.29
   5  -2 -11    1.16    0.46
   5  -2 -11    1.31    0.32
  -5  -2  11    1.24    0.34
  -5   2  11    1.34    0.27
  -5   2  11    1.32    0.31
   5   2 -11    0.95    0.40
   4  -2 -11   44.81    2.30
  -4  -2  11   45.69    1.61
   4  -2 -11   40.29    1.68
  -4  -2  11   45.88    1.72
  -4   2  11   45.41    1.57
   4   2 -11   47.42    2.25
  -4   2  11   45.85    1.62
   3  -2 -11   -0.15    0.39
   3  -2 -11    0.12    0.25
  -3  -2  11   -0.41    0.27
  -3  -2  11    0.13    0.24
   3   2 -11   -0.32    0.31
  -3   2  11   -0.09    0.23
  -3   2  11    0.15    0.24
   3   2 -11   -0.21    0.23
  -2  -2  11  155.40    5.41
   2  -2 -11  151.28    4.87
   2  -2 -11  153.85    7.05
  -2  -2  11  151.72    5.11
   2   2 -11  159.53    4.86
  -2   2  11  156.82    5.12
   2   2 -11  162.21    7.04
  -2   2  11  157.51    5.00
   1  -2 -11    0.12    0.38
  -1  -2  11   -0.15    0.26
  -1  -2  11    0.43    0.24
   1  -2 -11    0.53    0.29
  -1   2  11    0.45    0.21
   1   2 -11    0.26    0.31
   1   2 -11   -0.02    0.26
  -1   2  11    0.10    0.26
   0  -2  11    1.26    0.27
   0  -2  11    1.53    0.30
   0  -2 -11    1.30    0.39
   0  -2 -11    2.36    0.35
   0   2  11    1.19    0.28
   0   2 -11    1.22    0.29
   0   2 -11    2.61    0.40
   0   2  11    1.36    0.24
  -1  -2 -11    0.43    0.29
   1  -2  11    0.07    0.28
   1  -2  11   -0.11    0.24
  -1  -2 -11   -0.15    0.31
   1   2  11    0.41    0.25
  -1   2 -11   -0.04    0.28
  -1   2 -11    0.12    0.28
   1   2  11   -0.05    0.21
   2  -2  11  137.63    4.76
  -2  -2 -11  135.57    4.32
   2  -2  11  137.76    4.49
   2   2  11  132.43    4.49
   2   2  11  138.86    4.38
  -2   2 -11  135.71    4.31
  -3  -2 -11    2.91    0.37
   3  -2  11    2.09    0.33
  -3   2 -11    2.60    0.37
   3   2  11    2.57    0.32
   3   2  11    2.45    0.28
   4  -2  11   38.20    1.41
  -4  -2 -11   40.84    1.40
  -4   2 -11   34.00    1.40
   4   2  11   38.12    1.34
   4   2  11   37.35    1.40
   5  -2  11    0.97    0.31
  -5  -2 -11    0.74    0.35
  -5   2 -11    0.52    0.35
   5   2  11    1.15    0.32
   9  -3 -11    0.03    0.45
  -9   3  11    0.66    0.32
  -8  -3  11    0.16    0.33
   8  -3 -11    0.15    0.36
   8  -3 -11   -0.20    0.47
   8   3 -11    0.61    0.34
  -8   3  11    0.30    0.30
  -8   3  11    0.52    0.31
   8   3 -11   -0.21    0.40
   7  -3 -11    2.54    0.57
  -7  -3  11    4.35    0.42
   7  -3 -11    2.68    0.43
   7   3 -11    4.08    0.43
  -7   3  11    3.95    0.41
   7   3 -11    3.43    0.50
  -7   3  11    3.39    0.39
  -6  -3  11    5.14    0.45
   6  -3 -11    4.00    0.62
   6  -3 -11    4.67    0.45
  -6   3  11    5.17    0.43
   6   3 -11    4.68    0.54
  -6   3  11    5.60    0.48
   5  -3 -11    0.32    0.28
  -5  -3  11   -0.23    0.24
  -5  -3  11    0.00    0.30
   5  -3 -11   -0.12    0.42
   5   3 -11    0.13    0.33
  -5   3  11    0.11    0.27
  -5   3  11    0.40    0.26
  -4  -3  11    0.21    0.25
  -4  -3  11    0.72    0.31
   4  -3 -11    0.13    0.40
  -4   3  11   -0.03    0.26
   4   3 -11   -0.21    0.32
  -4   3  11    0.19    0.26
  -3  -3  11    5.47    0.49
  -3  -3  11    4.81    0.41
   3  -3 -11    4.91    0.58
  -3   3  11    5.56    0.42
   3   3 -11    5.32    0.42
   3   3 -11    6.30    0.63
  -3   3  11    5.63    0.42
   2  -3 -11   -0.21    0.26
  -2  -3  11    0.40    0.23
  -2  -3  11    0.27    0.27
   2  -3 -11   -0.12    0.37
   2   3 -11   -0.07    0.25
  -2   3  11    0.22    0.24
   2   3 -11   -0.13    0.30
  -2   3  11    0.11    0.26
   1  -3 -11   -0.15    0.26
   1  -3 -11   -0.03    0.34
  -1  -3  11    0.32    0.27
  -1  -3  11    0.14    0.24
  -1   3  11    0.06    0.22
   1   3 -11   -0.42    0.24
   1   3 -11    0.25    0.32
  -1   3  11    0.04    0.26
   0  -3  11    2.04    0.35
   0  -3 -11    2.39    0.34
   0  -3  11    2.35    0.30
   0  -3 -11    1.77    0.37
   0   3  11    2.47    0.31
   0   3 -11    1.97    0.36
   0   3 -11    2.11    0.32
   0   3  11    2.65    0.29
  -1  -3 -11    4.32    0.47
  -1  -3 -11    5.13    0.44
   1  -3  11    5.45    0.45
   1  -3  11    5.61    0.50
  -1   3 -11    4.39    0.42
   1   3  11    5.56    0.40
  -1   3 -11    5.55    0.60
   1   3  11    5.49    0.44
   2  -3  11    2.64    0.36
  -2  -3 -11    2.15    0.37
   2  -3  11    3.36    0.34
   2   3  11    2.64    0.30
  -2   3 -11    2.34    0.36
   2   3  11    2.95    0.32
   3  -3  11   18.41    0.78
  -3  -3 -11   17.72    0.84
   3  -3  11   17.61    0.83
   3   3  11   17.91    0.74
   3   3  11   18.11    0.78
  -3   3 -11   16.33    0.81
  -4  -3 -11    3.00    0.41
   4  -3  11    2.58    0.33
   4   3  11    2.53    0.37
  -4   3 -11    2.34    0.41
   4   3  11    1.95    0.32
   5  -3  11    0.85    0.29
  -5  -3 -11    0.41    0.31
   5   3  11    0.26    0.30
  -5   3 -11   -0.06    0.35
   5   3  11   -0.48    0.27
   8  -4 -11  101.23    4.81
   8  -4 -11  101.13    3.70
   8   4 -11  106.75    4.79
   7  -4 -11   -0.65    0.30
   7  -4 -11   -0.41    0.42
  -7  -4  11   -0.12    0.31
   7   4 -11   -0.39    0.37
   7   4 -11    1.05    0.31
  -7   4  11    0.02    0.31
   6  -4 -11    1.88    0.37
   6  -4 -11    1.89    0.52
  -6  -4  11    2.28    0.41
  -6  -4  11    2.76    0.35
   6   4 -11    3.70    0.49
  -6   4  11    2.82    0.36
  -6   4  11    2.19    0.37
   5  -4 -11    0.52    0.44
  -5  -4  11    1.29    0.35
  -5  -4  11    1.48    0.31
   5   4 -11    0.79    0.38
  -5   4  11    1.23    0.30
  -5   4  11    1.11    0.31
  -4  -4  11    7.73    0.56
   4  -4 -11    8.09    0.80
  -4  -4  11    9.34    0.53
   4   4 -11    7.61    0.72
  -4   4  11    8.27    0.54
   4   4 -11    9.03    0.48
  -4   4  11    8.78    0.53
  -3  -4  11    1.43    0.28
   3  -4 -11    0.95    0.41
  -3  -4  11    0.93    0.30
   3   4 -11    1.27    0.36
  -3   4  11    1.15    0.27
  -3   4  11    1.18    0.29
   3   4 -11    0.81    0.26
   2  -4 -11   55.48    1.86
  -2  -4  11   54.17    1.93
  -2  -4  11   55.45    2.08
   2  -4 -11   57.00    2.71
  -2   4  11   54.68    1.95
   2   4 -11   56.94    1.87
   2   4 -11   55.24    2.69
  -2   4  11   59.67    1.93
   1  -4 -11    0.65    0.36
  -1  -4  11    1.37    0.31
   1  -4 -11    1.17    0.29
  -1  -4  11    1.54    0.26
  -1   4  11    1.84    0.28
  -1   4  11    1.40    0.27
   1   4 -11    0.56    0.32
   1   4 -11    0.71    0.29
   0  -4  11   45.04    1.73
   0  -4  11   44.91    1.61
   0  -4 -11   45.14    1.57
   0  -4 -11   43.81    2.20
   0   4  11   45.97    1.61
   0   4  11   44.74    1.57
   0   4 -11   48.25    1.59
   0   4 -11   44.16    2.22
  -1  -4 -11    1.71    0.34
   1  -4  11    1.68    0.36
   1  -4  11    1.75    0.29
  -1  -4 -11    1.56    0.32
   1   4  11    2.12    0.31
   1   4  11    1.14    0.28
  -1   4 -11    1.33    0.34
  -1   4 -11    1.83    0.35
   2  -4  11   18.76    0.80
  -2  -4 -11   18.69    0.83
   2  -4  11   19.22    0.90
  -2   4 -11   19.58    1.13
   2   4  11   19.05    0.81
  -2   4 -11   18.97    0.84
   2   4  11   17.86    0.79
  -3  -4 -11   -0.09    0.31
   3  -4  11    0.30    0.32
   3  -4  11    0.14    0.27
  -3   4 -11   -0.33    0.33
   3   4  11   -0.26    0.25
   3   4  11    0.00    0.26
  -4  -4 -11   30.97    1.19
   4  -4  11   31.78    1.29
   4  -4  11   33.00    1.19
   4   4  11   29.27    1.18
  -4   4 -11   29.77    1.22
   4   4  11   30.26    1.16
   5  -4  11    0.42    0.29
   5   4  11    0.61    0.30
   5   4  11   -0.38    0.28
   8  -5 -11   -0.43    0.38
   8   5 -11    0.45    0.44
  -7  -5  11    0.38    0.30
   7  -5 -11    0.83    0.44
  -7   5  11    1.00    0.36
   7   5 -11    0.96    0.39
   6  -5 -11    0.62    0.46
  -6  -5  11    0.76    0.36
  -6  -5  11    0.51    0.29
  -6   5  11    0.71    0.33
   6   5 -11    0.63    0.39
   5  -5 -11    2.90    0.50
  -5  -5  11    3.33    0.36
  -5  -5  11    2.98    0.43
   5   5 -11    2.56    0.45
  -5   5  11    2.82    0.39
  -4  -5  11    2.17    0.30
  -4  -5  11    1.75    0.35
   4  -5 -11    1.24    0.43
   4   5 -11    1.57    0.29
   4   5 -11    2.11    0.41
  -4   5  11    1.78    0.37
  -3  -5  11    1.69    0.28
   3  -5 -11    1.49    0.41
  -3  -5  11    1.99    0.35
  -3   5  11    1.87    0.34
   3   5 -11    1.41    0.29
   3   5 -11    1.40    0.40
  -2  -5  11    1.99    0.27
   2  -5 -11    1.70    0.28
  -2  -5  11    1.78    0.35
   2  -5 -11    1.02    0.39
   2   5 -11    1.05    0.37
  -2   5  11    1.98    0.32
   2   5 -11    1.41    0.31
   1  -5 -11    8.30    0.51
  -1  -5  11    8.36    0.47
   1  -5 -11    8.14    0.70
  -1  -5  11    8.14    0.58
   1   5 -11    7.17    0.53
   1   5 -11    7.89    0.76
  -1   5  11    8.31    0.51
   0  -5 -11    0.37    0.32
   0  -5  11    1.10    0.25
   0  -5 -11    1.09    0.30
   0  -5  11    1.07    0.34
   0   5  11    1.32    0.30
   0   5 -11    0.50    0.33
   0   5  11    0.63    0.27
   0   5 -11    0.33    0.29
  -1  -5 -11    1.14    0.32
   1  -5  11    1.40    0.29
   1  -5  11    1.19    0.37
  -1   5 -11    0.74    0.32
   1   5  11    0.80    0.28
  -1   5 -11    0.85    0.36
   1   5  11    1.63    0.31
   2  -5  11    0.22    0.27
  -2  -5 -11   -0.05    0.28
   2  -5  11    0.44    0.32
  -2   5 -11   -0.52    0.31
  -2   5 -11   -0.17    0.32
   2   5  11    0.26    0.27
   2   5  11    0.76    0.28
  -3  -5 -11    1.53    0.35
   3  -5  11    1.45    0.36
   3  -5  11    1.30    0.29
  -3   5 -11    1.57    0.39
   3   5  11    1.75    0.32
   3   5  11    0.44    0.29
   4  -5  11    0.89    0.29
   4  -5  11    0.26    0.33
  -4   5 -11   -0.11    0.36
   4   5  11   -0.25    0.30
   5   5  11    3.05    0.39
  -6  -6  11   18.94    0.94
  -6  -6  11   19.26    0.86
  -6   6  11   18.83    0.89
   6   6 -11   18.91    1.19
  -5  -6  11   -0.30    0.34
  -5  -6  11    0.12    0.28
  -5   6  11    0.16    0.34
   5   6 -11    0.11    0.38
  -4  -6  11   43.06    1.71
  -4  -6  11   45.39    1.58
   4   6 -11   43.44    1.50
  -4   6  11   44.23    1.62
   4   6 -11   42.65    2.22
  -3  -6  11    0.57    0.27
  -3  -6  11    0.64    0.35
   3   6 -11    0.25    0.27
  -3   6  11    0.91    0.33
   3   6 -11    0.32    0.36
  -2  -6  11  102.16    3.59
  -2  -6  11   98.85    3.34
   2   6 -11   97.93    4.66
   2   6 -11   98.55    3.20
  -2   6  11  103.66    3.33
   1  -6 -11    0.29    0.28
  -1  -6  11    0.39    0.34
  -1  -6  11    0.58    0.25
   1   6 -11    0.10    0.27
   1   6 -11    0.40    0.37
  -1   6  11    0.33    0.29
   0  -6  11    0.57    0.35
   0  -6 -11    1.06    0.31
   0  -6  11    1.12    0.27
   0   6 -11    0.49    0.39
   0   6  11    0.80    0.30
   0   6 -11    0.86    0.33
   1  -6  11    0.09    0.24
   1  -6  11   -0.07    0.36
  -1  -6 -11    0.19    0.28
  -1   6 -11   -0.28    0.30
   1   6  11    0.14    0.28
  -1   6 -11    0.21    0.34
  -2  -6 -11   82.65    2.71
   2  -6  11   83.64    2.83
   2  -6  11   84.19    3.03
  -2   6 -11   83.19    2.73
  -2   6 -11   82.01    3.89
   2   6  11   80.14    2.76
   3  -6  11    3.43    0.43
  -3  -6 -11    3.00    0.38
   3   6  11    2.57    0.36
  -3   6 -11    2.14    0.47
  -4  -7  11    0.28    0.32
   4   7 -11   -0.25    0.27
  -4   7  11    0.28    0.36
   4   7 -11    0.03    0.39
  -3  -7  11    6.34    0.56
   3   7 -11    5.55    0.44
  -3   7  11    5.92    0.52
   3   7 -11    5.13    0.61
  -2  -7  11   -0.09    0.32
  -2   7  11   -0.13    0.34
   2   7 -11   -0.07    0.27
   2   7 -11   -0.04    0.38
  -1  -7  11    0.36    0.37
   1  -7 -11    0.85    0.28
  -1   7  11    0.45    0.33
   1   7 -11    0.32    0.29
   1   7 -11    0.16    0.42
   0  -7 -11    1.67    0.32
   0  -7  11    2.81    0.43
   0   7 -11    1.78    0.45
   0   7  11    2.10    0.36
   0   7 -11    1.51    0.36
   1  -7  11    4.46    0.50
  -1  -7 -11    4.54    0.42
  -1   7 -11    4.08    0.57
  -1   7 -11    4.24    0.44
   1   7  11    4.38    0.42
   4   8 -11   10.10    0.60
   3   8 -11    0.31    0.30
   2   8 -11   30.78    1.19
   1  -8 -11    0.47    0.29
   0  -8 -11   27.10    1.06
   8   0 -12    8.55    0.96
  -8   0  12    9.98    0.60
   8   0 -12    9.76    0.74
  -8   0  12   10.19    0.63
   7   0 -12    1.71    0.52
   7   0 -12    1.42    0.39
  -7   0  12    1.33    0.29
  -7   0  12    2.38    0.37
   6   0 -12   57.09    2.20
  -6   0  12   57.63    2.06
   6   0 -12   61.37    2.91
  -6   0  12   57.08    1.98
   5   0 -12    1.09    0.31
   5   0 -12    0.36    0.47
  -5   0  12    0.73    0.29
  -5   0  12    0.82    0.24
   4   0 -12   45.21    2.28
   4   0 -12   46.38    1.68
  -4   0  12   42.05    1.59
  -4   0  12   42.81    1.51
   3   0 -12    0.89    0.41
  -3   0  12    1.13    0.27
   3   0 -12    0.64    0.27
  -3   0  12    0.91    0.29
   2   0 -12   28.21    1.05
  -2   0  12   28.52    1.12
   2   0 -12   25.83    1.52
  -2   0  12   27.84    1.07
   1   0 -12   -0.49    0.26
  -1   0  12    0.09    0.25
   1   0 -12   -0.46    0.34
  -1   0  12    0.10    0.25
   0   0  12   21.69    0.86
   0   0 -12   19.75    1.21
   0   0 -12   19.25    0.84
   1   0  12    1.48    0.30
  -1   0 -12    0.70    0.31
  -1   0 -12    0.08    0.35
  -2   0 -12   16.06    0.80
   2   0  12   16.06    0.74
  -3   0 -12    0.97    0.37
   3   0  12    1.99    0.33
   4   0  12  152.63    5.08
  -4   0 -12  155.16    4.89
  -8  -1  12    2.37    0.37
  -8  -1  12    2.32    0.39
   8  -1 -12    2.21    0.43
   8  -1 -12    1.16    0.58
   8   1 -12    1.71    0.51
  -8   1  12    3.00    0.39
  -8   1  12    2.46    0.34
   8   1 -12    2.14    0.41
  -7  -1  12    0.36    0.33
   7  -1 -12    0.12    0.35
   7  -1 -12   -0.56    0.47
  -7   1  12   -0.16    0.30
   7   1 -12    0.38    0.32
  -7   1  12   -0.04    0.27
   7   1 -12   -0.80    0.41
   6  -1 -12   -0.40    0.33
  -6  -1  12    0.33    0.28
   6  -1 -12    0.39    0.51
  -6   1  12    0.28    0.29
   6   1 -12   -0.09    0.30
   6   1 -12   -0.07    0.41
  -6   1  12    0.24    0.26
   5  -1 -12    9.17    0.95
   5  -1 -12    9.07    0.64
  -5  -1  12   11.19    0.59
  -5   1  12    9.53    0.54
  -5   1  12    9.81    0.61
   5   1 -12   10.31    0.88
   5   1 -12   12.57    0.62
  -4  -1  12    0.32    0.27
   4  -1 -12    1.14    0.30
   4  -1 -12   -0.44    0.43
  -4  -1  12    0.68    0.32
  -4   1  12    1.21    0.31
  -4   1  12    0.52    0.23
   4   1 -12    0.15    0.37
  -3  -1  12    6.26    0.51
   3  -1 -12    4.92    0.62
  -3  -1  12    6.42    0.45
   3  -1 -12    6.90    0.46
  -3   1  12    6.37    0.45
   3   1 -12    5.77    0.70
  -3   1  12    6.54    0.42
   3   1 -12    5.87    0.45
  -2  -1  12    0.36    0.26
  -2  -1  12    0.88    0.27
   2  -1 -12    0.22    0.39
   2  -1 -12    0.63    0.30
   2   1 -12    0.51    0.28
  -2   1  12    1.10    0.28
   2   1 -12    0.48    0.36
  -2   1  12    0.70    0.23
   1  -1 -12    1.46    0.32
  -1  -1  12    1.81    0.29
   1  -1 -12    0.34    0.41
  -1  -1  12    1.69    0.29
  -1   1  12    1.33    0.23
   1   1 -12    1.34    0.30
   1   1 -12    1.13    0.38
  -1   1  12    1.45    0.30
   0  -1  12    3.34    0.35
   0  -1 -12    2.28    0.44
   0  -1  12    3.44    0.34
   0  -1 -12    2.60    0.37
   0   1  12    3.78    0.36
   0   1 -12    2.63    0.42
   0   1 -12    2.54    0.34
  -1  -1 -12   -0.38    0.34
  -1  -1 -12   -0.18    0.32
   1  -1  12    0.10    0.26
   1   1  12    0.11    0.26
  -1   1 -12    0.12    0.31
  -1   1 -12   -0.25    0.32
   2  -1  12    3.05    0.35
  -2  -1 -12    1.69    0.37
  -2   1 -12    1.86    0.38
   2   1  12    2.87    0.34
  -3  -1 -12    1.62    0.37
   3  -1  12    2.22    0.34
   3   1  12    2.63    0.35
  -3   1 -12    2.19    0.38
  -4  -1 -12    0.77    0.36
   4  -1  12    0.51    0.29
   4   1  12    0.56    0.30
  -4   1 -12   -0.03    0.35
   8  -2 -12   14.88    0.91
   8  -2 -12   13.94    1.29
  -8   2  12   17.41    0.81
  -8   2  12   16.85    0.77
   8   2 -12   18.23    1.20
   7  -2 -12   -0.43    0.36
  -7  -2  12    0.14    0.32
   7  -2 -12   -0.09    0.51
  -7   2  12    0.08    0.28
  -7   2  12   -0.08    0.30
   7   2 -12    0.14    0.40
   7   2 -12    0.17    0.31
   6  -2 -12   87.26    4.39
   6  -2 -12   83.38    3.33
  -6  -2  12   94.44    3.14
   6   2 -12  101.46    4.36
   6   2 -12   97.48    3.33
  -6   2  12   93.52    3.14
  -6   2  12   89.84    3.06
   5  -2 -12   -0.35    0.30
  -5  -2  12   -0.19    0.30
   5  -2 -12   -0.42    0.46
  -5  -2  12   -0.12    0.26
   5   2 -12   -0.71    0.34
  -5   2  12    0.08    0.28
  -5   2  12    0.15    0.25
  -4  -2  12    1.80    0.30
   4  -2 -12    1.38    0.33
  -4  -2  12    1.60    0.33
   4  -2 -12    0.87    0.48
  -4   2  12    1.89    0.29
  -4   2  12    1.57    0.31
   4   2 -12    1.42    0.41
  -3  -2  12   -0.08    0.24
  -3  -2  12   -0.37    0.26
   3  -2 -12   -0.24    0.41
  -3   2  12    0.31    0.25
   3   2 -12   -0.30    0.32
   3   2 -12   -0.05    0.24
  -3   2  12    0.06    0.23
  -2  -2  12  134.51    4.45
   2  -2 -12  125.02    4.24
   2  -2 -12  130.24    6.14
  -2  -2  12  132.96    4.70
  -2   2  12  136.35    4.34
   2   2 -12  142.56    4.24
   2   2 -12  139.87    6.13
  -2   2  12  135.88    4.45
  -1  -2  12    2.09    0.30
  -1  -2  12    1.83    0.30
   1  -2 -12    1.66    0.34
   1  -2 -12    0.99    0.41
  -1   2  12    2.23    0.26
  -1   2  12    1.82    0.30
   1   2 -12    1.60    0.32
   1   2 -12    1.17    0.38
   0  -2 -12   59.82    2.84
   0  -2  12   57.53    2.05
   0  -2  12   60.77    2.16
   0  -2 -12   54.80    1.98
   0   2  12   59.89    2.05
   0   2  12   58.63    1.97
   0   2 -12   58.23    2.80
   0   2 -12   59.46    1.98
   1  -2  12    2.27    0.33
  -1  -2 -12    0.66    0.38
  -1  -2 -12    1.97    0.35
   1  -2  12    2.20    0.33
  -1   2 -12    1.84    0.33
   1   2  12    2.08    0.33
   1   2  12    2.58    0.28
  -1   2 -12    1.47    0.38
  -2  -2 -12   58.48    1.97
   2  -2  12   57.52    2.01
  -2   2 -12   56.15    1.97
   2   2  12   57.56    2.01
   3  -2  12    2.59    0.34
  -3  -2 -12    1.48    0.39
   3   2  12    2.44    0.34
  -3   2 -12    1.50    0.38
   4  -2  12   17.44    0.78
  -4  -2 -12   17.28    0.82
   4   2  12   16.33    0.78
  -4   2 -12   15.67    0.82
   8  -3 -12    0.02    0.41
   8   3 -12    0.09    0.39
  -8   3  12    1.02    0.34
   7  -3 -12    3.41    0.47
   7  -3 -12    2.52    0.63
  -7  -3  12    3.65    0.40
   7   3 -12    3.99    0.42
   7   3 -12    3.10    0.51
  -7   3  12    4.46    0.43
  -7   3  12    3.57    0.40
  -6  -3  12    1.67    0.34
   6  -3 -12    0.61    0.37
   6  -3 -12    0.40    0.51
   6   3 -12    0.97    0.43
  -6   3  12    2.01    0.33
  -6   3  12    1.50    0.33
  -5  -3  12    1.94    0.33
  -5  -3  12    1.75    0.38
   5  -3 -12    1.42    0.54
  -5   3  12    1.85    0.33
   5   3 -12    2.31    0.43
  -5   3  12    1.96    0.32
  -4  -3  12    0.70    0.27
   4  -3 -12    0.34    0.46
  -4  -3  12    0.25    0.32
  -4   3  12   -0.07    0.27
   4   3 -12    0.23    0.34
  -4   3  12    0.52    0.27
   3  -3 -12   17.06    1.18
  -3  -3  12   16.01    0.76
  -3  -3  12   17.57    0.80
   3   3 -12   16.67    0.72
  -3   3  12   16.45    0.77
   3   3 -12   16.68    1.06
  -3   3  12   18.05    0.77
   2  -3 -12    1.78    0.50
   2  -3 -12    2.38    0.35
  -2  -3  12    2.65    0.31
  -2  -3  12    2.38    0.35
  -2   3  12    3.17    0.32
   2   3 -12    2.15    0.32
  -2   3  12    2.97    0.33
   2   3 -12    2.21    0.41
   1  -3 -12    8.12    0.54
  -1  -3  12    8.85    0.51
   1  -3 -12    8.51    0.84
  -1  -3  12    8.28    0.57
  -1   3  12    9.00    0.52
   1   3 -12    8.07    0.72
   1   3 -12    8.46    0.52
  -1   3  12    8.80    0.48
   0  -3  12    6.37    0.52
   0  -3 -12    5.72    0.48
   0  -3 -12    4.51    0.56
   0  -3  12    6.32    0.48
   0   3 -12    6.51    0.48
   0   3 -12    5.84    0.66
   0   3  12    6.49    0.44
   0   3  12    7.30    0.47
   1  -3  12    0.14    0.29
  -1  -3 -12   -0.49    0.32
   1  -3  12    0.55    0.28
  -1  -3 -12    0.77    0.33
  -1   3 -12    0.13    0.30
   1   3  12    0.61    0.28
   1   3  12   -0.01    0.24
  -1   3 -12    0.37    0.30
  -2  -3 -12    0.55    0.34
   2  -3  12    0.84    0.30
   2  -3  12    1.17    0.33
  -2   3 -12    0.74    0.33
   2   3  12    0.84    0.27
   2   3  12    1.27    0.30
   3  -3  12    1.52    0.31
  -3  -3 -12    0.85    0.35
   3   3  12    1.72    0.32
   3   3  12    1.01    0.28
  -3   3 -12    0.38    0.35
   4  -3  12    0.76    0.31
  -4   3 -12   -0.38    0.36
   4   3  12    0.46    0.30
   7  -4 -12   -0.31    0.50
   7   4 -12    0.58    0.38
  -6  -4  12   47.88    1.70
  -6  -4  12   47.83    1.84
   6  -4 -12   43.76    2.42
  -6   4  12   46.62    1.70
   6   4 -12   47.14    2.34
  -5  -4  12    0.48    0.28
   5  -4 -12    0.20    0.48
  -5  -4  12    0.53    0.33
  -5   4  12    0.73    0.31
   5   4 -12    0.42    0.36
  -5   4  12    0.59    0.30
  -4  -4  12   37.25    1.43
  -4  -4  12   35.15    1.32
   4  -4 -12   35.07    1.93
  -4   4  12   36.68    1.33
  -4   4  12   33.86    1.34
   4   4 -12   35.03    1.85
  -3  -4  12    0.60    0.32
   3  -4 -12    0.52    0.46
  -3  -4  12    1.01    0.28
  -3   4  12    1.36    0.31
   3   4 -12    0.75    0.36
   3   4 -12    1.04    0.30
  -3   4  12    1.41    0.31
  -2  -4  12   19.91    0.91
   2  -4 -12   18.91    1.24
   2  -4 -12   18.10    0.81
  -2  -4  12   18.18    0.81
   2   4 -12   19.20    0.80
   2   4 -12   19.84    1.16
  -2   4  12   20.06    0.84
  -2   4  12   19.49    0.82
  -1  -4  12    0.05    0.31
   1  -4 -12    0.28    0.30
   1  -4 -12   -0.15    0.36
  -1  -4  12    0.39    0.25
   1   4 -12    0.23    0.30
  -1   4  12    0.47    0.26
  -1   4  12    0.24    0.28
   1   4 -12    0.09    0.34
   0  -4  12   25.42    1.02
   0  -4 -12   25.69    1.04
   0  -4 -12   25.98    1.40
   0  -4  12   26.08    1.12
   0   4  12   25.40    1.03
   0   4  12   25.13    0.99
   0   4 -12   24.91    1.39
   0   4 -12   25.25    1.02
   1  -4  12    0.46    0.27
   1  -4  12    0.55    0.33
  -1  -4 -12    0.74    0.33
   1   4  12    0.56    0.30
   1   4  12    0.16    0.27
  -1   4 -12    0.24    0.31
  -1   4 -12    0.29    0.32
  -2  -4 -12    9.79    0.63
   2  -4  12    8.95    0.56
   2  -4  12   10.02    0.67
  -2   4 -12    9.43    0.61
   2   4  12   10.27    0.59
   2   4  12    8.72    0.56
   3  -4  12    0.78    0.35
   3  -4  12    1.10    0.30
  -3  -4 -12    0.35    0.36
   3   4  12    0.16    0.29
  -3   4 -12    0.53    0.35
   3   4  12    0.91    0.32
   4   4  12  113.22    3.70
   4   4  12  112.80    3.79
  -6  -5  12   -0.07    0.30
   6  -5 -12    0.18    0.46
  -6   5  12    0.14    0.34
   6   5 -12   -0.17    0.36
   5  -5 -12   13.79    1.10
  -5  -5  12   14.37    0.71
  -5  -5  12   13.77    0.81
  -5   5  12   15.06    0.75
   5   5 -12   14.52    1.00
   4  -5 -12    1.61    0.48
  -4  -5  12    2.75    0.34
  -4  -5  12    2.21    0.38
  -4   5  12    2.09    0.39
   4   5 -12    1.89    0.43
  -3  -5  12    0.80    0.28
   3  -5 -12    0.77    0.43
  -3  -5  12    0.87    0.32
   3   5 -12    0.62    0.37
   3   5 -12    0.20    0.28
  -3   5  12    0.53    0.32
  -2  -5  12   -0.14    0.30
  -2  -5  12    0.06    0.25
   2  -5 -12    0.07    0.38
   2   5 -12    0.26    0.34
  -2   5  12   -0.31    0.30
   2   5 -12    0.03    0.27
  -1  -5  12    0.08    0.30
   1  -5 -12    0.14    0.29
  -1  -5  12    0.40    0.26
   1  -5 -12    0.09    0.35
  -1   5  12   -0.02    0.29
   1   5 -12    0.01    0.29
   1   5 -12    0.25    0.33
   0  -5  12    1.44    0.29
   0  -5  12    1.10    0.38
   0  -5 -12    1.26    0.39
   0  -5 -12    0.71    0.32
   0   5 -12    0.77    0.33
   0   5 -12    0.64    0.35
   0   5  12    1.15    0.29
   1  -5  12    1.11    0.29
   1  -5  12    1.19    0.39
  -1  -5 -12    1.00    0.35
  -1   5 -12    0.78    0.37
  -1   5 -12    0.64    0.35
   1   5  12    0.87    0.29
  -2  -5 -12    3.34    0.42
   2  -5  12    4.74    0.40
   2  -5  12    3.89    0.47
   2   5  12    3.08    0.38
  -2   5 -12    3.32    0.43
   3  -5  12    2.81    0.41
   3  -5  12    3.05    0.36
   3   5  12    2.29    0.39
   3   5  12    1.74    0.34
  -5  -6  12    0.14    0.28
  -4  -6  12    1.41    0.31
  -4  -6  12    0.89    0.34
   4   6 -12    0.75    0.40
  -4   6  12    1.56    0.38
  -3  -6  12    0.23    0.32
  -3  -6  12    0.21    0.26
   3   6 -12   -0.22    0.38
  -3   6  12   -0.15    0.32
   3   6 -12   -0.36    0.28
  -2  -6  12   84.52    3.01
  -2  -6  12   80.14    2.78
   2   6 -12   79.25    3.88
  -2   6  12   83.44    2.78
   2   6 -12   83.35    2.69
  -1  -6  12    2.36    0.42
  -1  -6  12    2.61    0.31
   1  -6 -12    2.60    0.36
  -1   6  12    1.94    0.35
   1   6 -12    1.88    0.44
   1   6 -12    2.30    0.37
   0  -6  12   57.21    2.00
   0  -6 -12   57.84    1.98
   0   6 -12   57.84    1.97
   0   6 -12   57.64    2.82
   0   6  12   57.01    2.00
  -1  -6 -12    2.53    0.40
   1  -6  12    3.56    0.35
   1  -6  12    3.17    0.45
  -1   6 -12    2.27    0.41
   1   6  12    3.30    0.38
  -1   6 -12    2.82    0.48
   3   7 -12   11.49    0.63
   2   7 -12    0.80    0.33
   1  -7 -12    7.96    0.56
   0  -7 -12    4.05    0.41
  -8   0  13   22.12    0.96
   7   0 -13   -0.06    0.51
   7   0 -13    0.52    0.35
  -7   0  13   -0.14    0.33
  -6   0  13   27.01    1.11
   6   0 -13   25.91    1.61
   6   0 -13   28.53    1.20
  -5   0  13    0.34    0.29
   5   0 -13    0.26    0.30
   5   0 -13   -0.19    0.44
   4   0 -13   27.17    1.09
  -4   0  13   25.24    1.05
   4   0 -13   26.37    1.55
  -3   0  13    2.95    0.34
   3   0 -13    1.82    0.49
  -2   0  13   18.72    0.79
   2   0 -13   16.72    1.15
   2   0 -13   17.40    0.78
   1   0 -13   -0.03    0.37
  -1   0  13    0.04    0.27
   1   0 -13   -0.34    0.27
   0   0 -13  220.21    6.85
   0   0 -13  217.52    9.85
   0   0  13  222.57    7.19
  -1   0 -13    0.59    0.35
   1   0  13    0.88    0.31
  -2   0 -13   38.71    1.50
   2   0  13   42.44    1.51
  -3   0 -13   -0.15    0.36
   3   0  13    0.73    0.32
   7  -1 -13    3.94    0.49
   7  -1 -13    2.76    0.62
  -7   1  13    3.40    0.36
   7   1 -13    3.15    0.58
  -7   1  13    4.70    0.45
   7   1 -13    4.30    0.46
   6  -1 -13    0.92    0.53
  -6  -1  13    2.74    0.37
   6  -1 -13    2.17    0.41
   6   1 -13    1.91    0.50
   6   1 -13    2.51    0.37
  -6   1  13    2.42    0.39
  -6   1  13    2.51    0.32
   5  -1 -13   -0.91    0.48
  -5  -1  13   -0.25    0.27
   5  -1 -13    0.18    0.32
  -5   1  13   -0.20    0.28
  -5   1  13    0.07    0.24
   5   1 -13    0.97    0.30
   5   1 -13   -0.37    0.42
   4  -1 -13    0.05    0.49
   4  -1 -13    0.75    0.31
  -4  -1  13    1.35    0.34
  -4  -1  13    1.36    0.32
  -4   1  13    1.50    0.32
  -4   1  13    1.32    0.26
   4   1 -13    0.85    0.42
  -3  -1  13    0.39    0.31
   3  -1 -13    0.21    0.47
  -3  -1  13    1.09    0.29
  -3   1  13    0.98    0.29
   3   1 -13    0.21    0.39
  -2  -1  13    3.40    0.35
   2  -1 -13    0.94    0.45
  -2  -1  13    2.45    0.36
   2  -1 -13    3.22    0.37
  -2   1  13    2.62    0.35
   2   1 -13    2.29    0.45
   2   1 -13    2.01    0.34
  -1  -1  13    4.79    0.44
  -1  -1  13    4.52    0.40
   1  -1 -13    2.81    0.52
   1  -1 -13    4.19    0.43
   1   1 -13    3.95    0.50
  -1   1  13    4.66    0.41
   1   1 -13    4.67    0.41
   0  -1 -13   -0.18    0.36
   0  -1 -13    0.07    0.31
   0  -1  13    0.46    0.29
   0   1  13    0.59    0.31
   0   1 -13   -0.01    0.34
   0   1 -13    0.55    0.33
  -1  -1 -13    1.47    0.37
   1  -1  13    2.02    0.34
  -1   1 -13    0.98    0.34
   1   1  13    1.92    0.33
  -2  -1 -13    0.33    0.36
   2  -1  13    1.36    0.34
   2   1  13    1.66    0.33
  -2   1 -13    1.05    0.36
  -3  -1 -13    0.40    0.37
   3  -1  13    0.09    0.29
  -3   1 -13    0.70    0.37
   3   1  13    0.13    0.31
   7  -2 -13   -0.99    0.35
  -7   2  13   -0.12    0.27
  -7   2  13    0.03    0.31
   7   2 -13   -0.95    0.37
   6  -2 -13   70.43    2.81
   6  -2 -13   70.54    3.74
  -6   2  13   77.83    2.65
   6   2 -13   82.13    3.66
   6   2 -13   80.83    2.80
  -6   2  13   75.81    2.57
   5  -2 -13    0.05    0.51
  -5  -2  13    1.05    0.30
  -5   2  13    1.04    0.29
  -5   2  13    0.98    0.34
   5   2 -13    0.90    0.41
   4  -2 -13   37.15    2.13
  -4  -2  13   41.12    1.56
  -4  -2  13   40.16    1.47
   4   2 -13   40.00    2.05
  -4   2  13   39.27    1.42
  -4   2  13   40.14    1.47
  -3  -2  13    4.37    0.39
  -3  -2  13    4.34    0.43
   3  -2 -13    2.23    0.58
  -3   2  13    4.57    0.40
  -3   2  13    3.83    0.38
   3   2 -13    3.17    0.49
  -2  -2  13   57.38    2.01
   2  -2 -13   54.30    1.95
   2  -2 -13   53.82    2.84
  -2  -2  13   57.98    2.12
  -2   2  13   58.76    1.96
  -2   2  13   59.08    2.03
   2   2 -13   59.97    1.93
   2   2 -13   59.39    2.80
   1  -2 -13    0.24    0.33
   1  -2 -13   -0.52    0.40
  -1  -2  13    0.35    0.27
  -1  -2  13    0.17    0.28
   1   2 -13   -0.05    0.29
  -1   2  13    0.42    0.25
   1   2 -13    0.17    0.34
  -1   2  13    0.74    0.29
   0  -2 -13   10.17    0.68
   0  -2  13   11.37    0.64
   0  -2 -13    9.56    0.93
   0  -2  13   11.67    0.64
   0   2 -13   11.01    0.87
   0   2  13   12.97    0.63
   0   2 -13   10.70    0.61
  -1  -2 -13    0.19    0.34
   1  -2  13    0.86    0.31
   1   2  13    0.53    0.30
  -1   2 -13    0.17    0.36
  -1   2 -13    0.66    0.33
  -2  -2 -13   16.50    0.87
   2  -2  13   18.68    0.83
   2   2  13   17.98    0.81
  -2   2 -13   16.26    0.82
  -3  -2 -13    0.15    0.38
   3  -2  13    0.61    0.31
  -7   3  13   10.22    0.66
   6  -3 -13    3.48    0.70
  -6  -3  13    4.37    0.42
   6   3 -13    6.78    0.49
   6   3 -13    4.51    0.57
  -6   3  13    4.96    0.46
  -6   3  13    5.10    0.43
  -5  -3  13    3.07    0.37
  -5  -3  13    2.99    0.43
   5  -3 -13    1.86    0.59
  -5   3  13    3.12    0.35
  -5   3  13    2.92    0.39
   5   3 -13    2.04    0.45
  -4  -3  13    3.09    0.42
   4  -3 -13    2.13    0.58
  -4  -3  13    3.35    0.36
   4   3 -13    2.21    0.46
  -4   3  13    3.62    0.38
  -4   3  13    2.64    0.37
   3  -3 -13    1.83    0.57
  -3  -3  13    2.84    0.34
  -3  -3  13    2.63    0.38
  -3   3  13    3.55    0.37
   3   3 -13    2.63    0.33
   3   3 -13    2.14    0.44
  -3   3  13    2.89    0.37
  -2  -3  13    0.59    0.29
  -2  -3  13    0.75    0.27
   2  -3 -13   -0.05    0.47
  -2   3  13    1.33    0.31
  -2   3  13    0.65    0.28
   2   3 -13    0.56    0.29
   2   3 -13    0.29    0.36
  -1  -3  13    2.54    0.35
   1  -3 -13    2.03    0.51
   1  -3 -13    2.73    0.40
  -1  -3  13    2.59    0.36
  -1   3  13    2.50    0.31
  -1   3  13    3.12    0.36
   1   3 -13    1.88    0.41
   1   3 -13    2.43    0.36
   0  -3 -13   -0.11    0.41
   0  -3  13    0.55    0.28
   0  -3 -13    0.35    0.35
   0  -3  13    0.28    0.32
   0   3 -13   -0.29    0.34
   0   3  13    0.23    0.26
   0   3 -13   -0.24    0.31
   0   3  13    0.54    0.29
  -1  -3 -13    1.72    0.39
   1  -3  13    1.58    0.36
   1  -3  13    2.12    0.35
  -1   3 -13    1.18    0.38
   1   3  13    1.66    0.34
  -1   3 -13    1.40    0.35
   1   3  13    1.30    0.28
  -2  -3 -13    1.58    0.39
   2  -3  13    2.11    0.34
   2   3  13    1.59    0.35
  -2   3 -13    1.07    0.37
   3   3  13    1.07    0.31
  -5  -4  13    0.13    0.27
   5  -4 -13   -0.20    0.52
  -5  -4  13   -0.10    0.32
   5   4 -13   -0.33    0.35
  -5   4  13    0.14    0.31
  -4  -4  13   27.73    1.12
  -4  -4  13   29.79    1.22
   4  -4 -13   28.07    1.74
   4   4 -13   29.42    1.61
  -4   4  13   29.92    1.16
  -4   4  13   28.29    1.15
  -3  -4  13    1.40    0.32
  -3  -4  13    1.61    0.35
   3  -4 -13    1.19    0.52
  -3   4  13    1.86    0.33
   3   4 -13    0.50    0.38
  -3   4  13    1.33    0.32
   3   4 -13    1.04    0.31
   2  -4 -13    8.06    0.86
  -2  -4  13    8.78    0.57
  -2  -4  13    8.55    0.51
   2   4 -13    8.02    0.57
  -2   4  13    9.82    0.56
  -2   4  13    8.74    0.54
   2   4 -13    7.60    0.81
  -1  -4  13    0.16    0.25
  -1  -4  13    0.15    0.30
   1  -4 -13   -0.40    0.41
   1  -4 -13    0.16    0.33
   1   4 -13   -0.08    0.33
  -1   4  13    0.04    0.29
   1   4 -13   -0.07    0.31
  -1   4  13    0.41    0.30
   0  -4 -13  158.10    5.11
   0  -4  13  155.38    5.32
   0  -4 -13  164.29    7.32
   0  -4  13  160.96    5.65
   0   4  13  162.30    5.22
   0   4 -13  168.65    7.31
   0   4  13  161.19    5.33
   0   4 -13  162.61    5.08
   1  -4  13    1.84    0.38
  -1  -4 -13    1.86    0.39
   1  -4  13    2.52    0.35
   1   4  13    2.24    0.34
  -1   4 -13    1.27    0.40
   1   4  13    2.03    0.31
  -1   4 -13    1.95    0.36
   2  -4  13   45.02    1.68
   2  -4  13   48.24    1.83
   2   4  13   45.19    1.64
   2   4  13   47.11    1.68
  -4  -5  13    0.16    0.31
  -4  -5  13    0.59    0.27
  -4   5  13    0.24    0.31
   3  -5 -13   -0.37    0.46
  -3  -5  13   -0.10    0.29
  -3  -5  13    0.02    0.26
   3   5 -13   -0.43    0.28
   3   5 -13   -0.18    0.35
  -3   5  13    0.50    0.32
  -2  -5  13    3.86    0.37
   2  -5 -13    3.13    0.54
  -2  -5  13    3.39    0.43
   2   5 -13    3.21    0.49
  -2   5  13    4.75    0.43
   2   5 -13    3.49    0.40
   1  -5 -13    3.54    0.54
  -1  -5  13    3.99    0.44
   1  -5 -13    3.84    0.43
  -1  -5  13    3.57    0.37
   1   5 -13    4.12    0.43
  -1   5  13    4.46    0.41
   1   5 -13    3.33    0.51
   0  -5 -13    0.43    0.37
   0  -5  13    0.65    0.36
   0  -5 -13    0.42    0.34
   0  -5  13    0.47    0.28
   0   5  13    0.08    0.30
   0   5 -13   -0.08    0.35
   0   5 -13    0.17    0.34
   1  -5  13    1.88    0.30
  -1  -5 -13    1.04    0.36
   1  -5  13    1.35    0.39
   1   5  13    0.88    0.31
  -1   5 -13    0.55    0.38
  -3  -6  13    6.13    0.47
   3   6 -13    5.10    0.45
  -2  -6  13   26.56    1.03
   2   6 -13   24.51    1.03
  -1  -6  13    1.37    0.29
   1  -6 -13    1.22    0.38
   0  -6 -13    3.20    0.44
   0  -6  13    3.14    0.35
   6   0 -14   23.60    1.06
   5   0 -14    0.68    0.31
   5   0 -14   -0.67    0.43
  -5   0  14   -0.04    0.31
   4   0 -14  161.64    7.28
  -4   0  14  155.63    5.27
   4   0 -14  161.53    5.56
  -3   0  14    0.06    0.27
   3   0 -14   -0.71    0.40
  -2   0  14   41.65    1.53
   2   0 -14   39.74    2.17
   2   0 -14   44.05    1.49
   1   0 -14   -0.60    0.40
  -1   0  14   -0.34    0.27
   1   0 -14    0.20    0.32
   0   0  14   15.49    0.75
   0   0 -14   16.84    0.79
   0   0 -14   14.07    1.07
  -1   0 -14    0.69    0.36
   1   0  14    1.08    0.32
   6  -1 -14   -0.02    0.35
   6   1 -14    1.08    0.37
   5  -1 -14    2.55    0.61
  -5  -1  14    4.10    0.41
   5   1 -14    5.07    0.43
  -5   1  14    4.31    0.42
   5   1 -14    2.57    0.56
   4  -1 -14   -0.56    0.44
  -4  -1  14    0.41    0.29
   4   1 -14   -0.21    0.40
  -4   1  14    0.74    0.30
   3  -1 -14    1.60    0.52
  -3  -1  14    1.96    0.37
  -3  -1  14    3.00    0.35
   3   1 -14    2.11    0.48
  -3   1  14    2.41    0.34
   2  -1 -14    0.45    0.48
  -2  -1  14    1.36    0.32
  -2   1  14    1.15    0.30
   2   1 -14    1.11    0.32
   2   1 -14    1.07    0.45
   1  -1 -14    0.32    0.33
  -1  -1  14    0.92    0.31
   1  -1 -14   -0.13    0.44
   1   1 -14    0.53    0.42
   1   1 -14    0.86    0.33
  -1   1  14    0.57    0.30
   0  -1 -14   -0.05    0.43
   0  -1  14    2.28    0.34
   0  -1 -14    1.05    0.34
   0   1 -14    1.10    0.33
   0   1  14    2.04    0.34
   0   1 -14    0.96    0.40
   1  -1  14    1.94    0.36
  -1  -1 -14    2.41    0.39
   1   1  14    2.26    0.37
  -1   1 -14    1.54    0.36
  -6   2  14   23.05    0.95
  -5   2  14    0.17    0.27
  -5   2  14   -0.17    0.31
  -4  -2  14   17.80    0.87
   4  -2 -14   14.84    1.24
  -4  -2  14   17.32    0.78
  -4   2  14   17.33    0.76
  -4   2  14   16.51    0.79
   4   2 -14   17.88    1.14
  -3  -2  14   -0.42    0.30
  -3  -2  14    0.19    0.27
   3  -2 -14   -0.19    0.47
  -3   2  14    0.45    0.28
   3   2 -14   -0.22    0.36
  -2  -2  14   17.65    0.84
   2  -2 -14   13.96    1.20
  -2  -2  14   17.98    0.79
   2   2 -14   17.61    0.78
   2   2 -14   19.29    1.15
  -2   2  14   18.38    0.80
   1  -2 -14    1.03    0.36
  -1  -2  14    1.50    0.32
   1  -2 -14    0.15    0.44
  -1  -2  14    0.79    0.31
   1   2 -14    0.87    0.31
  -1   2  14    1.46    0.32
   1   2 -14    0.56    0.41
   0  -2 -14   14.62    1.16
   0  -2  14   16.95    0.81
   0  -2 -14   17.68    0.84
   0   2 -14   16.17    1.10
   0   2  14   17.68    0.79
   0   2 -14   16.55    0.77
  -1  -2 -14    0.12    0.33
   1   2  14    0.62    0.33
  -1   2 -14   -0.09    0.31
  -5   3  14    2.93    0.36
  -5   3  14    2.36    0.37
  -4  -3  14    0.40    0.28
   4  -3 -14   -0.31    0.54
  -4  -3  14    0.33    0.31
  -4   3  14   -0.02    0.30
  -4   3  14    0.69    0.30
   3  -3 -14    1.96    0.56
  -3  -3  14    2.04    0.36
  -3  -3  14    2.95    0.34
   3   3 -14    1.88    0.46
  -3   3  14    2.51    0.35
  -3   3  14    2.97    0.36
  -2  -3  14    1.60    0.33
  -2  -3  14    1.82    0.31
   2  -3 -14    0.76    0.50
   2   3 -14    1.42    0.33
  -2   3  14    1.98    0.32
  -2   3  14    1.83    0.32
   2   3 -14    1.17    0.39
   1  -3 -14   -0.64    0.43
  -1  -3  14    0.13    0.29
  -1  -3  14    0.48    0.30
   1  -3 -14    0.08    0.31
  -1   3  14    0.43    0.29
  -1   3  14    0.10    0.27
   1   3 -14   -0.47    0.30
   1   3 -14   -0.58    0.33
   0  -3 -14    0.92    0.37
   0  -3  14    0.88    0.31
   0  -3  14    1.21    0.31
   0  -3 -14    0.02    0.42
   0   3  14    1.42    0.34
   0   3 -14    0.14    0.38
   0   3 -14    0.48    0.31
   1   3  14    0.29    0.30
  -3  -4  14    0.08    0.29
  -3   4  14    0.09    0.30
  -3   4  14    0.38    0.31
  -2  -4  14   45.51    1.77
   2  -4 -14   45.18    2.42
  -2  -4  14   45.10    1.68
   2   4 -14   46.74    1.62
   2   4 -14   45.74    2.42
  -2   4  14   47.06    1.69
  -2   4  14   49.31    1.68
   1  -4 -14    0.31    0.35
  -1  -4  14    0.41    0.31
   1  -4 -14    0.28    0.46
   1   4 -14   -0.32    0.36
  -1   4  14    0.76    0.31
   1   4 -14    0.25    0.31
  -1   4  14    1.00    0.31
   0  -4 -14    8.45    0.66
   0  -4  14    9.85    0.65
   0   4  14    9.60    0.55
   0   4 -14    8.51    0.78
   0   4  14    9.53    0.57
   1  -4  14    0.23    0.34
   2   0 -15   14.07    1.06
   1   0 -15   -0.20    0.31
   1   0 -15   -0.78    0.41
   4   1 -15    4.87    0.43
   1  -1 -15    0.37    0.31
   1  -1 -15   -0.29    0.45
   1   1 -15   -0.84    0.40
   1   1 -15   -0.09    0.30
  -3  -2  15   -0.05    0.31
   1  -2 -15    0.18    0.33
   1  -2 -15   -1.36    0.48
   1   2 -15   -0.04    0.31
   2   3 -15   -0.46    0.29
   0   0   0    0.00    0.00
;
_shelx_hkl_checksum              3313
#END Tags that were not found in dictionaries
loop_
_space_group_symop_operation_xyz
'x, y, z'
'-x, y+1/2, -z'
'-x, -y, -z'
'x, -y-1/2, z'
loop_
_atom_site_label
_atom_site_type_symbol
_atom_site_fract_x
_atom_site_fract_y
_atom_site_fract_z
_atom_site_U_iso_or_equiv
_atom_site_adp_type
_atom_site_occupancy
_atom_site_site_symmetry_order
_atom_site_calc_flag
_atom_site_refinement_flags_posn
_atom_site_refinement_flags_adp
_atom_site_refinement_flags_occupancy
_atom_site_disorder_assembly
_atom_site_disorder_group
Dy1 Dy 0.16585(3) 0.50010(3) 0.66415(3) 0.00482(9) Uani 1 1 d . . . . .
Dy2 Dy 0.33395(3) 0.00186(3) 0.33642(3) 0.00476(9) Uani 1 1 d . . . . .
Ge1 Ge 0.89134(11) 0.2500 0.58539(9) 0.00653(17) Uani 1 2 d S T P . .
Ge2 Ge 0.72997(14) 0.2500 0.87735(9) 0.0141(2) Uani 1 2 d S T P . .
Ge3 Ge 0.40029(11) 0.2500 0.57967(10) 0.00948(18) Uani 1 2 d S T P A .
Ge4 Ge 0.02863(9) 0.53853(10) 0.11485(6) 0.01302(16) Uani 1 1 d . . . . .
Ge5 Ge 0.32226(14) 0.2500 0.11487(9) 0.0138(2) Uani 1 2 d S T P A .
Ge6 Ge 0.10813(11) 0.2500 0.43809(9) 0.00821(18) Uani 1 2 d S T P A .
Ge7 Ge 0.60605(11) 0.2500 0.41784(9) 0.00695(17) Uani 1 2 d S T P A .
Ge8 Ge 0.20860(14) 0.2500 0.87760(9) 0.0141(2) Uani 1 2 d S T P A .
Ge9 Ge 0.52973(9) 0.00910(9) 0.11951(7) 0.01312(16) Uani 1 1 d . . . . .
Ge10 Ge 0.73492(14) 0.2500 0.11474(9) 0.0140(2) Uani 1 2 d S T P A .
Zn1 Zn 0.05023(15) 0.2500 0.20193(12) 0.0077(3) Uani 0.822(4) 2 d S T P A 1
Zn2 Zn 0.4492(8) 0.2500 0.7967(6) 0.0137(16) Uani 0.178(4) 2 d S T P A 2
loop_
_atom_site_aniso_label
_atom_site_aniso_U_11
_atom_site_aniso_U_22
_atom_site_aniso_U_33
_atom_site_aniso_U_23
_atom_site_aniso_U_13
_atom_site_aniso_U_12
Dy1 0.00508(14) 0.00521(15) 0.00408(14) -0.00018(8) 0.00061(10) -0.00019(8)
Dy2 0.00489(14) 0.00519(15) 0.00418(14) 0.00010(8) 0.00077(10) -0.00007(8)
Ge1 0.0052(4) 0.0069(4) 0.0077(4) 0.000 0.0017(3) 0.000
Ge2 0.0264(5) 0.0094(4) 0.0076(4) 0.000 0.0059(4) 0.000
Ge3 0.0056(4) 0.0070(4) 0.0162(4) 0.000 0.0029(3) 0.000
Ge4 0.0096(3) 0.0233(4) 0.0061(3) -0.0021(3) 0.0013(2) -0.0002(3)
Ge5 0.0224(5) 0.0100(4) 0.0075(4) 0.000 -0.0014(3) 0.000
Ge6 0.0064(4) 0.0077(4) 0.0109(4) 0.000 0.0025(3) 0.000
Ge7 0.0056(4) 0.0067(4) 0.0084(4) 0.000 0.0009(3) 0.000
Ge8 0.0231(5) 0.0092(4) 0.0077(4) 0.000 -0.0030(4) 0.000
Ge9 0.0087(3) 0.0253(4) 0.0053(3) -0.0024(2) 0.0011(2) -0.0005(3)
Ge10 0.0250(5) 0.0099(4) 0.0074(4) 0.000 0.0040(4) 0.000
Zn1 0.0079(5) 0.0079(6) 0.0071(6) 0.000 0.0012(4) 0.000
Zn2 0.015(3) 0.018(3) 0.007(3) 0.000 0.000(2) 0.000
loop_
_atom_type_symbol
_atom_type_description
_atom_type_scat_dispersion_real
_atom_type_scat_dispersion_imag
_atom_type_scat_source
Zn Zn 0.2839 1.4301 'International Tables Vol C Tables 4.2.6.8 and 6.1.1.4'
Ge Ge 0.1547 1.8001 'International Tables Vol C Tables 4.2.6.8 and 6.1.1.4'
Dy Dy -0.1892 4.4098 'International Tables Vol C Tables 4.2.6.8 and 6.1.1.4'
loop_
_geom_angle_atom_site_label_1
_geom_angle_atom_site_label_2
_geom_angle_atom_site_label_3
_geom_angle
_geom_angle_site_symmetry_1
_geom_angle_site_symmetry_3
Ge7 Dy1 Ge9 75.74(2) 3_666 2_656
Ge7 Dy1 Ge1 147.74(3) 3_666 1_455
Ge9 Dy1 Ge1 131.93(2) 2_656 1_455
Ge7 Dy1 Ge8 134.27(3) 3_666 .
Ge9 Dy1 Ge8 59.35(2) 2_656 .
Ge1 Dy1 Ge8 73.20(2) 1_455 .
Ge7 Dy1 Ge3 86.733(19) 3_666 .
Ge9 Dy1 Ge3 77.60(2) 2_656 .
Ge1 Dy1 Ge3 84.704(19) 1_455 .
Ge8 Dy1 Ge3 76.36(2) . .
Ge7 Dy1 Ge4 135.98(2) 3_666 3_566
Ge9 Dy1 Ge4 82.90(2) 2_656 3_566
Ge1 Dy1 Ge4 72.01(2) 1_455 3_566
Ge8 Dy1 Ge4 50.39(2) . 3_566
Ge3 Dy1 Ge4 125.73(2) . 3_566
Ge7 Dy1 Ge6 82.21(2) 3_666 3_566
Ge9 Dy1 Ge6 132.40(2) 2_656 3_566
Ge1 Dy1 Ge6 86.094(18) 1_455 3_566
Ge8 Dy1 Ge6 134.22(3) . 3_566
Ge3 Dy1 Ge6 142.90(3) . 3_566
Ge4 Dy1 Ge6 84.70(2) 3_566 3_566
Ge7 Dy1 Ge10 71.02(2) 3_666 3_666
Ge9 Dy1 Ge10 50.01(2) 2_656 3_666
Ge1 Dy1 Ge10 137.14(3) 1_455 3_666
Ge8 Dy1 Ge10 85.30(2) . 3_666
Ge3 Dy1 Ge10 126.18(3) . 3_666
Ge4 Dy1 Ge10 65.77(2) 3_566 3_666
Ge6 Dy1 Ge10 83.09(2) 3_566 3_666
Ge7 Dy1 Ge6 104.27(2) 3_666 .
Ge9 Dy1 Ge6 125.33(2) 2_656 .
Ge1 Dy1 Ge6 48.73(2) 1_455 .
Ge8 Dy1 Ge6 95.510(19) . .
Ge3 Dy1 Ge6 48.30(2) . .
Ge4 Dy1 Ge6 119.42(2) 3_566 .
Ge6 Dy1 Ge6 100.666(13) 3_566 .
Ge10 Dy1 Ge6 173.66(3) 3_666 .
Ge7 Dy1 Zn2 98.94(9) 3_666 .
Ge9 Dy1 Zn2 43.72(8) 2_656 .
Ge1 Dy1 Zn2 95.43(7) 1_455 .
Ge8 Dy1 Zn2 42.22(11) . .
Ge3 Dy1 Zn2 42.33(11) . .
Ge4 Dy1 Zn2 91.00(11) 3_566 .
Ge6 Dy1 Zn2 174.76(11) 3_566 .
Ge10 Dy1 Zn2 92.43(8) 3_666 .
Ge6 Dy1 Zn2 84.04(9) . .
Ge7 Dy1 Zn1 95.18(2) 3_666 3_566
Ge9 Dy1 Zn1 94.26(3) 2_656 3_566
Ge1 Dy1 Zn1 98.12(2) 1_455 3_566
Ge8 Dy1 Zn1 96.15(2) . 3_566
Ge3 Dy1 Zn1 170.94(3) . 3_566
Ge4 Dy1 Zn1 48.19(2) 3_566 3_566
Ge6 Dy1 Zn1 46.13(3) 3_566 3_566
Ge10 Dy1 Zn1 47.01(3) 3_666 3_566
Ge6 Dy1 Zn1 138.87(3) . 3_566
Ge7 Dy1 Ge1 48.56(2) 3_666 3_666
Ge9 Dy1 Ge1 124.03(2) 2_656 3_666
Ge1 Dy1 Ge1 102.981(13) 1_455 3_666
Ge8 Dy1 Ge1 175.466(19) . 3_666
Ge3 Dy1 Ge1 101.05(2) . 3_666
Ge4 Dy1 Ge1 131.27(2) 3_566 3_666
Ge6 Dy1 Ge1 46.72(2) 3_566 3_666
Ge10 Dy1 Ge1 99.217(17) 3_666 3_666
Ge6 Dy1 Ge1 80.038(17) . 3_666
Zn2 Dy1 Ge1 137.25(11) . 3_666
Zn1 Dy1 Ge1 86.75(2) 3_566 3_666
Ge1 Dy2 Ge3 82.06(2) 3_656 3_656
Ge1 Dy2 Ge7 147.75(3) 3_656 .
Ge3 Dy2 Ge7 87.507(19) 3_656 .
Ge1 Dy2 Ge9 130.91(2) 3_656 .
Ge3 Dy2 Ge9 78.33(2) 3_656 .
Ge7 Dy2 Ge9 75.64(2) . .
Ge1 Dy2 Ge2 72.57(2) 3_656 3_656
Ge3 Dy2 Ge2 75.70(2) 3_656 3_656
Ge7 Dy2 Ge2 133.89(3) . 3_656
Ge9 Dy2 Ge2 59.15(2) . 3_656
Ge1 Dy2 Ge6 86.852(19) 3_656 .
Ge3 Dy2 Ge6 142.86(3) 3_656 .
Ge7 Dy2 Ge6 83.28(2) . .
Ge9 Dy2 Ge6 132.82(2) . .
Ge2 Dy2 Ge6 133.83(3) 3_656 .
Ge1 Dy2 Ge4 72.50(2) 3_656 4_565
Ge3 Dy2 Ge4 124.70(2) 3_656 4_565
Ge7 Dy2 Ge4 136.39(2) . 4_565
Ge9 Dy2 Ge4 82.72(2) . 4_565
Ge2 Dy2 Ge4 50.25(2) 3_656 4_565
Ge6 Dy2 Ge4 84.51(2) . 4_565
Ge1 Dy2 Ge5 137.78(3) 3_656 .
Ge3 Dy2 Ge5 127.19(3) 3_656 .
Ge7 Dy2 Ge5 71.34(2) . .
Ge9 Dy2 Ge5 50.06(2) . .
Ge2 Dy2 Ge5 85.202(19) 3_656 .
Ge6 Dy2 Ge5 83.38(2) . .
Ge4 Dy2 Ge5 65.75(2) 4_565 .
Ge1 Dy2 Zn1 99.14(2) 3_656 .
Ge3 Dy2 Zn1 170.92(3) 3_656 .
Ge7 Dy2 Zn1 95.904(19) . .
Ge9 Dy2 Zn1 94.33(3) . .
Ge2 Dy2 Zn1 96.00(2) 3_656 .
Ge6 Dy2 Zn1 46.14(3) . .
Ge4 Dy2 Zn1 48.16(2) 4_565 .
Ge5 Dy2 Zn1 47.10(3) . .
Ge1 Dy2 Zn2 94.11(8) 3_656 3_656
Ge3 Dy2 Zn2 42.52(10) 3_656 3_656
Ge7 Dy2 Zn2 98.57(9) . 3_656
Ge9 Dy2 Zn2 43.62(8) . 3_656
Ge2 Dy2 Zn2 42.03(11) 3_656 3_656
Ge6 Dy2 Zn2 174.58(11) . 3_656
Ge4 Dy2 Zn2 90.69(11) 4_565 3_656
Ge5 Dy2 Zn2 92.37(8) . 3_656
Ge1 Dy2 Ge3 103.89(2) 3_656 .
Ge3 Dy2 Ge3 101.828(14) 3_656 .
Ge7 Dy2 Ge3 48.65(2) . .
Ge9 Dy2 Ge3 123.94(2) . .
Ge2 Dy2 Ge3 175.84(2) 3_656 .
Ge6 Dy2 Ge3 47.00(2) . .
Ge4 Dy2 Ge3 131.30(2) 4_565 .
Ge5 Dy2 Ge3 98.948(18) . .
Zn1 Dy2 Ge3 86.67(2) . .
Zn2 Dy2 Ge3 137.47(11) 3_656 .
Ge1 Dy2 Ge7 48.89(2) 3_656 3_656
Ge3 Dy2 Ge7 48.31(2) 3_656 3_656
Ge7 Dy2 Ge7 102.559(13) . 3_656
Ge9 Dy2 Ge7 126.43(2) . 3_656
Ge2 Dy2 Ge7 97.514(18) 3_656 3_656
Ge6 Dy2 Ge7 98.97(2) . 3_656
Ge4 Dy2 Ge7 120.66(2) 4_565 3_656
Ge5 Dy2 Ge7 173.26(3) . 3_656
Zn1 Dy2 Ge7 138.15(3) . 3_656
Zn2 Dy2 Ge7 85.64(9) 3_656 3_656
Ge3 Dy2 Ge7 78.395(18) . 3_656
Ge6 Ge1 Ge7 101.16(4) 1_655 .
Ge6 Ge1 Dy2 133.619(17) 1_655 3_656
Ge7 Ge1 Dy2 72.02(2) . 3_656
Ge6 Ge1 Dy2 133.619(17) 1_655 2_656
Ge7 Ge1 Dy2 72.02(2) . 2_656
Dy2 Ge1 Dy2 89.11(3) 3_656 2_656
Ge6 Ge1 Dy1 67.95(2) 1_655 1_655
Ge7 Ge1 Dy1 133.147(19) . 1_655
Dy2 Ge1 Dy1 148.40(3) 3_656 1_655
Dy2 Ge1 Dy1 83.616(12) 2_656 1_655
Ge6 Ge1 Dy1 67.95(2) 1_655 4_665
Ge7 Ge1 Dy1 133.147(19) . 4_665
Dy2 Ge1 Dy1 83.616(12) 3_656 4_665
Dy2 Ge1 Dy1 148.40(3) 2_656 4_665
Dy1 Ge1 Dy1 86.67(2) 1_655 4_665
Ge6 Ge1 Dy1 61.29(2) 1_655 2_646
Ge7 Ge1 Dy1 59.22(2) . 2_646
Dy2 Ge1 Dy1 77.500(13) 3_656 2_646
Dy2 Ge1 Dy1 131.23(3) 2_656 2_646
Dy1 Ge1 Dy1 129.18(3) 1_655 2_646
Dy1 Ge1 Dy1 77.019(13) 4_665 2_646
Ge6 Ge1 Dy1 61.29(2) 1_655 3_666
Ge7 Ge1 Dy1 59.22(2) . 3_666
Dy2 Ge1 Dy1 131.23(3) 3_656 3_666
Dy2 Ge1 Dy1 77.500(13) 2_656 3_666
Dy1 Ge1 Dy1 77.019(13) 1_655 3_666
Dy1 Ge1 Dy1 129.18(3) 4_665 3_666
Dy1 Ge1 Dy1 77.22(2) 2_646 3_666
Zn2 Ge2 Ge10 101.93(16) . 1_556
Zn2 Ge2 Ge4 134.10(6) . 3_666
Ge10 Ge2 Ge4 95.57(4) 1_556 3_666
Zn2 Ge2 Ge4 134.10(6) . 2_646
Ge10 Ge2 Ge4 95.57(4) 1_556 2_646
Ge4 Ge2 Ge4 84.86(5) 3_666 2_646
Zn2 Ge2 Dy2 72.69(11) . 3_656
Ge10 Ge2 Dy2 135.451(18) 1_556 3_656
Ge4 Ge2 Dy2 120.34(4) 3_666 3_656
Ge4 Ge2 Dy2 65.26(2) 2_646 3_656
Zn2 Ge2 Dy2 72.69(11) . 2_656
Ge10 Ge2 Dy2 135.451(18) 1_556 2_656
Ge4 Ge2 Dy2 65.26(2) 3_666 2_656
Ge4 Ge2 Dy2 120.34(4) 2_646 2_656
Dy2 Ge2 Dy2 86.39(3) 3_656 2_656
Zn2 Ge3 Ge6 124.54(17) . .
Zn2 Ge3 Ge7 131.57(17) . .
Ge6 Ge3 Ge7 103.89(5) . .
Zn2 Ge3 Dy2 73.79(11) . 2_656
Ge6 Ge3 Dy2 134.576(17) . 2_656
Ge7 Ge3 Dy2 72.04(2) . 2_656
Zn2 Ge3 Dy2 73.79(11) . 3_656
Ge6 Ge3 Dy2 134.576(17) . 3_656
Ge7 Ge3 Dy2 72.04(2) . 3_656
Dy2 Ge3 Dy2 88.47(3) 2_656 3_656
Zn2 Ge3 Dy1 72.47(11) . .
Ge6 Ge3 Dy1 67.76(2) . .
Ge7 Ge3 Dy1 134.32(2) . .
Dy2 Ge3 Dy1 83.126(13) 2_656 .
Dy2 Ge3 Dy1 146.25(4) 3_656 .
Zn2 Ge3 Dy1 72.47(12) . 4_565
Ge6 Ge3 Dy1 67.76(2) . 4_565
Ge7 Ge3 Dy1 134.320(19) . 4_565
Dy2 Ge3 Dy1 146.25(4) 2_656 4_565
Dy2 Ge3 Dy1 83.125(13) 3_656 4_565
Dy1 Ge3 Dy1 85.96(3) . 4_565
Zn2 Ge3 Dy2 140.828(15) . .
Ge6 Ge3 Dy2 62.42(2) . .
Ge7 Ge3 Dy2 60.45(2) . .
Dy2 Ge3 Dy2 132.49(3) 2_656 .
Dy2 Ge3 Dy2 78.172(14) 3_656 .
Dy1 Ge3 Dy2 130.14(3) . .
Dy1 Ge3 Dy2 77.547(14) 4_565 .
Zn2 Ge3 Dy2 140.828(15) . 4_565
Ge6 Ge3 Dy2 62.42(2) . 4_565
Ge7 Ge3 Dy2 60.45(2) . 4_565
Dy2 Ge3 Dy2 78.172(14) 2_656 4_565
Dy2 Ge3 Dy2 132.48(3) 3_656 4_565
Dy1 Ge3 Dy2 77.547(14) . 4_565
Dy1 Ge3 Dy2 130.14(3) 4_565 4_565
Dy2 Ge3 Dy2 78.25(2) . 4_565
Ge4 Ge4 Zn1 95.75(5) 3_565 .
Ge4 Ge4 Ge8 101.75(5) 3_565 3_566
Zn1 Ge4 Ge8 128.36(4) . 3_566
Ge4 Ge4 Ge2 101.80(5) 3_565 3_666
Zn1 Ge4 Ge2 128.33(4) . 3_666
Ge8 Ge4 Ge2 94.99(3) 3_566 3_666
Ge4 Ge4 Dy1 134.26(4) 3_565 3_566
Zn1 Ge4 Dy1 68.67(3) . 3_566
Ge8 Ge4 Dy1 64.35(3) 3_566 3_566
Ge2 Ge4 Dy1 121.90(3) 3_666 3_566
Ge4 Ge4 Dy2 134.16(4) 3_565 4_565
Zn1 Ge4 Dy2 68.45(3) . 4_565
Ge8 Ge4 Dy2 122.11(3) 3_566 4_565
Ge2 Ge4 Dy2 64.50(3) 3_666 4_565
Dy1 Ge4 Dy2 81.419(18) 3_566 4_565
Ge8 Ge5 Zn1 101.03(6) 1_554 .
Ge8 Ge5 Ge9 97.43(4) 1_554 4_565
Zn1 Ge5 Ge9 126.00(3) . 4_565
Ge8 Ge5 Ge9 97.43(4) 1_554 .
Zn1 Ge5 Ge9 126.00(3) . .
Ge9 Ge5 Ge9 100.82(5) 4_565 .
Ge8 Ge5 Dy2 135.26(2) 1_554 4_565
Zn1 Ge5 Dy2 68.23(3) . 4_565
Ge9 Ge5 Dy2 63.10(2) 4_565 4_565
Ge9 Ge5 Dy2 124.59(4) . 4_565
Ge8 Ge5 Dy2 135.26(2) 1_554 .
Zn1 Ge5 Dy2 68.23(3) . .
Ge9 Ge5 Dy2 124.59(4) 4_565 .
Ge9 Ge5 Dy2 63.10(2) . .
Dy2 Ge5 Dy2 82.90(3) 4_565 .
Zn1 Ge6 Ge3 125.42(5) . .
Zn1 Ge6 Ge1 127.23(5) . 1_455
Ge3 Ge6 Ge1 107.35(5) . 1_455
Zn1 Ge6 Dy1 69.81(3) . 2_546
Ge3 Ge6 Dy1 136.894(14) . 2_546
Ge1 Ge6 Dy1 71.99(3) 1_455 2_546
Zn1 Ge6 Dy1 69.81(3) . 3_566
Ge3 Ge6 Dy1 136.894(14) . 3_566
Ge1 Ge6 Dy1 71.99(3) 1_455 3_566
Dy1 Ge6 Dy1 85.16(3) 2_546 3_566
Zn1 Ge6 Dy2 69.70(3) . 4_565
Ge3 Ge6 Dy2 70.58(3) . 4_565
Ge1 Ge6 Dy2 137.000(15) 1_455 4_565
Dy1 Ge6 Dy2 139.51(3) 2_546 4_565
Dy1 Ge6 Dy2 81.489(13) 3_566 4_565
Zn1 Ge6 Dy2 69.70(3) . .
Ge3 Ge6 Dy2 70.58(3) . .
Ge1 Ge6 Dy2 137.000(15) 1_455 .
Dy1 Ge6 Dy2 81.489(13) 2_546 .
Dy1 Ge6 Dy2 139.51(3) 3_566 .
Dy2 Ge6 Dy2 84.35(3) 4_565 .
Zn1 Ge6 Dy1 138.576(13) . .
Ge3 Ge6 Dy1 63.93(2) . .
Ge1 Ge6 Dy1 63.32(2) 1_455 .
Dy1 Ge6 Dy1 135.25(3) 2_546 .
Dy1 Ge6 Dy1 79.335(14) 3_566 .
Dy2 Ge6 Dy1 79.173(13) 4_565 .
Dy2 Ge6 Dy1 134.47(3) . .
Zn1 Ge6 Dy1 138.576(12) . 4_565
Ge3 Ge6 Dy1 63.93(2) . 4_565
Ge1 Ge6 Dy1 63.32(2) 1_455 4_565
Dy1 Ge6 Dy1 79.335(13) 2_546 4_565
Dy1 Ge6 Dy1 135.25(3) 3_566 4_565
Dy2 Ge6 Dy1 134.47(3) 4_565 4_565
Dy2 Ge6 Dy1 79.173(13) . 4_565
Dy1 Ge6 Dy1 82.84(2) . 4_565
Ge3 Ge7 Ge1 97.71(5) . .
Ge3 Ge7 Dy1 133.599(18) . 3_666
Ge1 Ge7 Dy1 72.22(2) . 3_666
Ge3 Ge7 Dy1 133.599(18) . 2_646
Ge1 Ge7 Dy1 72.22(2) . 2_646
Dy1 Ge7 Dy1 87.51(3) 3_666 2_646
Ge3 Ge7 Dy2 70.90(2) . 4_565
Ge1 Ge7 Dy2 133.510(19) . 4_565
Dy1 Ge7 Dy2 83.769(12) 3_666 4_565
Dy1 Ge7 Dy2 147.08(3) 2_646 4_565
Ge3 Ge7 Dy2 70.90(2) . .
Ge1 Ge7 Dy2 133.510(19) . .
Dy1 Ge7 Dy2 147.08(3) 3_666 .
Dy1 Ge7 Dy2 83.769(12) 2_646 .
Dy2 Ge7 Dy2 86.53(3) 4_565 .
Ge3 Ge7 Dy2 59.65(2) . 2_656
Ge1 Ge7 Dy2 59.09(2) . 2_656
Dy1 Ge7 Dy2 77.565(13) 3_666 2_656
Dy1 Ge7 Dy2 131.30(3) 2_646 2_656
Dy2 Ge7 Dy2 77.441(13) 4_565 2_656
Dy2 Ge7 Dy2 130.55(3) . 2_656
Ge3 Ge7 Dy2 59.65(2) . 3_656
Ge1 Ge7 Dy2 59.09(2) . 3_656
Dy1 Ge7 Dy2 131.30(3) 3_666 3_656
Dy1 Ge7 Dy2 77.565(13) 2_646 3_656
Dy2 Ge7 Dy2 130.55(3) 4_565 3_656
Dy2 Ge7 Dy2 77.440(14) . 3_656
Dy2 Ge7 Dy2 78.52(2) 2_656 3_656
Zn2 Ge8 Ge5 101.92(16) . 1_556
Zn2 Ge8 Ge4 134.01(6) . 2_546
Ge5 Ge8 Ge4 95.66(4) 1_556 2_546
Zn2 Ge8 Ge4 134.01(6) . 3_566
Ge5 Ge8 Ge4 95.66(4) 1_556 3_566
Ge4 Ge8 Ge4 84.95(5) 2_546 3_566
Zn2 Ge8 Dy1 72.63(11) . 4_565
Ge5 Ge8 Dy1 135.594(18) 1_556 4_565
Ge4 Ge8 Dy1 65.26(2) 2_546 4_565
Ge4 Ge8 Dy1 120.21(4) 3_566 4_565
Zn2 Ge8 Dy1 72.63(11) . .
Ge5 Ge8 Dy1 135.594(18) 1_556 .
Ge4 Ge8 Dy1 120.21(4) 2_546 .
Ge4 Ge8 Dy1 65.26(2) 3_566 .
Dy1 Ge8 Dy1 86.08(3) 4_565 .
Zn2 Ge9 Ge9 108.60(14) 3_656 3_655
Zn2 Ge9 Ge5 136.18(16) 3_656 .
Ge9 Ge9 Ge5 91.63(4) 3_655 .
Zn2 Ge9 Ge10 136.11(16) 3_656 .
Ge9 Ge9 Ge10 91.57(4) 3_655 .
Ge5 Ge9 Ge10 79.15(3) . .
Zn2 Ge9 Dy1 72.31(15) 3_656 2_646
Ge9 Ge9 Dy1 138.00(4) 3_655 2_646
Ge5 Ge9 Dy1 117.17(3) . 2_646
Ge10 Ge9 Dy1 67.02(3) . 2_646
Zn2 Ge9 Dy2 72.60(15) 3_656 .
Ge9 Ge9 Dy2 138.22(4) 3_655 .
Ge5 Ge9 Dy2 66.84(3) . .
Ge10 Ge9 Dy2 116.89(3) . .
Dy1 Ge9 Dy2 83.25(2) 2_646 .
Ge2 Ge10 Zn1 101.13(6) 1_554 1_655
Ge2 Ge10 Ge9 97.42(4) 1_554 4_565
Zn1 Ge10 Ge9 125.98(3) 1_655 4_565
Ge2 Ge10 Ge9 97.42(4) 1_554 .
Zn1 Ge10 Ge9 125.98(3) 1_655 .
Ge9 Ge10 Ge9 100.80(5) 4_565 .
Ge2 Ge10 Dy1 135.01(2) 1_554 3_666
Zn1 Ge10 Dy1 68.20(3) 1_655 3_666
Ge9 Ge10 Dy1 62.97(2) 4_565 3_666
Ge9 Ge10 Dy1 124.80(4) . 3_666
Ge2 Ge10 Dy1 135.01(2) 1_554 2_646
Zn1 Ge10 Dy1 68.20(3) 1_655 2_646
Ge9 Ge10 Dy1 124.80(4) 4_565 2_646
Ge9 Ge10 Dy1 62.97(2) . 2_646
Dy1 Ge10 Dy1 83.39(3) 3_666 2_646
Ge6 Zn1 Ge10 110.92(6) . 1_455
Ge6 Zn1 Ge5 111.24(6) . .
Ge10 Zn1 Ge5 137.85(6) 1_455 .
Ge6 Zn1 Ge4 110.73(3) . .
Ge10 Zn1 Ge4 82.70(3) 1_455 .
Ge5 Zn1 Ge4 82.68(3) . .
Ge6 Zn1 Ge4 110.73(3) . 4_565
Ge10 Zn1 Ge4 82.70(3) 1_455 4_565
Ge5 Zn1 Ge4 82.68(3) . 4_565
Ge4 Zn1 Ge4 138.55(6) . 4_565
Ge6 Zn1 Dy2 64.16(3) . 4_565
Ge10 Zn1 Dy2 137.96(2) 1_455 4_565
Ge5 Zn1 Dy2 64.67(3) . 4_565
Ge4 Zn1 Dy2 63.40(2) . 4_565
Ge4 Zn1 Dy2 139.23(4) 4_565 4_565
Ge6 Zn1 Dy2 64.16(3) . .
Ge10 Zn1 Dy2 137.96(2) 1_455 .
Ge5 Zn1 Dy2 64.67(3) . .
Ge4 Zn1 Dy2 139.23(4) . .
Ge4 Zn1 Dy2 63.40(2) 4_565 .
Dy2 Zn1 Dy2 80.22(3) 4_565 .
Ge6 Zn1 Dy1 64.05(3) . 2_546
Ge10 Zn1 Dy1 64.79(3) 1_455 2_546
Ge5 Zn1 Dy1 137.68(2) . 2_546
Ge4 Zn1 Dy1 139.52(4) . 2_546
Ge4 Zn1 Dy1 63.14(2) 4_565 2_546
Dy2 Zn1 Dy1 128.21(4) 4_565 2_546
Dy2 Zn1 Dy1 77.485(17) . 2_546
Ge6 Zn1 Dy1 64.05(3) . 3_566
Ge10 Zn1 Dy1 64.79(3) 1_455 3_566
Ge5 Zn1 Dy1 137.68(2) . 3_566
Ge4 Zn1 Dy1 63.14(2) . 3_566
Ge4 Zn1 Dy1 139.52(5) 4_565 3_566
Dy2 Zn1 Dy1 77.485(17) 4_565 3_566
Dy2 Zn1 Dy1 128.21(4) . 3_566
Dy1 Zn1 Dy1 80.81(3) 2_546 3_566
Ge2 Zn2 Ge8 136.1(3) . .
Ge2 Zn2 Ge3 110.8(3) . .
Ge8 Zn2 Ge3 113.0(3) . .
Ge2 Zn2 Ge9 81.90(16) . 2_656
Ge8 Zn2 Ge9 81.96(16) . 2_656
Ge3 Zn2 Ge9 112.07(14) . 2_656
Ge2 Zn2 Ge9 81.90(16) . 3_656
Ge8 Zn2 Ge9 81.96(16) . 3_656
Ge3 Zn2 Ge9 112.07(14) . 3_656
Ge9 Zn2 Ge9 135.8(3) 2_656 3_656
Ge2 Zn2 Dy1 137.94(10) . .
Ge8 Zn2 Dy1 65.16(13) . .
Ge3 Zn2 Dy1 65.19(12) . .
Ge9 Zn2 Dy1 63.97(8) 2_656 .
Ge9 Zn2 Dy1 139.8(2) 3_656 .
Ge2 Zn2 Dy1 137.94(10) . 4_565
Ge8 Zn2 Dy1 65.16(13) . 4_565
Ge3 Zn2 Dy1 65.20(12) . 4_565
Ge9 Zn2 Dy1 139.8(2) 2_656 4_565
Ge9 Zn2 Dy1 63.97(8) 3_656 4_565
Dy1 Zn2 Dy1 80.93(14) . 4_565
Ge2 Zn2 Dy2 65.28(13) . 2_656
Ge8 Zn2 Dy2 137.75(10) . 2_656
Ge3 Zn2 Dy2 63.70(13) . 2_656
Ge9 Zn2 Dy2 63.78(8) 2_656 2_656
Ge9 Zn2 Dy2 139.9(2) 3_656 2_656
Dy1 Zn2 Dy2 77.44(7) . 2_656
Dy1 Zn2 Dy2 128.89(19) 4_565 2_656
Ge2 Zn2 Dy2 65.28(13) . 3_656
Ge8 Zn2 Dy2 137.75(10) . 3_656
Ge3 Zn2 Dy2 63.70(13) . 3_656
Ge9 Zn2 Dy2 139.9(2) 2_656 3_656
Ge9 Zn2 Dy2 63.78(8) 3_656 3_656
Dy1 Zn2 Dy2 128.89(19) . 3_656
Dy1 Zn2 Dy2 77.44(7) 4_565 3_656
Dy2 Zn2 Dy2 81.28(15) 2_656 3_656
loop_
_geom_bond_atom_site_label_1
_geom_bond_atom_site_label_2
_geom_bond_distance
_geom_bond_site_symmetry_2
Dy1 Ge7 2.9804(7) 3_666
Dy1 Ge9 2.9981(8) 2_656
Dy1 Ge1 3.0060(7) 1_455
Dy1 Ge8 3.0225(8) .
Dy1 Ge3 3.0260(7) .
Dy1 Ge4 3.0452(7) 3_566
Dy1 Ge6 3.0463(7) 3_566
Dy1 Ge10 3.0986(8) 3_666
Dy1 Ge6 3.1180(8) .
Dy1 Zn2 3.179(5) .
Dy1 Zn1 3.1798(10) 3_566
Dy1 Ge1 3.3031(8) 3_666
Dy2 Ge1 2.9609(7) 3_656
Dy2 Ge3 2.9779(7) 3_656
Dy2 Ge7 2.9861(7) .
Dy2 Ge9 2.9988(8) .
Dy2 Ge2 3.0349(8) 3_656
Dy2 Ge6 3.0484(7) .
Dy2 Ge4 3.0539(7) 4_565
Dy2 Ge5 3.0917(8) .
Dy2 Zn1 3.1767(9) .
Dy2 Zn2 3.190(5) 3_656
Dy2 Ge3 3.2435(8) .
Dy2 Ge7 3.2824(8) 3_656
Ge1 Ge6 2.5286(13) 1_655
Ge1 Ge7 2.6003(13) .
Ge1 Dy2 2.9609(7) 3_656
Ge1 Dy2 2.9609(7) 2_656
Ge1 Dy1 3.0061(7) 1_655
Ge1 Dy1 3.0061(7) 4_665
Ge1 Dy1 3.3031(8) 2_646
Ge1 Dy1 3.3031(8) 3_666
Ge2 Zn2 2.237(6) .
Ge2 Ge10 2.4927(14) 1_556
Ge2 Ge4 2.5851(12) 3_666
Ge2 Ge4 2.5851(11) 2_646
Ge2 Dy2 3.0349(8) 3_656
Ge2 Dy2 3.0349(8) 2_656
Ge3 Zn2 2.245(6) .
Ge3 Ge6 2.5153(14) .
Ge3 Ge7 2.5768(14) .
Ge3 Dy2 2.9779(7) 2_656
Ge3 Dy2 2.9779(7) 3_656
Ge3 Dy1 3.0260(7) 4_565
Ge3 Dy2 3.2435(8) 4_565
Ge4 Ge4 2.4593(13) 3_565
Ge4 Zn1 2.5445(9) .
Ge4 Ge8 2.5830(11) 3_566
Ge4 Ge2 2.5851(11) 3_666
Ge4 Dy1 3.0452(7) 3_566
Ge4 Dy2 3.0539(7) 4_565
Ge5 Ge8 2.4921(15) 1_554
Ge5 Zn1 2.5058(17) .
Ge5 Ge9 2.5784(11) 4_565
Ge5 Ge9 2.5785(10) .
Ge5 Dy2 3.0917(8) 4_565
Ge6 Zn1 2.4424(15) .
Ge6 Ge1 2.5286(13) 1_455
Ge6 Dy1 3.0463(7) 2_546
Ge6 Dy1 3.0463(7) 3_566
Ge6 Dy2 3.0484(7) 4_565
Ge6 Dy1 3.1180(8) 4_565
Ge7 Dy1 2.9804(7) 3_666
Ge7 Dy1 2.9804(7) 2_646
Ge7 Dy2 2.9861(7) 4_565
Ge7 Dy2 3.2825(8) 2_656
Ge7 Dy2 3.2825(8) 3_656
Ge8 Zn2 2.238(6) .
Ge8 Ge5 2.4921(15) 1_556
Ge8 Ge4 2.5830(11) 2_546
Ge8 Ge4 2.5830(11) 3_566
Ge8 Dy1 3.0225(8) 4_565
Ge9 Zn2 2.306(2) 3_656
Ge9 Ge9 2.4765(14) 3_655
Ge9 Ge10 2.5788(10) .
Ge9 Dy1 2.9981(8) 2_646
Ge10 Ge2 2.4927(14) 1_554
Ge10 Zn1 2.5052(16) 1_655
Ge10 Ge9 2.5788(10) 4_565
Ge10 Dy1 3.0985(8) 3_666
Ge10 Dy1 3.0985(8) 2_646
Zn1 Ge10 2.5051(16) 1_455
Zn1 Ge4 2.5445(9) 4_565
Zn1 Dy2 3.1767(9) 4_565
Zn1 Dy1 3.1797(10) 2_546
Zn1 Dy1 3.1797(10) 3_566
Zn2 Ge9 2.306(2) 2_656
Zn2 Ge9 2.306(2) 3_656
Zn2 Dy1 3.179(5) 4_565
Zn2 Dy2 3.190(5) 2_656
Zn2 Dy2 3.190(5) 3_656
