#------------------------------------------------------------------------------
#$Date: 2016-03-24 00:12:42 +0200 (Thu, 24 Mar 2016) $
#$Revision: 179527 $
#$URL: svn://www.crystallography.net/cod/cif/4/34/24/4342466.cif $
#------------------------------------------------------------------------------
#
# This file is available in the Crystallography Open Database (COD),
# http://www.crystallography.net/
#
# All data on this site have been placed in the public domain by the
# contributors.
#
data_4342466
loop_
_publ_author_name
'Mesbah, Adel'
'Prakash, Jai'
'Beard, Jessica C.'
'Pozzi, Eric A.'
'Tarasenko, Mariya S.'
'Leb\`egue, S\'ebastien'
'Malliakas, Christos D.'
'Van Duyne, Richard P.'
'Ibers, James A.'
_publ_section_title
;
 Positional Flexibility: Syntheses and Characterization of Six Uranium
 Chalcogenides Related to the 2H Hexagonal Perovskite Family.
;
_journal_issue                   6
_journal_name_full               'Inorganic chemistry'
_journal_page_first              2851
_journal_page_last               2857
_journal_paper_doi               10.1021/ic5029806
_journal_volume                  54
_journal_year                    2015
_chemical_formula_sum            'Ba3 Mn Se6 U'
_chemical_formula_weight         1178.75
_space_group_crystal_system      trigonal
_space_group_IT_number           167
_space_group_name_Hall           '-R 3 2"c'
_space_group_name_H-M_alt        'R -3 c :H'
_symmetry_space_group_name_Hall  '-R 3 2"c'
_symmetry_space_group_name_H-M   'R -3 c :H'
_audit_creation_method           SHELXL-2014/6
_cell_angle_alpha                90
_cell_angle_beta                 90
_cell_angle_gamma                120
_cell_formula_units_Z            6
_cell_length_a                   12.4561(2)
_cell_length_b                   12.4561(2)
_cell_length_c                   14.1354(3)
_cell_measurement_reflns_used    1986
_cell_measurement_temperature    100(2)
_cell_measurement_theta_max      60.072
_cell_measurement_theta_min      9.508
_cell_volume                     1899.34(6)
_computing_structure_refinement  'SHELXL-2014/6 (Sheldrick, 2014)'
_diffrn_ambient_temperature      100(2)
_diffrn_measured_fraction_theta_full 0.995
_diffrn_measured_fraction_theta_max 0.995
_diffrn_radiation_type           MoK\a
_diffrn_radiation_wavelength     0.71073
_diffrn_reflns_av_R_equivalents  0.0260
_diffrn_reflns_av_unetI/netI     0.0186
_diffrn_reflns_Laue_measured_fraction_full 0.995
_diffrn_reflns_Laue_measured_fraction_max 0.995
_diffrn_reflns_limit_h_max       13
_diffrn_reflns_limit_h_min       -17
_diffrn_reflns_limit_k_max       17
_diffrn_reflns_limit_k_min       -10
_diffrn_reflns_limit_l_max       19
_diffrn_reflns_limit_l_min       -19
_diffrn_reflns_number            3780
_diffrn_reflns_point_group_measured_fraction_full 0.995
_diffrn_reflns_point_group_measured_fraction_max 0.995
_diffrn_reflns_theta_full        25.242
_diffrn_reflns_theta_max         30.076
_diffrn_reflns_theta_min         4.754
_exptl_absorpt_coefficient_mu    40.097
_exptl_absorpt_correction_T_max  0.49072
_exptl_absorpt_correction_T_min  0.27608
_exptl_absorpt_correction_type   numerical
_exptl_absorpt_process_details   'face indexed (SADABS; Sheldrick, 2008)'
_exptl_crystal_colour            black
_exptl_crystal_density_diffrn    6.183
_exptl_crystal_description       plate
_exptl_crystal_F_000             2934
_exptl_crystal_size_max          0.069
_exptl_crystal_size_mid          0.048
_exptl_crystal_size_min          0.028
_refine_diff_density_max         1.062
_refine_diff_density_min         -0.853
_refine_diff_density_rms         0.204
_refine_ls_extinction_coef       0.000242(13)
_refine_ls_extinction_expression Fc^*^=kFc[1+0.001xFc^2^\l^3^/sin(2\q)]^-1/4^
_refine_ls_extinction_method     SHELXL
_refine_ls_goodness_of_fit_ref   1.165
_refine_ls_hydrogen_treatment    undef
_refine_ls_matrix_type           full
_refine_ls_number_parameters     20
_refine_ls_number_reflns         625
_refine_ls_number_restraints     0
_refine_ls_restrained_S_all      1.165
_refine_ls_R_factor_all          0.0177
_refine_ls_R_factor_gt           0.0148
_refine_ls_shift/su_max          0.000
_refine_ls_shift/su_mean         0.000
_refine_ls_structure_factor_coef Fsqd
_refine_ls_weighting_details
'w=1/[\s^2^(Fo^2^)+(0.0116P)^2^] where P=(1.0000Fo^2^+0.0000Fc^2^)'
_refine_ls_weighting_scheme      calc
_refine_ls_wR_factor_gt          0.0289
_refine_ls_wR_factor_ref         0.0296
_reflns_Friedel_coverage         0.000
_reflns_number_gt                581
_reflns_number_total             625
_reflns_threshold_expression     'I > 2\s(I)'
_cod_data_source_file            ic5029806_si_001.cif
_cod_data_source_block           Ba3MnUSe6
_cod_depositor_comments
'Adding full bibliography for 4342464--4342469.cif.'
_cod_original_cell_volume        1899.34(7)
_cod_database_code               4342466
#BEGIN Tags that were not found in dictionaries:
_shelx_space_group_comment
;
The symmetry employed for this shelxl refinement is uniquely defined
by the following loop, which should always be used as a source of
symmetry information in preference to the above space-group names.
They are only intended as comments.
;
_shelx_estimated_absorpt_t_min   0.168
_shelx_estimated_absorpt_t_max   0.400
_shelxl_version_number           2014/6
_shelx_res_file
;
TITL f in R-3c
CELL 0.71073  12.4561  12.4561  14.1354  90.000  90.000 120.000
ZERR    6.00   0.0002   0.0002   0.0003   0.000   0.000   0.000
LATT  3
SYMM -Y, X-Y, Z
SYMM -X+Y, -X, Z
SYMM Y, X, 0.5-Z
SYMM X-Y, -Y, 0.5-Z
SYMM -X, -X+Y, 0.5-Z
SFAC MN SE BA U
UNIT 6 36 18 6
TEMP -173.150
SIZE 0.028 0.048 0.069
omit -1 2 0
omit 0 1 2
acta
L.S. 4
BOND
FMAP 2
PLAN 20
WGHT    0.011600    0.000000    0.000000    0.000000    0.000000    1.000000
EXTI    0.000242
FVAR       0.08269
U1    4    0.000000    0.000000    0.250000    10.16667    0.00492    0.00492 =
         0.00537    0.00000    0.00000    0.00246
BA1   3    0.050836    0.333333    0.083333    10.50000    0.00466    0.00512 =
         0.00631   -0.00045   -0.00023    0.00256
MN1   1    0.000000    0.000000    0.000000    10.16667    0.00569    0.00569 =
         0.00524    0.00000    0.00000    0.00285
SE1   2    0.184764    0.156519    0.118264    11.00000    0.00484    0.00502 =
         0.00612   -0.00021    0.00013    0.00186
HKLF 4

REM  f in R-3c
REM R1 =  0.0148 for     581 Fo > 4sig(Fo)  and  0.0177 for all     625 data
REM     20 parameters refined using      0 restraints

END

WGHT      0.0116      8.0584

REM Highest difference peak  1.062,  deepest hole -0.853,  1-sigma level  0.204
Q1    1   0.0000  0.0000  0.1879  10.33333  0.05    1.06
Q2    1   0.0328  0.3168  0.1333  11.00000  0.05    0.97
Q3    1   0.0018  0.3333  0.0833  10.50000  0.05    0.92
Q4    1   0.0460  0.3273 -0.0349  11.00000  0.05    0.82
Q5    1   0.2060  0.1888  0.0646  11.00000  0.05    0.71
Q6    1   0.3162  0.2280  0.0790  11.00000  0.05    0.70
Q7    1   0.1655  0.1476  0.0657  11.00000  0.05    0.65
Q8    1   0.0594  0.2722  0.1602  11.00000  0.05    0.64
Q9    1   0.0000  0.0803  0.2500  10.50000  0.05    0.62
Q10   1   0.0000  0.0000  0.1289  10.33333  0.05    0.60
Q11   1   0.0831  0.1131  0.1356  11.00000  0.05    0.58
Q12   1   0.2980  0.1350  0.1664  11.00000  0.05    0.57
Q13   1   0.2002  0.1956  0.1596  11.00000  0.05    0.57
Q14   1   0.1597  0.1453  0.1718  11.00000  0.05    0.54
Q15   1   0.2667  0.2328  0.1027  11.00000  0.05    0.54
Q16   1   0.2636  0.1793  0.0304  11.00000  0.05    0.54
Q17   1   0.1363  0.0840  0.0983  11.00000  0.05    0.54
Q18   1  -0.0614 -0.0003  0.0807  11.00000  0.05    0.53
Q19   1   0.3331  0.2866  0.1309  11.00000  0.05    0.53
Q20   1  -0.0215  0.0814  0.0706  11.00000  0.05    0.52
;
_shelx_res_checksum              65886
_shelx_hkl_file
;
   1   1   0 4.61313 2.00877   2
  -1   2   0 -0.4463  1.3769   2
  -3   3   0 4083.01   89.31   4
   0   3   0 4123.09   87.32   2
   3   0   0 4035.62   87.12   2
  -4   2   0 122.334   7.161   4
   2   2   0 113.317   6.842   2
  -2   4   0 124.212   5.480   2
  -2   4   0 119.614   6.516   4
   4  -2   0 107.081   5.369   2
   1   4   0 1441.18   35.21   2
  -5   1   0 1405.73   34.37   4
   4   1   0 1413.36   35.00   2
  -5   4   0 1417.95   35.92   4
  -4   5   0 1437.40   35.78   4
   5  -1   0 1357.99   33.76   2
  -1   5   0 1445.45   34.41   2
  -1   5   0 1479.40   33.36   4
   3   3   0 2105.00   50.13   2
  -6   3   0 2072.83   50.34   4
   3   3   0 2121.70   48.35   1
  -3   6   0 2122.75   49.51   4
   6  -3   0 2097.33   46.61   2
  -6   0   0 7832.68  170.14   4
  -6   6   0 7979.39  173.76   4
   0   6   0 8102.97  169.79   2
   6   0   0 7741.14  169.06   2
   0   6   0 7987.54  166.74   1
   5   2   0 3487.40   74.84   1
   5   2   0 3426.50   77.99   2
   2   5   0 3362.63   78.00   2
  -7   2   0 3293.84   77.56   4
   2   5   0 3330.77   76.01   1
  -7   5   0 3322.22   79.26   4
  -2   7   0 3488.63   76.17   2
   7  -2   0 3396.91   75.42   2
  -5   7   0 3360.94   78.78   4
  -2   7   0 3354.19   75.44   1
   7  -5   0 3373.35   71.79   2
  -5   7   0 3418.48   73.34   2
  -2   7   0 3541.85   76.39   4
   4   4   0 43.7877  6.8925   1
  -8   4   0 45.0989  7.2940   4
   4   4   0 55.8289  7.5557   2
  -4   8   0 38.8784  5.4622   2
   8  -4   0 40.5247  5.0977   2
  -4   8   0 47.2056  6.7485   4
  -4   8   0 57.0882  6.9093   1
   1   7   0 636.453  21.451   1
   7   1   0 630.481  19.217   1
  -8   7   0 641.339  23.085   4
   7   1   0 652.078  21.969   2
   1   7   0 622.738  21.797   2
  -7   8   0 581.875  22.223   4
   8  -1   0 630.787  20.789   2
  -1   8   0 656.110  21.498   2
  -1   8   0 634.887  21.703   1
  -9   6   0 38.1905  7.4962   4
   6   3   0 50.0600  7.0476   1
   3   6   0 52.4803  8.2013   2
  -9   3   0 50.1424  7.5005   4
   6   3   0 58.8963  8.5878   2
   3   6   0 54.0178  8.1069   1
  -6   9   0 50.8856  6.4144   1
   9  -3   0 49.7110  6.8156   2
  -6   9   0 41.8418  7.6013   4
  -3   9   0 55.2563  7.5269   1
  -3   9   0 51.6251  6.9201   2
  -9   9   0 94.0697 10.9149   4
   0   9   0 109.651  10.908   2
   0   9   0 101.103  10.723   1
   9   0   0 103.552  10.330   2
 -10   5   0 4263.74  101.06   4
   5   5   0 4279.32  100.32   2
   5   5   0 4196.25   96.64   1
  -5  10   0 4329.31   95.54   1
  -5  10   0 4385.26   99.59   4
   2   8   0 1829.12   49.61   2
   8   2   0 1789.83   45.35   1
   8   2   0 1868.02   49.43   2
   2   8   0 1799.37   48.45   1
 -10   8   0 1798.13   50.91   4
  -2  10   0 1816.58   47.49   2
  10  -2   0 1845.38   46.75   2
  -2  10   0 1758.26   47.75   1
  -8  10   0 1860.98   50.58   4
 -11   7   0 614.604  24.563   4
   4   7   0 593.824  24.055   2
   7   4   0 602.093  24.070   2
   4   7   0 587.674  23.190   1
   7   4   0 639.789  22.545   1
  -7  11   0 621.908  23.982   4
  -4  11   0 656.053  23.473   1
   1  10   0 879.702  31.267   1
  10   1   0 898.340  30.949   2
 -11  10   0 891.009  32.879   4
   1  10   0 883.567  31.273   2
  -1  11   0 888.508  30.874   1
 -10  11   0 882.556  32.533   4
  11  -1   0 913.078  30.109   2
  -1  11   0 878.568  30.541   2
   6   6   0 499.572  21.672   1
   6   6   0 453.605  21.957   2
  -6  12   0 501.860  20.164   1
   3   9   0 579.009  25.115   2
   9   3   0 596.587  25.290   2
   3   9   0 604.349  25.115   1
 -12   9   0 558.380  25.565   4
  -3  12   0 616.060  24.506   1
  12   0   0 543.698  23.564   2
   0  12   0 498.471  24.266   1
   0  12   0 469.690  23.165   2
   5   8   0 3471.30   90.64   2
   8   5   0 3570.69   86.26   1
   8   5   0 3611.43   91.13   2
   5   8   0 3584.03   88.36   1
  -5  13   0 3908.78   87.92   1
   2  11   0 2123.06   60.56   1
   2  11   0 2119.92   61.38   2
  11   2   0 2246.86   61.19   2
  -2  13   0 2172.10   60.03   1
   7   7   0 88.6591 13.5101   2
   7   7   0 71.8214 11.5840   1
   4  10   0 1.52442 9.44989   2
   4  10   0 8.78865 9.81642   1
  10   4   0 13.2523 10.1144   2
  -4  14   0 5.26216 9.63050   1
   1  13   0 54.5081 12.6035   2
   1  13   0 74.2215 13.5315   1
  -1  14   0 65.3803 13.1863   1
   9   6   0 37.3332 10.4223   1
   6   9   0 60.7551 12.2287   1
  -6  15   0 47.3873 11.6703   1
   3  12   0 382.769  24.072   1
  -3  15   0 415.361  23.609   1
   0  15   0 241.582  22.543   1
   8   8   0 2593.95   70.28   1
   5  11   0 761.106  34.288   1
  -5  16   0 845.443  33.953   1
   2  14   0 539.758  29.452   1
  -2  16   0 546.747  29.122   1
   7  10   0 337.363  22.386   1
  -1   1   1 0.52895 1.73421   2
   0   1  -1 -3.3595  1.2192   2
   1  -1  -1 -1.6875  1.6721   2
  -2   2  -1 -0.9805  3.9250   2
   2   0  -1 -0.9858  2.3362   2
   1   2  -1 14.4135  3.6508   2
  -3   2   1 15.1044  4.3346   4
  -2   3   1 18.2021  4.0424   4
   3  -2  -1 18.0430  2.1273   2
  -1   3  -1 18.0766  3.4590   2
   0   4  -1 -2.0712  3.7291   2
   4   0   1 -5.3394  3.8995   2
  -4   4   1 -4.9581  4.1892   4
  -4   1   1 5328.61  114.28   4
   1   3   1 5333.97  112.95   2
  -4   3  -1 5358.69  115.28   4
   3   1  -1 5297.61  112.72   2
  -3   4  -1 5038.10  111.15   2
  -3   4  -1 5425.84  114.92   4
  -1   4   1 5261.14  111.71   2
   4  -1  -1 5238.03  111.30   2
   3   2   1 413.611  14.268   2
  -5   3   1 414.172  14.590   4
   2   3  -1 411.204  14.404   2
  -5   2  -1 425.270  14.245   4
  -5   5  -1 -5.2409  4.4778   4
   5   0  -1 -6.1590  3.9582   2
   0   5   1 0.98967 4.51120   1
  -5   0   1 -8.9877  3.3183   4
   0   5   1 -6.4972  4.2183   2
  -5   5  -1 -9.3547  3.5530   2
  -6   5   1 1662.65   43.21   4
   1   5  -1 1679.40   41.12   1
   5   1   1 1690.85   41.97   2
   1   5  -1 1718.25   42.07   2
  -5   6   1 1713.73   43.06   4
  -1   6  -1 1682.14   41.19   2
   6  -1   1 1676.03   40.82   2
  -1   6  -1 1693.60   40.54   1
  -6   4  -1 658.799  20.915   4
   4   2  -1 675.142  20.522   2
   2   4   1 678.376  20.175   1
  -6   2   1 694.532  20.598   4
   2   4   1 667.484  21.037   2
  -4   6  -1 686.593  20.545   4
  -2   6   1 687.193  18.969   2
   6  -2  -1 686.478  18.456   2
  -2   6   1 701.132  19.306   4
  -2   6   1 662.292  19.728   1
  -4   6  -1 703.850  18.510   2
   0   7  -1 -5.6768  4.7362   1
  -7   7   1 -1.5333  5.3162   4
   7   0   1 9.07295 5.24094   2
   0   7  -1 6.84727 5.43630   2
   4   3   1 56.4235  6.4914   1
   3   4  -1 63.5822  7.0428   1
  -7   4   1 74.1187  7.9540   4
   3   4  -1 67.2953  7.6576   2
   4   3   1 60.1220  7.4765   2
  -4   7   1 56.8698  4.9431   2
  -4   7   1 56.4973  6.8136   4
  -4   7   1 55.8011  6.2989   1
  -3   7  -1 46.0088  5.5639   2
  -3   7  -1 63.8245  6.5566   1
   7  -4  -1 57.8035  4.4144   2
   7  -3   1 60.2626  5.8770   2
   6   1  -1 3310.63   76.20   2
  -7   6  -1 3341.11   78.49   4
  -7   1   1 3310.04   75.72   4
   1   6   1 3323.69   76.72   2
   1   6   1 3348.06   75.52   1
   6   1  -1 3313.82   73.00   1
  -1   7   1 3394.33   75.69   2
   7  -1  -1 3279.33   74.83   2
  -1   7   1 3371.17   73.86   4
  -6   7  -1 3236.53   73.12   2
  -1   7   1 3349.55   75.31   1
  -6  -1   1 3303.58   73.65   4
  -6   7  -1 3304.42   77.97   4
   6   2   1 776.897  25.404   2
   2   6  -1 775.201  25.373   2
   2   6  -1 759.012  24.272   1
   6   2   1 797.959  22.792   1
  -8   6   1 793.344  25.868   4
  -2   8  -1 770.081  23.839   1
   8  -2   1 813.847  23.624   2
  -2   8  -1 804.017  23.930   2
  -6   8   1 792.398  21.929   1
  -6   8   1 802.156  25.309   4
   5   3  -1 64.2318  7.7054   1
  -8   3   1 72.3212  7.9829   4
   3   5   1 68.7547  8.0268   1
   3   5   1 45.1275  7.2961   2
  -8   5  -1 66.7997  7.9950   4
   5   3  -1 54.0371  7.4541   2
   8  -3  -1 68.9793  6.3308   2
  -3   8   1 72.9004  7.3422   4
  -3   8   1 64.2519  6.5335   2
  -3   8   1 58.8238  7.5327   1
  -5   8  -1 66.6192  6.7682   2
  -5   8  -1 76.8845  7.0545   1
   8   0  -1 5.90079 4.62244   1
   8   0  -1 1.99874 5.38990   2
  -8   8  -1 3.46257 5.44270   4
   0   8   1 1.87007 5.28656   2
   0   8   1 3.52278 5.63882   1
  -8   0   1 3.45121 4.30388   4
   8   1   1 406.486  18.187   2
   1   8  -1 436.093  18.634   2
   8   1   1 400.261  15.276   1
  -9   8   1 408.745  18.639   4
   1   8  -1 395.289  17.723   1
   9  -1   1 410.255  17.528   2
  -8   9   1 406.791  18.869   4
  -1   9  -1 428.921  18.075   1
  -1   9  -1 402.763  17.397   2
   4   5  -1 373.830  16.658   2
   5   4   1 335.366  14.847   1
  -9   5   1 382.644  16.609   4
   5   4   1 348.850  16.926   2
   4   5  -1 379.012  15.884   1
   9  -4   1 361.952  13.662   2
  -4   9  -1 379.594  14.719   2
  -5   9   1 369.161  14.913   1
  -5   9   1 398.521  16.357   4
  -4   9  -1 389.140  15.312   1
   2   7   1 608.952  22.566   2
   2   7   1 579.996  21.881   1
  -9   7  -1 625.908  23.356   4
   7   2  -1 573.891  19.674   1
  -9   2   1 632.213  21.006   4
   7   2  -1 595.398  21.925   2
  -2   9   1 603.255  21.318   1
   9  -2  -1 614.096  20.117   2
  -2   9   1 599.590  20.658   2
  10   0   1 -3.1090  6.5781   2
   0  10  -1 0.69276 6.99205   1
   0  10  -1 1.08698 6.68993   2
 -10  10   1 3.58908 7.99440   4
   3   7  -1 1841.02   50.01   1
   3   7  -1 1903.14   51.57   2
   7   3   1 1917.86   48.15   1
   7   3   1 1972.07   52.16   2
 -10   7   1 1975.37   53.41   4
  -3  10  -1 1860.11   49.16   1
  -3  10  -1 1961.95   49.24   2
  10  -3   1 1966.80   48.50   2
  -7  10   1 2028.57   52.60   4
   4   6   1 344.171  16.243   1
   6   4  -1 320.432  15.267   1
 -10   4   1 355.162  16.735   4
   6   4  -1 336.854  16.537   2
   4   6   1 318.001  16.853   2
  -4  10   1 362.665  15.492   4
  -6  10  -1 364.487  14.549   1
  -4  10   1 334.121  16.069   1
   1   9   1 1361.62   40.59   2
   9   1  -1 1359.61   39.69   2
   1   9   1 1408.07   40.72   1
  -1  10   1 1383.29   39.51   2
  10  -1  -1 1420.56   39.00   2
  -1  10   1 1404.05   40.67   1
   2   9  -1 752.175  28.748   2
   2   9  -1 807.601  28.532   1
   9   2   1 781.776  28.729   2
 -11   9   1 778.586  29.919   4
  11  -2   1 779.633  26.378   2
  -2  11  -1 766.656  27.050   2
  -9  11   1 767.133  28.843   4
  -2  11  -1 776.277  27.549   1
   6   5   1 158.437  14.017   2
   5   6  -1 192.389  14.206   2
   6   5   1 161.937  12.944   1
   5   6  -1 181.748  13.069   1
 -11   6   1 162.537  14.057   4
  -5  11  -1 154.233  11.474   1
  -6  11   1 179.061  11.705   1
  -6  11   1 181.389  12.748   4
   3   8   1 -3.9353  6.7171   1
   8   3  -1 -6.3312  5.8836   2
 -11   3   1 2.49983 6.67150   4
   3   8   1 5.91054 7.20688   2
   8   3  -1 9.43097 6.29979   1
  -3  11   1 5.95609 7.45388   1
   0  11   1 -0.3979  7.7773   1
   0  11   1 -2.2281  7.4824   2
  11   0  -1 -5.5304  6.9499   2
   1  11  -1 9.38541 8.67251   1
 -12  11   1 3.15665 9.12357   4
   1  11  -1 12.2561  8.2701   2
  11   1   1 7.01945 8.41835   2
  12  -1   1 9.49291 8.42777   2
  -1  12  -1 8.96808 8.49435   2
  -1  12  -1 1.74306 8.51970   1
 -11  12   1 16.0968  9.4495   4
   4   8  -1 857.781  30.641   1
   4   8  -1 854.083  31.850   2
   8   4   1 919.922  29.164   1
 -12   8   1 913.410  32.422   4
   8   4   1 870.359  31.722   2
  -4  12  -1 862.802  29.411   1
  -8  12   1 874.884  31.223   4
   5   7   1 1033.93   33.11   1
 -12   5   1 1045.91   34.12   4
   7   5  -1 985.714  34.230   2
   7   5  -1 1017.30   32.02   1
   5   7   1 972.773  33.929   2
  -5  12   1 1000.36   32.21   1
  10   2  -1 -3.2454  7.7343   2
   2  10   1 19.2832  9.3126   1
   2  10   1 18.1490  9.0007   2
  -2  12   1 7.63907 8.06007   1
   0  13  -1 -9.1403  8.5468   2
   0  13  -1 0.34527 9.66788   1
 -13  10   1 591.818  27.693   4
   3  10  -1 601.575  27.049   2
   3  10  -1 577.127  26.413   1
  10   3   1 614.661  27.125   2
  -3  13  -1 597.922  25.651   1
 -10  13   1 621.154  27.237   4
 -13   7   1 5.87605 8.48242   4
   7   6   1 12.5383  7.9422   1
   6   7  -1 11.9517  8.8802   2
   6   7  -1 0.90462 7.56444   1
   7   6   1 8.40114 8.81972   2
  -6  13  -1 7.16081 7.71298   1
   9   4  -1 62.7001 10.0940   1
   4   9   1 46.1520 10.9178   2
   4   9   1 62.0841 11.1928   1
   9   4  -1 63.1539 11.4408   2
  -4  13   1 44.5695 10.1510   1
  12   1  -1 19.2845  9.5890   2
   1  12   1 20.1685 10.2166   2
   1  12   1 8.67153 9.26348   1
  -1  13   1 8.24695 9.48743   1
   2  12  -1 1725.33   53.44   1
   2  12  -1 1745.64   53.76   2
  12   2   1 1708.41   52.66   2
  -2  14  -1 1712.33   52.37   1
   9   5   1 95.3747 13.7823   2
   5   9  -1 123.989  15.161   2
   9   5   1 134.234  13.654   1
   5   9  -1 120.248  14.601   1
 -14   9   1 84.3402 13.6095   4
  -5  14  -1 117.362  13.851   1
   6   8   1 30.5066  9.8445   1
   8   6  -1 25.9619 10.2453   2
   8   6  -1 24.2995  9.1541   1
   6   8   1 34.9444 10.0427   2
  -6  14   1 25.8487  9.9093   1
   3  11   1 355.639  21.829   1
  11   3  -1 347.510  21.008   2
   3  11   1 350.161  21.670   2
  -3  14   1 324.191  20.473   1
   0  14   1 18.7908 11.4676   1
   1  14  -1 602.667  29.914   1
  -1  15  -1 603.130  29.771   1
   4  11  -1 915.417  35.571   1
  -4  15  -1 870.418  34.022   1
   7   8  -1 16.5312  9.6445   1
   8   7   1 4.56937 9.46532   1
   5  10   1 52.3787 12.5565   1
  -5  15   1 52.5200 12.6419   1
   2  13   1 110.351  16.380   1
  -2  15   1 103.681  15.346   1
   3  13  -1 348.779  23.750   1
  -3  16  -1 356.188  24.167   1
   6  10  -1 15.0668 10.6058   1
   7   9   1 18.6893 11.7199   1
   9   7  -1 27.8737 11.4715   1
   4  12   1 363.176  24.190   1
  -4  16   1 362.533  22.953   1
   5  12  -1 38.6225 13.7628   1
  -5  17  -1 36.5786 12.7188   1
   8   9  -1 38.4349 12.1820   1
   9   8   1 27.3238 11.5337   1
   6  11   1 875.813  36.965   1
  -6  17   1 939.195  36.830   1
   1   0  -2 -5.9794  2.2802   2
  -1   1  -2 -7.9443  4.2329   2
   0  -1  -2 -4.3925  2.7798   2
   2  -2  -2 1441.24   33.35   2
   0   2  -2 1545.43   34.19   2
  -3   2  -2 1570.07   36.23   2
   2   1  -2 1556.99   35.94   2
  -2   3  -2 1582.82   36.07   2
   3  -1  -2 1531.47   34.56   2
  -4   3   2 424.062  14.382   4
   1   3  -2 444.268  14.387   2
   4  -3  -2 427.785  10.571   2
  -3   4   2 449.348  14.580   4
  -3  -1  -2 404.314  14.098   3
   0   4   2 738.466  20.504   2
  -4   0   2 744.396  19.812   4
   4   0  -2 731.931  20.068   2
   0   5  -2 4442.10   97.12   2
  -5   5   2 4430.54   99.66   4
   0   5  -2 4333.83   94.96   1
   2   3   2 3664.39   80.67   2
   3   2  -2 3637.40   80.30   2
  -5   2   2 3646.63   81.48   4
   5  -2  -2 3592.97   77.53   2
  -2   5   2 3708.95   78.11   2
  -3   5  -2 3461.66   78.67   2
  -2   5   2 3667.35   80.74   4
   2   4  -2 34.2719  6.0719   2
   2   4  -2 38.8007  6.2468   1
  -6   4   2 41.7291  6.5626   4
   4   2   2 39.6355  6.5329   2
  -4   6   2 44.5885  6.4982   4
  -2   6  -2 36.1935  5.6023   1
  -4   6   2 42.9398  3.5629   2
   6  -4  -2 41.2269  3.2517   2
  -2   6  -2 38.5983  5.4629   2
   1   5   2 64.6942  7.2275   2
   5   1  -2 46.9438  6.3863   2
   1   5   2 65.6095  7.2520   1
  -6   1   2 58.2722  6.2725   4
  -1   6   2 61.5307  6.5964   2
  -5  -1   2 58.2448  5.3316   4
  -1   6   2 60.9603  6.9970   1
  -1   6   2 52.3679  5.5098   4
  -5   6  -2 54.2172  8.1347   2
   6  -1  -2 46.6404  5.7964   2
   1   6  -2 9.65398 4.69814   1
  -7   6   2 17.4223  6.0303   4
   1   6  -2 16.0628  5.8771   2
   6   1   2 14.5338  5.7938   2
   7  -1   2 -3.3165  4.9313   2
  -1   7  -2 10.1346  5.2578   2
  -1   7  -2 4.37773 4.82517   1
  -6   7   2 13.9815  6.0404   4
   3   4   2 39.0145  6.2454   1
   4   3  -2 36.5272  5.8603   1
   3   4   2 31.5566  6.6404   2
   4   3  -2 25.6130  5.7131   2
  -7   3   2 37.7898  6.4852   4
   7  -3  -2 33.8885  4.4396   2
  -4   7  -2 24.5057  5.1246   2
  -3   7   2 31.7333  5.7581   4
  -3  -4  -2 30.8819  5.5221   3
  -3   7   2 32.5992  4.9427   2
  -3   7   2 30.7029  5.8620   1
   0   7   2 1179.17   32.54   2
   7   0  -2 1171.28   30.07   1
  -7   7  -2 1163.80   28.72   2
  -7   0   2 1178.49   30.60   4
   0   7   2 1106.64   32.27   1
   7   0  -2 1197.87   32.08   2
   0  -7  -2 1164.20   30.23   3
   8   0   2 906.741  28.089   2
   0   8  -2 902.314  28.279   2
   0   8  -2 850.762  27.370   1
  -8   8   2 878.573  29.302   4
   5   3   2 7407.04  161.56   2
  -8   5   2 7438.23  164.58   4
   3   5  -2 7551.04  157.96   1
   3   5  -2 7294.56  161.29   2
   5   3   2 7366.41  155.98   1
  -3   8  -2 7447.64  156.21   1
  -5   8   2 7297.14  163.37   4
  -3   8  -2 7300.01  158.75   2
   6   2  -2 94.2399  8.5108   1
  -8   2   2 110.034   9.284   4
   2   6   2 107.112   9.830   2
   6   2  -2 97.5764  9.6504   2
   2   6   2 102.370   9.713   1
  -6   8  -2 90.2106  9.6522   2
  -2  -6  -2 103.277   8.361   3
  -2   8   2 112.100   8.674   2
  -2   8   2 103.452   7.698   4
   8  -2  -2 114.497   8.122   2
  -2   8   2 105.527   9.539   1
   7   2   2 64.2743  8.6220   2
   7   2   2 66.8489  7.6334   1
  -9   7   2 65.4230  9.2097   4
   2   7  -2 75.6791  9.8160   2
   2   7  -2 82.8462  9.5262   1
  -7   9   2 61.6208  9.0895   4
  -2   9  -2 61.2964  8.1261   2
  -2   9  -2 63.2439  8.4250   1
  -7   9   2 81.1005  7.7808   1
   9  -2   2 66.5525  8.1327   2
   5   4  -2 201.451  11.846   1
   4   5   2 215.684  13.481   2
   4   5   2 193.203  12.018   1
   5   4  -2 192.494  12.562   2
  -9   4   2 215.869  12.859   4
  -4   9   2 216.380  12.380   1
  -5   9  -2 210.892  11.464   2
  -4   9   2 200.722  10.220   2
  -4   9   2 184.703  11.274   4
  -5   9  -2 206.230  10.729   1
  -9   1   2 1307.27   36.01   4
   8   1  -2 1340.05   37.78   2
   1   8   2 1313.42   38.00   1
   8   1  -2 1320.47   35.26   1
   1   8   2 1372.82   38.52   2
  -1   9   2 1287.32   38.12   1
  -1   9   2 1369.80   37.41   2
   9  -1  -2 1411.06   36.85   2
   9   1   2 599.250  23.847   2
   1   9  -2 588.101  23.671   2
 -10   9   2 586.319  24.398   4
   1   9  -2 570.625  23.150   1
  10  -1   2 613.804  23.057   2
  -1  10  -2 640.286  23.405   2
  -1  10  -2 563.473  22.491   1
  -9  10   2 520.390  23.254   4
   4   6  -2 888.468  29.791   2
 -10   6   2 956.388  30.676   4
   6   4   2 930.606  30.723   2
   6   4   2 884.261  27.260   1
   4   6  -2 887.823  28.681   1
  -6  10   2 905.010  27.027   1
  10  -4   2 924.081  26.460   2
  -6  10   2 861.394  28.923   4
  -4  10  -2 929.118  27.665   1
   7   3  -2 49.7865  8.7601   2
   7   3  -2 64.3613  8.8283   1
   3   7   2 45.1512  8.8875   2
 -10   3   2 54.6637  8.5440   4
   3   7   2 49.4884  8.8425   1
  -3  10   2 82.8843  9.8403   1
  -3  10   2 61.7160  8.0642   2
   0  10   2 4779.86  110.54   1
   0  10   2 4655.92  110.73   2
  10   0  -2 4908.77  110.36   2
  11   0   2 1346.13   40.93   2
   0  11  -2 1279.11   40.86   2
   0  11  -2 1312.11   40.84   1
 -11  11   2 1266.13   42.78   4
   3   8  -2 2430.08   65.14   2
   3   8  -2 2465.20   63.49   1
   8   3   2 2469.96   60.45   1
 -11   8   2 2480.26   66.42   4
   8   3   2 2520.10   65.52   2
  -3  11  -2 2532.76   62.40   1
  -8  11   2 2538.18   65.87   4
  -3  11  -2 2500.94   63.00   2
   6   5  -2 329.251  17.905   2
 -11   5   2 355.989  18.004   4
   5   6   2 330.244  18.167   2
   5   6   2 348.726  16.964   1
   6   5  -2 340.601  16.658   1
  -6  11  -2 330.964  15.185   1
  -5  11   2 313.715  15.773   4
  -5  11   2 347.422  17.062   1
   9   2  -2 35.9757  8.7221   2
   9   2  -2 33.8190  8.1159   1
   2   9   2 39.7007  9.4166   1
   2   9   2 31.0007  8.8842   2
  -2  11   2 32.8451  8.1342   2
  -2  11   2 35.4772  9.0128   1
   2  10  -2 641.269  27.305   1
 -12  10   2 686.430  28.989   4
  10   2   2 710.571  28.425   2
   2  10  -2 670.434  28.095   2
  -2  12  -2 716.652  27.546   1
  -2  12  -2 711.806  27.487   2
 -10  12   2 740.605  29.226   4
   5   7  -2 95.9885 11.8590   2
   7   5   2 107.512  11.359   1
 -12   7   2 86.4871 12.3152   4
   5   7  -2 102.416  11.980   1
   7   5   2 109.279  12.681   2
  -7  12   2 116.201  12.811   4
  -7  12   2 113.542  11.234   1
  -5  12  -2 123.347  12.074   1
 -12   4   2 5.63367 7.67077   4
   8   4  -2 10.8317  8.0589   2
   4   8   2 21.3059  8.8992   2
   4   8   2 7.79952 7.91942   1
   8   4  -2 16.9941  7.4093   1
  -4  12   2 8.87810 7.68619   1
  11   1  -2 345.734  19.252   2
   1  11   2 324.762  19.872   2
   1  11   2 313.536  19.312   1
  -1  12   2 323.599  19.595   1
  -1  12   2 311.314  19.133   2
   1  12  -2 309.017  20.170   2
   1  12  -2 354.617  21.022   1
  12   1   2 313.747  19.965   2
 -13  12   2 261.157  20.273   4
 -12  13   2 338.903  21.816   4
  -1  13  -2 277.203  19.521   1
  -1  13  -2 336.026  20.733   2
   4   9  -2 30.0983 10.1896   2
   9   4   2 27.6758 10.3493   2
 -13   9   2 28.4000  9.9713   4
   4   9  -2 17.9954  9.0412   1
  -4  13  -2 34.3899  9.5730   1
  -9  13   2 26.1004  9.7611   4
   6   7   2 809.227  31.463   2
   6   7   2 785.798  29.420   1
   7   6  -2 828.898  29.142   1
 -13   6   2 816.193  30.917   4
   7   6  -2 816.577  31.007   2
  -6  13   2 826.324  29.002   1
   3  10   2 900.582  33.935   2
   3  10   2 898.640  33.636   1
  10   3  -2 924.449  33.724   2
  -3  13   2 935.920  33.563   1
   0  13   2 2718.62   73.73   1
   0  14  -2 226.132  20.464   1
   3  11  -2 752.075  31.590   2
 -14  11   2 706.019  32.208   4
  11   3   2 755.133  31.604   2
   3  11  -2 749.654  30.951   1
 -11  14   2 715.585  31.446   4
  -3  14  -2 685.333  29.155   1
 -14   8   2 98.0581 14.0098   4
   6   8  -2 115.177  13.700   1
   8   6   2 88.5967 12.9090   1
   8   6   2 87.4979 13.5572   2
   6   8  -2 80.0216 13.1056   2
  -8  14   2 105.767  13.405   4
  -6  14  -2 95.6185 12.5516   1
 -14   5   2 872.860  33.175   4
   9   5  -2 910.598  32.185   1
   9   5  -2 877.256  34.561   2
   5   9   2 904.954  34.804   2
   5   9   2 931.985  34.065   1
  -5  14   2 930.791  33.174   1
  12   2  -2 115.049  14.870   2
   2  12   2 154.660  17.031   1
   2  12   2 126.687  15.757   2
  -2  14   2 127.930  15.551   1
   2  13  -2 530.986  27.291   1
  -2  15  -2 483.344  26.104   1
 -15  10   2 300.956  21.503   4
   5  10  -2 272.298  19.807   1
  -5  15  -2 311.704  20.359   1
 -15   7   2 1125.07   41.18   4
   8   7  -2 1127.22   38.90   1
   7   8   2 1292.02   40.78   1
   4  11   2  4.3255 10.0167   1
  -4  15   2 -5.4797  8.8325   1
   1  14   2 420.722  26.052   1
  -1  15   2 423.227  25.425   1
   4  12  -2 155.395  18.051   1
  -4  16  -2 213.031  20.064   1
   9   7   2 84.4981 14.2505   1
   7   9  -2 70.6578 13.4125   1
   6  10   2 1171.98   41.73   1
  -6  16   2 1167.69   41.13   1
   3  13   2 659.908  32.769   1
  -3  16   2 694.490  31.900   1
   6  11  -2 52.1898 13.0717   1
   9   8  -2 15.3405 11.6311   1
   8   9   2  8.2008 10.9817   1
   5  12   2 59.2404 14.7716   1
  -5  17   2 64.7247 14.7408   1
   0   0  -3 -14.062   4.919   2
   1  -2  -3 1213.35   28.82   2
   1   1  -3 1227.33   28.80   2
  -2   1  -3 1193.63   30.85   2
  -1   2  -3 1195.95   29.49   2
   2  -1  -3 1186.86   28.11   2
   0   3  -3 -4.1459  4.1681   2
   3  -3  -3 -3.2779  4.2498   2
  -3   0  -3 -1.1421  3.7673   3
  -3   3  -3 -2.4647  7.2779   2
   3   0  -3 -1.5613  3.6253   2
  -4   2  -3 6786.76  150.22   3
   2   2  -3 6833.27  144.38   2
  -2  -2  -3 7043.94  150.73   3
  -2   4  -3 6517.45  143.88   2
   4  -2  -3 6761.22  141.93   2
  -5   4   3 43.9744  6.8881   4
  -5   1  -3 34.4778  5.6844   3
   1   4  -3 32.0896  5.5671   1
   1   4  -3 40.7420  6.2117   2
  -4   5   3 49.4870  6.9414   4
  -1   5  -3 46.4772  6.1592   2
  -1   5  -3 41.1732  5.5365   1
   5  -4  -3 36.1364  4.2902   2
  -4  -1  -3 39.6470  6.0437   3
   1   4   3 392.150  14.411   1
  -5   1   3 407.562  14.904   4
   4   1  -3 422.886  14.589   2
  -5   4  -3 470.937  15.384   2
  -4   5  -3 400.835  16.626   2
  -1  -4  -3 400.827  14.271   3
  -1   5   3 405.529  13.698   2
  -1   5   3 393.327  14.243   1
   5  -1  -3 407.017  13.307   2
   0   6  -3 5.17640 4.82178   1
   0   6  -3 5.19332 5.05584   2
  -6   6   3 2.66609 4.73967   4
   3   3  -3 337.551  13.294   1
  -6   3   3 312.493  13.738   4
   3   3  -3 342.684  13.649   2
   3   3   3 331.344  12.859   1
   6  -3  -3 320.892  10.507   2
  -3   6  -3 343.179  12.877   2
  -3   6   3 339.871  13.389   4
  -3   6   3 335.553  13.211   1
  -3  -3  -3 352.247  13.512   3
  -3   6   3 338.137  11.006   2
  -6   6  -3 5.48452 6.04884   2
   6   0  -3 1.16211 4.15373   1
  -6   0   3 -2.9536  4.0278   4
   0   6   3 7.52055 4.97686   2
   6   0  -3 -1.7103  4.1616   2
   0   6   3 -4.0243  4.0846   1
   0  -6  -3 2.80136 4.57749   3
   2   5  -3 147.912   9.352   1
  -7   5   3 149.525  10.377   4
   2   5  -3 150.735  10.041   2
   5   2   3 159.478  10.377   2
   5   2   3 168.353   9.308   1
  -5   7   3 151.995  10.463   4
  -5   7   3 161.628   5.819   2
  -2   7  -3 152.619   9.411   1
  -5  -2  -3 140.319  10.053   3
  -2   7  -3 149.452   9.572   2
  -5   7   3 152.406   9.514   1
   5   2  -3 877.847  24.496   1
   5   2  -3 855.705  25.431   2
  -7   2   3 861.988  25.517   4
   2   5   3 803.756  25.597   2
   2   5   3 858.415  25.123   1
  -2   7   3 855.199  25.195   1
  -2   7   3 846.524  23.602   2
   7  -2  -3 811.667  22.845   2
  -5  -2   3 839.630  21.827   4
  -2   7   3 841.328  23.990   4
  -2  -5  -3 822.408  24.634   3
   7   1   3 480.514  16.107   1
   7   1   3 490.997  19.254   2
   1   7  -3 484.749  18.830   1
  -8   7   3 488.123  20.220   4
   1   7  -3 478.110  19.616   2
  -1   8  -3 490.670  18.620   1
   8  -1   3 485.604  18.716   2
  -7   8   3 463.471  19.782   4
  -7   8   3 462.591  16.399   1
  -1   8  -3 515.342  19.085   2
   4   4   3 115.816  10.371   2
   4   4   3 125.494  10.033   1
   4   4  -3 126.506  10.691   2
   4   4  -3 148.703  10.197   1
  -8   4   3 112.787  10.437   4
  -4   8  -3 143.891   9.141   1
   8  -4  -3 127.256   7.157   2
  -4   8  -3 126.586   9.243   2
  -4   8   3 139.689   7.565   2
  -4   8   3 136.330   9.715   1
  -4  -4  -3 132.123   9.938   3
  -4   8   3 123.429   9.458   4
   7   1  -3 62.9164  8.3395   2
   1   7   3 76.7990  8.9847   1
  -8   1   3 80.6835  8.2921   4
   7   1  -3 82.4088  8.2961   1
   1   7   3 76.0488  9.0771   2
   8  -1  -3 81.6463  7.8491   1
   8  -1  -3 87.1791  8.3464   2
  -1   8   3 70.8220  8.9383   1
  -1  -7  -3 64.0976  7.1669   3
  -1   8   3 79.2105  8.5789   2
   0   9  -3 -0.1305  6.4111   2
  -9   9   3 -2.1509  6.1722   4
   0   9  -3 0.44798 6.40549   1
   9   0   3 1.05607 6.11579   2
   6   3   3 494.708  18.333   1
   3   6  -3 501.154  19.560   1
  -9   6   3 514.174  21.208   4
   6   3   3 511.329  20.883   2
   3   6  -3 505.679  20.615   2
  -3   9  -3 518.884  19.044   2
  -6   9   3 535.079  20.519   4
  -3   9  -3 512.275  18.752   1
  -6   9   3 518.021  18.485   1
   3   6   3 264.184  14.903   2
  -9   3   3 283.909  14.436   4
   6   3  -3 288.572  15.216   2
   3   6   3 279.813  14.682   1
   6   3  -3 276.133  13.898   1
  -6   9  -3 294.286  12.059   1
  -3  -6  -3 261.463  13.284   3
   9  -3  -3 282.651  12.052   2
  -3   9   3 293.356  12.866   2
  -3   9   3 288.334  14.521   1
   0   9   3 -5.9746  6.3706   2
   0   9   3 7.57494 6.86595   1
   9   0  -3 2.84162 6.20279   2
   2   8  -3 90.6715 10.5172   1
   2   8  -3 77.0178 10.5871   2
 -10   8   3 74.8686 11.4083   4
   8   2   3 86.2927 10.5256   2
  -2  10  -3 75.9383 10.0997   1
  -2  10  -3 85.1384 10.2335   2
  10  -2   3 79.1761  9.3880   2
  -8  10   3 91.5186 11.4480   4
   5   5   3 90.4438 10.9640   2
   5   5  -3 107.716  11.430   2
   5   5  -3 114.626  10.930   1
 -10   5   3 102.645  11.471   4
   5   5   3 125.186  11.170   1
  -5  10  -3 122.847  10.201   1
  -5  10   3 115.114  10.875   4
  -5  10   3 98.8034 10.4413   1
  -5  10  -3 140.694  11.477   2
   8   2  -3 257.876  15.265   2
 -10   2   3 243.006  13.742   4
   8   2  -3 245.628  14.003   1
   2   8   3 239.953  15.224   2
   2   8   3 274.580  15.978   1
  10  -2  -3 269.966  13.789   2
  -2  10   3 252.560  15.235   1
  -2  10   3 224.518  13.722   2
  10   1   3 601.450  25.080   2
   1  10  -3 574.220  24.770   2
   1  10  -3 564.859  24.258   1
 -11  10   3 562.632  25.492   4
  -1  11  -3 608.291  24.858   2
  -1  11  -3 588.796  24.262   1
 -10  11   3 563.197  25.786   4
  11  -1   3 593.212  24.230   2
   7   4   3 487.561  22.455   2
 -11   7   3 474.160  21.764   4
   4   7  -3 486.926  21.603   2
   7   4   3 458.040  18.995   1
   4   7  -3 473.160  20.893   1
  -4  11  -3 508.726  20.204   2
  -7  11   3 489.781  19.437   1
  -7  11   3 527.315  21.926   4
  -4  11  -3 504.637  20.399   1
   7   4  -3 3793.61   89.92   1
   4   7   3 3926.52   94.54   2
   4   7   3 3968.03   91.68   1
 -11   4   3 3900.44   93.94   4
   7   4  -3 3808.85   93.35   2
  -4  11   3 3942.52   91.06   1
   1  10   3 6.90283 7.78889   2
   1  10   3 21.9126  8.8458   1
  10   1  -3 6.76073 7.88980   2
  -1  11   3 3.87444 7.74006   2
  -1  11   3 7.43880 8.03315   1
   0  12  -3 5.21676 8.75474   1
   0  12  -3 20.7017  9.2481   2
  12   0   3 9.74815 8.68478   2
 -12  12   3 7.85994 9.97636   4
   9   3   3 525.043  24.587   2
   3   9  -3 519.569  24.364   2
 -12   9   3 540.281  25.428   4
   3   9  -3 543.821  23.539   1
  -3  12  -3 503.987  22.681   2
  -3  12  -3 536.253  22.651   1
  -9  12   3 511.857  24.191   4
   6   6   3 1365.70   43.54   2
   6   6  -3 1370.13   42.54   2
 -12   6   3 1417.86   43.55   4
   6   6  -3 1342.78   40.81   1
   6   6   3 1388.14   40.61   1
  -6  12   3 1434.61   40.66   1
  -6  12   3 1482.60   42.32   4
   9   3  -3 893.825  31.407   2
   3   9   3 789.345  30.713   2
   9   3  -3 819.616  28.587   1
   3   9   3 831.512  31.157   1
  -3  12   3 869.380  30.859   1
   0  12   3 -0.7196  8.6788   1
   0  12   3 4.29862 8.56173   2
   2  11  -3 6.10413 8.74905   1
  11   2   3 9.98213 9.40737   2
   2  11  -3 5.49179 8.57160   2
 -13  11   3 8.81294 9.00612   4
 -11  13   3 13.3813 10.0919   4
  -2  13  -3 5.51452 8.97742   1
   8   5   3 398.680  19.199   1
   5   8  -3 390.268  21.607   2
 -13   8   3 407.258  22.203   4
   8   5   3 377.107  21.556   2
   5   8  -3 343.228  19.764   1
  -5  13  -3 408.140  20.063   1
  -8  13   3 379.471  20.637   4
   8   5  -3 15.3726  8.7127   2
   5   8   3 3.47329 7.73002   2
   5   8   3 7.31616 8.42578   1
   8   5  -3 10.7269  8.5463   1
 -13   5   3 19.9774  9.0512   4
  -5  13   3 11.6320  8.5824   1
   2  11   3 1012.25   36.63   2
  11   2  -3 1057.88   36.23   2
   2  11   3 1024.66   37.09   1
  -2  13   3 1011.53   36.44   1
   1  13  -3 25.5143 11.1463   1
 -14  13   3 8.80627 9.95417   4
  13   1   3 12.8929 10.2776   2
 -13  14   3  6.7647 10.8608   4
  -1  14  -3 29.9812 11.3473   1
   4  10  -3 586.091  28.115   2
  10   4   3 586.040  28.043   2
   4  10  -3 605.466  26.854   1
 -14  10   3 553.766  28.250   4
 -10  14   3 630.945  28.342   4
  -4  14  -3 563.038  25.381   1
   7   7   3 316.126  20.273   2
   7   7   3 288.692  18.957   1
   7   7  -3 303.273  19.282   1
   7   7  -3 287.557  18.872   2
 -14   7   3 300.625  19.807   4
  -7  14   3 295.361  18.513   1
   4  10   3 198.302  18.166   2
  10   4  -3 221.937  18.509   2
   4  10   3 218.619  18.827   1
  -4  14   3 217.418  18.652   1
   1  13   3 60.4182 13.2270   1
   1  13   3 53.9473 13.4785   2
  -1  14   3 39.7903 11.7567   1
 -15  15   3  6.4897 12.2518   4
   0  15  -3  6.8937 10.2286   1
   3  12  -3 170.955  18.136   1
 -15  12   3 173.314  19.564   4
  -3  15  -3 213.396  19.189   1
 -12  15   3 167.700  18.967   4
 -15   9   3 394.734  23.800   4
   6   9  -3 373.762  22.639   1
   9   6  -3 529.433  24.666   1
 -15   6   3 521.562  25.993   4
   6   9   3 511.084  25.705   1
  -6  15   3 603.449  26.593   1
   3  12   3 37.4073 12.3172   1
  -3  15   3 22.9634 11.3577   1
   0  15   3 -3.4685 10.9791   1
 -16  11   3 231.332  21.806   4
   5  11  -3 210.279  20.263   1
 -11  16   3 239.714  22.082   4
  -5  16  -3 252.086  20.283   1
 -16   8   3 5.48675 9.98458   4
   8   8  -3 -8.7526  9.1017   1
   8   8   3  4.4237 10.9571   1
   5  11   3 488.504  26.368   1
  -5  16   3 438.747  24.720   1
   7  10  -3 685.942  31.861   1
  10   7  -3 100.792  15.559   1
   7  10   3 63.2648 14.7876   1
  -1   0  -4 397.370  15.919   2
   1  -1  -4 413.441  15.904   2
   0   1  -4 419.949  14.616   2
   2   0  -4 4718.28   98.60   2
  -2   2  -4 4433.34  102.88   2
  -3   1  -4 4456.42  103.60   2
   1   2  -4 4766.46  102.57   2
  -3   1  -4 4927.30  106.90   3
   2  -3  -4 4719.89  101.77   2
   3  -2  -4 4590.86  101.23   2
  -1   3  -4 4659.28  102.66   2
  -2  -1  -4 4948.39  107.30   3
   0   4  -4 588.557  18.105   1
  -4   0  -4 636.526  19.723   3
   0   4  -4 602.186  19.012   2
   4  -4  -4 587.926  17.037   2
   3   1  -4 1303.15   32.92   2
  -4   3  -4 1289.25   33.19   3
  -4   3  -4 1300.06   35.81   2
  -3   4  -4 1316.98   35.60   2
   4  -1  -4 1322.28   31.94   2
  -1  -3  -4 1318.74   34.46   3
  -5   2  -4 6708.31  149.50   3
   2   3  -4 6787.36  140.48   1
   2   3  -4 6673.14  143.66   2
  -3   5   4 6679.65  141.10   1
   5  -3  -4 6525.45  140.15   2
  -2   5  -4 6428.60  142.97   2
  -3  -2  -4 6834.33  149.96   3
   5   0  -4 2449.65   54.27   1
  -5   5  -4 2180.46   58.85   2
   5   0  -4 2382.63   55.02   2
   0   5   4 2445.19   55.66   1
  -6   1  -4 39.9191  6.5569   3
  -6   5   4 29.4014  6.4976   4
   1   5  -4 17.1472  5.8992   2
   1   5  -4 31.9058  6.1528   1
  -5   6   4 42.8299  6.6642   1
  -5  -1  -4 27.4049  5.8241   3
  -1   6  -4 44.5344  6.2878   1
  -5   6   4 42.8321  7.3669   4
  -1   6  -4 47.0657  6.9088   2
   6  -5  -4 27.0876  4.3376   2
   4   2  -4 90.6692  7.9400   1
   2   4   4 84.9223  8.0523   1
  -6   2   4 93.3821  9.0249   4
   4   2  -4 74.6408  7.7078   2
  -4   6  -4 78.6484  9.1429   2
  -2  -4  -4 77.9725  7.7669   3
  -2   6   4 79.0266  8.2424   1
   6  -2  -4 88.3629  6.8877   2
  -7   7   4 462.022  16.879   1
   0   7  -4 462.468  17.742   1
   0   7  -4 497.783  19.118   2
  -7   7   4 433.235  18.857   4
  -7   4   4 787.918  26.352   4
   3   4  -4 873.499  26.492   2
   4   3   4 868.869  24.520   1
   3   4  -4 869.327  25.521   1
  -4   7   4 871.344  21.901   2
   7  -4  -4 873.104  21.635   2
  -4  -3  -4 885.461  26.520   3
  -3   7  -4 825.381  25.149   2
  -4   7   4 796.525  25.839   4
  -3   7  -4 840.034  23.638   1
  -4   7   4 842.152  25.016   1
   6   1  -4 252.923  12.728   2
   6   1  -4 270.018  12.376   1
   1   6   4 264.326  13.413   2
  -7   6  -4 269.352  13.024   2
   1   6   4 273.827  13.437   1
  -7   1   4 268.195  12.348   4
  -1   7   4 251.725  13.188   1
  -6   7  -4 210.150  15.568   2
   7  -1  -4 273.435  12.046   1
  -6  -1   4 246.185  10.856   4
  -1  -6  -4 241.650  11.815   3
  -1   7   4 262.695  12.439   2
   7  -1  -4 256.545  11.823   2
   2   6  -4 1863.35   47.43   1
   6   2   4 1849.22   45.04   1
  -8   6   4 1785.00   50.01   4
   2   6  -4 1885.24   48.97   2
   6   2   4 1875.26   49.35   2
  -6   8   4 1866.76   49.78   4
  -6   8   4 1912.33   46.13   1
  -2   8  -4 1862.33   47.84   2
  -2   8  -4 1846.62   46.25   1
   3   5   4 7718.41  162.87   1
   3   5   4 7748.53  167.07   2
  -8   3   4 7583.66  169.07   4
   5   3  -4 7507.88  166.05   2
   5   3  -4 7639.12  162.27   1
  -3   8   4 7656.00  162.83   1
  -3   8   4 7724.13  162.58   2
   8  -3  -4 7515.06  161.72   2
  -3  -5  -4 7584.17  171.70   3
  -5   8  -4 7331.45  166.07   2
  -5   8  -4 7647.35  159.21   1
  -3   8   4 7727.64  167.75   4
   0   8   4 6747.76  148.65   2
   0   8   4 6772.26  147.34   1
   8   0  -4 6744.50  144.17   1
   8   0  -4 6815.03  147.93   2
  -8   0   4 6599.01  148.52   4
  -9   8   4 1860.51   51.89   4
   8   1   4 1838.09   50.10   2
   1   8  -4 1835.08   48.67   1
   1   8  -4 1883.99   50.38   2
  -1   9  -4 1854.33   49.88   2
   9  -1   4 1868.01   49.47   2
  -1   9  -4 1863.02   48.39   1
  -8   9   4 1808.73   51.47   4
   5   4   4 752.011  26.864   2
   4   5  -4 808.115  25.877   1
   5   4   4 790.475  24.960   1
   4   5  -4 753.075  26.632   2
  -9   5   4 790.955  27.233   4
  -5  -4  -4 788.373  26.462   3
  -4   9  -4 788.765  23.675   1
  -4   9  -4 775.963  25.224   2
  -5   9   4 811.606  25.457   1
  -5   9   4 766.061  26.187   4
   2   7   4 717.769  25.750   2
   7   2  -4 721.961  23.790   1
  -9   2   4 711.721  24.389   4
   2   7   4 711.702  25.259   1
   7   2  -4 758.295  25.490   2
   9  -2  -4 716.521  22.744   2
  -2  -7  -4 720.965  23.910   3
  -2   9   4 745.172  23.848   2
  -2   9   4 716.866  25.078   1
 -10  10   4 4350.84  107.79   4
   0  10  -4 4373.06  101.89   1
   0  10  -4 4348.56  104.59   2
  10   0   4 4402.69  103.72   2
   7   3   4 1515.35   40.27   1
   3   7  -4 1499.63   44.14   2
   3   7  -4 1544.22   42.73   1
   7   3   4 1546.00   44.41   2
 -10   7   4 1487.27   44.90   4
  -7  10   4 1500.28   40.48   1
  -3  10  -4 1529.79   41.21   1
  -7  10   4 1525.75   44.34   4
  -3  10  -4 1562.13   42.70   2
   4   6   4 489.524  20.330   1
   6   4  -4 484.658  19.677   1
 -10   4   4 485.462  20.567   4
   4   6   4 468.052  21.398   2
   6   4  -4 481.176  20.850   2
  -4  10   4 479.489  19.936   1
  -4  -6  -4 498.895  19.831   3
   1   9   4 382.519  19.218   2
   9   1  -4 429.623  18.100   1
   9   1  -4 406.136  19.129   2
   1   9   4 399.119  20.112   1
  10  -1  -4 458.831  19.177   2
  -1  10   4 401.327  18.692   2
  -1  10   4 439.178  20.335   1
   2   9  -4 153.337  14.672   2
   2   9  -4 129.674  13.202   1
 -11   9   4 130.801  14.162   4
   9   2   4 140.923  14.017   2
  -9  11   4 148.297  15.099   4
  -2  11  -4 129.736  12.961   1
  -2  11  -4 156.757  14.085   2
  11  -2   4 153.748  13.280   2
   6   5   4 442.459  19.037   1
   6   5   4 420.368  20.979   2
   5   6  -4 419.778  20.497   2
   5   6  -4 418.577  19.669   1
 -11   6   4 406.926  20.727   4
  -6  11   4 426.676  19.160   1
  -5  11  -4 455.229  18.328   1
   8   3  -4 1782.59   47.37   1
 -11   3   4 1715.87   48.62   4
   3   8   4 1745.07   50.13   2
   3   8   4 1756.28   49.23   1
   8   3  -4 1753.15   49.27   2
  -3  11   4 1775.36   49.08   1
  11   0  -4 1318.30   39.84   2
   0  11   4 1274.61   40.98   1
   0  11   4 1206.58   39.61   2
 -12  11   4 25.9787 10.1131   4
   1  11  -4 32.3169  9.9026   1
  11   1   4 9.47321 9.61833   2
   1  11  -4 20.3656  9.8330   2
  12  -1   4 29.4681  9.6800   2
 -11  12   4 25.0350  9.9175   4
  -1  12  -4 36.0692 10.4550   2
  -1  12  -4 28.2460  9.2320   1
   8   4   4 16.0739  8.1596   1
   4   8  -4 4.64122 7.39300   2
   8   4   4 20.0589  8.9565   2
 -12   8   4 6.40405 7.83997   4
   4   8  -4 7.50133 8.05119   1
  -4  12  -4 12.4037  7.6056   1
  -8  12   4 6.17355 7.97836   4
   7   5  -4 56.9072 10.2070   1
   5   7   4 74.7837 11.7753   2
   7   5  -4 52.3081 10.4908   2
   5   7   4 67.8254 10.9755   1
 -12   5   4 64.5887 11.0816   4
  -5  12   4 89.1672 11.7682   1
   2  10   4 189.125  16.413   1
   2  10   4 154.154  15.349   2
  10   2  -4 177.185  15.518   2
  -2  12   4 160.615  16.225   1
   0  13  -4 3566.30   91.66   1
  13   0   4 3707.28   93.30   2
 -13  13   4 3537.73   97.12   4
   0  13  -4 3728.02   94.58   2
   3  10  -4 1452.24   46.96   2
 -13  10   4 1401.33   48.10   4
   3  10  -4 1473.32   45.70   1
  10   3   4 1540.04   48.12   2
  -3  13  -4 1502.22   44.53   1
 -10  13   4 1495.96   48.08   4
   7   6   4 901.742  30.372   1
   6   7  -4 835.305  32.571   2
 -13   7   4 859.915  33.038   4
   6   7  -4 862.923  31.203   1
   7   6   4 809.041  32.704   2
  -7  13   4 801.097  30.863   4
  -7  13   4 867.069  29.997   1
   9   4  -4 64.9618 11.8719   2
 -13   4   4 50.3875 10.4571   4
   4   9   4 66.8463 12.0789   1
   9   4  -4 35.0118 10.0575   1
   4   9   4 75.0641 12.7661   2
  -4  13   4 60.4626 11.5968   1
   1  12   4 247.219  20.670   1
   1  12   4 289.879  19.501   2
  -1  13   4 231.866  19.772   1
 -14  12   4 -2.7293 10.0207   4
  12   2   4 28.9948 11.3775   2
   2  12  -4 24.0246 10.5617   1
 -12  14   4 21.1162 11.4770   4
  -2  14  -4 19.4363 10.1668   1
   9   5   4 797.931  33.281   2
   5   9  -4 751.070  30.677   1
   5   9  -4 790.185  32.125   2
 -14   9   4 744.737  32.704   4
  -5  14  -4 883.678  30.911   1
  -9  14   4 816.078  32.440   4
   6   8   4 881.244  34.939   2
 -14   6   4 913.371  34.020   4
   8   6  -4 863.222  31.791   1
   8   6  -4 825.426  33.684   2
   6   8   4 890.657  32.863   1
  -6  14   4 896.490  33.389   1
  11   3  -4 547.216  26.465   2
   3  11   4 540.229  27.017   1
   3  11   4 547.243  27.231   2
  -3  14   4 555.873  27.200   1
   0  14   4 635.440  30.596   1
   1  14  -4 415.217  24.793   1
 -15  14   4 344.808  25.282   4
  -1  15  -4 350.528  23.886   1
 -14  15   4 385.783  25.855   4
   4  11  -4 376.903  22.752   1
 -15  11   4 322.033  22.591   4
  -4  15  -4 365.481  21.395   1
 -11  15   4 374.599  23.676   4
   7   8  -4 1629.60   50.31   1
 -15   8   4 1505.47   51.97   4
   8   7   4 1739.83   49.70   1
   5  10   4 2324.84   66.07   1
  10   5  -4 2396.05   64.34   1
  -5  15   4 2308.72   65.24   1
   2  13   4 1022.36   39.86   1
  -2  15   4 1016.46   39.59   1
   3  13  -4 956.569  38.006   1
 -16  13   4 844.680  39.052   4
  -3  16  -4 999.564  37.699   1
 -13  16   4 874.977  39.205   4
   6  10  -4 1368.21   46.79   1
 -16  10   4 1370.15   49.11   4
   7   9   4 60.0077 13.1067   1
   9   7  -4 96.0087 14.5054   1
 -16   7   4 75.0896 14.8766   4
   4  12   4 71.9677 14.8381   1
  -4  16   4 94.0660 16.0865   1
 -17   9   4 141.204  18.598   4
   8   9  -4 116.401  15.993   1
  -1   1  -5 -6.9129  7.0528   2
   0  -1  -5 -0.0971  6.3893   2
   1   0  -5 -0.7244  5.8373   2
  -2   0  -5 9.65291 6.87241   2
  -2   0  -5 -0.1845  4.7744   3
   0   2  -5 -1.0010  4.5335   2
   2  -2  -5 -11.322   5.542   2
  -3   2  -5 2164.55   56.17   2
   2   1  -5 2223.38   51.95   2
  -3   2  -5 2275.36   53.55   3
  -2   3  -5 2278.89   55.14   2
   3  -1  -5 2176.89   51.33   2
   1   3  -5 496.029  17.178   2
   1   3  -5 464.116  15.944   1
  -4   1  -5 463.305  17.083   3
  -1   4  -5 497.128  17.153   2
  -3  -1  -5 473.255  17.284   3
  -3   4   5 496.196  18.863   1
  -1   4  -5 466.430  15.405   1
   4  -3  -5 450.341  15.841   2
  -4   4  -5 1.42619 4.06094   3
   0   4   5 -2.5755  5.0344   1
   4   0  -5 -4.4670  4.5582   1
  -4   4  -5 7.46803 8.57362   2
   4   0  -5 -5.3286  4.4492   2
  -5   5   5 5.75252 6.39403   1
  -5   0  -5 -2.5550  4.3184   3
   0   5  -5 2.56156 4.47953   1
   5  -5  -5 -0.7235  4.4427   2
   0   5  -5 6.34293 5.37789   2
   3   2  -5 471.943  16.510   1
   3   2  -5 496.027  17.411   2
  -5   3  -5 510.630  19.169   2
  -5   3  -5 480.219  16.944   3
   2   3   5 479.520  16.676   1
  -3   5  -5 487.063  18.901   2
   5  -2  -5 493.142  15.459   2
  -2   5   5 441.822  17.459   1
  -2  -3  -5 471.342  17.669   3
  -6   2  -5 156.400  10.432   3
   2   4  -5 148.278  10.576   2
   4   2   5 139.341   9.261   1
  -6   4   5 168.844  13.264   1
   2   4  -5 160.468   9.991   1
  -2   6  -5 170.772  10.605   2
  -4   6   5 153.737  10.998   1
  -4  -2  -5 177.220  11.016   3
  -2   6  -5 151.985   9.246   1
  -6   5  -5 1073.60   31.97   2
   5   1  -5 1039.63   28.89   1
   5   1  -5 1054.94   29.62   2
   1   5   5 1047.81   29.81   1
  -5   6  -5 1015.74   34.23   2
  -1   6   5 1055.00   30.25   1
   6  -1  -5 1042.07   28.34   1
  -1  -5  -5 1050.84   30.69   3
   6  -1  -5 1018.24   28.22   2
  -7   6   5 4049.77   93.33   1
  -7   1  -5 4107.85   98.94   3
  -7   6   5 4087.08   97.88   4
   6   1   5 4101.82   89.46   1
   1   6  -5 4111.15   95.10   2
   1   6  -5 4182.03   92.78   1
  -1   7  -5 4128.27   94.81   2
  -6   7   5 4147.09   97.94   4
  -1   7  -5 4129.89   91.77   1
  -6   7   5 4156.94   92.79   1
  -6  -1  -5 4076.37   98.86   3
   4   3  -5 990.227  28.447   1
   4   3  -5 932.522  28.920   2
   3   4   5 971.384  28.187   1
  -7   3   5 1032.77   30.97   4
  -4   7  -5 977.162  26.047   1
  -4   7  -5 1010.56   30.25   2
  -3  -4  -5 955.939  29.589   3
  -3   7   5 978.195  29.151   1
   7  -3  -5 966.970  26.021   2
   7   0  -5 3.91537 4.89946   2
  -7   0   5 3.30200 5.06220   4
   0  -7  -5 7.20879 5.81201   3
  -7   7  -5 -0.1187  7.4137   2
   0   7   5 0.02061 5.39143   2
   0   7   5 -6.0638  5.4762   1
   7   0  -5 10.4209  5.4185   1
   0   8  -5 4.30292 6.39965   2
  -8   8   5 3.14269 7.14024   4
   0   8  -5 -3.0554  5.7175   1
  -8   8   5 -4.9476  5.8538   1
   3   5  -5 524.182  20.819   2
  -8   5   5 554.066  22.130   4
   5   3   5 535.305  18.735   1
   3   5  -5 511.556  19.806   1
  -8   5   5 566.118  21.274   1
  -5  -3  -5 528.478  20.941   3
  -3   8  -5 535.718  18.804   1
  -3   8  -5 542.049  20.412   2
  -5   8   5 566.018  20.721   1
  -5   8   5 542.019  21.278   4
   2   6   5 417.396  18.215   2
  -8   2   5 386.394  16.675   4
   6   2  -5 372.329  16.194   1
   6   2  -5 386.406  16.930   2
   2   6   5 371.027  16.990   1
  -2   8   5 393.509  16.398   4
  -6   8  -5 383.126  20.639   2
  -2  -6  -5 389.497  16.658   3
   8  -2  -5 394.041  15.159   2
  -2   8   5 389.543  17.375   1
  -2   8   5 396.591  15.666   2
   2   7  -5 1751.22   48.64   2
   2   7  -5 1750.29   46.72   1
  -9   7   5 1730.21   50.33   4
   7   2   5 1759.01   48.91   2
   7   2   5 1797.54   44.22   1
  -2   9  -5 1742.62   47.49   2
  -7   9   5 1744.36   49.45   4
  -2   9  -5 1760.98   45.95   1
  -7   9   5 1759.42   45.65   1
   4   5   5 81.4453  9.6307   1
   5   4  -5 79.7873  9.7285   2
  -9   4   5 80.3965  9.8345   4
   4   5   5 89.3150 10.8433   2
   5   4  -5 62.2250  9.0021   1
  -4   9   5 102.170  10.593   4
  -4  -5  -5 73.3027  9.4151   3
  -5   9  -5 97.2443  8.5155   1
  -5   9  -5 88.6540 10.9757   2
  -4   9   5 66.9119  9.6088   1
   1   8   5 16.8941  7.7490   1
   8   1  -5 21.9320  7.0069   1
  -9   1   5 8.00375 6.70151   4
   1   8   5 17.0208  7.6686   2
   8   1  -5 16.4517  7.3673   2
  -1   9   5 11.5509  6.6521   2
   9  -1  -5 14.9736  6.7764   2
  -1   9   5 4.99959 6.95561   1
   9  -1  -5 -0.4243  6.2193   1
   9   1   5 683.611  26.729   2
   1   9  -5 654.181  25.619   1
 -10   9   5 660.257  27.867   4
   1   9  -5 702.152  27.104   2
  -9  10   5 644.284  27.426   4
  -1  10  -5 630.263  25.777   2
  10  -1   5 678.055  25.735   2
  -1  10  -5 665.912  25.258   1
   6   4   5 12.3412  7.0417   1
   4   6  -5 3.70971 6.93842   1
   6   4   5 19.3434  7.7811   2
 -10   6   5 12.9309  8.1015   4
   4   6  -5 18.5376  7.5694   2
  -6  10   5 5.10608 6.58126   1
  -4  10  -5 10.4728  6.9261   2
  -6  10   5 18.1540  7.8355   4
  -6  -4  -5 8.89058 7.47161   3
  -4  10  -5 18.9352  6.8624   1
   3   7   5 292.138  16.519   1
   7   3  -5 292.707  16.322   2
   7   3  -5 287.345  15.720   1
   3   7   5 273.006  16.792   2
 -10   3   5 316.523  16.403   4
  -3  10   5 302.588  16.809   1
  -3  -7  -5 311.589  15.593   3
   0  10   5 4.86971 7.77877   1
   0  10   5 10.0278  8.1447   2
  10   0  -5 -11.540   7.040   2
   0  11  -5 -3.6106  8.7684   2
  11   0   5 -10.249   7.478   2
   0  11  -5 9.01789 8.20993   1
 -11  11   5 9.34515 9.95770   4
   3   8  -5 366.075  19.041   1
 -11   8   5 334.345  20.061   4
   3   8  -5 367.789  19.287   2
   8   3   5 358.133  19.786   2
  -3  11  -5 334.503  18.586   2
  -8  11   5 393.741  20.361   4
  -3  11  -5 357.712  17.822   1
 -11   5   5 -3.9258  7.1796   4
   5   6   5 10.5884  8.1169   2
   6   5  -5 -8.4759  6.7226   2
   5   6   5 -7.3262  6.3834   1
   6   5  -5 3.55870 7.01754   1
  -5  11   5 14.7244  7.6926   1
  -5  -6  -5 -3.9788  7.1928   3
  -5  11   5 2.50635 6.83659   4
   2   9   5 1115.45   37.22   2
   9   2  -5 1149.32   36.30   2
   9   2  -5 1122.74   34.84   1
   2   9   5 1082.98   36.74   1
  -2  11   5 1123.26   37.01   1
 -12  10   5 251.381  18.991   4
  10   2   5 233.222  17.535   2
   2  10  -5 194.787  16.768   1
   2  10  -5 258.532  18.186   2
  -2  12  -5 214.376  16.216   1
  12  -2   5 209.633  15.699   2
 -10  12   5 243.801  17.790   4
  -2  12  -5 253.754  17.728   2
 -12   7   5 864.617  33.483   4
   7   5   5 931.762  33.950   2
   5   7  -5 897.319  31.827   1
   7   5   5 931.880  30.368   1
   5   7  -5 886.641  32.470   2
  -7  12   5 874.667  30.667   1
  -7  12   5 883.803  32.382   4
  -5  12  -5 945.467  30.193   1
 -12   4   5 904.931  32.567   4
   4   8   5 906.018  33.799   2
   4   8   5 921.977  32.524   1
   8   4  -5 919.580  32.837   2
   8   4  -5 928.680  31.463   1
  -4  12   5 897.998  32.256   1
   1  11   5 192.670  17.239   2
  11   1  -5 252.201  17.016   2
   1  11   5 197.547  17.967   1
  -1  12   5 192.799  17.878   1
  12   1   5 456.318  24.440   2
   1  12  -5 370.290  22.316   1
   1  12  -5 425.809  24.930   2
 -13  12   5 431.854  25.708   4
 -12  13   5 455.257  26.120   4
  -1  13  -5 455.997  24.543   2
  -1  13  -5 416.813  22.840   1
 -13   9   5 2.09358 9.48700   4
   4   9  -5 1.58017 8.53499   1
   9   4   5 14.5223  9.6111   2
   4   9  -5 -2.6934  8.6779   2
  -9  13   5 17.2096  9.9237   4
  -4  13  -5 1.61115 8.13320   1
 -13   6   5 348.292  20.253   4
   7   6  -5 281.634  18.924   2
   7   6  -5 295.056  18.311   1
   6   7   5 320.004  20.642   2
   6   7   5 335.370  19.006   1
  -6  13   5 319.710  19.020   1
  10   3  -5 114.181  13.627   1
   3  10   5 72.7018 13.0110   2
   3  10   5 85.6952 13.4030   1
  10   3  -5 98.1137 13.2719   2
  -3  13   5 78.0662 13.1158   1
   0  13   5 -5.2747  9.4556   1
   0  14  -5 17.6372 11.1100   1
 -14  14   5 -1.4792 11.1478   4
 -14  11   5 638.777  31.617   4
   3  11  -5 635.752  29.179   1
 -11  14   5 683.654  31.797   4
  -3  14  -5 732.382  29.276   1
   6   8  -5 87.2926 13.1040   2
   6   8  -5 67.6990 12.5858   1
   8   6   5 63.9272 13.0575   2
 -14   8   5 103.260  14.864   4
   8   6   5 76.1743 11.7925   1
  -8  14   5 47.3546 11.8311   4
 -14   5   5 49.9309 12.0316   4
   9   5  -5 41.3332 11.1405   1
   5   9   5 44.1538 12.0578   2
   5   9   5 40.2654 11.9603   1
   9   5  -5 37.5651 11.1411   2
  -5  14   5 53.3493 12.3359   1
   2  12   5 745.212  32.833   1
  12   2  -5 730.747  31.654   2
   2  12   5 756.506  33.246   2
  -2  14   5 756.169  32.352   1
   2  13  -5  2.8052 10.5971   1
 -15  13   5 17.4272 11.1200   4
 -13  15   5 44.5728 14.1245   4
  -2  15  -5 23.6810 11.2384   1
   5  10  -5 46.3211 12.3485   1
 -15  10   5 67.5329 14.4628   4
 -10  15   5 66.2105 14.1745   4
  -5  15  -5 95.9554 14.2490   1
 -15   7   5 59.4017 12.5276   4
   8   7  -5 32.9093 10.8414   1
   7   8   5 53.1874 12.3778   1
  -7  15   5 54.7182 13.0498   1
   4  11   5 186.890  19.121   1
  -4  15   5 229.378  20.011   1
   1  14   5 932.647  38.165   1
  -1  15   5 841.130  37.168   1
   4  12  -5 1379.65   48.69   1
 -16  12   5 1429.17   52.37   4
 -12  16   5 1447.83   51.69   4
  -4  16  -5 1506.40   48.28   1
   7   9  -5 110.361  15.563   1
 -16   9   5 136.873  17.814   4
   6  10   5 398.628  24.188   1
  10   6  -5 423.442  23.544   1
  -6  16   5 422.277  24.420   1
   0   0  -6 9243.50  199.66   2
   1   1  -6 21.5817  5.8294   2
  -2   1  -6 20.1085  8.2149   2
   1  -2  -6 30.4122  7.5185   2
  -2   1  -6 21.3857  5.7392   3
  -1  -1  -6 22.3891  7.8596   2
  -1   2  -6 11.4125  7.6114   2
  -1   2   6 25.0074  8.0233   1
   2  -1  -6 22.9515  6.9542   2
   0   3  -6 6098.21  125.86   1
   3  -3  -6 5955.28  129.38   2
   0   3  -6 5905.92  129.59   2
  -3   3   6 5726.03  130.15   1
  -3   0  -6 5904.14  134.75   3
   0   3   6 1157.37   32.46   1
   3   0  -6 1157.00   30.68   2
  -3   3  -6 1100.03   30.40   3
  -3   3  -6 1159.83   36.33   2
   2   2   6 11.2764  5.7259   1
  -4   2  -6 12.4981  7.9045   2
  -4   2  -6 5.19655 4.82082   3
   2   2  -6 -0.4360  4.2463   1
   2   2  -6 11.9719  5.5347   2
  -2   4   6 7.40946 7.06948   1
  -2   4  -6 4.60373 5.79905   2
  -2   4  -6 12.4988  4.7538   1
  -2  -2  -6 5.36747 4.99768   3
   4  -2  -6 13.5864  5.5582   2
   1   4  -6 288.880  12.642   1
   4   1   6 280.499  12.465   1
   1   4  -6 275.202  13.938   2
  -5   1  -6 275.964  14.010   3
  -5   4   6 307.473  16.259   1
  -4  -1  -6 295.049  14.336   3
   5  -4  -6 289.284  12.748   2
  -4   5   6 296.772  16.188   1
  -1   5  -6 279.751  12.417   1
  -1   5  -6 288.648  13.906   2
   4   1  -6 7.13792 5.48726   2
  -5   4  -6 8.39813 4.74767   3
   1   4   6 1.68207 5.56152   1
  -5   4  -6 4.13667 7.89887   2
   4   1  -6 21.2770  5.9346   1
  -4   5  -6 7.67336 8.52718   2
  -1  -4  -6 9.10735 6.38779   3
  -4   5  -6 12.1882  4.4643   3
   5  -1  -6 5.91264 4.97139   2
  -1   5   6 14.1875  6.4003   1
   6   0   6 1096.26   28.15   1
  -6   0  -6 1090.87   33.64   3
   0   6  -6 1060.43   30.62   1
   0   6  -6 1110.90   32.68   2
  -6   6   6 1074.53   33.50   1
   3   3  -6 1004.37   28.85   1
  -6   3  -6 1030.52   30.55   3
   3   3  -6 1028.40   30.16   2
   3   3   6 1031.50   28.82   1
  -3   6   6 1035.35   31.03   1
  -3   6  -6 1020.11   30.78   2
  -3   6  -6 1018.91   27.28   1
   6  -3  -6 1017.08   27.27   2
  -3  -3  -6 947.793  30.173   3
  -6   6  -6 1368.58   42.47   2
   0  -6  -6 1375.42   40.20   3
   6   0  -6 1462.20   37.74   2
   6   0  -6 1427.91   37.21   1
   0   6   6 1387.22   38.85   1
   2   5  -6 166.447  11.137   1
  -7   2  -6 144.612  11.044   3
  -7   5   6 174.807  13.565   4
   2   5  -6 134.904  11.529   2
  -7   5   6 170.174  14.073   1
   5   2   6 160.220  10.172   1
  -5  -2  -6 143.987  11.489   3
  -2   7  -6 170.017  10.413   1
  -2   7  -6 177.134  11.914   2
  -5   7   6 174.112  12.810   1
  -7   5  -6 2621.39   64.74   2
   5   2  -6 2554.54   62.78   2
   2   5   6 2484.64   61.81   1
   5   2  -6 2633.89   61.61   1
   7  -2  -6 2592.57   60.53   2
  -2  -5  -6 2470.10   64.77   3
  -2   7   6 2569.56   63.03   1
  -5   7  -6 2585.02   58.37   1
  -5   7  -6 2630.53   68.02   2
  -8   7   6 537.542  21.914   1
  -8   7   6 598.345  24.660   4
   1   7  -6 521.806  22.074   2
   1   7  -6 545.344  21.066   1
  -7  -1  -6 527.231  22.672   3
  -7   8   6 540.568  21.546   1
  -1   8  -6 526.498  21.813   2
  -1   8  -6 570.200  20.752   1
  -7   8   6 539.483  23.813   4
  -8   4   6 37.8065  9.3209   1
   4   4  -6 10.2451  6.5315   1
   4   4  -6 30.0482  7.4329   2
   4   4   6 23.6084  6.8603   1
  -8   4   6 39.1550  9.0008   4
  -4   8   6 34.6296  8.6804   4
  -4  -4  -6 22.2960  7.1178   3
  -4   8  -6 31.6938  6.4251   1
  -4   8  -6 35.1755  7.9934   2
  -4   8   6 15.0419  7.5888   1
  -8   1   6 21.0780  6.8444   4
   1   7   6 22.5611  7.4994   2
   1  -8  -6 28.6715  8.5495   3
   7   1  -6 16.8676  7.0902   1
   7   1  -6 9.50992 6.25394   2
   1   7   6 20.6561  7.6144   1
  -8   7  -6 22.6987  8.6328   2
   8  -1  -6 16.2358  6.8349   1
  -1   8   6 17.3689  7.4640   1
  -1  -7  -6 22.1574  7.4086   3
  -7   8  -6 27.9777 11.0030   2
   8  -1  -6 9.66267 6.21297   2
  -1   8   6 26.7661  7.3889   2
  -9   9   6 1302.95   43.41   4
   0   9  -6 1367.85   39.77   1
   0   9  -6 1321.35   41.02   2
  -9   6   6 593.634  25.105   4
   3   6  -6 554.254  22.847   2
   3   6  -6 586.919  22.593   1
   6   3   6 585.303  20.759   1
  -3   9  -6 579.841  20.831   1
  -6   9   6 591.230  24.458   4
  -3   9  -6 608.237  23.032   2
  -6   9   6 632.291  23.856   1
  -6  -3  -6 561.154  23.557   3
   6   3  -6 946.055  30.736   2
   6   3  -6 957.384  29.765   1
   3   6   6 888.367  29.920   1
  -9   3   6 945.788  31.316   4
   3   6   6 948.237  32.042   2
  -3   9   6 919.977  28.264   2
  -3  -6  -6 923.995  30.595   3
  -6   9  -6 1008.70   35.78   2
  -3   9   6 947.603  30.447   4
  -3   9   6 969.224  31.203   1
   9   0  -6 1664.30   44.79   1
   0   9   6 1632.33   47.23   1
   0   9   6 1654.69   47.04   2
   9   0  -6 1693.35   45.91   2
   2   8  -6 1458.39   44.52   2
   8   2   6 1459.90   44.42   2
 -10   8   6 1474.04   46.30   4
   2   8  -6 1439.19   42.46   1
  -2  10  -6 1408.36   41.19   1
  -2  10  -6 1509.11   43.75   2
  -8  10   6 1460.39   41.55   1
  -8  10   6 1473.68   46.19   4
 -10   5   6 2386.55   65.46   4
   5   5   6 2486.50   61.32   1
   5   5   6 2472.31   65.16   2
   5   5  -6 2449.55   62.22   1
   5   5  -6 2310.98   63.62   2
  -5  10   6 2519.15   62.93   1
  -5  10  -6 2469.85   64.38   2
  -5  -5  -6 2443.81   65.21   3
  -5  10   6 2454.51   64.35   4
  -5  10  -6 2498.06   59.24   1
   8   2  -6 1019.33   32.97   1
   8   2  -6 1089.55   34.37   2
   2   8   6 1047.41   35.38   2
   2   8   6 1044.39   34.50   1
 -10   2   6 1085.55   34.02   4
  -2  10   6 1064.96   33.02   2
  -2  10   6 1069.31   35.06   1
 -11  10   6 320.728  21.219   4
   1  10  -6 364.104  19.987   1
   1  10  -6 324.545  20.187   2
  10   1   6 303.728  19.269   2
  -1  11  -6 298.762  18.330   1
  11  -1   6 344.611  19.419   2
 -10  11   6 325.334  21.166   4
  -1  11  -6 328.462  19.747   2
   7   4   6 136.554  12.575   1
   4   7  -6 127.439  13.318   1
 -11   7   6 125.204  14.163   4
   4   7  -6 127.114  13.599   2
   7   4   6 123.254  13.918   2
  -4  11  -6 127.911  12.036   1
  -4  11  -6 113.969  13.446   2
  -7  11   6 128.118  14.154   4
  -7  11   6 146.316  13.405   1
 -11   4   6 307.661  17.937   4
   7   4  -6 345.634  18.808   2
   4   7   6 328.256  18.205   1
   4   7   6 337.836  19.540   2
   7   4  -6 314.314  17.768   1
  -4  11   6 308.405  18.548   1
  -4  -7  -6 337.945  18.595   3
   1  10   6 176.410  16.426   2
  10   1  -6 163.594  14.923   1
   1  10   6 182.269  16.422   1
  10   1  -6 174.835  15.497   2
  -1  11   6 150.224  15.773   1
  12   0   6 13.0539  9.5597   2
   0  12  -6 -8.0832  8.5717   1
 -12  12   6 13.4396 10.2846   4
   0  12  -6  9.8103 10.3068   2
   3   9  -6 13.8348  9.4778   2
   9   3   6 12.6140  9.2666   2
   3   9  -6 31.5665  9.6923   1
 -12   9   6 28.2065 10.9616   4
  -3  12  -6 14.4256  8.5474   1
  -3  12  -6 21.5956  9.2783   2
  -9  12   6 26.1896 10.5511   4
   6   6  -6 0.40599 8.26379   2
 -12   6   6 9.61735 9.16486   4
   6   6  -6 -2.9084  7.8846   1
   6   6   6 15.7021  9.3548   2
   6   6   6 22.0818  9.1780   1
  -6  12   6 13.8855  9.0369   4
  -6  12   6 9.87156 8.39344   1
   9   3  -6 146.352  14.209   1
   3   9   6 137.317  14.750   1
   3   9   6 118.519  14.708   2
   9   3  -6 95.1522 12.8247   2
  -3  12   6 150.677  15.812   1
   0  12   6 446.798  24.724   1
   2  11  -6 197.137  18.752   2
  11   2   6 222.934  19.467   2
 -13  11   6 185.168  19.872   4
   2  11  -6 180.016  17.455   1
  -2  13  -6 208.931  17.674   1
  -2  13  -6 228.977  19.278   2
 -11  13   6 198.895  20.240   4
   8   5   6 3916.54   98.84   2
   5   8  -6 3708.72   97.53   2
   5   8  -6 3964.48   95.26   1
   8   5   6 3716.39   91.93   1
 -13   8   6 3817.50  100.34   4
  -5  13  -6 3984.60   92.54   1
  -8  13   6 3933.48   99.04   4
  -8  13   6 3910.73   93.74   1
 -13   5   6 971.944  36.203   4
   8   5  -6 981.687  35.568   2
   5   8   6 964.133  37.296   2
   8   5  -6 1049.50   35.26   1
   5   8   6 991.007  35.363   1
  -5  13   6 1023.22   36.00   1
   2  11   6 2130.20   61.66   1
   2  11   6 2057.83   61.97   2
  11   2  -6 2162.39   61.09   2
  -2  13   6 2142.46   62.25   1
 -14  13   6 268.837  24.682   4
   1  13  -6 229.155  20.172   1
  -1  14  -6 226.902  20.275   1
 -13  14   6 240.903  23.353   4
 -14  10   6  9.2738 10.2993   4
   4  10  -6 -0.8354  9.6887   1
  -4  14  -6 29.8920 11.1018   1
 -10  14   6 17.2176 10.9289   4
   7   7   6 63.9074 12.8692   2
   7   7  -6 36.2222 11.6795   2
   7   7   6 22.8703 10.0464   1
   7   7  -6 58.9689 11.9095   1
 -14   7   6 50.2225 12.6124   4
  -7  14   6 31.5142 11.0081   1
  10   4  -6 28.5088 10.9218   2
   4  10   6 47.2124 12.5606   2
   4  10   6 23.8502 11.2278   1
  10   4  -6 30.4288 10.6389   1
  -4  14   6 36.2486 11.8776   1
   1  13   6  7.1830 10.8484   1
  -1  14   6 -2.3502 10.5727   1
 -15  12   6  4.0509 11.4415   4
   3  12  -6 -0.9568 10.3786   1
 -12  15   6 -3.2361 11.1755   4
  -3  15  -6  7.9751 10.4888   1
 -15   9   6 412.930  24.797   4
   6   9  -6 396.255  23.386   1
   6   9   6 686.488  30.250   1
   9   6  -6 678.907  30.014   1
 -15   6   6 643.738  30.701   4
  -6  15   6 684.647  31.162   1
   3  12   6 421.413  26.835   1
  -3  15   6 487.668  27.252   1
 -16  11   6 614.094  32.461   4
   5  11  -6 527.269  27.999   1
 -11  16   6 541.424  29.908   4
   8   8  -6 1385.98   46.55   1
 -16   8   6 1418.40   49.41   4
   8   8   6 1377.68   45.68   1
   5  11   6 756.317  34.243   1
  -5  16   6 775.174  35.134   1
   0   1  -7 -7.1967  6.9188   2
  -1   1   7 -5.5600  7.1434   1
   1  -1  -7 -0.8584  6.9988   2
   1   0   7 -8.1234  7.0529   1
  -1   0  -7 7.62357 7.28546   2
   2   0  -7 1.54336 5.25618   2
  -2   2  -7 12.9331  8.0986   2
   0   2   7 -4.2448  7.0551   1
   0  -2  -7 6.79242 7.28381   2
  -3   1  -7 152.588  14.031   2
   2  -3  -7 135.553  11.732   2
  -3   1  -7 147.370  10.020   3
   2   1   7 173.880  12.116   1
   1   2  -7 171.288  11.155   2
   1   2  -7 168.585  10.325   1
  -3   2   7 154.747  13.601   1
  -2   3   7 187.767  14.671   1
  -1   3  -7 158.050   9.752   1
  -2  -1  -7 152.578  11.515   3
  -1   3  -7 172.702  12.832   2
   3  -2  -7 157.608  11.808   2
   0   4  -7 -0.2307  4.3494   1
   4   0   7 -12.667   5.282   1
  -4   0  -7 -2.4132  4.8559   3
  -4   4   7 -20.929   6.571   1
   4  -4  -7 -2.0694  6.2161   2
   0   4  -7 -3.3975  5.6303   2
  -4   3  -7 2941.24   78.42   2
   3   1  -7 3150.84   72.89   2
  -4   3  -7 3081.81   74.56   3
   1   3   7 3192.21   73.88   1
   3   1  -7 3167.77   71.70   1
  -1   4   7 3114.36   74.84   1
  -3   4  -7 3114.79   73.51   3
  -3   4  -7 3185.88   78.32   2
   4  -1  -7 3128.55   72.34   2
   3   2   7 1276.70   34.57   1
  -5   3   7 1257.04   37.83   1
   2   3  -7 1325.49   35.77   2
  -5   2  -7 1254.66   36.10   3
   2   3  -7 1237.70   34.07   1
  -3   5   7 1273.10   37.98   1
  -2   5  -7 1227.81   32.91   1
  -2   5  -7 1252.62   36.75   2
  -3  -2  -7 1297.86   37.43   3
  -2   5  -7 1321.46   33.17   3
   5  -3  -7 1287.80   34.62   2
   5   0  -7 -1.2748  4.7721   2
   5   0  -7 17.1526  6.1475   1
  -5   5  -7 -5.6138  4.3919   3
   0   5   7 -1.2266  6.2404   1
  -5   5  -7 -3.0390  8.6096   2
  -6   1  -7 36.5939  7.2153   3
   5   1   7 42.7175  6.8962   1
   1   5  -7 39.2187  7.4083   2
  -6   5   7 24.4220  8.7668   1
   1   5  -7 37.0462  7.0216   1
   6  -1   7 44.0959  6.4019   1
  -1   6  -7 35.7224  7.7434   2
  -5  -1  -7 33.0673  7.1062   3
  -1   6  -7 49.1161  6.9850   1
  -5   6   7 29.8936  9.1454   1
  -6   4  -7 2763.33   72.56   2
   4   2  -7 2833.26   68.91   2
  -6   4  -7 2873.88   70.68   3
   4   2  -7 2866.34   67.69   1
   2   4   7 2885.82   68.50   1
   6  -2  -7 2928.51   67.44   2
  -4   6  -7 2859.20   65.07   1
  -4   6  -7 2895.61   73.75   2
  -4   6  -7 2954.94   67.70   3
  -2   6   7 2880.77   70.29   1
  -2  -4  -7 2803.80   72.68   3
  -7   7   7 9.79643 9.63799   4
  -7   0  -7 -1.6785  6.6445   3
   0   7  -7 11.9201  6.3600   2
  -7   7   7 -7.8913  7.1213   1
   0   7  -7 4.40697 6.09717   1
   3   4  -7 20.2427  6.8098   1
  -7   3  -7 27.2702  7.1068   3
   4   3   7 21.7640  6.6228   1
  -7   4   7 5.96852 8.16424   1
   3   4  -7 24.1078  7.1844   2
  -3   7  -7 14.9676  7.0871   2
  -3   7  -7 31.3569  6.2946   1
  -4  -3  -7 27.8311  6.8549   3
  -4   7   7 11.8785  8.2321   1
   6   1  -7 557.588  20.767   2
   1   6   7 566.649  22.122   1
  -7   6  -7 530.843  24.060   2
   6   1  -7 525.669  20.451   1
  -6   7  -7 533.222  25.641   2
  -1   7   7 558.671  22.555   1
  -1  -6  -7 506.014  22.059   3
   7  -1  -7 568.032  19.971   2
  -8   6   7 2.09680 7.87702   1
   6   2   7 31.4398  6.8059   1
  -8   6   7 21.9734 10.0459   4
   2   6  -7 27.4258  7.5402   2
   2   6  -7 20.0359  7.2515   1
  -8   2  -7 26.6073  8.1996   3
  -6  -2  -7 32.9187  8.2258   3
  -2   8  -7 38.0333  7.4873   1
  -6   8   7 25.6420 10.2259   4
  -2   8  -7 30.9799  7.9285   2
  -6   8   7 21.5150  9.1363   1
   3   5   7 765.643  26.105   1
   5   3  -7 748.723  26.686   2
  -8   3   7 876.868  30.702   4
   5   3  -7 780.781  26.207   1
  -3   8   7 752.604  27.953   1
  -5   8  -7 834.642  30.960   2
  -3  -5  -7 716.933  27.112   3
  -5   8  -7 775.718  23.556   1
  -8   8  -7 -2.8434  9.2652   2
  -8   0   7 -1.4778  7.5244   4
   8   0  -7 5.50351 6.57124   2
   0  -8  -7 12.8149  8.2733   3
   0   8   7 2.15585 6.88018   2
   0   8   7 -3.3669  7.1687   1
   8   0  -7 14.4644  7.1661   1
   1   8  -7 527.881  22.480   1
  -9   8   7 581.947  27.041   4
   1   8  -7 520.256  23.633   2
  -1   9  -7 561.071  22.194   1
  -8  -1  -7 564.989  25.002   3
  -8   9   7 541.537  26.378   4
  -8   9   7 547.876  23.599   1
  -1   9  -7 497.125  22.735   2
  -9   5   7 444.630  21.571   1
  -9   5   7 455.034  23.023   4
   4   5  -7 463.561  20.462   1
   4   5  -7 473.775  21.253   2
   5   4   7 445.556  19.008   1
  -5   9   7 493.097  23.309   4
  -4   9  -7 464.599  21.391   2
  -5   9   7 483.056  22.006   1
  -5  -4  -7 469.778  21.095   3
  -4   9  -7 472.468  18.649   1
   2   7   7 309.712  18.199   2
   2   7   7 274.794  17.129   1
  -9   2   7 316.257  17.511   4
   7   2  -7 311.821  16.409   1
   7   2  -7 340.692  17.397   2
  -2   9   7 341.871  18.562   1
  -2  -7  -7 322.902  18.019   3
  -2   9   7 358.018  17.202   2
  -7   9  -7 270.874  22.097   2
   0  10  -7 -4.7382  7.4058   1
   0  10  -7 8.71594 8.74177   2
 -10  10   7 -1.7857  9.6522   4
 -10   7   7 334.527  20.367   4
   7   3   7 334.243  16.620   1
   3   7  -7 348.781  18.676   1
   3   7  -7 371.700  19.272   2
  -7  10   7 359.966  21.003   4
  -3  10  -7 346.126  16.943   1
  -7  -3  -7 306.331  18.793   3
  -7  10   7 350.250  19.224   1
  -3  10  -7 333.482  18.505   2
   6   4  -7 1852.76   50.72   1
   6   4  -7 1817.26   51.97   2
 -10   4   7 1835.19   53.46   4
   4   6   7 1887.48   50.78   1
   4   6   7 1812.50   53.50   2
  -6  10  -7 1996.55   57.39   2
  -4  10   7 1915.33   52.99   1
  -4  10   7 1869.59   52.82   4
  -4  -6  -7 1841.64   52.84   3
   1   9   7 740.548  29.172   1
   1   9   7 773.911  29.644   2
   9   1  -7 742.508  27.468   1
   9   1  -7 739.189  27.855   2
  -1  10   7 736.238  28.369   2
  -1  10   7 750.535  29.670   1
   9   2   7 141.586  15.421   2
   2   9  -7 187.954  16.167   1
 -11   9   7 173.165  18.190   4
   2   9  -7 152.617  15.413   2
  -2  11  -7 181.543  15.062   1
  -2  11  -7 195.723  16.664   2
  -9  11   7 168.093  17.389   4
 -11   6   7 24.3392  9.9986   4
   6   5   7 26.8405 10.1102   2
   5   6  -7 31.5000  9.0152   2
   6   5   7 19.0594  8.6097   1
   5   6  -7 18.8424  9.1770   1
  -5  11  -7 28.4788 10.7710   2
  -6  11   7 21.1844  9.4365   1
  -6  -5  -7 25.7032  9.0686   3
  -5  11  -7 26.4828  8.3318   1
  -6  11   7 34.0774 10.2975   4
   3   8   7 550.445  25.571   2
   8   3  -7 546.294  23.219   1
   3   8   7 557.003  24.711   1
   8   3  -7 526.005  24.045   2
 -11   3   7 548.884  24.454   4
  -3  11   7 538.513  25.310   1
   0  11   7 4.70341 9.81177   2
   0  11   7 -4.3615  9.4084   1
 -12  11   7 684.134  32.566   4
  11   1   7 745.637  31.201   2
   1  11  -7 684.579  29.196   1
   1  11  -7 735.961  31.432   2
  -1  12  -7 718.864  28.911   1
 -11  12   7 736.337  33.722   4
  -1  12  -7 681.635  30.325   2
  12  -1   7 669.212  29.594   2
   8   4   7 -8.7968  8.3060   2
 -12   8   7 1.13752 9.58514   4
   4   8  -7 7.98970 8.95563   2
   4   8  -7 -4.1156  8.1289   1
  -8  12   7 -3.6046  7.9842   1
  -4  12  -7 10.6668  9.3403   2
  -8  12   7 11.1909  9.9927   4
  -4  12  -7 8.21493 8.47853   1
 -12   5   7 15.3934  9.4658   4
   7   5  -7 -15.805   7.543   2
   5   7   7 -4.4564  8.1059   1
   5   7   7 0.72745 9.31813   2
   7   5  -7 5.69099 8.13623   1
  -5  12   7 -5.4759  8.7226   1
  -5  -7  -7 -14.695   7.568   3
   2  10   7 1334.26   44.89   2
  10   2  -7 1370.66   42.09   1
   2  10   7 1347.66   44.10   1
  10   2  -7 1351.61   43.29   2
  -2  12   7 1309.59   44.13   1
 -13  13   7 -5.7812 11.4513   4
   0  13  -7 -5.6323  9.8593   1
 -13  10   7  9.3610 11.9599   4
   3  10  -7 11.2691  9.4778   1
  10   3   7 0.26242 9.64045   2
   3  10  -7 -1.8805  9.6878   2
  -3  13  -7 -10.500   7.655   1
 -10  13   7 12.6791 11.0917   4
   6   7  -7 325.953  20.223   1
   6   7  -7 316.264  20.735   2
 -13   7   7 303.022  20.954   4
   7   6   7 302.094  20.812   2
   7   6   7 253.348  17.648   1
  -7  13   7 291.484  19.593   1
  -7  13   7 316.989  20.406   4
   9   4  -7 17.5505  9.9248   2
   9   4  -7 32.7131 11.0195   1
   4   9   7 53.8685 12.7454   2
   4   9   7 33.3392 10.9756   1
  -4  13   7 33.1194 12.1686   1
   1  12   7 316.544  22.423   1
  -1  13   7 304.853  22.188   1
 -14  12   7 804.877  38.234   4
   2  12  -7 827.218  33.923   1
 -12  14   7 774.849  36.869   4
  -2  14  -7 834.901  33.584   1
   5   9  -7 173.391  17.752   1
 -14   9   7 178.757  20.106   4
  -9  14   7 194.409  20.088   4
   6   8   7 -7.7392  8.4403   1
   8   6  -7 0.62418 8.58270   1
 -14   6   7 14.2751 10.7686   4
  -6  14   7 -6.5394  9.5781   1
   3  11   7 -2.8191 10.1274   1
  -3  14   7 16.1891 11.9498   1
   0  14   7  2.8175 11.2713   1
   4  11  -7 726.161  32.081   1
 -15  11   7 720.151  35.130   4
  -4  15  -7 694.238  30.270   1
 -11  15   7 705.358  34.555   4
 -15   8   7 16.6745 11.7557   4
   7   8  -7 23.8498 10.9373   1
   8   7   7 37.2765 11.7480   1
   5  10   7 52.6882 13.8117   1
  10   5  -7 40.7738 11.7221   1
  -5  15   7 53.1713 14.4248   1
   2  13   7  0.5529 10.8819   1
  -2  15   7 -16.264  11.031   1
 -16  10   7 44.2117 14.5896   4
   6  10  -7 41.9975 12.7907   1
 -16   7   7 170.462  19.828   4
   9   7  -7 159.779  17.965   1
   7   9   7 194.823  19.505   1
  -7  16   7 178.327  19.538   1
   0  -1  -8 4646.03  105.82   2
  -1   1  -8 4452.17  106.02   2
   1   0  -8 4369.82  104.17   2
   0   1   8 4560.59  103.75   1
  -2   2   8 2553.93   64.42   1
  -2   0  -8 2470.92   65.69   2
   0   2  -8 2566.89   64.02   2
   2   0   8 2524.72   63.42   1
   2  -2  -8 2628.00   63.81   2
  -3   2  -8 277.159  18.326   2
   1   2   8 250.239  14.745   1
   1  -3  -8 226.709  14.786   2
   2   1  -8 236.507  13.588   2
  -3   2  -8 256.165  13.156   3
  -1   3   8 285.204  16.792   1
  -2   3  -8 243.882  16.082   2
   3  -2   8 272.391  15.773   1
   3  -1  -8 243.788  14.016   2
   3   1   8 101.365  10.471   1
   1   3  -8 90.7801 10.1060   2
   1   3  -8 87.3906  9.0133   1
  -4   1  -8 90.1958  9.1682   3
  -4   1  -8 96.3261 12.6312   2
   3  -4  -8 101.673  10.322   2
  -4   3   8 103.258  11.655   1
  -3  -1  -8 55.9366  8.6080   3
  -1   4  -8 77.9402 10.2894   2
  -3   4   8 78.6807 11.7005   1
   4  -3  -8 76.6162  9.5059   2
  -1   4  -8 99.0755  9.2078   1
   4  -1   8 107.910  10.821   1
   0   4   8 548.872  23.361   1
   4   0  -8 583.536  21.271   2
  -4   4  -8 607.295  26.436   2
  -4   4  -8 575.425  19.948   3
  -5   0  -8 9847.33  223.27   3
   0   5  -8 9946.57  208.12   1
   5   0   8 9715.07  207.36   1
   0   5  -8 9999.99  214.58   2
  -5   5   8 9804.85  213.05   1
   5  -5  -8 9971.29  211.19   2
  -5   3  -8 2246.71   62.92   2
   3   2  -8 2388.82   58.50   2
   3   2  -8 2262.80   56.75   1
  -5   3  -8 2261.73   59.17   3
   2   3   8 2383.29   58.77   1
  -2  -3  -8 2312.08   62.01   3
  -3   5  -8 2303.02   55.17   1
  -2   5   8 2339.65   61.09   1
  -3   5  -8 2394.38   57.15   3
  -3   5  -8 2353.22   62.71   2
   5  -2  -8 2327.19   57.71   2
  -6   4   8 415.936  20.448   1
  -6   2  -8 400.595  18.367   3
   2   4  -8 413.226  18.528   2
   4   2   8 427.462  17.877   1
   2   4  -8 397.447  16.636   1
   6  -4  -8 403.364  17.556   2
  -2   6  -8 377.213  18.658   2
  -4  -2  -8 393.762  18.785   3
  -4   6   8 422.088  21.190   1
  -2   6  -8 401.272  16.139   1
   5   1  -8 3036.98   73.34   1
  -6   5  -8 3053.18   75.57   3
  -6   5  -8 2983.18   80.49   2
   5   1  -8 3097.59   74.17   2
   1   5   8 3099.74   75.67   1
  -5   6  -8 3162.18   74.38   3
  -1  -5  -8 3096.14   79.99   3
   6  -1  -8 3127.70   73.79   2
  -1   6   8 3191.78   77.01   1
  -5   6  -8 3133.94   81.65   2
   6   1   8 966.817  28.210   1
  -7   6   8 924.220  32.531   1
   1   6  -8 970.523  30.137   1
   1   6  -8 971.678  31.470   2
  -7   1  -8 968.060  32.475   3
  -6   7   8 894.580  33.060   1
  -6  -1  -8 988.869  32.919   3
  -1   7  -8 946.740  31.750   2
  -1   7  -8 936.622  29.273   1
   3   4   8 44.7811  8.5425   1
  -7   4  -8 57.0132  8.6905   3
   4   3  -8 75.2098  9.5853   1
   4   3  -8 53.0469  8.7894   2
  -3  -4  -8 49.9444  9.1861   3
   7  -3  -8 53.3363  8.3926   2
  -4   7  -8 68.6241  8.4715   1
  -4   7  -8 50.6301 11.2510   2
  -3   7   8 52.6728 10.9973   1
   0  -7  -8 2595.57   68.46   3
   0   7   8 2455.97   64.24   1
   7   0  -8 2458.50   61.65   2
  -7   7  -8 2301.10   67.81   2
   0   8  -8 1663.90   49.29   2
  -8   8   8 1864.94   56.23   4
  -8   8   8 1687.20   50.35   1
  -8   0  -8 1763.57   51.84   3
   0   8  -8 1718.78   47.46   1
  -8   3  -8 3426.35   84.96   3
   5   3   8 3307.72   78.42   1
   3   5  -8 3371.59   82.50   2
   3   5  -8 3336.71   79.88   1
  -8   5   8 3352.08   81.79   1
  -5   8   8 3379.13   83.52   1
  -5  -3  -8 3334.22   84.98   3
  -3   8  -8 3335.52   77.77   1
  -3   8  -8 3283.65   82.46   2
   2   6   8 848.433  30.253   1
  -8   6  -8 940.660  33.207   2
   6   2  -8 870.314  29.318   1
   6   2  -8 869.199  29.524   2
  -2   8   8 864.100  31.707   1
  -6   8  -8 898.727  36.081   2
  -2  -6  -8 895.984  31.595   3
   8  -2  -8 893.061  28.019   2
   2   7  -8 -4.5399  6.0666   1
   2   7  -8 17.3319  8.2573   2
  -9   7   8 10.4665  8.5114   1
  -9   7   8 23.5749 10.4960   4
  -2   9  -8 4.30665 6.85191   1
  -7   9   8 -5.6438  8.4117   1
  -7   9   8 16.3493 11.1129   4
  -7  -2  -8 10.4665  8.1351   3
  -2   9  -8 30.2831  9.0835   2
   5   4  -8 37.7828  9.1454   2
   5   4  -8 32.5259  8.7414   1
  -9   4   8 51.7681 11.5876   1
  -9   4   8 19.1296 10.7505   4
   4   5   8 36.8253  8.9142   1
  -5   9  -8 33.2578 11.3100   2
  -4   9   8 72.0566 12.2241   1
  -4  -5  -8 40.8708  8.8408   3
  -5   9  -8 43.0014  7.8641   1
   1   8   8 61.2471 11.4429   1
   1  -9  -8 28.2129 10.9932   3
   8   1  -8 32.8767  8.6259   2
  -9   1   8 31.0175 10.5599   4
   1   8   8 20.3960  9.2301   2
   8   1  -8 47.3953  9.8749   1
  -1   9   8 41.3919 10.2325   2
   9  -1  -8 20.3264  7.7668   2
  -1   9   8 37.0845 10.1617   1
  -1  -8  -8 47.8319 10.3927   3
   1   9  -8 65.7010 12.2317   2
   1   9  -8 77.5258 11.9688   1
 -10   9   8 77.5390 14.9038   4
  -1  10  -8 80.2014 11.5297   1
  -9  10   8 105.558  16.058   4
  -1  10  -8 82.6891 12.0967   2
   6   4   8 524.407  21.511   1
   4   6  -8 509.830  22.760   1
   4   6  -8 497.954  22.966   2
 -10   6   8 540.726  27.000   4
  -4  10  -8 530.991  24.373   2
  -6  -4  -8 494.088  23.756   3
  -4  10  -8 559.895  21.477   1
  -6  10   8 497.803  24.610   1
  -6  10   8 503.563  26.010   4
   7   3  -8 715.118  27.776   2
   3   7   8 721.844  30.014   2
   3   7   8 743.286  28.536   1
   7   3  -8 722.953  27.148   1
 -10   3   8 714.173  29.561   4
  -3  10   8 728.287  29.251   4
  -3  -7  -8 704.259  28.348   3
  -3  10   8 686.184  29.319   1
   0  10   8 2416.44   66.05   1
   0  10   8 2327.35   65.16   2
  11   0   8 1807.20   55.52   2
   0  11  -8 1796.81   53.40   1
 -11  11   8 1894.80   61.36   4
   0  11  -8 1928.78   56.87   2
   3   8  -8 3093.74   78.62   1
   3   8  -8 3075.40   81.18   2
 -11   8   8 3220.13   87.14   4
  -8  11   8 3189.39   85.93   4
  -3  11  -8 3065.94   80.64   2
  -8  11   8 3031.52   79.03   1
  -8  -3  -8 3066.04   83.67   3
  -3  11  -8 3046.43   76.23   1
   5   6   8 1832.74   52.87   1
 -11   5   8 2005.62   58.51   4
   5   6   8 1899.91   57.45   2
   6   5  -8 1991.54   54.40   1
   6   5  -8 1940.69   55.60   2
  -5  -6  -8 1947.20   56.59   3
  -5  11   8 1915.65   56.93   4
  -5  11   8 1915.95   56.30   1
   9   2  -8 349.748  19.957   2
   2   9   8 378.782  21.891   1
   9   2  -8 375.906  20.124   1
   2   9   8 356.522  21.809   2
  -2  11   8 377.580  22.772   1
 -12  10   8 1329.62   48.33   4
   2  10  -8 1238.54   43.68   2
  10   2   8 1256.35   43.93   2
   2  10  -8 1258.44   41.94   1
  -2  12  -8 1272.29   43.57   2
 -10  12   8 1208.07   46.52   4
  -2  12  -8 1277.31   41.24   1
   5   7  -8 1008.48   35.22   1
   7   5   8 980.612  33.174   1
   7   5   8 891.110  35.838   2
 -12   7   8 964.528  38.146   4
   5   7  -8 980.964  36.203   2
  -7  -5  -8 967.589  36.336   3
  -7  12   8 995.013  37.987   4
  -7  12   8 911.838  35.448   1
   8   4  -8 560.074  26.490   2
   4   8   8 565.545  27.023   1
 -12   4   8 640.437  28.335   4
   8   4  -8 588.460  25.949   1
   4   8   8 631.663  29.041   2
  -4  12   8 574.299  28.110   1
   1  11   8 106.143  15.709   1
   1  11   8 131.638  16.143   2
  -1  12   8 122.180  16.641   1
 -13  12   8 397.422  27.847   4
   1  12  -8 369.142  22.958   1
 -12  13   8 403.646  28.018   4
  -1  13  -8 398.430  23.039   1
 -13   9   8 168.520  19.291   4
   4   9  -8 177.714  17.779   1
  -9  13   8 161.445  18.974   4
  -4  13  -8 147.903  15.311   1
   6   7   8 745.268  30.351   1
 -13   6   8 774.650  33.579   4
   7   6  -8 794.912  32.670   2
   7   6  -8 742.279  30.891   1
   6   7   8 770.385  33.820   2
  -6  -7  -8 800.336  33.009   3
  -6  13   8 812.539  33.993   1
   3  10   8 2359.91   66.85   1
   3  10   8 2300.28   68.67   2
  10   3  -8 2408.94   67.13   2
  10   3  -8 2327.08   64.23   1
  -3  13   8 2305.20   67.67   1
   0  13   8 1998.15   62.50   1
   3  11  -8 596.800  29.103   1
 -14  11   8 621.910  34.391   4
  -3  14  -8 570.921  27.325   1
 -11  14   8 629.768  34.227   4
   6   8  -8 4.84811 9.91791   1
 -14   8   8  2.7326 11.3634   4
  -8  14   8  5.7041 10.2761   1
  -8  14   8  3.8121 11.6525   4
   5   9   8 104.497  15.200   1
   9   5  -8 79.3411 13.1159   1
  -5  14   8 73.6002 14.6239   1
   2  12   8 15.2593 12.1160   1
  -2  14   8 42.9516 13.8317   1
 -15  10   8 361.349  26.964   4
   5  10  -8 348.151  23.739   1
 -10  15   8 313.701  25.049   4
   8   7  -8 424.472  24.525   1
 -15   7   8 433.905  26.667   4
   7   8   8 383.244  23.211   1
  -7  15   8 417.843  25.419   1
   4  11   8 30.3532 13.4017   1
  -4  15   8 45.9731 14.1512   1
 -16   9   8 81.4538 17.2377   4
   7   9  -8 93.0492 15.1655   1
   0   0  -9 -9.2159  7.1012   2
   0   0   9 3.92115 7.74724   1
   1   1   9 2140.10   57.04   1
   1   1  -9 2111.32   57.55   2
  -2   1  -9 2230.86   60.53   2
   1  -2  -9 2276.11   57.51   2
  -1   2   9 2253.48   58.00   1
   2  -1   9 2202.60   56.87   1
   2  -1  -9 2115.92   56.93   2
  -1   2  -9 2190.89   59.72   2
  -1  -1  -9 2104.44   58.36   2
   3  -3  -9 0.77858 6.81732   2
  -3   3   9 -1.9014  7.7941   1
  -3   0  -9 -16.365   7.786   2
   3   0   9 -5.0432  7.5167   1
   0   3  -9 5.14245 6.66228   2
  -3   0  -9 -4.0966  5.9202   3
  -3   3  -9 -0.4384  5.4029   3
  -3   3  -9 0.77201 8.71487   2
   3   0  -9 8.56829 6.17062   2
   0   3   9 2.90787 7.97446   1
   2  -4  -9 124.143  12.300   2
  -4   2  -9 127.626  14.593   2
  -4   2  -9 101.162  10.295   3
   2   2  -9 109.846  11.242   2
   2   2   9 112.206  12.534   1
   4  -2   9 143.864  13.287   1
   4  -2  -9 90.2235 10.8556   2
  -2  -2  -9 110.596  12.512   3
  -2   4  -9 108.071  12.854   2
  -2   4   9 117.953  13.417   1
   1   4  -9 14.5385  7.4956   2
  -5   4   9 27.6240  9.9663   1
   4   1   9 22.7359  8.0907   1
   1   4  -9 14.3750  6.6732   1
   4  -5  -9 24.8326  7.9162   2
  -5   1  -9 17.9157  7.1124   3
  -1   5  -9 15.4588  7.7180   2
  -4   5   9 8.92947 8.69301   1
   5  -4  -9 18.4302  7.1118   2
   5  -1   9 26.1632  7.6052   1
  -1   5  -9 10.5387  6.3401   1
  -4  -1  -9 9.62825 7.09692   3
   4   1  -9 1218.90   35.89   2
  -5   4  -9 1161.59   40.47   2
  -5   4  -9 1188.05   35.01   3
   1   4   9 1195.27   37.43   1
   5  -1  -9 1238.93   35.60   2
   5  -4   9 1170.86   35.51   1
  -4   5  -9 1146.92   33.48   3
  -1   5   9 1099.29   38.06   1
  -4   5  -9 1200.82   40.99   2
  -6   0  -9 4.04298 6.32061   3
   6   0   9 -8.1864  5.8321   1
   0   6  -9 5.26528 6.42475   2
   0   6  -9 2.22576 6.10977   1
  -6   6   9 -8.6751  8.0238   1
   3   3  -9 71.6469  9.6679   1
   3   3   9 109.533  12.121   1
  -6   3  -9 94.3805 14.0992   2
  -6   3   9 77.9390 12.3106   1
   3   3  -9 82.1704 10.4508   2
  -6   3  -9 80.4482 10.0443   3
  -3   6  -9 83.8231 12.5438   2
  -3   6   9 83.0131 13.4383   1
  -3   6  -9 74.8801  8.9015   1
  -3  -3  -9 89.6348 11.1117   3
   6  -3  -9 76.7644 10.5203   2
   6   0  -9 3.93756 6.48780   2
  -6   6  -9 -7.5070  5.2609   3
   0   6   9 -6.6730  8.1450   1
  -6   6  -9 1.24019 9.66348   2
  -7   5   9 1615.61   46.96   1
   2   5  -9 1570.29   45.82   2
   5   2   9 1575.38   43.10   1
  -7   2  -9 1574.88   46.52   3
   2   5  -9 1562.10   43.38   1
  -5  -2  -9 1613.75   47.63   3
  -5   7   9 1586.20   48.85   1
  -2   7  -9 1550.58   46.11   2
  -2   7  -9 1560.81   42.35   1
   2   5   9 95.0715 12.3141   1
   5   2  -9 115.713  11.531   2
  -7   5  -9 91.8490 14.1898   2
  -7   5  -9 94.6430 10.5758   3
   5   2  -9 102.628  11.484   1
  -2   7   9 73.3496 12.6493   1
  -2  -5  -9 88.2185 12.8512   3
   7  -2  -9 112.092  10.904   2
  -5   7  -9 123.922  16.281   2
   1   7  -9 302.816  18.154   2
  -8   7   9 254.394  22.558   4
  -8   1  -9 294.657  18.325   3
  -8   7   9 248.230  17.701   1
   1   7  -9 255.975  15.931   1
  -7   8   9 288.863  20.597   1
  -1   8  -9 271.107  15.706   1
  -7  -1  -9 262.400  17.615   3
  -1   8  -9 292.742  17.882   2
   4   4  -9 598.181  24.093   2
   4   4  -9 573.014  22.831   1
  -8   4  -9 572.187  24.006   3
   4   4   9 575.840  23.269   1
  -8   4   9 531.297  25.151   1
  -4   8  -9 583.484  26.672   2
  -4   8  -9 551.366  21.342   1
  -4  -4  -9 557.786  24.921   3
  -4   8   9 607.942  27.350   1
   7   1  -9 -7.5139  6.9171   2
  -8   7  -9  7.9413 10.7809   2
   7   1  -9 1.55070 7.55627   1
   1   7   9 1.65311 8.51205   1
  -1  -7  -9 3.71048 9.17109   3
   8  -1  -9 11.2128  6.9604   2
  -1   8   9 14.6035  9.2195   1
  -7   8  -9 10.7526 11.1652   2
  -9   9   9  7.8847 11.7594   4
   0   9  -9 1.10097 8.57142   2
  -9   9   9 -13.275   9.177   1
   0   9  -9 0.99159 8.11100   1
  -9   0  -9 4.23028 8.81942   3
   3   6  -9 638.609  26.691   2
  -9   6   9 640.745  26.962   1
   3   6  -9 598.584  25.011   1
  -9   6   9 685.731  32.701   4
   6   3   9 649.934  23.927   1
  -9   3  -9 656.162  27.594   3
  -3   9  -9 661.722  27.495   2
  -6   9   9 627.077  28.790   1
  -6  -3  -9 639.080  27.273   3
  -3   9  -9 670.660  24.473   1
   3   6   9 350.434  19.266   1
   6   3  -9 322.444  18.393   2
   6   3  -9 317.508  18.182   1
  -3  -6  -9 323.797  19.832   3
  -3   9   9 331.069  21.216   1
  -6   9  -9 318.371  24.467   2
   0  -9  -9 16.2541 10.2872   3
   0   9   9 -3.3736  8.9277   1
   0   9   9 5.71269 9.13762   2
   9   0  -9 3.11547 7.29418   2
 -10   8   9 236.036  22.795   4
   2   8  -9 240.480  17.680   2
   2   8  -9 240.444  16.895   1
  -2  10  -9 240.877  16.008   1
  -8  -2  -9 245.922  18.528   3
  -2  10  -9 217.513  18.606   2
  -8  10   9 239.173  22.953   4
  -8  10   9 214.919  19.468   1
   5   5  -9 3.87866 7.77135   1
 -10   5   9  7.4226 10.5618   4
   5   5   9 12.6927  8.2189   1
   5   5  -9 11.8094  8.6565   2
  -5  -5  -9 -6.4172  8.1390   3
  -5  10   9 -4.0999 10.9614   4
  -5  10  -9 -4.6841  6.7707   1
  -5  10   9  4.6710 10.1732   1
  -5  10  -9  1.3109 10.1947   2
   8   2  -9 24.3406  9.7205   1
 -10   2   9 24.7071 10.9558   4
   8   2  -9 37.0704 10.0473   2
   2   8   9 35.7833 11.0845   1
   2   8   9 31.3291 11.3490   2
  -2  -8  -9 49.1664 12.0639   3
  -2  10   9 34.5563 11.4091   1
   1  10  -9 858.336  33.640   1
   1  10  -9 877.365  34.804   2
 -11  10   9 926.964  41.347   4
 -10  11   9 876.638  40.648   4
  -1  11  -9 888.933  32.982   1
  -1  11  -9 887.658  34.894   2
 -11   7   9  8.6871 11.7233   4
   7   4   9 36.2207  9.4707   1
   4   7  -9 35.4547 10.5604   1
   4   7  -9 25.4315  9.3347   2
  -4  11  -9 13.3785 10.1612   2
  -7  11   9 19.1922 12.4116   4
  -7  -4  -9 30.7426 10.7050   3
  -7  11   9 22.1774 11.1495   1
  -4  11  -9 20.7854  8.7894   1
   7   4  -9 2166.41   61.89   2
 -11   4   9 2204.19   65.50   4
   4   7   9 2304.87   66.07   2
   4   7   9 2276.81   61.89   1
   7   4  -9 2170.55   60.85   1
  -4  11   9 2263.14   64.75   1
  -4  -7  -9 2245.66   64.52   3
  10   1  -9 0.54495 9.05885   1
   1  10   9 19.3974 10.9845   1
  10   1  -9 9.61567 9.07752   2
   1  10   9 -3.6359  9.6470   2
  -1  11   9 -1.8622 10.0873   1
 -12  12   9 -1.4325 11.7018   4
   0  12  -9 10.9315  9.6917   1
   3   9  -9 203.466  19.125   2
   9   3   9 203.102  19.397   2
 -12   9   9 248.707  23.941   4
   3   9  -9 180.518  17.401   1
  -3  12  -9 227.323  20.398   2
  -3  12  -9 213.600  16.216   1
  -9  12   9 240.321  23.792   4
   6   6  -9 754.488  31.977   2
   6   6   9 742.778  33.642   2
   6   6  -9 773.696  31.100   1
   6   6   9 789.792  30.627   1
 -12   6   9 811.927  35.773   4
  -6  -6  -9 785.555  32.498   3
  -6  12   9 812.367  34.392   4
  -6  12   9 769.373  33.248   1
   3   9   9 476.113  25.354   1
   9   3  -9 427.551  23.583   1
   3   9   9 479.276  26.661   2
   9   3  -9 421.688  23.452   2
  -3  12   9 490.797  28.120   1
   0  12   9  8.5145 11.4117   1
   2  11  -9 806.743  33.713   1
 -13  11   9 815.881  40.478   4
 -11  13   9 802.603  39.738   4
  -2  13  -9 787.964  32.743   1
 -13   8   9 98.0356 17.0833   4
   5   8  -9 104.816  14.707   1
  -8  13   9 112.810  17.796   4
  -8  13   9 105.338  16.353   1
 -13   5   9 347.426  23.959   4
   5   8   9 293.326  20.490   1
   8   5  -9 348.001  21.640   1
  -5  13   9 297.810  24.347   1
   2  11   9 256.516  22.575   1
  -2  13   9 265.570  23.459   1
   1  13  -9 26.6285 11.9868   1
 -14  13   9 35.0466 16.6411   4
 -13  14   9 26.6984 16.5015   4
  -1  14  -9 29.4991 12.3991   1
   4  10  -9 612.230  29.020   1
 -14  10   9 665.496  35.674   4
 -10  14   9 565.755  32.661   4
  -4  14  -9 549.666  26.588   1
 -14   7   9 1059.96   43.32   4
   7   7   9 1040.55   38.26   1
   7   7  -9 1089.31   39.57   1
  -7  14   9 1108.01   42.52   1
  10   4  -9 160.882  17.947   1
   4  10   9 171.347  19.145   1
  -4  14   9 168.001  20.211   1
   1  13   9 20.2029 13.3710   1
  -1  14   9 -17.489  11.781   1
 -15   9   9 455.274  30.124   4
   6   9  -9 433.697  25.742   1
   9   6  -9 687.579  30.653   1
   6   9   9 639.055  30.804   1
  -6  15   9 679.766  33.807   1
   1  -1 -10 58.6866  9.9135   2
   1   0  10 51.4006 10.4571   1
  -1   1  10 49.3527 10.3338   1
  -1   0 -10 57.6893 11.0108   2
   0   1 -10 83.1705 12.3618   2
   2   0 -10 2388.81   63.68   2
   0  -2 -10 2362.91   63.15   2
   0   2  10 2334.79   62.61   1
  -2   2 -10 2499.14   66.30   2
  -3   1 -10 273.575  16.904   3
   2   1  10 301.305  18.090   1
  -3   1 -10 309.040  19.990   2
   2  -3 -10 323.551  17.353   2
  -3   2  10 293.619  18.967   1
   1   2 -10 322.319  18.506   2
   3  -1  10 315.035  17.868   1
  -2  -1 -10 344.146  19.381   3
  -1   3 -10 320.613  19.020   2
  -2  -1 -10 299.226  18.853   2
  -2   3  10 340.619  19.197   1
   3  -2 -10 333.413  18.152   2
   0   4 -10 148.278  14.063   2
  -4   4  10 179.088  15.712   1
  -4   0 -10 156.241  14.324   3
   0   4 -10 178.182  12.821   1
   4   0  10 177.681  14.748   1
   4  -4 -10 173.318  13.045   2
   3   1 -10 465.587  21.035   2
  -4   3 -10 415.807  18.808   3
  -4   3 -10 431.178  23.748   2
   1   3  10 418.581  21.540   1
   4  -1 -10 381.319  19.756   2
  -3   4 -10 476.310  23.531   2
   4  -3  10 422.541  20.277   1
  -3   4 -10 438.344  18.646   3
  -1   4  10 399.488  21.164   1
  -5   2 -10 1800.51   51.13   3
   2   3 -10 1814.67   50.61   2
  -5   2 -10 1827.44   55.44   2
   2   3 -10 1760.82   48.65   1
  -5   3  10 1774.68   52.40   1
   3   2  10 1947.96   52.10   1
  -3  -2 -10 1951.02   54.95   3
   5  -2  10 1686.65   49.04   1
  -2   5 -10 1927.52   49.88   3
   5  -3 -10 1801.40   50.12   2
  -3   5  10 1852.74   53.32   1
  -2   5 -10 1823.54   53.60   2
  -5   5 -10 2437.38   67.74   2
   5   0 -10 2369.18   60.81   2
   0   5  10 2286.99   63.58   1
  -5   5 -10 2279.86   60.22   3
  -6   5  10 52.2317 10.9939   1
   1   5 -10 49.7688  9.3766   1
   1   5 -10 49.2937  9.5124   2
   5   1  10 74.5755 10.5153   1
  -6   1 -10 65.6202 10.5887   3
  -5  -1 -10 35.7587  8.8105   3
  -5   6  10 67.0572 12.1694   1
  -1   6 -10 77.1472 11.6008   2
  -1   6 -10 54.1748  9.1236   1
  -6   4 -10 71.5823  9.8616   3
   2   4  10 83.1308 12.4610   1
  -6   4 -10 85.2823 14.3449   2
   4   2 -10 75.3703 10.7749   2
  -4   6 -10 52.3754 12.9550   2
  -2  -4 -10 62.6569 11.9471   3
   6  -2 -10 76.4133 11.2033   2
  -2   6  10 76.7491 13.5610   1
  -7   0 -10 39.9081  9.9747   3
   0   7 -10 31.4883  9.7582   2
  -7   7  10 46.0951 11.5174   1
   0   7 -10 47.0171  9.3958   1
   3   4 -10 300.152  17.140   1
   3   4 -10 322.342  18.260   2
  -7   4  10 287.505  19.411   1
  -7   3 -10 320.653  17.219   3
   4   3  10 323.748  19.119   1
  -3   7 -10 308.998  20.364   2
  -4  -3 -10 351.416  19.279   3
  -4   7  10 304.973  21.438   1
  -3   7 -10 317.670  16.430   1
  -7   6 -10 337.723  17.017   3
   1   6  10 348.699  20.872   1
  -7   6 -10 337.233  22.415   2
   6   1 -10 312.582  17.620   2
   7  -1 -10 320.637  17.533   2
  -6   7 -10 328.158  23.250   2
  -1  -6 -10 342.240  21.210   3
  -1   7  10 320.969  21.258   1
   2   6 -10 1551.15   48.62   2
  -8   2 -10 1698.01   50.84   3
   2   6 -10 1676.28   47.34   1
   6   2  10 1699.36   46.48   1
  -8   6  10 1721.05   49.45   1
  -2   8 -10 1714.43   50.69   2
  -2   8 -10 1704.53   46.33   1
  -6   8  10 1639.38   51.72   1
  -6  -2 -10 1628.17   51.10   3
   5   3 -10 1124.38   36.27   1
  -8   5 -10 1110.63   36.97   3
   3   5  10 1115.69   37.80   1
   5   3 -10 1078.82   36.15   2
  -3  -5 -10 1158.42   39.96   3
  -5   8 -10 1187.14   42.98   2
  -3   8  10 1130.07   41.05   1
  -5   8 -10 1124.54   33.61   1
   8   0 -10 6376.38  143.89   2
  -8   8 -10 5895.25  151.12   2
   0   8  10 6611.50  148.04   1
   0  -8 -10 6408.15  156.25   3
  -9   1 -10 90.2531 13.1697   3
   1   8 -10 88.5749 12.9734   2
   1   8 -10 79.0861 11.6927   1
  -9   8  10 67.1847 13.1620   1
  -9   8  10 98.3591 17.6922   4
  -8   9  10 61.4754 15.6025   4
  -8  -1 -10 71.9016 13.0138   3
  -8   9  10 93.4815 14.6160   1
  -1   9 -10 99.8081 14.0781   2
  -1   9 -10 83.0679 11.5579   1
   4   5 -10 379.290  20.518   2
   4   5 -10 394.108  20.603   1
  -9   4 -10 348.873  20.291   3
  -9   5  10 388.120  22.333   1
   5   4  10 378.875  20.461   1
  -5  -4 -10 392.751  22.070   3
  -4   9 -10 379.117  23.265   2
  -4   9 -10 372.033  18.086   1
  -5   9  10 365.118  24.033   1
   2   7  10 2.39025 9.90058   1
   7   2 -10 20.9373  9.3034   1
   7   2 -10 10.0551  8.1352   2
  -9   7 -10 24.7446 12.6650   2
  -2  -7 -10 7.77319 9.86612   3
  -7   9 -10 14.7920 13.3181   2
  -2   9  10 24.4639 12.0626   1
   0  10 -10 583.350  26.270   1
   0  10 -10 641.111  29.245   2
 -10  10  10 588.075  33.844   4
   3   7 -10 1621.65   47.54   1
   3   7 -10 1550.86   49.10   2
 -10   7  10 1593.99   55.19   4
  -7  10  10 1562.32   51.52   1
  -7  -3 -10 1625.19   51.45   3
  -3  10 -10 1566.94   45.06   1
  -3  10 -10 1583.90   50.40   2
  -7  10  10 1645.71   57.00   4
   6   4 -10 133.515  14.483   2
   4   6  10 166.809  16.401   1
 -10   4  10 143.492  18.677   4
   6   4 -10 137.315  15.014   1
 -10   4  10 132.615  16.187   1
  -6  10 -10 164.517  19.974   2
  -4  -6 -10 152.854  16.417   3
  -4  10  10 133.434  17.750   1
   1   9  10 582.827  29.001   1
   1   9  10 609.542  29.497   2
   9   1 -10 622.165  26.231   2
  -1  10  10 546.292  29.051   1
  -1  -9 -10 608.188  29.572   3
   2   9 -10 35.2295 11.3395   2
 -11   9  10 32.2961 13.4749   4
   2   9 -10 20.7985  9.9577   1
  -9  11  10 48.3829 13.5079   1
  -2  11 -10 38.2204 12.4283   2
  -2  11 -10 32.6156  9.8951   1
  -9  -2 -10 32.3540 11.6676   3
  -9  11  10 39.4545 14.2113   4
   5   6 -10 512.505  24.910   2
 -11   6  10 484.266  28.685   4
   5   6 -10 523.742  24.047   1
   6   5  10 545.702  24.904   1
  -6  11  10 510.824  28.086   1
  -5  11 -10 490.129  28.370   2
  -6  -5 -10 465.138  25.284   3
  -6  11  10 521.834  28.833   4
   8   3 -10 460.836  24.604   2
   8   3 -10 484.798  24.420   1
 -11   3  10 549.972  28.102   4
   3   8  10 526.889  28.529   2
   3   8  10 479.436  25.936   1
  -3  -8 -10 507.483  26.768   3
  -3  11  10 511.922  27.961   1
   0  11  10 478.833  28.119   1
 -12  11  10 42.0729 15.4248   4
   1  11 -10 41.0309 11.7155   1
  -1  12 -10 51.8222 12.6320   1
 -11  12  10 43.2513 16.0889   4
 -12   8  10 25.8539 14.4997   4
   4   8 -10 0.44193 9.45887   1
  -8  12  10 16.6677 13.0568   4
  -4  12 -10 -8.3964 10.5913   2
  -8  12  10 11.7199 13.0597   1
  -8  -4 -10 15.3376 10.7511   3
  -4  12 -10 -7.8757  7.9878   1
   5   7  10 47.2470 12.1378   1
 -12   5  10 52.1796 14.3223   4
   5   7  10 42.5550 14.0652   2
   7   5 -10 36.1808 11.1366   2
   7   5 -10 48.1087 11.7864   1
  -5  -7 -10 50.9162 12.6114   3
  -5  12  10 79.2313 15.4292   1
   2  10  10  0.5174 11.3401   1
  10   2 -10 23.2296 11.4267   2
   2  10  10 -7.7763 11.0423   2
  10   2 -10  6.8870 11.0118   1
  -2  12  10 13.5017 12.7304   1
 -13  13  10 1524.49   60.86   4
   0  13 -10 1560.99   51.00   1
   3  10 -10 1624.13   51.42   1
 -13  10  10 1591.48   58.79   4
  -3  13 -10 1551.43   48.75   1
 -10  13  10 1541.72   58.70   4
   7   6  10 96.7105 13.8485   1
 -13   7  10 98.9027 18.2423   4
   6   7 -10 116.119  15.273   1
  -7  -6 -10 126.016  16.331   3
  -7  13  10 131.694  19.669   4
  -7  13  10 90.1692 16.4282   1
   4   9  10 56.5375 14.2041   1
   9   4 -10 72.8815 14.2770   1
  -4  13  10 56.7964 15.9785   1
   1  12  10  5.5512 13.3885   1
  -1  13  10 10.3459 12.5410   1
   2  12 -10 12.4272 10.9607   1
 -14  12  10 13.2723 15.3816   4
  -2  14 -10 38.2508 12.3748   1
 -12  14  10 27.5707 16.5569   4
 -14   9  10 90.5663 18.3760   4
   5   9 -10 113.270  16.246   1
  -9  14  10 114.815  18.757   4
   8   6 -10 1080.33   40.82   1
 -14   6  10 1177.51   45.99   4
   6   8  10 1085.52   40.67   1
  -6  14  10 1097.91   44.49   1
   3  11  10 12.0779 12.6725   1
  11   3 -10 38.0049 13.5530   1
  -3  14  10 -0.6371 12.1687   1
 -15   8  10 163.914  21.936   4
   7   8 -10 158.951  18.012   1
  -8  15  10 172.636  21.671   1
   1  -1  11 -9.7756  7.7553   1
  -1   1 -11 -2.7402  8.6139   2
   1   0 -11 8.77164 8.65671   2
   0  -1 -11 14.9651  8.4987   2
   0   1  11 11.3649  7.9439   1
   2  -2 -11 6.34309 7.57861   2
   0   2 -11 0.86157 7.71732   2
  -2   0 -11 -11.865   7.986   2
  -2   2  11 -9.3671  7.9770   1
   2   0  11 1.75798 8.38466   1
   1  -3 -11 2024.54   56.07   2
  -3   2 -11 2098.76   59.42   2
   1   2  11 1966.48   56.31   1
  -3   2 -11 2040.64   57.61   3
   2   1 -11 1961.90   57.27   2
  -1  -2 -11 2088.92   58.11   2
  -1   3  11 2004.29   56.94   1
   3  -2  11 2073.72   55.70   1
   3  -1 -11 2084.28   57.39   2
  -2   3 -11 2035.41   59.36   2
   1   3 -11 16.8396  9.6158   2
  -4   1 -11 11.6438 10.6034   2
   3   1  11 14.8472  9.9654   1
  -4   1 -11 8.84793 8.16135   3
   3  -4 -11 12.4278  7.8822   2
  -4   3  11 8.36271 9.45592   1
  -3   4  11 18.7366  9.6923   1
  -3  -1 -11 19.5380  9.4381   3
   4  -3 -11 2.20480 8.16727   2
  -1   4 -11 14.3828  8.7086   2
   4  -1  11 18.9994  9.6878   1
   4   0 -11 9.92258 8.38741   2
  -4   4 -11 -10.581   8.567   2
  -4   4 -11 -1.1043  6.4723   3
   0   4  11 -1.3586  9.2922   1
  -5   0 -11 -3.4554  7.3255   3
   0   5 -11 -3.5479  6.5129   1
   5   0  11 19.4999  9.8205   1
  -5   5  11 -8.3770  8.2698   1
   0   5 -11 -4.0791  7.9414   2
   2   3  11 216.844  18.956   1
  -5   3 -11 250.841  15.555   3
   3   2 -11 267.365  17.502   2
  -5   3 -11 227.012  20.491   2
   5  -2 -11 260.407  17.277   2
  -3   5 -11 277.997  15.381   3
  -2  -3 -11 251.792  19.763   3
  -2   5  11 211.891  18.059   1
  -3   5 -11 254.337  19.095   2
   5  -3  11 253.637  17.239   1
   4   2  11 992.040  34.796   1
  -6   4  11 992.907  35.999   1
   2   4 -11 1036.16   35.53   2
  -6   2 -11 1003.34   34.63   3
   2   4 -11 990.865  33.210   1
  -4   6  11 1052.91   37.42   1
  -4  -2 -11 1075.49   37.45   3
  -2   6 -11 986.065  37.331   2
   1   5  11 18.1972 10.5452   1
   5   1 -11 -9.6870  6.9641   2
  -6   5 -11 3.98310 6.53832   3
  -6   5 -11 -9.1708  9.9983   2
   6  -1 -11 6.36681 8.19162   2
  -1  -5 -11 13.5091 10.8274   3
  -5   6 -11 1.90261 5.96643   3
  -1   6  11 -12.161   9.247   1
  -5   6 -11 -1.3368 10.2180   2
  -7   1 -11 1074.57   38.29   3
   1   6 -11 1111.27   35.72   1
   6   1  11 1079.31   35.14   1
  -7   6  11 1121.31   38.49   1
   1   6 -11 1090.24   38.24   2
  -1   7 -11 1111.67   38.99   2
  -6  -1 -11 1101.32   38.72   3
  -6   7  11 1137.48   39.31   1
  -1   7 -11 1144.16   35.20   1
   4   3 -11 2183.10   60.98   2
  -7   4 -11 2176.88   60.94   3
  -7   3  11 2334.03   64.30   1
  -7   4 -11 2173.62   65.94   2
   3   4  11 2251.09   62.00   1
   4   3 -11 2247.04   59.67   1
  -3  -4 -11 2336.72   66.69   3
  -4   7 -11 2184.50   65.74   2
  -3   7  11 2149.57   64.10   1
   0  -7 -11 -17.699   9.757   3
   7   0 -11 2.49302 8.12426   2
   0   7  11 -10.758  10.161   1
  -7   7 -11 -1.6297 11.2829   2
   0   8 -11 -11.260   7.269   1
  -8   8  11  5.3918 10.1501   1
  -8   0 -11 -1.1157  8.7138   3
   0   8 -11 7.91371 9.77038   2
  -8   5  11 161.425  16.746   1
   5   3  11 191.641  16.655   1
   3   5 -11 162.545  15.611   2
  -8   3 -11 168.216  15.479   3
   3   5 -11 163.892  15.063   1
  -5  -3 -11 156.752  16.199   3
  -5   8  11 167.805  18.712   1
  -3   8 -11 176.109  18.065   2
  -3   8 -11 155.744  13.867   1
  -8   6 -11 6.79894 7.61852   3
   2   6  11 27.8534 11.1796   1
   6   2 -11 8.42528 8.34023   2
  -8   6 -11 30.9498 12.9012   2
  -6   8 -11  0.0574 11.8494   2
  -2  -6 -11 -1.2639 10.0130   3
  -2   8  11 19.0437 11.8549   1
  -9   7  11 1459.42   45.26   1
  -9   2 -11 1403.20   47.07   3
   2   7 -11 1358.08   43.67   1
   2   7 -11 1468.41   46.93   2
  -9   7  11 1448.11   54.00   4
  -2   9 -11 1433.79   47.41   2
  -7   9  11 1425.07   48.14   1
  -7  -2 -11 1406.48   47.59   3
  -2   9 -11 1408.51   42.70   1
   4   5  11 57.4255 12.2784   1
  -9   5 -11 52.3989 10.7661   3
   5   4 -11 62.3008 10.9622   2
   5   4 -11 61.1480 11.8249   1
  -9   4  11 62.1897 14.1502   1
  -4  -5 -11 56.9598 12.8990   3
  -4   9  11 59.8823 14.4598   1
  -5   9 -11 82.7941 16.0320   2
   1  -9 -11 -2.8640 11.8121   3
  -9   8 -11  1.1188 11.6882   2
   8   1 -11 10.1519  8.7595   2
   1   8  11 27.8061 12.5004   1
  -1  -8 -11  8.1180 11.2785   3
  -8   9 -11 29.6039 13.8422   2
  -1   9  11 11.1151 12.1026   1
 -10   1 -11 149.722  17.310   3
   1   9 -11 138.250  16.870   2
 -10   9  11 123.169  19.725   4
   1   9 -11 150.215  15.383   1
  -1  10 -11 169.209  18.232   2
  -9  -1 -11 139.201  16.847   3
  -9  10  11 159.971  18.121   1
  -9  10  11 163.503  21.992   4
  -1  10 -11 151.210  15.341   1
 -10   6  11 131.148  16.084   1
 -10   6  11 139.517  20.894   4
   6   4  11 164.515  15.698   1
 -10   4 -11 158.717  16.351   3
   4   6 -11 130.602  15.342   2
   4   6 -11 149.102  15.701   1
  -6  -4 -11 154.748  17.183   3
  -6  10  11 167.859  19.491   1
  -4  10 -11 152.654  14.790   1
  -4  10 -11 127.245  17.623   2
   7   3 -11 168.353  16.501   2
   7   3 -11 211.656  18.241   1
   3   7  11 228.703  20.134   1
 -10   3  11 172.463  20.914   4
  -3  10  11 191.324  21.300   1
  -3  -7 -11 194.910  19.809   3
  -7  10 -11 207.204  24.005   2
   0  10  11 -14.336  10.607   1
   0  11 -11 10.9247 10.1491   1
 -11  11  11 -1.5129 14.3912   4
   3   8 -11 2.23624 9.13706   1
 -11   8  11  9.6914 12.0547   4
   3   8 -11 19.3634 10.7426   2
  -3  11 -11 10.9781  9.5384   1
  -8  11  11  5.7219 12.6619   1
  -8  -3 -11  7.6501 10.3400   3
  -8  11  11 16.6477 14.5842   4
  -3  11 -11  2.9392 10.6138   2
   5   6  11 366.888  22.311   1
 -11   5  11 346.015  25.468   4
   6   5 -11 375.522  22.159   1
   6   5 -11 321.267  20.984   2
  -5  -6 -11 382.884  24.136   3
  -5  11  11 379.060  26.414   4
  -6  11 -11 368.169  27.501   2
  -5  11  11 348.964  25.849   1
   9   2 -11 410.579  23.187   2
   2   9  11 419.338  27.625   2
   2   9  11 458.616  27.333   1
  -2  11  11 400.456  27.085   1
  -2  -9 -11 446.009  27.149   3
   2  10 -11 68.1158 13.1664   1
 -12  10  11 62.4464 18.5788   4
  -2  12 -11 80.7274 13.7320   1
 -10  12  11 58.9880 17.4432   4
 -12   7  11 13.5138 13.3696   4
   5   7 -11 -4.5379  9.5229   1
  -7  -5 -11  6.7915 10.6964   3
  -7  12  11 -1.9225 13.4598   4
  -5  12 -11 -8.5952 13.1778   2
  -7  12  11  1.3947 13.0578   1
   4   8  11 11.5994 12.0953   1
 -12   4  11  9.6682 13.0587   4
   8   4 -11 0.27524 9.84515   1
  -4  12  11  5.5738 12.6505   1
  -4  -8 -11 -4.9933 11.8039   3
   1  11  11 1512.90   53.15   1
  -1  12  11 1425.52   53.14   1
 -13  12  11 76.7744 18.9433   4
   1  12 -11 59.4061 13.7691   1
 -12  13  11 34.6669 16.8132   4
  -1  13 -11 47.8095 12.4206   1
   4   9 -11 37.6302 12.1167   1
 -13   9  11 64.9603 17.4036   4
  -9  13  11 75.6121 16.3705   1
  -4  13 -11 56.0583 12.2812   1
  -9  13  11 87.5450 18.7290   4
 -13   6  11 72.5912 17.4294   4
   6   7  11 113.455  16.751   1
   7   6 -11 145.082  17.260   1
  -6  -7 -11 118.691  17.555   3
  -6  13  11 128.489  19.561   1
  10   3 -11 255.353  21.465   1
   3  10  11 255.392  23.829   1
  -3  13  11 236.694  24.555   1
 -14   8  11 273.143  27.134   4
   6   8 -11 257.591  22.468   1
  -8  14  11 291.346  25.892   1
  -8  -6 -11 327.597  24.260   3
   9   5 -11 36.7973 13.2452   1
   5   9  11 36.4540 14.5197   1
  -5  14  11 35.2542 15.8612   1
   0   0  12 688.409  28.453   1
   0   0 -12 719.412  29.210   2
  -2   1  12 20.9699 10.3962   1
   1   1  12 7.69810 9.24725   1
   1   1 -12 5.42367 9.70335   2
   1  -2 -12 19.0685  9.2630   2
  -2   1 -12 18.9689  9.6967   2
   2  -1  12 14.4913  9.4521   1
  -1   2 -12 16.9306  9.9271   2
   2  -1 -12 10.7557  9.1016   2
  -1   2  12 18.8214  9.8761   1
  -1  -1 -12 29.6315  9.9133   2
   3  -3 -12 6550.43  145.93   2
  -3   3  12 6307.40  146.43   1
  -3   0 -12 6535.77  155.93   3
  -3   0 -12 6373.86  151.21   2
   3   0  12 6206.82  145.10   1
   0   3 -12 6455.08  151.21   2
  -3   3 -12 4230.89  105.04   3
   0   3  12 4194.29  101.50   1
   3   0 -12 4179.69  103.31   2
  -3   3 -12 4242.97  105.02   2
   3  -3  12 3960.38   99.95   1
  -4   2 -12 1438.39   45.19   3
   2  -4 -12 1428.64   43.08   2
   2   2 -12 1416.92   45.65   2
  -4   2 -12 1458.23   47.66   2
  -4   2  12 1371.78   45.66   1
   2   2  12 1339.08   43.99   1
  -2   4 -12 1416.26   44.38   3
  -2   4 -12 1346.59   46.72   2
   4  -2 -12 1373.23   43.54   2
  -2  -2 -12 1310.37   47.49   3
   4  -2  12 1407.28   42.98   1
  -2   4  12 1388.84   44.44   1
   1   4 -12 96.9592 14.4563   2
   4  -5 -12 101.708  12.488   2
  -5   4  12 135.231  15.733   1
   4   1  12 132.053  15.489   1
  -5   1 -12 122.798  13.737   3
   5  -1  12 149.573  15.664   1
  -4  -1 -12 112.350  15.037   3
  -4   5  12 111.943  14.884   1
   5  -4 -12 128.430  13.305   2
  -1   5 -12 113.828  15.732   2
   1   4  12  2.7211 10.6190   1
   4   1 -12 12.0536  9.8448   2
  -5   4 -12 34.8008 13.0098   2
  -5   4 -12 19.2902  8.2899   3
  -1  -4 -12  8.0960 11.1135   3
  -4   5 -12 21.9870 10.8083   2
   5  -4  12 26.5594 10.7083   1
  -4   5 -12 19.7487  7.8614   3
  -1   5  12 20.4498 11.5324   1
   5  -1 -12 12.1694 10.1043   2
  -6   6  12 3.31672 9.13390   1
   0   6 -12 6.05990 8.39287   1
   0   6 -12 12.3408  9.6425   2
  -6   0 -12 9.09721 8.97266   3
   3   3 -12 1717.28   52.17   2
  -6   3 -12 1676.73   51.40   3
  -6   3 -12 1675.85   56.21   2
   3   3  12 1730.94   53.08   1
  -6   3  12 1866.97   54.68   1
  -3   6 -12 1737.12   56.00   2
  -3  -3 -12 1784.78   56.82   3
  -3   6  12 1700.05   53.57   1
   6  -3 -12 1794.35   51.79   2
  -6   6 -12 14.5826 12.2934   2
  -6   6 -12 7.62690 7.47554   3
   6   0 -12 -14.720   8.065   2
   0   6  12 -0.1670 11.0269   1
   2   5 -12 368.538  20.838   2
   5   2  12 331.223  20.683   1
  -7   5  12 321.684  21.339   1
  -7   2 -12 363.990  21.021   3
   2   5 -12 381.566  20.330   1
  -5  -2 -12 350.073  23.019   3
  -5   7  12 379.920  23.320   1
  -2   7 -12 372.762  23.956   2
   5   2 -12 1114.25   38.34   2
  -7   5 -12 1094.90   37.22   3
  -7   5 -12 1119.39   43.45   2
   2   5  12 1088.57   40.83   1
  -2   7  12 1145.60   42.90   1
  -2  -5 -12 1107.46   43.90   3
  -5   7 -12 1261.91   45.01   2
   1   7 -12 749.135  32.018   2
  -8   1 -12 755.154  31.331   3
   1   7 -12 756.250  29.398   1
  -8   7  12 727.664  30.781   1
  -1   8 -12 766.966  29.024   1
  -7  -1 -12 718.235  32.306   3
  -7   8  12 779.305  33.721   1
  -1   8 -12 732.957  32.724   2
   4   4  12 605.934  28.527   1
  -8   4  12 645.240  29.526   1
  -8   4 -12 596.958  26.612   3
   4   4 -12 605.349  27.599   2
   4   4 -12 600.976  26.608   1
  -4  -4 -12 646.543  30.816   3
  -4   8 -12 639.918  31.689   2
  -4   8  12 574.716  30.250   1
   7   1 -12 372.934  21.555   2
   1   7  12 395.358  25.498   1
  -8   7 -12 370.584  25.850   2
  -1  -7 -12 432.816  27.557   3
  -1   8  12 407.652  26.645   1
  -7   8 -12 413.618  27.724   2
   0   9 -12 1815.77   55.88   2
   0   9 -12 1753.56   51.97   1
  -9   9  12 1617.42   63.00   4
  -9   0 -12 1803.95   57.22   3
  -9   9  12 1684.20   53.76   1
   3   6 -12 160.325  15.751   1
   3   6 -12 183.915  17.847   2
   6   3  12 153.820  16.603   1
  -9   6  12 185.575  17.993   1
  -9   3 -12 166.523  16.796   3
  -6   9  12 162.446  19.258   1
  -3   9 -12 190.115  16.064   1
  -3   9 -12 132.846  17.677   2
  -6  -3 -12 161.656  18.163   3
   6   3 -12 1144.05   40.55   2
  -9   3  12 1123.01   43.62   1
  -9   6 -12 1144.45   39.56   3
   3   6  12 1195.60   43.02   1
  -3  -6 -12 1205.42   45.41   3
  -3   9  12 1124.15   45.15   1
  -6   9 -12 1296.18   47.93   2
   0   9  12 163.014  20.133   1
   0  -9 -12 178.371  21.542   3
 -10   8  12 2087.61   60.07   1
 -10   2 -12 2049.15   63.45   3
   2   8 -12 2076.60   59.47   1
   2   8 -12 2179.08   63.47   2
 -10   8  12 1823.57   67.47   4
  -8  10  12 2137.84   63.51   1
  -8  -2 -12 2080.96   64.64   3
  -2  10 -12 2099.00   58.01   1
  -2  10 -12 2064.17   63.71   2
  -8  10  12 1990.76   71.06   4
   5   5 -12 2357.69   64.62   1
 -10   5 -12 2310.61   66.94   3
   5   5  12 2335.29   65.39   1
 -10   5  12 2136.00   72.51   4
   5   5 -12 2227.66   65.65   2
 -10   5  12 2230.34   65.19   1
  -5  -5 -12 2379.48   70.77   3
  -5  10 -12 2402.47   72.43   2
  -5  10  12 2365.83   71.16   1
   2 -10 -12 1882.88   63.74   3
   8   2 -12 2002.27   57.62   2
   2   8  12 1936.84   60.41   1
  -2  -8 -12 1941.67   63.55   3
  -2  10  12 1806.80   61.85   1
 -11  10  12 341.325  30.467   4
   1  10 -12 374.988  22.602   1
  -1  11 -12 366.448  22.021   1
 -10  11  12 358.224  32.308   4
 -10  -1 -12 328.495  24.221   3
   4   7 -12 51.2305 12.2961   1
 -11   7  12 36.9242 15.4397   4
  -4  11 -12 25.7802 13.4555   2
  -7  11  12 29.3289 13.6423   1
  -7  -4 -12 24.9109 12.0324   3
  -4  11 -12 51.4602 11.0160   1
  -7  11  12 22.7466 16.4114   4
 -11   4  12 30.7069 14.9297   4
   7   4 -12 13.8143 11.5559   1
   7   4 -12 29.8192 11.6701   2
   4   7  12 41.1846 13.2053   1
  -4  11  12 61.3638 16.6259   1
  -4  -7 -12 23.0779 13.0645   3
   1  10  12 266.184  25.185   1
  -1  11  12 323.995  27.477   1
 -12  12  12 22.7719 17.4319   4
   0  12 -12 27.1254 11.6921   1
   3   9 -12 18.6005 11.0742   1
 -12   9  12 33.1022 16.5727   4
  -9  12  12 12.7563 13.7846   1
  -9  -3 -12  7.1590 11.6548   3
  -9  12  12 19.6414 15.7164   4
  -3  12 -12  3.6257 10.4254   1
 -12   6  12 25.1931 14.8282   4
   6   6  12 -1.3746 10.8989   1
   6   6 -12 21.2127 11.3097   1
  -6  12  12  8.7530 14.8245   1
  -6  -6 -12 17.9624 12.3960   3
  -6  12  12 -8.7737 12.2905   4
   3   9  12 -2.8870 11.8920   1
  -3  -9 -12 -0.8017 12.4424   3
  -3  12  12 14.5392 13.9795   1
   0  12  12 233.890  25.261   1
   2  11 -12 339.176  22.938   1
 -13  11  12 309.730  31.421   4
 -11  13  12 287.823  31.038   4
  -2  13 -12 318.839  21.746   1
   5   8 -12 2681.81   74.03   1
 -13   8  12 2445.06   81.89   4
  -8  13  12 2470.67   81.11   4
  -8  -5 -12 2729.31   79.34   3
  -8  13  12 2538.68   77.30   1
 -13   5  12 1488.15   56.89   4
   5   8  12 1625.91   54.00   1
   8   5 -12 1522.31   51.27   1
  -5  -8 -12 1673.02   57.11   3
  -5  13  12 1532.89   57.64   1
   2  11  12 997.764  43.729   1
  -2  13  12 1017.87   46.55   1
   7   7 -12 165.580  19.757   1
 -14   7  12 205.444  25.353   4
  -7  14  12 252.735  25.743   1
  -7  -7 -12 231.271  23.371   3
   1  -1 -13 7.73915 8.84528   2
   1   0  13 16.6349 10.1691   1
  -1   0 -13 4.24743 9.63610   2
   0  -1  13 -8.9914  9.5227   1
  -1   1  13 2.98466 9.38146   1
   0   1 -13 -3.2186  8.3299   2
  -2   2 -13 -0.4940  9.2252   3
   0  -2 -13 -6.1124  8.8765   2
  -2   2 -13 0.63671 8.76818   2
   2  -2  13 10.5373 10.1540   1
   0   2  13 -10.990   8.599   1
  -2   0  13 18.1521 11.3161   1
   2   0 -13 -1.9151  9.5737   2
   2   1  13 470.570  23.400   1
   1   2 -13 445.730  25.275   2
  -3   1 -13 427.499  24.055   3
   2  -3 -13 441.189  21.689   2
  -3   1 -13 443.727  24.760   2
  -3   2  13 410.463  23.986   1
  -2  -1 -13 451.217  24.779   2
   3  -2 -13 411.767  22.270   2
   3  -1  13 457.039  23.545   1
  -1   3 -13 437.411  25.334   2
  -2  -1 -13 386.023  26.037   3
  -2   3  13 418.062  23.059   1
  -4   4  13 -4.3945  9.5231   1
   4   0  13  6.8126 10.4833   1
  -4   0 -13 8.60913 9.34363   3
   4  -4 -13 -1.7745  8.3421   2
   0   4 -13 11.4621 10.0767   2
   1   3  13 149.712  16.870   1
  -4   3 -13 91.8768 15.9868   2
  -4   1  13 127.827  17.229   1
  -4   3 -13 131.786  15.229   3
   3   1 -13 148.732  17.238   2
   4  -3  13 124.368  15.383   1
  -3   4 -13 167.687  16.423   3
  -1   4  13 131.095  15.567   1
   4  -1 -13 130.199  15.991   2
  -3   4 -13 119.129  15.831   2
  -5   2 -13 48.3546 11.4090   3
  -5   2 -13 50.8106 14.0303   2
   2   3 -13 70.4414 13.7561   2
  -5   3  13 45.8222 12.5575   1
   3   2  13 50.8453 13.3765   1
   5  -3 -13 54.1157 11.5055   2
  -3  -2 -13 47.7460 12.6991   3
   5  -2  13 44.3575 11.4465   1
  -3   5  13 41.7779 11.9550   1
  -2   5 -13 48.9579 13.5098   2
  -5   5 -13 -12.022  10.626   2
   0   5  13 -8.8093 10.3089   1
  -5   5 -13 4.81939 8.50111   3
   5   0 -13  2.3437 10.2919   2
   5   1  13 91.4445 14.1138   1
  -6   5  13 94.3523 14.3766   1
   1   5 -13 77.1037 13.9387   2
  -6   1 -13 100.555  14.384   3
  -5  -1 -13 98.7250 15.1463   3
  -1   6 -13 95.9630 15.8119   2
  -5   6  13 92.2874 14.5964   1
   2   4  13 1909.12   59.49   1
   4   2 -13 1996.40   59.38   2
  -6   2  13 1990.68   60.92   1
  -6   4 -13 1967.35   57.71   3
  -6   4 -13 2066.11   63.26   2
  -4   6 -13 1899.31   61.11   2
   6  -2 -13 1964.73   58.28   2
  -2   6  13 1944.53   60.19   1
  -2  -4 -13 1905.33   63.42   3
  -7   7  13 0.40557 9.98635   1
   0   7 -13 -11.533   8.361   1
  -7   0 -13  8.3346 10.0732   3
   0   7 -13 11.3677 11.1617   2
  -7   3 -13 1076.62   39.62   3
   4   3  13 1114.94   40.99   1
  -7   4  13 1229.74   42.13   1
   3   4 -13 1142.77   41.33   2
  -4  -3 -13 1143.16   44.14   3
  -4   7  13 1147.44   42.78   1
  -3   7 -13 1169.81   44.45   2
  -7   6 -13 263.550  23.755   2
  -7   6 -13 272.120  17.907   3
   1   6  13 294.737  24.244   1
   6   1 -13 258.632  19.902   2
  -1   7  13 272.480  24.272   1
  -1  -6 -13 296.544  26.097   3
   7  -1 -13 294.625  20.808   2
  -6   7 -13 288.695  24.321   2
  -8   6  13 49.5919 12.0476   1
   2   6 -13 62.7456 12.4310   1
  -8   2 -13 68.2912 12.8080   3
   2   6 -13 72.8180 12.7771   2
  -6  -2 -13 42.4042 13.0968   3
  -2   8 -13 62.8136 15.1265   2
  -6   8  13 50.9221 13.6910   1
  -8   3  13 39.8763 14.3797   1
  -8   5 -13 45.0750 11.0698   3
   5   3 -13 60.7555 12.4070   2
   3   5  13 59.3061 15.1425   1
  -5   8 -13 49.1216 14.7360   2
  -3  -5 -13 44.9042 14.4162   3
  -3   8  13 48.7369 14.4565   1
   0   8  13 -6.7759 11.6256   1
   0  -8 -13 -7.0030 12.1095   3
  -8   8 -13 -0.7904 13.3554   2
  -9   8  13 87.4285 15.0763   1
  -9   1 -13 78.0807 14.5685   3
   1   8 -13 78.0217 13.3870   1
  -8  -1 -13 55.3397 13.7067   3
  -8   9  13 82.1011 15.4050   1
  -1   9 -13 74.1123 15.1711   2
  -1   9 -13 95.3707 13.5389   1
  -9   5  13 151.216  17.927   1
   5   4  13 147.409  18.504   1
   4   5 -13 132.417  16.300   2
  -9   4 -13 174.590  17.157   3
   4   5 -13 136.426  15.961   1
  -4   9 -13 124.076  19.194   2
  -5  -4 -13 141.673  18.714   3
  -5   9  13 114.698  17.772   1
   7   2 -13 681.999  30.195   2
  -9   7 -13 669.859  35.200   2
   2   7  13 627.088  33.602   1
  -2   9  13 667.691  35.025   1
  -2  -7 -13 753.323  36.660   3
  -7   9 -13 756.455  36.715   2
 -10  10  13 -7.8486 14.5661   4
   0  10 -13 -18.007   8.853   1
 -10  10  13 -6.8376 11.7345   1
 -10   0 -13 -7.4952 10.4451   3
 -10   7  13 128.692  21.364   4
 -10   7  13 130.720  16.542   1
 -10   3 -13 149.210  17.173   3
   3   7 -13 112.962  15.489   1
  -3  10 -13 125.597  18.978   2
  -7  10  13 125.215  18.384   1
  -7  -3 -13 132.559  17.888   3
  -3  10 -13 144.555  15.755   1
   4   6  13 872.400  37.848   1
 -10   4  13 855.260  36.882   1
   6   4 -13 888.265  35.703   2
 -10   6 -13 822.927  34.377   3
  -4  -6 -13 812.877  38.348   3
  -4  10  13 798.299  38.559   1
  -6  10 -13 797.532  39.510   2
   1   9  13 139.822  20.104   1
   1 -10 -13 122.573  20.830   3
  -1  -9 -13 124.983  20.225   3
  -1  10  13 146.596  21.180   1
 -11   9  13 128.464  22.374   4
   2   9 -13 112.915  16.060   1
  -9  11  13 104.277  21.668   4
  -2  11 -13 135.838  15.537   1
  -9  -2 -13 107.589  17.647   3
  -9  11  13 136.036  19.229   1
   5   6 -13 419.362  24.364   1
 -11   6  13 299.483  28.025   4
   6   5  13 391.539  24.960   1
  -6  11  13 349.586  31.408   4
  -6  11  13 342.563  28.798   1
  -6  -5 -13 376.049  26.267   3
 -11   3  13 181.802  21.963   1
 -11   3  13 159.997  22.301   4
   3   8  13 161.178  20.748   1
  -3  11  13 152.157  21.985   1
  -3  -8 -13 194.983  22.661   3
   0  11  13 -5.2790 13.4929   1
   4   8 -13 43.9344 13.2003   1
 -12   8  13 43.3348 16.8567   4
  -8  -4 -13 64.7327 15.6192   3
  -8  12  13 97.3540 20.3840   4
  -8  12  13 51.0779 16.1917   1
   5   7  13 122.362  18.166   1
 -12   5  13 142.486  21.076   4
   7   5 -13 113.348  17.006   1
  -5  -7 -13 140.821  20.086   3
  -5  12  13 143.463  21.434   1
   2  10  13 832.075  40.428   1
  -2  12  13 849.225  41.846   1
   6   7 -13 19.7877 12.0673   1
 -13   7  13 12.6712 15.1795   4
  -7  13  13  6.5655 15.0491   1
  -7  -6 -13 15.1026 13.1916   3
  -7  13  13 -6.3548 14.9426   4
   4   9  13  4.2025 13.5076   1
  -4  13  13 36.3774 16.5268   1
   1   0 -14 673.839  29.347   2
   0  -1 -14 687.462  28.531   2
   0   1  14 627.176  28.995   1
  -1   1 -14 668.767  30.461   2
  -1   0  14 658.017  30.703   1
   1  -1  14 600.300  28.809   1
   2  -2 -14 1427.54   44.42   2
   0   2 -14 1323.34   46.82   2
  -2   0 -14 1359.33   50.54   3
   2   0  14 1396.91   44.42   1
  -2   2  14 1308.83   44.87   1
  -2   0 -14 1410.18   46.17   2
   1  -3 -14 -8.8867  8.2420   2
   2  -3  14 15.2699 12.0563   1
  -3   2 -14 14.8089 10.9574   3
   1   2  14 0.93525 9.54961   1
   2   1 -14  6.2798 10.8939   2
  -3   1  14  0.8426 10.7477   1
  -3   2 -14 -1.4359  8.9133   2
  -1  -2 -14 -1.9536  9.7630   2
   3  -2  14 -14.529   9.412   1
  -1   3  14 4.32614 9.75358   1
  -2   3 -14 -0.0316 10.4870   3
   3  -1 -14  1.0850 10.0806   2
  -2   3 -14 -15.240   9.622   2
   1   3 -14 10.3845 11.4197   2
   3  -4 -14 21.1841  9.5437   2
   3   1  14 19.3902 11.7588   1
  -4   1 -14 13.3502 11.3020   2
  -4   3  14 15.6607 10.8952   1
  -4   1 -14 40.1604 12.6216   3
  -3  -1 -14 28.4391 13.1315   3
   4  -1  14 18.3708 10.7287   1
   4  -3 -14 10.0462 10.2723   2
  -3   4  14 25.1499 10.9238   1
  -1   4 -14 24.0087 12.0815   2
   4  -4  14 85.8212 14.7051   1
  -4   4 -14 98.4134 14.3910   3
   4   0 -14 68.2109 14.7209   2
   0   4  14 81.2546 14.6040   1
  -4   4 -14 92.3088 15.5135   2
   5   0  14 3838.03   99.83   1
  -5   5  14 4160.09  101.55   1
   0   5 -14 3909.31  105.63   2
  -5   0 -14 4184.89  108.71   3
  -5   3 -14 730.471  34.387   2
   2   3  14 804.389  34.212   1
  -5   2  14 673.659  33.215   1
  -5   3 -14 752.173  32.170   3
   3   2 -14 741.954  34.079   2
  -2   5  14 787.791  32.883   1
  -2  -3 -14 706.414  36.664   3
  -3   5 -14 780.249  35.094   2
   5  -2 -14 808.369  32.674   2
  -6   2 -14 6.42967 9.45333   3
  -6   4  14  8.1198 10.6270   1
   4   2  14 -8.9091 10.8667   1
   2   4 -14 33.0980 12.6062   2
  -2   6 -14 -1.8153 11.9306   2
  -4   6  14 -9.6241  9.6892   1
  -4  -2 -14  6.2447 10.4858   3
   1   5  14 875.272  37.152   1
   5   1 -14 799.298  35.766   2
  -6   5 -14 874.435  37.730   2
  -6   5 -14 865.569  33.458   3
  -1  -5 -14 765.039  38.803   3
  -5   6 -14 818.038  37.056   2
   6  -1 -14 807.216  35.412   2
  -1   6  14 886.654  37.016   1
  -7   6  14 10.5847 11.6859   1
   1   6 -14 19.5630 11.9901   2
  -7   1 -14 10.4564 10.4623   3
  -6   7  14 -9.8123 10.4250   1
  -6  -1 -14  0.9699 10.5597   3
  -1   7 -14 16.5631 12.7297   2
   3   4  14 70.0487 15.4299   1
  -7   4 -14 78.9799 13.6058   3
   4   3 -14 78.9664 14.9592   2
  -7   3  14 106.080  16.812   1
  -3  -4 -14 80.6960 16.9338   3
  -3   7  14 96.0921 16.0681   1
  -4   7 -14 68.8743 15.5620   2
  -7   7 -14 352.445  25.762   2
   0   7  14 309.627  26.397   1
   0  -7 -14 289.471  26.861   3
   7   0 -14 307.394  24.176   2
  -8   0 -14 2983.96   86.66   3
  -8   8  14 3046.48   81.10   1
   3   5 -14 440.909  26.611   2
  -8   5  14 435.205  25.495   1
  -8   3 -14 432.119  24.780   3
   5   3  14 442.480  26.081   1
  -3   8 -14 493.715  29.438   2
  -5  -3 -14 435.263  27.465   3
  -5   8  14 418.848  26.599   1
  -8   6 -14 949.235  36.647   3
  -8   2  14 1016.40   41.92   1
   6   2 -14 978.928  39.155   2
   2   6  14 1000.62   41.48   1
  -8   6 -14 950.015  42.276   2
  -6   8 -14 1001.74   42.20   2
  -2  -6 -14 921.198  43.207   3
  -2   8  14 914.425  40.854   1
  -9   2 -14 99.2605 15.7465   3
  -9   7  14 94.9595 14.7525   1
   2   7 -14 95.6308 14.7022   1
  -7  -2 -14 77.0186 15.6789   3
  -7   9  14 63.3817 14.9726   1
  -9   4  14 26.8971 13.6675   1
  -9   5 -14 21.8667 10.2280   3
   4   5  14 26.2977 13.6680   1
  -4  -5 -14 41.7664 15.5912   3
  -4   9  14 11.8386 12.8378   1
  -5   9 -14 45.0590 15.6369   2
  -9   8 -14 409.615  28.697   2
   1   8  14 370.684  27.894   1
   8   1 -14 393.581  24.705   2
   1  -9 -14 392.259  28.840   3
  -1  -8 -14 350.722  28.506   3
  -8   9 -14 417.522  29.842   2
  -1   9  14 380.602  28.232   1
 -10   9  14 87.0664 20.8575   4
 -10   9  14 88.8294 15.7755   1
 -10   1 -14 78.8015 15.2384   3
   1   9 -14 83.0993 15.3950   1
  -9  10  14 101.721  22.402   4
  -9  -1 -14 82.8491 16.2844   3
  -1  10 -14 93.3691 14.7456   1
  -9  10  14 116.403  17.501   1
 -10   4 -14 67.3660 13.5390   3
   6   4  14 70.4756 15.1833   1
 -10   6  14 65.5337 14.1955   1
  -6  -4 -14 52.7545 15.0874   3
  -6  10  14 67.1205 15.9306   1
   3   7  14 986.337  42.129   1
 -10   3  14 971.752  41.356   1
  -3  -7 -14 930.533  44.807   3
  -3  10  14 955.730  43.022   1
   0 -10 -14 260.982  27.084   3
   0  10  14 240.776  25.215   1
 -11   3 -14 629.057  32.336   3
   3   8 -14 599.569  30.061   1
 -11   8  14 584.022  36.336   4
  -3  11 -14 699.138  30.256   1
  -8  11  14 753.903  35.586   1
  -8  11  14 604.810  39.133   4
  -8  -3 -14 623.091  34.090   3
 -11   5  14 886.576  42.599   4
 -11   5  14 838.998  36.719   1
  -5  -6 -14 954.921  42.632   3
  -5  11  14 816.396  40.763   1
   2   9  14 40.8584 17.2986   1
  -2  -9 -14 43.7435 18.1501   3
  -2  11  14 104.363  20.046   1
 -12   7  14 232.801  26.489   4
   5   7 -14 246.830  22.932   1
  -7  12  14 262.872  28.200   4
  -7  -5 -14 248.074  25.240   3
  -7  12  14 246.520  25.422   1
   4   8  14 136.476  21.032   1
 -12   4  14 69.0366 17.8627   4
  -4  12  14 114.850  21.044   1
  -4  -8 -14 110.996  20.082   3
   0   0  15  5.9205 10.6636   1
   0   0 -15 5.96299 9.55385   2
   1   1  15 1754.84   51.82   1
   1  -2  15 1705.94   53.97   1
   1   1 -15 1652.39   54.33   2
  -2   1 -15 1565.07   57.22   3
  -2   1 -15 1649.23   52.63   2
  -2   1  15 1546.05   51.96   1
   1  -2 -15 1629.33   50.48   2
  -1  -1 -15 1624.36   51.82   2
  -1  -1  15 1697.78   54.87   1
  -1   2  15 1621.09   51.09   1
  -1   2 -15 1578.31   52.75   2
   2  -1  15 1601.26   50.84   1
   2  -1 -15 1679.08   52.23   2
  -3   3  15 -19.853   9.225   1
  -3   0 -15 -22.757  10.595   3
   3  -3 -15 3.10411 8.91424   2
  -3   0 -15 -17.296   9.902   2
   3   0  15 -4.9767 10.7181   1
   0   3 -15  6.6525 11.9109   2
   0   3  15 -11.060   9.717   1
  -3   3 -15  1.8095 10.1829   2
  -3   0  15  4.4320 12.7977   1
   3   0 -15 -3.7666 10.9860   2
   3  -3  15 -7.4706  9.9995   1
  -3   3 -15 -15.495   9.595   3
   2   2 -15 147.020  19.217   2
  -4   2 -15 175.958  18.727   2
   2  -4 -15 134.938  16.300   2
  -4   2 -15 138.054  18.539   3
  -4   2  15 137.936  18.001   1
   2   2  15 141.551  16.614   1
  -2   4 -15 141.676  18.688   3
  -2   4  15 139.588  16.829   1
   4  -2 -15 145.137  16.804   2
  -2   4 -15 149.166  18.257   2
  -2  -2 -15 160.221  21.239   3
   4  -2  15 149.181  16.034   1
  -5   1 -15 460.350  27.481   3
  -5   4  15 396.487  24.534   1
   4   1  15 407.383  25.046   1
   1   4 -15 395.834  26.872   2
  -4  -1 -15 462.813  29.410   3
  -4   5  15 409.854  24.602   1
  -1   5 -15 473.236  28.550   2
   5  -1  15 428.461  24.595   1
   4   1 -15 303.212  23.402   2
  -5   1  15 311.965  26.140   1
  -5   4 -15 297.928  21.419   3
   4  -5  15 286.414  23.468   1
  -5   4 -15 333.038  23.794   2
   1   4  15 291.861  24.159   1
  -4   5 -15 282.578  24.335   2
   5  -1 -15 266.569  23.194   2
  -1   5  15 318.482  23.420   1
  -1  -4 -15 243.751  24.780   3
   0   6 -15 -1.0381 11.5815   2
  -6   0 -15 -9.6370 10.8668   3
  -6   6  15 -10.708   9.422   1
  -6   3 -15 21.1954 13.3083   2
   3   3  15 10.4433 12.1179   1
  -6   3  15  1.0038 11.9048   1
   3   3 -15 12.2399 12.7303   2
  -6   3 -15 23.7306 11.6403   3
  -3   6 -15 15.7562 12.2236   2
  -3  -3 -15 22.6537 12.9055   3
  -3   6  15 18.8122 11.9991   1
  -6   6 -15 -2.4347 11.6324   2
   0  -6 -15 -20.988  12.050   3
   0   6  15  0.7026 11.5704   1
   6   0 -15  8.2057 13.4383   2
  -7   5  15 267.293  22.149   1
  -7   2 -15 264.305  22.996   3
   5   2  15 237.322  22.471   1
  -5   7  15 290.292  21.810   1
  -2   7 -15 257.003  24.624   2
  -5  -2 -15 228.571  24.318   3
   2   5  15 536.973  30.608   1
  -7   5 -15 577.432  28.613   3
   5   2 -15 526.994  29.874   2
  -7   2  15 531.728  31.331   1
  -7   5 -15 576.691  32.169   2
  -2   7  15 559.420  30.409   1
  -5   7 -15 493.265  29.899   2
  -2  -5 -15 451.778  32.397   3
  -8   1 -15 25.3637 12.7313   3
  -8   7  15  8.0375 10.7881   1
  -7   8  15 42.8465 13.4243   1
  -7  -1 -15 25.9714 13.5158   3
  -8   4 -15 878.231  36.740   3
  -8   4  15 888.331  38.073   1
   4   4  15 851.380  38.197   1
  -4  -4 -15 766.604  40.037   3
  -4   8  15 902.100  38.140   1
   7   1 -15 22.4340 13.6747   2
   1   7  15 50.0368 15.9256   1
   1  -8 -15 32.8402 15.4918   3
  -1  -7 -15 26.4002 15.4288   3
  -1   8  15 19.6466 14.6475   1
  -9   0 -15 -4.7587 11.8444   3
  -9   9  15 17.5263 11.6175   1
  -9   3 -15 331.120  23.351   3
  -9   6  15 304.764  23.931   1
  -6  -3 -15 291.536  27.074   3
  -6   9  15 327.901  24.040   1
   3   6  15 383.311  28.530   1
  -9   3  15 298.783  27.246   1
  -9   6 -15 360.861  23.933   3
  -3  -6 -15 343.253  30.216   3
  -3   9  15 377.920  27.115   1
   0   9  15  3.5070 14.0013   1
   0  -9 -15 -17.385  14.311   3
 -10   8  15 235.862  21.410   1
 -10   2 -15 253.388  23.994   3
 -10   8  15 199.352  25.441   4
  -8  -2 -15 216.315  23.409   3
  -8  10  15 229.427  22.539   1
 -10   5 -15 21.8280 11.3212   3
 -10   5  15  6.0815 12.3881   1
   5   5  15 26.6003 14.6683   1
  -5  10  15 32.2796 14.6277   1
  -5  -5 -15 44.6201 16.0596   3
   2 -10 -15 263.458  26.767   3
 -10   2  15 258.186  25.802   1
   2   8  15 246.602  25.966   1
  -2  10  15 229.838  25.665   1
  -2  -8 -15 223.643  25.869   3
 -11   4 -15 213.666  21.709   3
 -11   7  15 180.900  24.469   4
  -7  -4 -15 173.747  22.619   3
  -7  11  15 206.016  22.551   1
  -7  11  15 298.060  31.282   4
 -11   4  15 49.4112 17.4563   4
   4   7  15 38.5155 15.7000   1
 -11   4  15 40.3059 16.0766   1
  -4  11  15 22.1903 15.4638   1
  -4  -7 -15 67.0346 18.1033   3
  -1   1  16 1367.99   47.65   1
   0  -1  16 1446.95   49.23   1
  -1   0 -16 1327.02   46.58   2
   1  -1 -16 1443.88   47.63   2
   0   1 -16 1338.66   48.14   2
   1   0  16 1439.87   47.03   1
   0  -2 -16 1597.27   51.26   2
  -2   2 -16 1636.37   57.93   3
   2   0 -16 1583.92   53.24   2
   2  -2  16 1651.15   52.70   1
  -2   2 -16 1591.77   53.71   2
  -2   0  16 1603.74   54.67   1
   0   2  16 1620.94   51.40   1
   2   1  16 69.5551 13.9155   1
  -3   1 -16 48.4510 13.1297   2
  -3   1 -16 46.4190 15.7892   3
   2  -3 -16 42.8247 12.3466   2
   1   2 -16 29.7353 13.4259   2
   1  -3  16 64.9797 15.7320   1
  -3   2  16 35.2310 13.1653   1
  -2   3  16 48.0468 13.3323   1
  -1  -2  16 71.5764 16.2408   1
  -2  -1 -16 64.3672 17.0592   3
   3  -2 -16 61.1511 13.7315   2
   3  -1  16 59.2677 13.3643   1
  -1   3 -16 51.6400 14.3519   2
   0   4 -16 12.6162 13.0722   2
   4   0  16 -8.6646  9.9714   1
  -4   4  16 12.0542 11.2470   1
  -4   0 -16 18.8501 14.0453   3
  -4   1  16 59.8458 15.2797   1
   3   1 -16 51.6890 14.8094   2
  -4   3 -16 23.3548 13.2106   3
   1   3  16 49.3771 13.0841   1
  -4   3 -16 54.0821 13.7573   2
   3  -4  16 36.2009 13.5905   1
   4  -3  16 71.6731 13.6751   1
   4  -1 -16 52.2870 14.2320   2
  -1   4  16 58.6024 13.6217   1
  -3   4 -16 41.0630 14.6499   3
  -3   4 -16 52.1068 14.4821   2
  -1  -3 -16 35.2719 14.0882   3
  -5   2 -16 1033.59   43.02   3
  -5   2 -16 1055.26   42.29   2
  -5   3  16 1013.99   40.67   1
   2   3 -16 942.253  42.439   2
   3   2  16 1095.81   41.39   1
  -3  -2 -16 945.517  45.170   3
  -2   5 -16 937.015  41.499   2
  -3   5  16 1022.61   39.59   1
   5   0 -16 4883.78  122.83   2
   0  -5 -16 4618.16  128.18   3
  -5   0  16 4701.92  123.18   1
   0   5  16 4770.48  119.11   1
  -6   1 -16 1398.65   53.01   3
   5   1  16 1368.70   47.84   1
  -6   5  16 1464.68   49.09   1
  -5  -1 -16 1438.90   55.16   3
  -5   6  16 1320.71   47.41   1
   4   2 -16 78.9772 17.0728   2
  -6   2  16 56.5154 15.7885   1
  -6   4 -16 114.855  17.042   3
   2   4  16 65.1455 15.4964   1
  -2  -4 -16 103.846  19.460   3
  -2   6  16 112.287  17.327   1
  -7   0 -16 690.564  36.481   3
  -7   7  16 682.213  31.910   1
   4   3  16 134.458  18.938   1
  -7   4  16 156.271  19.734   1
  -7   3 -16 148.654  18.891   3
  -4   7  16 194.544  20.655   1
  -4  -3 -16 175.330  22.853   3
  -7   1  16 209.325  23.733   1
   1   6  16 182.653  22.022   1
   1  -7 -16 240.544  24.548   3
  -1   7  16 231.907  23.457   1
  -1  -6 -16 207.062  24.782   3
  -8   2 -16 974.217  42.268   3
  -8   6  16 986.763  39.212   1
  -6   8  16 975.493  40.239   1
  -6  -2 -16 1010.67   45.87   3
   3   5  16 764.625  37.508   1
  -8   3  16 761.688  37.118   1
  -8   5 -16 801.494  35.970   3
  -3  -5 -16 742.042  40.544   3
  -3   8  16 771.300  36.281   1
   0   8  16 2630.10   81.38   1
   0  -8 -16 2729.39   86.23   3
  -9   1 -16 79.1252 16.6145   3
  -9   8  16 67.0855 14.3679   1
  -8   9  16 80.6530 15.6736   1
  -8  -1 -16 57.1676 16.5232   3
  -9   4 -16 41.8891 13.5449   3
   5   4  16 61.7702 16.2697   1
  -9   5  16 61.6265 14.7566   1
  -5   9  16 47.6434 14.7288   1
  -5  -4 -16 71.9056 18.5804   3
   2  -9 -16  0.9221 12.8465   3
   2   7  16 -2.8827 14.1094   1
  -9   2  16 21.8036 15.0261   1
  -2  -7 -16 -2.4119 14.6797   3
  -2   9  16  0.5357 13.3256   1
 -10   7  16 1058.46   40.92   1
 -10   3 -16 1011.75   43.79   3
  -7  10  16 996.308  41.573   1
  -7  -3 -16 1027.12   47.35   3
   4   6  16 28.4043 15.8001   1
 -10   6 -16  1.5438 12.1009   3
 -10   4  16 24.8365 14.5381   1
  -4  -6 -16  5.0057 15.0086   3
  -4  10  16 31.8898 15.1419   1
   0   1  17  3.4516 11.1074   1
  -1   1 -17  9.7542 12.9555   3
   1   0 -17  2.3301 10.1970   2
   1  -1  17 -2.9774 10.9704   1
  -1   1 -17  3.4758 10.7067   2
  -1   0  17  3.9795 11.9406   1
   0  -1 -17 11.1405 10.8534   2
  -2   0 -17  0.8361 12.7261   3
   0  -2  17 31.8385 14.3488   1
  -2   2  17  6.2571 11.2403   1
   2  -2 -17 -1.8393  9.7200   2
   2   0  17 -4.3580 11.5917   1
   2  -3  17 93.6294 16.3698   1
   2   1 -17 105.792  17.729   2
  -3   2 -17 103.299  18.979   3
   1  -3 -17 105.700  15.243   2
  -3   1  17 85.1537 16.1368   1
   1   2  17 119.456  16.898   1
  -1   3  17 112.571  16.272   1
  -1  -2 -17 102.500  19.838   3
  -2  -1  17 119.387  19.223   1
   3  -1 -17 130.417  17.949   2
   3  -2  17 101.274  16.031   1
  -2   3 -17 91.8293 18.4129   3
   3   1  17 201.667  20.072   1
  -4   1 -17 208.358  24.031   3
   1  -4  17 222.035  23.983   1
  -4   3  17 189.406  20.538   1
  -3  -1 -17 213.088  24.360   3
  -3   4  17 217.190  20.717   1
   4  -1  17 208.438  19.751   1
  -4   0  17 -5.1267 12.7526   1
  -4   4 -17 -1.8629 12.6874   3
   4  -4  17 -2.8974 11.3654   1
   0  -4 -17 -22.271   9.835   3
   0   4  17 -8.4725 10.8088   1
  -5   0 -17 -0.1959 12.5048   3
  -5   5  17 16.3862 11.4619   1
  -5   2  17 107.148  18.235   1
   3  -5  17 82.1056 18.0409   1
   2   3  17 93.7717 16.5260   1
  -5   3 -17 118.987  19.026   3
  -2   5  17 122.883  16.988   1
  -2  -3 -17 60.5899 18.4955   3
  -6   4  17 1265.43   47.15   1
  -6   2 -17 1366.01   52.33   3
   4   2  17 1310.28   47.66   1
  -4  -2 -17 1227.21   53.26   3
  -4   6  17 1316.29   47.08   1
   1   5  17 40.6022 14.1396   1
  -6   1  17 61.4510 17.2628   1
  -1  -5 -17 47.5947 16.8509   3
  -1   6  17 28.3610 13.4527   1
  -7   1 -17 157.099  21.409   3
  -7   6  17 132.742  18.368   1
  -6  -1 -17 133.410  21.768   3
  -6   7  17 131.919  18.199   1
  -7   4 -17 515.884  31.291   3
  -7   3  17 485.450  31.117   1
   3   4  17 494.484  29.829   1
  -3   7  17 527.182  29.322   1
  -3  -4 -17 479.320  33.656   3
  -7   0  17 40.0289 16.2801   1
   0   7  17 -9.6471 12.8049   1
   0  -7 -17  0.3946 13.6737   3
  -8   5  17 98.9801 16.5397   1
  -8   3 -17 114.665  18.258   3
   5   3  17 75.7863 17.8455   1
  -5   8  17 83.8992 16.3846   1
  -5  -3 -17 60.1879 18.2692   3
   2   6  17 31.5091 14.7106   1
  -8   2  17 32.8334 15.2880   1
  -2   8  17 -12.183  13.487   1
  -2  -6 -17 55.6352 17.8745   3
  -9   5 -17 119.808  18.069   3
   4   5  17 135.950  20.331   1
  -9   4  17 131.383  19.439   1
  -4   9  17 126.339  19.096   1
  -4  -5 -17 114.610  22.058   3
   0   0  18 431.761  26.747   1
   1  -2  18 30.6438 14.5626   1
  -2   1  18 29.9811 13.6668   1
  -2   1 -18 38.0057 15.6777   3
   1   1  18 24.7631 11.7852   1
   2  -1  18 32.0774 12.6441   1
  -1  -1 -18 27.2142 15.0279   3
  -1   2  18  4.3120 11.6459   1
  -1   2 -18 29.9511 15.2916   3
  -1  -1  18 30.8962 14.4670   1
  -3   0 -18 1141.51   51.09   3
  -3   3  18 1157.27   44.61   1
   3   0  18 1177.19   42.81   1
   0  -3  18 1182.73   48.51   1
   3  -3  18 2653.92   74.96   1
  -3   0  18 2642.07   78.82   1
   0  -3 -18 2621.52   81.99   3
  -3   3 -18 2480.72   82.42   3
  -4   2  18 295.055  25.832   1
   2  -4  18 240.450  24.845   1
  -4   2 -18 278.717  27.539   3
   2   2  18 266.441  22.727   1
  -2  -2 -18 263.666  27.021   3
   4  -2  18 267.723  22.985   1
  -2   4  18 262.831  23.078   1
  -2  -2  18 236.686  25.422   1
   4   1  18 13.8933 13.4015   1
  -5   1 -18 40.1218 16.1955   3
  -5   4  18 27.2833 13.1643   1
  -4   5  18 27.3991 12.5893   1
  -4  -1 -18  1.8068 14.0046   3
   1   4  18 15.4090 13.0418   1
  -5   4 -18 30.0555 16.3348   3
  -5   1  18 13.5864 14.1620   1
  -1   5  18  4.8279 12.0468   1
  -4  -1  18 15.6739 15.4955   1
  -1  -4 -18 19.5494 15.6994   3
  -6   0 -18 -10.994  13.797   3
  -6   6  18  6.2917 11.7662   1
  -6   3 -18 594.276  34.429   3
   3   3  18 528.382  29.926   1
  -6   3  18 540.039  31.514   1
   3  -6  18 514.393  33.109   1
  -3  -3 -18 483.710  34.573   3
  -3   6  18 535.622  30.048   1
  -6   0  18 -4.0732 13.4831   1
   0  -6 -18  4.4693 14.1182   3
   0   6  18 21.6021 12.6738   1
  -7   5  18 480.442  29.697   1
  -7   2 -18 491.834  32.227   3
  -5  -2 -18 486.382  34.680   3
  -5   7  18 491.286  28.958   1
  -7   2  18 55.0605 16.4476   1
   2   5  18 46.6406 16.2676   1
  -2   7  18 57.7984 15.2138   1
  -2  -5 -18 49.9618 18.4849   3
  -1   0 -19  2.8097 13.8564   3
   1   0  19 28.5286 13.5963   1
  -1   1  19 -2.2293 11.0682   1
   0  -1  19 11.6891 13.2158   1
   0   2  19 -1.7071 10.9728   1
   0  -2 -19 37.2812 15.0040   3
  -2   2 -19 -20.120  12.740   3
  -2   0  19 13.8059 13.2204   1
   2  -2  19 -7.8685 10.9902   1
  -3   2  19 855.893  38.218   1
   2   1  19 854.738  36.793   1
  -3   1 -19 818.706  43.062   3
   1  -3  19 864.463  39.802   1
  -1  -2  19 841.109  40.040   1
  -2  -1 -19 784.827  42.579   3
  -2   3  19 785.855  36.704   1
   3  -1  19 861.943  36.061   1
   4   0  19 -1.0377 12.0158   1
   0  -4  19 35.5756 16.2795   1
  -4   0 -19 -2.3646 14.2899   3
  -4   4  19 -6.3658 10.5779   1
   1   3  19 -10.701  11.559   1
  -4   1  19 22.8371 14.5780   1
   3  -4  19  9.3692 13.1127   1
  -4   3 -19 18.7005 15.8755   3
  -1  -3 -19 -16.881  12.413   3
  -1   4  19 18.3640 12.2009   1
  -3  -1  19  8.1300 15.1579   1
   3   2  19 137.386  18.959   1
  -5   3  19 143.804  19.773   1
   2  -5  19 155.823  21.313   1
  -5   2 -19 107.974  21.516   3
  -3  -2 -19 120.666  22.177   3
  -3   5  19 106.492  17.146   1
  -2  -3  19 141.412  21.934   1
   0   0   0    0.00    0.00   0
;
_shelx_hkl_checksum              59692
#END Tags that were not found in dictionaries
loop_
_space_group_symop_operation_xyz
'x, y, z'
'-y, x-y, z'
'-x+y, -x, z'
'y, x, -z+1/2'
'x-y, -y, -z+1/2'
'-x, -x+y, -z+1/2'
'x+2/3, y+1/3, z+1/3'
'-y+2/3, x-y+1/3, z+1/3'
'-x+y+2/3, -x+1/3, z+1/3'
'y+2/3, x+1/3, -z+5/6'
'x-y+2/3, -y+1/3, -z+5/6'
'-x+2/3, -x+y+1/3, -z+5/6'
'x+1/3, y+2/3, z+2/3'
'-y+1/3, x-y+2/3, z+2/3'
'-x+y+1/3, -x+2/3, z+2/3'
'y+1/3, x+2/3, -z+7/6'
'x-y+1/3, -y+2/3, -z+7/6'
'-x+1/3, -x+y+2/3, -z+7/6'
'-x, -y, -z'
'y, -x+y, -z'
'x-y, x, -z'
'-y, -x, z-1/2'
'-x+y, y, z-1/2'
'x, x-y, z-1/2'
'-x+2/3, -y+1/3, -z+1/3'
'y+2/3, -x+y+1/3, -z+1/3'
'x-y+2/3, x+1/3, -z+1/3'
'-y+2/3, -x+1/3, z-1/6'
'-x+y+2/3, y+1/3, z-1/6'
'x+2/3, x-y+1/3, z-1/6'
'-x+1/3, -y+2/3, -z+2/3'
'y+1/3, -x+y+2/3, -z+2/3'
'x-y+1/3, x+2/3, -z+2/3'
'-y+1/3, -x+2/3, z+1/6'
'-x+y+1/3, y+2/3, z+1/6'
'x+1/3, x-y+2/3, z+1/6'
loop_
_atom_site_label
_atom_site_type_symbol
_atom_site_fract_x
_atom_site_fract_y
_atom_site_fract_z
_atom_site_U_iso_or_equiv
_atom_site_adp_type
_atom_site_occupancy
_atom_site_site_symmetry_order
_atom_site_calc_flag
_atom_site_refinement_flags_posn
_atom_site_refinement_flags_adp
_atom_site_refinement_flags_occupancy
U1 U 0.0000 0.0000 0.2500 0.00507(9) Uani 1 6 d S T P
Ba1 Ba 0.05084(2) 0.3333 0.0833 0.00531(8) Uani 1 2 d S T P
Mn1 Mn 0.0000 0.0000 0.0000 0.0055(2) Uani 1 6 d S T P
Se1 Se 0.18476(3) 0.15652(3) 0.11826(2) 0.00559(9) Uani 1 1 d . . .
loop_
_atom_site_aniso_label
_atom_site_aniso_U_11
_atom_site_aniso_U_22
_atom_site_aniso_U_33
_atom_site_aniso_U_23
_atom_site_aniso_U_13
_atom_site_aniso_U_12
U1 0.00492(11) 0.00492(11) 0.00537(14) 0.000 0.000 0.00246(5)
Ba1 0.00466(11) 0.00512(14) 0.00631(13) -0.00045(9) -0.00023(5) 0.00256(7)
Mn1 0.0057(3) 0.0057(3) 0.0052(6) 0.000 0.000 0.00285(17)
Se1 0.00484(16) 0.00502(16) 0.00612(15) -0.00021(11) 0.00013(11) 0.00186(13)
loop_
_atom_type_symbol
_atom_type_description
_atom_type_scat_dispersion_real
_atom_type_scat_dispersion_imag
_atom_type_scat_source
Mn Mn 0.3368 0.7283 'International Tables Vol C Tables 4.2.6.8 and 6.1.1.4'
Se Se -0.0929 2.2259 'International Tables Vol C Tables 4.2.6.8 and 6.1.1.4'
Ba Ba -0.3244 2.2819 'International Tables Vol C Tables 4.2.6.8 and 6.1.1.4'
U U -9.6767 9.6646 'International Tables Vol C Tables 4.2.6.8 and 6.1.1.4'
loop_
_geom_angle_atom_site_label_1
_geom_angle_atom_site_label_2
_geom_angle_atom_site_label_3
_geom_angle
_geom_angle_site_symmetry_1
_geom_angle_site_symmetry_3
Se1 U1 Se1 147.350(13) 4 3
Se1 U1 Se1 124.353(12) 4 2
Se1 U1 Se1 81.727(9) 3 2
Se1 U1 Se1 81.727(9) 4 6
Se1 U1 Se1 124.353(12) 3 6
Se1 U1 Se1 83.194(13) 2 6
Se1 U1 Se1 81.727(9) 4 5
Se1 U1 Se1 83.194(13) 3 5
Se1 U1 Se1 147.350(13) 2 5
Se1 U1 Se1 81.727(9) 6 5
Se1 U1 Se1 83.193(13) 4 .
Se1 U1 Se1 81.728(9) 3 .
Se1 U1 Se1 81.728(9) 2 .
Se1 U1 Se1 147.350(13) 6 .
Se1 U1 Se1 124.352(12) 5 .
Se1 U1 Mn1 49.067(6) 4 4
Se1 U1 Mn1 130.933(6) 3 4
Se1 U1 Mn1 130.933(6) 2 4
Se1 U1 Mn1 49.067(6) 6 4
Se1 U1 Mn1 49.067(6) 5 4
Se1 U1 Mn1 130.932(6) . 4
Se1 U1 Mn1 130.933(6) 4 .
Se1 U1 Mn1 49.067(6) 3 .
Se1 U1 Mn1 49.067(6) 2 .
Se1 U1 Mn1 130.933(6) 6 .
Se1 U1 Mn1 130.933(6) 5 .
Se1 U1 Mn1 49.068(6) . .
Mn1 U1 Mn1 180.0 4 .
Se1 Ba1 Se1 70.705(12) 30_455 26_455
Se1 Ba1 Se1 126.941(7) 30_455 34
Se1 Ba1 Se1 73.395(9) 26_455 34
Se1 Ba1 Se1 73.395(9) 30_455 21
Se1 Ba1 Se1 126.941(7) 26_455 21
Se1 Ba1 Se1 157.716(14) 34 21
Se1 Ba1 Se1 70.281(9) 30_455 18_554
Se1 Ba1 Se1 90.550(8) 26_455 18_554
Se1 Ba1 Se1 72.374(10) 34 18_554
Se1 Ba1 Se1 112.363(9) 21 18_554
Se1 Ba1 Se1 90.550(8) 30_455 2
Se1 Ba1 Se1 70.282(9) 26_455 2
Se1 Ba1 Se1 112.364(9) 34 2
Se1 Ba1 Se1 72.373(10) 21 2
Se1 Ba1 Se1 156.815(13) 18_554 2
Se1 Ba1 Se1 143.128(8) 30_455 .
Se1 Ba1 Se1 121.952(4) 26_455 .
Se1 Ba1 Se1 89.324(9) 34 .
Se1 Ba1 Se1 72.354(10) 21 .
Se1 Ba1 Se1 136.762(7) 18_554 .
Se1 Ba1 Se1 66.358(10) 2 .
Se1 Ba1 Se1 121.951(4) 30_455 17_554
Se1 Ba1 Se1 143.127(8) 26_455 17_554
Se1 Ba1 Se1 72.354(10) 34 17_554
Se1 Ba1 Se1 89.325(9) 21 17_554
Se1 Ba1 Se1 66.357(10) 18_554 17_554
Se1 Ba1 Se1 136.762(7) 2 17_554
Se1 Ba1 Se1 70.857(12) . 17_554
Se1 Ba1 Ba1 48.377(6) 30_455 21
Se1 Ba1 Ba1 78.671(6) 26_455 21
Se1 Ba1 Ba1 150.402(6) 34 21
Se1 Ba1 Ba1 48.272(6) 21 21
Se1 Ba1 Ba1 118.002(8) 18_554 21
Se1 Ba1 Ba1 47.033(5) 2 21
Se1 Ba1 Ba1 97.370(5) . 21
Se1 Ba1 Ba1 137.021(5) 17_554 21
Se1 Ba1 Ba1 78.669(6) 30_455 26_455
Se1 Ba1 Ba1 48.375(6) 26_455 26_455
Se1 Ba1 Ba1 48.274(6) 34 26_455
Se1 Ba1 Ba1 150.401(6) 21 26_455
Se1 Ba1 Ba1 47.034(5) 18_554 26_455
Se1 Ba1 Ba1 118.002(8) 2 26_455
Se1 Ba1 Ba1 137.022(5) . 26_455
Se1 Ba1 Ba1 97.371(5) 17_554 26_455
Ba1 Ba1 Ba1 116.307(5) 21 26_455
Se1 Ba1 Ba1 167.224(6) 30_455 27
Se1 Ba1 Ba1 113.859(6) 26_455 27
Se1 Ba1 Ba1 48.246(6) 34 27
Se1 Ba1 Ba1 109.818(8) 21 27
Se1 Ba1 Ba1 97.373(5) 18_554 27
Se1 Ba1 Ba1 102.218(8) 2 27
Se1 Ba1 Ba1 45.827(7) . 27
Se1 Ba1 Ba1 47.031(5) 17_554 27
Ba1 Ba1 Ba1 142.893(6) 21 27
Ba1 Ba1 Ba1 95.457(1) 26_455 27
Se1 Ba1 Ba1 113.860(6) 30_455 20
Se1 Ba1 Ba1 167.224(6) 26_455 20
Se1 Ba1 Ba1 109.817(8) 34 20
Se1 Ba1 Ba1 48.247(6) 21 20
Se1 Ba1 Ba1 102.217(8) 18_554 20
Se1 Ba1 Ba1 97.373(5) 2 20
Se1 Ba1 Ba1 47.030(5) . 20
Se1 Ba1 Ba1 45.827(7) 17_554 20
Ba1 Ba1 Ba1 95.456(1) 21 20
Ba1 Ba1 Ba1 142.894(6) 26_455 20
Ba1 Ba1 Ba1 64.477(3) 27 20
Se1 Mn1 Se1 86.212(9) 19 21
Se1 Mn1 Se1 93.788(9) 19 3
Se1 Mn1 Se1 180.000(16) 21 3
Se1 Mn1 Se1 86.212(9) 19 20
Se1 Mn1 Se1 86.212(9) 21 20
Se1 Mn1 Se1 93.788(9) 3 20
Se1 Mn1 Se1 93.788(9) 19 2
Se1 Mn1 Se1 93.788(9) 21 2
Se1 Mn1 Se1 86.212(9) 3 2
Se1 Mn1 Se1 180.000(14) 20 2
Se1 Mn1 Se1 180.0 19 .
Se1 Mn1 Se1 93.788(9) 21 .
Se1 Mn1 Se1 86.212(9) 3 .
Se1 Mn1 Se1 93.788(9) 20 .
Se1 Mn1 Se1 86.212(9) 2 .
Se1 Mn1 U1 127.902(6) 19 .
Se1 Mn1 U1 127.902(6) 21 .
Se1 Mn1 U1 52.098(6) 3 .
Se1 Mn1 U1 127.902(6) 20 .
Se1 Mn1 U1 52.098(6) 2 .
Se1 Mn1 U1 52.098(6) . .
Se1 Mn1 U1 52.098(6) 19 19
Se1 Mn1 U1 52.098(6) 21 19
Se1 Mn1 U1 127.902(6) 3 19
Se1 Mn1 U1 52.098(6) 20 19
Se1 Mn1 U1 127.902(6) 2 19
Se1 Mn1 U1 127.902(7) . 19
U1 Mn1 U1 180.0 . 19
Mn1 Se1 U1 78.834(8) . .
Mn1 Se1 Ba1 167.788(12) . 27
U1 Se1 Ba1 103.050(10) . 27
Mn1 Se1 Ba1 83.318(8) . 20
U1 Se1 Ba1 162.152(11) . 20
Ba1 Se1 Ba1 94.396(8) 27 20
Mn1 Se1 Ba1 82.080(9) . 3
U1 Se1 Ba1 92.795(9) . 3
Ba1 Se1 Ba1 109.720(9) 27 3
Ba1 Se1 Ba1 84.720(7) 20 3
Mn1 Se1 Ba1 82.051(8) . .
U1 Se1 Ba1 92.764(9) . .
Ba1 Se1 Ba1 85.797(8) 27 .
Ba1 Se1 Ba1 84.697(8) 20 .
Ba1 Se1 Ba1 161.829(10) 3 .
loop_
_geom_bond_atom_site_label_1
_geom_bond_atom_site_label_2
_geom_bond_distance
_geom_bond_site_symmetry_2
U1 Se1 2.8422(3) 4
U1 Se1 2.8422(3) 3
U1 Se1 2.8422(3) 2
U1 Se1 2.8422(3) 6
U1 Se1 2.8422(3) 5
U1 Se1 2.8422(3) .
U1 Mn1 3.53385(8) 4
U1 Mn1 3.53385(8) .
Ba1 Se1 3.2611(4) 30_455
Ba1 Se1 3.2611(4) 26_455
Ba1 Se1 3.3322(3) 34
Ba1 Se1 3.3322(3) 21
Ba1 Se1 3.3972(3) 18_554
Ba1 Se1 3.3972(3) 2
Ba1 Se1 3.3988(4) .
Ba1 Se1 3.3988(4) 17_554
Ba1 Ba1 4.53448(10) 21
Ba1 Ba1 4.53446(10) 26_455
Ba1 Ba1 4.53448(10) 27
Ba1 Ba1 4.53455(10) 20
Mn1 Se1 2.7212(3) 19
Mn1 Se1 2.7212(3) 21
Mn1 Se1 2.7212(3) 3
Mn1 Se1 2.7212(3) 20
Mn1 Se1 2.7212(3) 2
Mn1 Se1 2.7213(3) .
Mn1 U1 3.53385(8) 19
Se1 Ba1 3.2611(4) 27
Se1 Ba1 3.3323(3) 20
Se1 Ba1 3.3972(3) 3
