#------------------------------------------------------------------------------
#$Date: 2016-03-24 00:14:39 +0200 (Thu, 24 Mar 2016) $
#$Revision: 179528 $
#$URL: svn://www.crystallography.net/cod/cif/4/34/25/4342589.cif $
#------------------------------------------------------------------------------
#
# This file is available in the Crystallography Open Database (COD),
# http://www.crystallography.net/
#
# All data on this site have been placed in the public domain by the
# contributors.
#
data_4342589
loop_
_publ_author_name
'Oliynyk, Anton O.'
'Stoyko, Stanislav S.'
'Mar, Arthur'
_publ_section_title
;
 Many Metals Make the Cut: Quaternary Rare-Earth Germanides RE4M2InGe4 (M
 = Fe, Co, Ni, Ru, Rh, Ir) and RE4RhInGe4 Derived from Excision of Slabs
 in RE2InGe2.
;
_journal_issue                   6
_journal_name_full               'Inorganic chemistry'
_journal_page_first              2780
_journal_page_last               2792
_journal_paper_doi               10.1021/ic502955h
_journal_volume                  54
_journal_year                    2015
_chemical_formula_structural     'Sm4 Co2 In Ge4'
_chemical_formula_sum            'Co2 Ge4 In Sm4'
_chemical_formula_weight         1124.44
_chemical_name_common            'samarium cobalt indium germanide (4/2/1/4)'
_chemical_name_systematic        'samarium cobalt indium germanide (4/2/1/4)'
_space_group_crystal_system      monoclinic
_space_group_IT_number           12
_space_group_name_Hall           '-C 2y'
_space_group_name_H-M_alt        'C 1 2/m 1'
_symmetry_space_group_name_Hall  '-C 2y'
_symmetry_space_group_name_H-M   'C 1 2/m 1'
_atom_sites_solution_primary     direct
_atom_sites_solution_secondary   difmap
_audit_creation_method           SHELXL-2013
_cell_angle_alpha                90
_cell_angle_beta                 107.6415(10)
_cell_angle_gamma                90
_cell_formula_units_Z            2
_cell_length_a                   15.6336(12)
_cell_length_b                   4.2723(3)
_cell_length_c                   7.1131(6)
_cell_measurement_reflns_used    4401
_cell_measurement_temperature    173(2)
_cell_measurement_theta_max      33.08
_cell_measurement_theta_min      2.73
_cell_volume                     452.75(6)
_computing_cell_refinement       'Bruker SAINT 8.27B (Bruker, 2011)'
_computing_data_collection       'Bruker APEX 2 (Bruker, 2008)'
_computing_data_reduction        'Bruker SAINT 8.27B'
_computing_molecular_graphics    'ATOMS 5.1 (Dowty, 1999)'
_computing_publication_material  'Bruker SHELXTL'
_computing_structure_refinement  'Bruker SHELXTL'
_computing_structure_solution    'Bruker SHELXTL'
_diffrn_ambient_temperature      173(2)
_diffrn_measured_fraction_theta_full 1.000
_diffrn_measured_fraction_theta_max 0.991
_diffrn_measurement_device_type  'Bruker PLATFORM/SMART APEX II CCD'
_diffrn_measurement_method       '\w and \f scans'
_diffrn_radiation_type           MoK\a
_diffrn_radiation_wavelength     0.71073
_diffrn_reflns_av_R_equivalents  0.0208
_diffrn_reflns_av_unetI/netI     0.0192
_diffrn_reflns_Laue_measured_fraction_full 1.000
_diffrn_reflns_Laue_measured_fraction_max 0.991
_diffrn_reflns_limit_h_max       24
_diffrn_reflns_limit_h_min       -24
_diffrn_reflns_limit_k_max       6
_diffrn_reflns_limit_k_min       -6
_diffrn_reflns_limit_l_max       10
_diffrn_reflns_limit_l_min       -10
_diffrn_reflns_number            3307
_diffrn_reflns_point_group_measured_fraction_full 1.000
_diffrn_reflns_point_group_measured_fraction_max 0.991
_diffrn_reflns_theta_full        25.242
_diffrn_reflns_theta_max         33.252
_diffrn_reflns_theta_min         2.734
_diffrn_source                   'fine-focus sealed tube'
_exptl_absorpt_coefficient_mu    44.515
_exptl_absorpt_correction_T_max  0.4767
_exptl_absorpt_correction_T_min  0.0502
_exptl_absorpt_correction_type   numerical
_exptl_absorpt_process_details   'Bruker SHELXTL (Sheldrick, 2013)'
_exptl_crystal_colour            grey
_exptl_crystal_density_diffrn    8.248
_exptl_crystal_density_method    'not measured'
_exptl_crystal_description       irregular
_exptl_crystal_F_000             958
_exptl_crystal_size_max          0.127
_exptl_crystal_size_mid          0.036
_exptl_crystal_size_min          0.029
_refine_diff_density_max         1.755
_refine_diff_density_min         -1.359
_refine_diff_density_rms         0.270
_refine_ls_extinction_coef       0.00075(5)
_refine_ls_extinction_expression Fc^*^=kFc[1+0.001xFc^2^\l^3^/sin(2\q)]^-1/4^
_refine_ls_extinction_method     SHELXL
_refine_ls_goodness_of_fit_ref   1.104
_refine_ls_hydrogen_treatment    undef
_refine_ls_matrix_type           full
_refine_ls_number_parameters     37
_refine_ls_number_reflns         959
_refine_ls_number_restraints     0
_refine_ls_restrained_S_all      1.104
_refine_ls_R_factor_all          0.0182
_refine_ls_R_factor_gt           0.0158
_refine_ls_shift/su_max          0.001
_refine_ls_shift/su_mean         0.000
_refine_ls_structure_factor_coef Fsqd
_refine_ls_weighting_details
'w=1/[\s^2^(Fo^2^)+(0.0125P)^2^+2.0446P] where P=(Fo^2^+2Fc^2^)/3'
_refine_ls_weighting_scheme      calc
_refine_ls_wR_factor_gt          0.0328
_refine_ls_wR_factor_ref         0.0334
_reflns_Friedel_coverage         0.000
_reflns_number_gt                897
_reflns_number_total             959
_reflns_threshold_expression     'I > 2\s(I)'
_cod_data_source_file            ic502955h_si_003.cif
_cod_data_source_block           Sm4Co2InGe4
_cod_depositor_comments
'Adding full bibliography for 4342570--4342590.cif.'
_cod_database_code               4342589
#BEGIN Tags that were not found in dictionaries:
_shelx_space_group_comment
;
The symmetry employed for this shelxl refinement is uniquely defined
by the following loop, which should always be used as a source of
symmetry information in preference to the above space-group names.
They are only intended as comments.
;
_shelx_estimated_absorpt_t_min   0.070
_shelx_estimated_absorpt_t_max   0.358
_shelxl_version_number           2013-4
_shelx_res_file
;
TITL Sm4Co2InGe4 C2/m lsf final refinement
CELL 0.71073  15.63360   4.27230   7.11310  90.0000 107.6415  90.0000
ZERR    2.00   0.00120   0.00030   0.00060   0.0000   0.0010   0.0000
LATT  7
SYMM -X, Y, -Z
SFAC CO GE IN SM
UNIT 4 8 2 8
TEMP -100
SIZE 0.029 0.036 0.127

L.S. 4
ACTA

WGHT    0.012500    2.044600
EXTI    0.000753
FVAR       0.04736
SM1   4    0.346363    0.000000    0.059589    10.50000    0.00691    0.00587 =
         0.00506    0.00000    0.00125    0.00000
SM2   4    0.588810    0.000000    0.382734    10.50000    0.00612    0.00465 =
         0.00609    0.00000    0.00247    0.00000
CO    1    0.219447    0.000000    0.625851    10.50000    0.00678    0.00550 =
         0.00731    0.00000    0.00207    0.00000
IN    3    0.000000    0.000000    0.000000     0.24324    0.00842    0.00723 =
         0.00705    0.00000    0.00303    0.00000
GE1   2    0.067034    0.000000    0.656872    10.50000    0.00656    0.00563 =
         0.00565    0.00000    0.00180    0.00000
GE2   2    0.207658    0.000000    0.272256    10.50000    0.00816    0.00447 =
         0.00607    0.00000    0.00277    0.00000
HKLF 4

REM  Sm4Co2InGe4 C2/m lsf final refinement
REM R1 =  0.0158 for     897 Fo > 4sig(Fo)  and  0.0182 for all     959 data
REM     37 parameters refined using      0 restraints

END

WGHT      0.0125      2.0446

REM Highest difference peak  1.755,  deepest hole -1.359,  1-sigma level  0.270
Q1    1   0.6377  0.0000  0.4229  10.50000  0.05    1.75
Q2    1   0.2940  0.0000  0.0264  10.50000  0.05    1.47
Q3    1   0.5935  0.0000  0.2771  10.50000  0.05    1.46
Q4    1   0.3972  0.0000  0.1044  10.50000  0.05    1.37
Q5    1   0.5394  0.0000  0.3349  10.50000  0.05    1.24
Q6    1   0.5885  0.0000  0.4862  10.50000  0.05    1.23
Q7    1   0.0457  0.0000  0.0382  10.50000  0.05    1.08
Q8    1   0.0196  0.0000  0.5945  10.50000  0.05    1.00
Q9    1   0.3476  0.1093  0.1424  11.00000  0.05    0.94
Q10   1   0.0306  0.0000 -0.1658  10.50000  0.05    0.93
Q11   1   0.3535  0.0000 -0.0316  10.50000  0.05    0.90
Q12   1   0.5696 -0.3148  0.4405  11.00000  0.05    0.84
Q13   1   0.6825 -0.0997  0.4228  11.00000  0.05    0.83
Q14   1   0.2074  0.0000  0.3958  10.50000  0.05    0.83
Q15   1   0.0668  0.0000  0.2471  10.50000  0.05    0.82
Q16   1   0.2638  0.1665  0.0117  11.00000  0.05    0.82
Q17   1   0.3225  0.0000  0.2366  10.50000  0.05    0.81
Q18   1   0.0035  0.0000 -0.0896  10.50000  0.05    0.78
Q19   1  -0.0143 -0.3176  0.0640  11.00000  0.05    0.75
Q20   1   0.5412 -0.0649  0.2550  11.00000  0.05    0.75
;
_shelx_res_checksum              46594
_shelx_hkl_file
;
   2  -2 -10    0.58    0.60
   4  -2 -10    3.25    0.59
   6  -2 -10   11.41    1.07
   8  -2 -10   63.06    3.27
  10  -2 -10   75.83    3.89
   1  -1 -10    0.63    0.56
   3  -1 -10    0.75    0.50
   5  -1 -10   53.90    2.07
   7  -1 -10   10.26    0.98
   9  -1 -10   18.05    1.18
  11  -1 -10    0.03    0.33
  13  -1 -10   44.61    1.85
  -2   0 -10   17.04    1.99
   0   0 -10    4.33    0.93
   2   0 -10    0.45    0.49
   4   0 -10    2.97    0.84
   6   0 -10   10.94    1.40
   8   0 -10   72.18    2.45
  10   0 -10   97.04    3.01
  12   0 -10    6.64    0.80
  14   0 -10    5.44    0.75
  16   0 -10    2.44    0.80
  -1   1 -10    1.55    0.81
   1   1 -10    0.29    0.38
   3   1 -10   -0.01    0.44
   5   1 -10   55.89    2.95
   7   1 -10   12.88    1.51
   9   1 -10   18.61    1.87
  11   1 -10    0.02    0.32
  13   1 -10   42.06    1.81
   2   2 -10   -0.04    0.67
   4   2 -10    2.52    0.80
   6   2 -10   10.93    1.43
   8   2 -10   61.56    3.22
   1  -3  -9   26.55    1.41
   3  -3  -9    6.99    0.83
   5  -3  -9   32.14    1.62
   7  -3  -9   17.55    1.86
   9  -3  -9    8.38    1.42
  -2  -2  -9    8.09    1.25
   0  -2  -9   56.88    2.07
   2  -2  -9   36.29    1.58
   4  -2  -9   27.30    1.36
   6  -2  -9    1.41    0.45
   8  -2  -9    2.62    0.54
  10  -2  -9    1.85    0.68
  12  -2  -9    0.20    0.53
  14  -2  -9    0.49    0.41
  16  -2  -9  148.41    6.58
  -5  -1  -9   13.63    1.19
  -3  -1  -9    1.28    0.44
  -1  -1  -9  104.06    3.31
   1  -1  -9   30.96    2.06
   3  -1  -9    9.18    0.85
   5  -1  -9   44.02    1.71
   7  -1  -9   18.98    1.07
   9  -1  -9    9.55    0.87
  11  -1  -9   51.35    1.95
  13  -1  -9   79.30    2.57
  15  -1  -9   16.05    1.32
  17  -1  -9    3.01    0.67
  -6   0  -9    4.19    0.69
  -4   0  -9   25.01    1.36
  -2   0  -9   11.13    0.98
   0   0  -9   65.10    2.37
   2   0  -9   39.25    2.30
   4   0  -9   27.44    1.26
   6   0  -9    1.80    0.42
   8   0  -9    2.59    0.48
  10   0  -9    1.97    0.44
  12   0  -9    0.11    0.30
  14   0  -9    0.30    0.27
  16   0  -9  149.53    3.53
  18   0  -9    0.83    0.68
  -5   1  -9   14.84    1.24
  -3   1  -9    1.57    0.48
  -1   1  -9  103.39    3.28
   1   1  -9   33.11    1.56
   3   1  -9    9.19    0.91
   5   1  -9   43.68    2.44
   7   1  -9   19.49    1.06
   9   1  -9    7.41    0.77
  11   1  -9   54.09    1.98
  13   1  -9   77.06    2.53
  15   1  -9   17.16    1.01
  17   1  -9    4.10    0.60
  -4   2  -9   23.41    1.72
  -2   2  -9   10.38    1.03
   0   2  -9   55.20    2.17
   2   2  -9   35.28    1.65
   4   2  -9   26.50    1.39
   6   2  -9    1.19    0.43
   8   2  -9    2.01    0.68
  10   2  -9    1.41    0.43
  12   2  -9    0.14    0.31
  14   2  -9    0.19    0.33
  16   2  -9  135.83    5.79
   1   3  -9   25.71    1.44
   3   3  -9    6.25    0.81
   5   3  -9   32.89    1.59
   7   3  -9   12.59    1.10
   9   3  -9    5.35    1.00
  11   3  -9   40.20    2.45
   0  -4  -8    5.76    1.19
   2  -4  -8   27.13    2.08
   4  -4  -8   26.84    2.13
   6  -4  -8   14.22    1.76
  12  -4  -8    0.29    0.70
  -5  -3  -8   38.10    1.48
  -3  -3  -8    7.11    0.78
  -1  -3  -8    1.92    0.47
   1  -3  -8    8.16    0.86
   3  -3  -8   23.03    1.26
   5  -3  -8   80.03    2.66
   7  -3  -8   71.42    3.57
   9  -3  -8    2.79    0.86
  11  -3  -8   33.35    1.66
  13  -3  -8    0.11    0.38
  15  -3  -8    5.37    0.88
  -8  -2  -8    9.47    1.64
  -6  -2  -8   80.59    2.83
  -4  -2  -8    2.37    0.54
  -2  -2  -8    1.14    0.34
   0  -2  -8   11.61    0.94
   2  -2  -8   42.25    1.65
   4  -2  -8   40.81    1.66
   6  -2  -8   18.25    1.04
   8  -2  -8   26.83    1.30
  10  -2  -8   74.13    2.50
  12  -2  -8    0.00    0.31
  14  -2  -8    0.92    0.46
  16  -2  -8    8.44    1.05
  18  -2  -8    1.15    0.63
  -9  -1  -8    0.63    0.38
  -7  -1  -8   12.23    1.07
  -5  -1  -8   46.21    1.90
  -3  -1  -8    8.66    0.87
  -1  -1  -8    1.74    0.31
   1  -1  -8   13.83    0.79
   3  -1  -8   30.74    1.29
   5  -1  -8  108.31    2.97
   7  -1  -8   94.00    2.70
   9  -1  -8    1.78    0.41
  11  -1  -8   43.77    1.41
  13  -1  -8    0.09    0.25
  15  -1  -8    9.69    1.00
  17  -1  -8    3.01    0.68
  19  -1  -8   92.63    3.36
 -10   0  -8   96.94    4.05
  -8   0  -8   10.69    0.83
  -6   0  -8   90.88    2.39
  -4   0  -8    3.37    0.48
  -2   0  -8    0.70    0.34
   0   0  -8   15.20    1.01
   2   0  -8   48.34    1.42
   4   0  -8   49.40    1.68
   6   0  -8   19.33    1.00
   8   0  -8   31.37    1.30
  10   0  -8   90.68    2.24
  12   0  -8    0.36    0.25
  14   0  -8    0.40    0.26
  16   0  -8    8.20    0.72
  18   0  -8    1.29    0.49
  20   0  -8    1.05    0.52
  -9   1  -8    1.04    0.72
  -7   1  -8   12.97    0.92
  -5   1  -8   43.42    1.52
  -3   1  -8    9.06    0.89
  -1   1  -8    1.66    0.45
   1   1  -8   13.86    0.97
   3   1  -8   28.48    1.34
   5   1  -8  106.08    2.43
   7   1  -8   96.46    2.69
   9   1  -8    2.38    0.44
  11   1  -8   45.36    1.69
  13   1  -8    0.13    0.28
  15   1  -8    7.85    0.82
  17   1  -8    4.49    0.64
  19   1  -8   87.43    2.52
  -8   2  -8   11.90    1.79
  -6   2  -8   77.57    4.40
  -4   2  -8    3.01    0.56
  -2   2  -8    0.22    0.30
   0   2  -8   11.66    0.99
   2   2  -8   42.42    1.70
   4   2  -8   43.96    1.70
   6   2  -8   17.94    1.03
   8   2  -8   28.39    1.05
  10   2  -8   77.54    2.42
  12   2  -8    0.08    0.28
  14   2  -8    0.95    0.39
  16   2  -8    8.66    0.88
  18   2  -8    1.07    0.43
  -3   3  -8    5.64    1.25
  -1   3  -8    1.69    0.47
   1   3  -8   11.22    0.97
   3   3  -8   23.29    1.24
   5   3  -8   78.44    2.58
   7   3  -8   72.41    2.42
   9   3  -8    1.21    0.41
  11   3  -8   34.96    1.54
  13   3  -8    0.12    0.32
  15   3  -8    5.61    0.75
   2   4  -8   28.20    2.27
   4   4  -8   24.21    1.35
   6   4  -8   14.59    1.20
   8   4  -8   18.17    1.25
  10   4  -8   53.95    2.15
  -6  -4  -7    0.45    1.24
  -4  -4  -7   52.34    2.06
  -2  -4  -7   43.36    1.83
   0  -4  -7   23.41    1.29
   2  -4  -7   38.46    2.43
   4  -4  -7    9.09    1.34
   6  -4  -7    7.16    1.24
   8  -4  -7   15.42    1.15
  10  -4  -7   89.72    4.45
  12  -4  -7    7.91    1.03
  14  -4  -7   33.45    2.77
  -7  -3  -7   42.00    1.51
  -5  -3  -7    9.78    0.80
  -3  -3  -7   46.86    1.60
  -1  -3  -7    1.00    0.36
   1  -3  -7   59.06    2.07
   3  -3  -7    0.16    0.27
   5  -3  -7    0.72    0.35
   7  -3  -7    6.50    0.70
   9  -3  -7    0.05    0.30
  11  -3  -7    0.20    0.35
  13  -3  -7   75.51    2.77
  15  -3  -7   22.87    1.43
  17  -3  -7   65.44    2.30
 -10  -2  -7    0.29    0.36
  -8  -2  -7    0.20    0.31
  -6  -2  -7    0.62    0.38
  -4  -2  -7   75.74    2.06
  -2  -2  -7   67.87    1.90
   0  -2  -7   39.82    1.34
   2  -2  -7   55.17    1.88
   4  -2  -7   16.60    0.92
   6  -2  -7   11.82    0.69
   8  -2  -7   24.01    0.94
  10  -2  -7  138.15    3.88
  12  -2  -7   13.81    1.14
  14  -2  -7   41.21    1.94
  16  -2  -7    2.41    0.68
  18  -2  -7   26.75    1.73
  20  -2  -7    5.56    1.37
 -11  -1  -7   15.71    1.24
  -9  -1  -7    1.37    0.40
  -7  -1  -7   53.65    2.03
  -5  -1  -7   11.55    1.00
  -3  -1  -7   60.46    1.63
  -1  -1  -7    1.18    0.22
   1  -1  -7   87.36    2.10
   3  -1  -7    0.36    0.21
   5  -1  -7    0.38    0.24
   7  -1  -7    7.76    0.56
   9  -1  -7    0.03    0.18
  11  -1  -7    1.08    0.28
  13  -1  -7   89.95    2.28
  15  -1  -7   29.02    1.56
  17  -1  -7   79.99    2.93
  19  -1  -7    0.53    0.44
  21  -1  -7    1.54    0.77
 -12   0  -7   14.49    0.98
 -10   0  -7    0.97    0.33
  -8   0  -7    0.28    0.25
  -6   0  -7    0.41    0.27
  -4   0  -7   88.23    2.25
  -2   0  -7   71.83    1.90
   0   0  -7   46.59    1.14
   2   0  -7   67.40    1.68
   4   0  -7   18.30    0.76
   6   0  -7   15.23    0.67
   8   0  -7   28.99    1.01
  10   0  -7  167.29    3.50
  12   0  -7   15.60    0.79
  14   0  -7   45.77    1.45
  16   0  -7    2.50    0.41
  18   0  -7   23.70    1.44
  20   0  -7    4.27    0.75
 -11   1  -7   15.56    1.37
  -9   1  -7    1.69    0.38
  -7   1  -7   51.27    1.63
  -5   1  -7   13.60    0.82
  -3   1  -7   60.98    1.75
  -1   1  -7    0.70    0.27
   1   1  -7   85.20    2.56
   3   1  -7    0.46    0.20
   5   1  -7    0.03    0.16
   7   1  -7    7.77    0.55
   9   1  -7    0.12    0.22
  11   1  -7    0.86    0.30
  13   1  -7   84.05    2.61
  15   1  -7   27.45    1.29
  17   1  -7   79.25    2.55
  19   1  -7    0.38    0.34
  21   1  -7    1.29    0.53
 -10   2  -7    1.27    0.55
  -8   2  -7    0.13    0.38
  -6   2  -7    0.69    0.44
  -4   2  -7   76.06    2.09
  -2   2  -7   65.28    1.85
   0   2  -7   37.97    1.52
   2   2  -7   54.67    1.90
   4   2  -7   13.81    0.91
   6   2  -7   12.06    0.64
   8   2  -7   25.58    0.93
  10   2  -7  134.39    2.95
  12   2  -7   13.30    0.91
  14   2  -7   42.54    1.70
  16   2  -7    1.24    0.41
  18   2  -7   23.17    1.28
  20   2  -7    4.16    0.90
  -9   3  -7    0.82    0.95
  -7   3  -7   37.58    2.08
  -5   3  -7    9.74    1.16
  -3   3  -7   50.97    3.02
  -1   3  -7    0.69    0.33
   1   3  -7   62.12    2.08
   3   3  -7    0.66    0.30
   5   3  -7    0.03    0.23
   7   3  -7    4.93    0.62
   9   3  -7    0.02    0.22
  11   3  -7    0.54    0.27
  13   3  -7   68.46    2.38
  15   3  -7   24.20    1.30
  17   3  -7   61.40    2.32
  -4   4  -7   47.80    3.18
  -2   4  -7   39.68    2.75
   0   4  -7   25.96    2.07
   2   4  -7   36.14    1.57
   4   4  -7    8.91    0.86
   6   4  -7    8.25    0.84
   8   4  -7   12.07    1.03
  10   4  -7   88.11    2.84
  12   4  -7   10.04    0.79
  14   4  -7   35.07    2.45
   7   5  -7    1.20    0.66
  -3  -5  -6    1.99    0.82
  -1  -5  -6   48.19    2.90
   1  -5  -6    6.28    1.20
   3  -5  -6    2.97    0.92
   5  -5  -6   59.17    2.33
   7  -5  -6   40.43    2.69
   9  -5  -6   28.46    1.75
  11  -5  -6    3.89    1.21
  -8  -4  -6   18.99    1.15
  -6  -4  -6    1.20    0.39
  -4  -4  -6   10.76    0.97
  -2  -4  -6   28.18    1.38
   0  -4  -6    4.24    0.61
   2  -4  -6   11.04    0.99
   4  -4  -6  129.82    3.73
   6  -4  -6   17.34    1.09
   8  -4  -6   18.89    1.19
  10  -4  -6    6.27    0.83
  12  -4  -6   49.39    3.16
  14  -4  -6    6.12    1.01
  16  -4  -6   36.11    3.10
 -11  -3  -6   20.90    2.42
  -9  -3  -6   92.50    2.47
  -7  -3  -6    2.98    0.47
  -5  -3  -6   29.10    1.20
  -3  -3  -6    4.79    0.53
  -1  -3  -6   88.91    2.22
   1  -3  -6   10.77    0.85
   3  -3  -6    2.87    0.37
   5  -3  -6  105.26    2.44
   7  -3  -6   65.29    2.21
   9  -3  -6   44.47    1.78
  11  -3  -6    5.72    0.66
  13  -3  -6   45.38    1.69
  15  -3  -6    4.85    0.68
  17  -3  -6    1.05    0.51
  19  -3  -6    4.40    0.92
 -12  -2  -6   27.49    1.44
 -10  -2  -6   18.64    1.22
  -8  -2  -6   24.17    1.31
  -6  -2  -6    1.60    0.32
  -4  -2  -6   19.83    0.88
  -2  -2  -6   54.83    1.60
   0  -2  -6    6.20    0.54
   2  -2  -6   17.11    0.76
   4  -2  -6  209.95    4.11
   6  -2  -6   31.48    1.02
   8  -2  -6   29.82    1.03
  10  -2  -6    9.33    0.87
  12  -2  -6   73.29    2.57
  14  -2  -6    9.22    1.01
  16  -2  -6   58.00    2.54
  18  -2  -6   23.35    1.67
  20  -2  -6   98.70    3.64
 -13  -1  -6   38.58    1.44
 -11  -1  -6   31.03    1.25
  -9  -1  -6  123.98    3.02
  -7  -1  -6    5.49    0.56
  -5  -1  -6   37.31    1.03
  -3  -1  -6    5.92    0.47
  -1  -1  -6  132.15    2.85
   1  -1  -6   15.71    0.70
   3  -1  -6    3.96    0.32
   5  -1  -6  153.03    3.08
   7  -1  -6   89.98    2.06
   9  -1  -6   58.96    1.55
  11  -1  -6    8.50    0.61
  13  -1  -6   62.71    1.75
  15  -1  -6    7.57    0.91
  17  -1  -6   -0.25    0.34
  19  -1  -6    7.68    0.96
  21  -1  -6   47.62    2.23
 -14   0  -6    0.73    0.48
 -12   0  -6   27.47    1.13
 -10   0  -6   21.11    0.94
  -8   0  -6   27.05    1.07
  -6   0  -6    1.91    0.36
  -4   0  -6   23.58    0.94
  -2   0  -6   66.45    1.41
   0   0  -6    8.94    0.43
   2   0  -6   20.46    0.64
   4   0  -6  256.79    4.18
   6   0  -6   39.28    0.98
   8   0  -6   32.19    1.19
  10   0  -6   11.35    0.70
  12   0  -6   89.72    2.49
  14   0  -6    8.37    0.66
  16   0  -6   62.89    1.80
  18   0  -6   26.35    1.48
  20   0  -6  109.34    3.62
  22   0  -6    0.35    0.41
 -13   1  -6   36.93    1.91
 -11   1  -6   30.26    1.68
  -9   1  -6  123.64    2.93
  -7   1  -6    4.44    0.50
  -5   1  -6   36.28    1.23
  -3   1  -6    5.65    0.52
  -1   1  -6  135.92    2.92
   1   1  -6   17.21    0.58
   3   1  -6    3.35    0.34
   5   1  -6  153.63    3.03
   7   1  -6   90.92    2.00
   9   1  -6   57.98    1.46
  11   1  -6    7.41    0.66
  13   1  -6   60.69    1.99
  15   1  -6    7.13    0.71
  17   1  -6    0.23    0.27
  19   1  -6    7.75    0.82
  21   1  -6   46.17    2.88
 -12   2  -6   25.34    1.61
 -10   2  -6   18.61    1.55
  -8   2  -6   24.19    1.61
  -6   2  -6    1.21    0.32
  -4   2  -6   19.38    0.90
  -2   2  -6   52.42    1.55
   0   2  -6    5.41    0.52
   2   2  -6   17.08    0.87
   4   2  -6  215.24    4.06
   6   2  -6   30.05    0.97
   8   2  -6   29.13    0.97
  10   2  -6   10.62    0.62
  12   2  -6   70.99    1.80
  14   2  -6    7.94    0.77
  16   2  -6   53.35    1.98
  18   2  -6   22.34    1.23
  20   2  -6   98.47    3.12
 -11   3  -6   24.17    1.77
  -9   3  -6   94.85    3.55
  -7   3  -6    3.21    0.74
  -5   3  -6   29.20    1.64
  -3   3  -6    3.15    0.63
  -1   3  -6   89.32    2.18
   1   3  -6   11.00    0.77
   3   3  -6    3.62    0.48
   5   3  -6  102.41    2.88
   7   3  -6   63.79    1.67
   9   3  -6   40.51    1.28
  11   3  -6    6.43    0.56
  13   3  -6   41.16    1.35
  15   3  -6    5.34    0.67
  17   3  -6    0.20    0.33
  19   3  -6    4.50    0.68
  -8   4  -6   17.45    1.66
  -6   4  -6    0.59    0.49
  -4   4  -6   12.95    1.22
  -2   4  -6   28.70    1.54
   0   4  -6    4.32    0.92
   2   4  -6   12.02    0.86
   4   4  -6  128.95    3.55
   6   4  -6   18.18    1.03
   8   4  -6   18.40    1.07
  10   4  -6    6.10    0.61
  12   4  -6   45.04    1.50
  14   4  -6    4.94    0.58
  16   4  -6   34.50    2.47
  -1   5  -6   41.86    2.88
   1   5  -6    5.42    1.10
   3   5  -6    2.07    0.75
   5   5  -6   58.65    3.29
   7   5  -6   39.22    1.74
   9   5  -6   25.77    1.42
  -5  -5  -5   24.64    1.39
  -3  -5  -5    4.28    0.71
  -1  -5  -5   83.27    3.93
   1  -5  -5   37.77    1.69
   3  -5  -5   16.28    1.19
   5  -5  -5   18.68    1.21
   7  -5  -5   43.34    1.97
   9  -5  -5    3.28    0.70
  11  -5  -5   43.49    3.10
 -10  -4  -5    5.69    0.74
  -8  -4  -5   34.54    1.56
  -6  -4  -5   86.36    2.73
  -4  -4  -5    0.57    0.32
  -2  -4  -5   51.97    1.91
   0  -4  -5   13.48    0.76
   2  -4  -5    0.56    0.24
   4  -4  -5    1.61    0.41
   6  -4  -5    9.58    0.89
   8  -4  -5   11.41    1.01
  10  -4  -5   62.00    2.40
  12  -4  -5   23.47    1.17
  14  -4  -5   34.84    2.02
  16  -4  -5    1.90    0.76
 -13  -3  -5    6.37    0.84
 -11  -3  -5    0.71    0.31
  -9  -3  -5    2.62    0.43
  -7  -3  -5   31.11    1.18
  -5  -3  -5   40.50    1.36
  -3  -3  -5    8.25    0.63
  -1  -3  -5  147.54    3.14
   1  -3  -5   75.09    1.57
   3  -3  -5   26.91    0.93
   5  -3  -5   34.58    1.12
   7  -3  -5   80.25    2.02
   9  -3  -5    7.33    0.63
  11  -3  -5   77.77    2.17
  13  -3  -5    0.78    0.37
  15  -3  -5   94.27    2.75
  17  -3  -5    5.48    0.96
  19  -3  -5    1.90    0.65
 -14  -2  -5   39.59    1.76
 -12  -2  -5   17.21    1.16
 -10  -2  -5    8.60    0.63
  -8  -2  -5   54.95    1.54
  -6  -2  -5  138.57    3.04
  -4  -2  -5    0.56    0.22
  -2  -2  -5   86.04    2.07
   0  -2  -5   22.67    0.68
   2  -2  -5    0.42    0.16
   4  -2  -5    3.69    0.36
   6  -2  -5   19.64    0.75
   8  -2  -5   22.07    0.83
  10  -2  -5  106.30    3.11
  12  -2  -5   35.56    1.66
  14  -2  -5   62.99    2.49
  16  -2  -5    3.14    0.75
  18  -2  -5   22.59    1.83
  20  -2  -5   10.92    1.19
 -15  -1  -5   35.47    1.37
 -13  -1  -5   10.21    0.77
 -11  -1  -5    0.55    0.27
  -9  -1  -5    4.35    0.51
  -7  -1  -5   41.21    1.08
  -5  -1  -5   57.18    1.30
  -3  -1  -5   11.08    0.50
  -1  -1  -5  214.32    4.21
   1  -1  -5  123.87    2.20
   3  -1  -5   46.60    1.06
   5  -1  -5   58.68    1.25
   7  -1  -5  122.01    2.55
   9  -1  -5   10.30    0.57
  11  -1  -5  105.73    2.41
  13  -1  -5    0.67    0.25
  15  -1  -5  115.69    3.73
  17  -1  -5    6.91    0.89
  19  -1  -5    3.09    0.64
  21  -1  -5    7.28    0.93
 -16   0  -5    0.58    0.45
 -14   0  -5   44.75    2.00
 -12   0  -5   21.39    0.95
 -10   0  -5    8.95    0.68
  -8   0  -5   64.27    1.79
  -6   0  -5  174.63    3.67
  -4   0  -5    0.27    0.15
  -2   0  -5  103.14    1.91
   0   0  -5   27.56    0.73
   2   0  -5    0.73    0.15
   4   0  -5    4.67    0.37
   6   0  -5   26.60    0.79
   8   0  -5   26.53    0.79
  10   0  -5  123.11    3.06
  12   0  -5   37.63    1.35
  14   0  -5   70.96    2.10
  16   0  -5    3.40    0.43
  18   0  -5   22.62    1.34
  20   0  -5   12.89    1.17
  22   0  -5   17.30    1.40
 -15   1  -5   35.50    2.69
 -13   1  -5    9.08    1.00
 -11   1  -5    0.76    0.41
  -9   1  -5    3.40    0.43
  -7   1  -5   40.16    1.28
  -5   1  -5   56.35    1.54
  -3   1  -5   11.10    0.63
  -1   1  -5  225.72    3.64
   1   1  -5  121.78    2.17
   3   1  -5   45.27    0.99
   5   1  -5   56.54    1.35
   7   1  -5  121.44    2.46
   9   1  -5   10.09    0.51
  11   1  -5  106.13    2.23
  13   1  -5    2.70    0.33
  15   1  -5  120.78    3.25
  17   1  -5    8.55    0.77
  19   1  -5    3.16    0.52
  21   1  -5    5.92    1.11
  23   1  -5   12.87    1.68
 -14   2  -5   40.25    2.03
 -12   2  -5   18.67    1.03
 -10   2  -5    7.13    0.70
  -8   2  -5   53.02    1.67
  -6   2  -5  144.77    3.13
  -4   2  -5    1.35    0.24
  -2   2  -5   82.82    2.00
   0   2  -5   22.81    0.82
   2   2  -5    0.52    0.17
   4   2  -5    3.14    0.32
   6   2  -5   20.91    0.73
   8   2  -5   21.76    0.78
  10   2  -5   99.26    2.22
  12   2  -5   34.96    1.08
  14   2  -5   53.66    1.87
  16   2  -5    2.86    0.48
  18   2  -5   20.23    1.13
  20   2  -5   11.08    0.99
  22   2  -5   15.52    1.59
 -13   3  -5    6.42    0.75
 -11   3  -5    0.65    0.38
  -9   3  -5    2.34    0.47
  -7   3  -5   30.63    1.21
  -5   3  -5   44.10    1.37
  -3   3  -5    8.00    0.57
  -1   3  -5  148.06    3.07
   1   3  -5   74.56    1.79
   3   3  -5   27.76    1.12
   5   3  -5   35.72    1.07
   7   3  -5   82.83    1.97
   9   3  -5    6.58    0.63
  11   3  -5   72.80    2.27
  13   3  -5    0.14    0.23
  15   3  -5   91.57    2.28
  17   3  -5    6.07    0.74
  19   3  -5    2.03    0.51
 -10   4  -5    6.43    1.03
  -8   4  -5   34.95    2.80
  -6   4  -5   87.01    3.05
  -4   4  -5    0.87    0.41
  -2   4  -5   54.00    2.02
   0   4  -5   13.30    1.02
   2   4  -5    1.55    0.36
   4   4  -5    0.96    0.33
   6   4  -5    9.39    0.81
   8   4  -5   13.64    0.91
  10   4  -5   63.85    2.19
  12   4  -5   22.85    1.21
  14   4  -5   35.93    1.59
  16   4  -5    2.09    0.50
  -5   5  -5   25.62    1.52
  -3   5  -5    5.48    0.81
  -1   5  -5   77.39    3.94
   1   5  -5   37.69    2.48
   3   5  -5   17.73    1.61
   5   5  -5   18.18    1.09
   7   5  -5   46.28    1.84
   9   5  -5    4.66    0.68
  11   5  -5   44.58    1.88
  13   5  -5    0.68    0.61
   0  -6  -4    9.71    1.49
   2  -6  -4   36.65    2.60
   4  -6  -4    8.98    1.48
  -7  -5  -4    3.84    0.66
  -5  -5  -4   10.43    1.00
  -3  -5  -4    1.17    0.34
  -1  -5  -4    0.44    0.32
   1  -5  -4   74.59    2.51
   3  -5  -4    0.41    0.33
   5  -5  -4   44.84    1.91
   7  -5  -4    0.80    0.42
   9  -5  -4   30.83    1.65
  11  -5  -4   24.82    2.25
  13  -5  -4    2.47    1.03
  15  -5  -4   21.84    2.44
 -12  -4  -4   47.35    1.95
 -10  -4  -4   14.30    1.10
  -8  -4  -4   47.19    1.83
  -6  -4  -4   35.48    1.47
  -4  -4  -4   20.07    1.04
  -2  -4  -4   20.43    0.83
   0  -4  -4   20.45    0.83
   2  -4  -4   70.73    2.29
   4  -4  -4   16.93    1.01
   6  -4  -4  152.17    4.14
   8  -4  -4    1.59    0.32
  10  -4  -4    9.62    0.75
  12  -4  -4    1.58    0.40
  14  -4  -4   17.70    1.50
  16  -4  -4    7.95    1.13
  18  -4  -4   22.99    2.40
 -15  -3  -4   25.47    1.43
 -13  -3  -4    0.89    0.30
 -11  -3  -4   74.80    2.06
  -9  -3  -4    2.97    0.42
  -7  -3  -4    7.03    0.59
  -5  -3  -4   20.55    0.86
  -3  -3  -4    1.00    0.20
  -1  -3  -4    1.25    0.21
   1  -3  -4  133.79    2.79
   3  -3  -4    0.26    0.18
   5  -3  -4   88.59    1.66
   7  -3  -4    1.22    0.26
   9  -3  -4   65.18    1.75
  11  -3  -4   47.29    1.53
  13  -3  -4    4.57    0.57
  15  -3  -4   27.47    1.32
  17  -3  -4   83.62    3.20
  19  -3  -4   13.49    1.36
 -16  -2  -4   25.60    1.38
 -14  -2  -4   18.48    1.19
 -12  -2  -4   73.80    1.94
 -10  -2  -4   19.09    0.82
  -8  -2  -4   80.65    1.97
  -6  -2  -4   56.12    1.50
  -4  -2  -4   34.83    1.09
  -2  -2  -4   37.47    0.90
   0  -2  -4   36.48    0.87
   2  -2  -4  125.10    2.21
   4  -2  -4   33.07    0.77
   6  -2  -4  270.43    5.03
   8  -2  -4    2.41    0.32
  10  -2  -4   18.72    1.06
  12  -2  -4    2.73    0.56
  14  -2  -4   29.07    1.62
  16  -2  -4   15.34    1.44
  18  -2  -4   29.72    1.65
  20  -2  -4    5.30    0.79
  22  -2  -4   33.76    2.35
 -17  -1  -4    0.12    0.43
 -15  -1  -4   32.25    1.23
 -13  -1  -4    0.06    0.21
 -11  -1  -4   99.46    2.48
  -9  -1  -4    3.51    0.34
  -7  -1  -4    7.83    0.45
  -5  -1  -4   33.68    0.89
  -3  -1  -4    3.02    0.29
  -1  -1  -4    1.68    0.16
   1  -1  -4  219.92    3.58
   3  -1  -4    1.03    0.15
   5  -1  -4  131.93    2.25
   7  -1  -4    3.95    0.35
   9  -1  -4   99.60    2.18
  11  -1  -4   73.28    1.80
  13  -1  -4    5.54    0.75
  15  -1  -4   39.97    1.82
  17  -1  -4  109.69    3.50
  19  -1  -4   17.40    1.25
  21  -1  -4   76.69    4.28
  23  -1  -4   18.05    1.42
 -18   0  -4    0.05    0.37
 -16   0  -4   28.68    1.55
 -14   0  -4   23.03    0.97
 -12   0  -4   89.29    2.22
 -10   0  -4   21.93    1.04
  -8   0  -4   96.76    2.29
  -6   0  -4   71.12    1.78
  -4   0  -4   45.42    1.02
  -2   0  -4   50.96    1.08
   0   0  -4   48.81    0.88
   2   0  -4  159.71    2.56
   4   0  -4   41.46    0.99
   6   0  -4  346.22    6.03
   8   0  -4    3.06    0.25
  10   0  -4   23.09    0.93
  12   0  -4    4.47    0.46
  14   0  -4   32.82    1.23
  16   0  -4   17.61    0.79
  18   0  -4   36.42    1.69
  20   0  -4    5.09    0.75
  22   0  -4   36.42    1.77
 -17   1  -4    1.17    0.52
 -15   1  -4   31.58    1.67
 -13   1  -4    0.12    0.24
 -11   1  -4   99.68    2.50
  -9   1  -4    4.26    0.37
  -7   1  -4    7.59    0.47
  -5   1  -4   34.04    1.06
  -3   1  -4    2.78    0.22
  -1   1  -4    1.85    0.18
   1   1  -4  220.56    3.51
   3   1  -4    0.63    0.13
   5   1  -4  135.88    2.55
   7   1  -4    2.96    0.28
   9   1  -4   99.23    2.04
  11   1  -4   73.03    1.63
  13   1  -4    6.37    0.59
  15   1  -4   41.56    1.47
  17   1  -4  107.61    2.98
  19   1  -4   18.71    1.02
  21   1  -4   69.67    3.66
  23   1  -4   17.40    1.44
 -16   2  -4   24.68    1.21
 -14   2  -4   20.51    1.08
 -12   2  -4   72.20    2.12
 -10   2  -4   17.92    0.93
  -8   2  -4   83.08    2.12
  -6   2  -4   56.03    1.25
  -4   2  -4   36.08    0.89
  -2   2  -4   37.61    0.88
   0   2  -4   38.67    0.84
   2   2  -4  125.46    2.14
   4   2  -4   32.56    0.76
   6   2  -4  274.12    4.86
   8   2  -4    2.11    0.33
  10   2  -4   19.84    0.85
  12   2  -4    2.03    0.34
  14   2  -4   25.95    1.07
  16   2  -4   13.85    0.92
  18   2  -4   34.99    1.46
  20   2  -4    5.29    0.67
  22   2  -4   35.42    2.53
 -15   3  -4   23.86    1.25
 -13   3  -4    0.03    0.31
 -11   3  -4   77.96    2.20
  -9   3  -4    2.45    0.43
  -7   3  -4    7.33    0.62
  -5   3  -4   21.42    0.85
  -3   3  -4    0.97    0.22
  -1   3  -4    0.93    0.21
   1   3  -4  135.56    2.74
   3   3  -4    0.52    0.17
   5   3  -4   83.86    1.85
   7   3  -4    1.03    0.27
   9   3  -4   63.06    1.94
  11   3  -4   45.21    1.58
  13   3  -4    4.97    0.57
  15   3  -4   31.58    1.32
  17   3  -4   79.62    2.49
  19   3  -4   16.35    1.41
 -12   4  -4   53.17    1.82
 -10   4  -4   12.51    0.92
  -8   4  -4   51.21    1.62
  -6   4  -4   33.36    1.56
  -4   4  -4   18.53    1.08
  -2   4  -4   19.51    1.06
   0   4  -4   19.30    0.76
   2   4  -4   73.93    1.76
   4   4  -4   18.40    0.75
   6   4  -4  150.53    3.87
   8   4  -4    1.79    0.38
  10   4  -4    8.82    0.79
  12   4  -4    1.43    0.40
  14   4  -4   17.08    1.03
  16   4  -4    8.32    0.86
  18   4  -4   24.78    1.91
  -9   5  -4    0.53    0.64
  -7   5  -4    3.93    0.71
  -5   5  -4    8.45    0.95
  -3   5  -4    0.57    0.38
  -1   5  -4    0.59    0.37
   1   5  -4   70.31    2.42
   3   5  -4    0.51    0.46
   5   5  -4   46.92    1.76
   7   5  -4    0.36    0.31
   9   5  -4   34.23    1.54
  11   5  -4   25.63    1.33
  13   5  -4    3.27    0.60
  -4  -6  -3   44.01    2.88
  -2  -6  -3    9.67    1.04
   0  -6  -3   78.43    2.87
   2  -6  -3    0.35    0.43
   4  -6  -3   39.26    2.75
   6  -6  -3    9.32    1.59
  -9  -5  -3   24.79    1.37
  -7  -5  -3   31.58    1.52
  -5  -5  -3  119.95    2.85
  -3  -5  -3   15.16    0.84
  -1  -5  -3    4.88    0.65
   1  -5  -3    2.34    0.48
   3  -5  -3    4.55    0.67
   5  -5  -3    4.28    0.65
   7  -5  -3    3.27    0.62
   9  -5  -3   96.01    4.77
  11  -5  -3   41.56    1.90
  13  -5  -3    0.06    0.42
  15  -5  -3   11.13    1.71
 -14  -4  -3   18.85    1.24
 -12  -4  -3    2.54    0.52
 -10  -4  -3   22.06    1.18
  -8  -4  -3   14.24    0.97
  -6  -4  -3    0.00    0.18
  -4  -4  -3   91.97    2.19
  -2  -4  -3   22.30    0.84
   0  -4  -3  169.67    3.44
   2  -4  -3    0.36    0.25
   4  -4  -3   81.21    2.51
   6  -4  -3   20.56    0.82
   8  -4  -3   48.84    1.45
  10  -4  -3    1.80    0.36
  12  -4  -3  107.48    3.40
  14  -4  -3   54.09    2.32
  16  -4  -3   10.46    1.19
  18  -4  -3   12.71    1.37
 -15  -3  -3   42.73    1.47
 -13  -3  -3    0.34    0.24
 -11  -3  -3   14.31    0.79
  -9  -3  -3   48.16    1.45
  -7  -3  -3   62.55    1.43
  -5  -3  -3  226.11    3.81
  -3  -3  -3   25.34    0.74
  -1  -3  -3   14.06    0.59
   1  -3  -3    3.91    0.35
   3  -3  -3   15.32    0.49
   5  -3  -3   10.40    0.53
   7  -3  -3    5.17    0.46
   9  -3  -3  182.27    3.76
  11  -3  -3   81.16    2.07
  13  -3  -3    0.18    0.25
  15  -3  -3   18.73    1.34
  17  -3  -3   22.20    1.51
  19  -3  -3    5.84    0.88
  21  -3  -3    3.22    1.12
 -18  -2  -3    4.24    0.66
 -16  -2  -3    2.08    0.47
 -14  -2  -3   30.78    1.12
 -12  -2  -3    4.08    0.44
 -10  -2  -3   36.54    1.14
  -8  -2  -3   19.06    0.75
  -6  -2  -3    0.84    0.18
  -4  -2  -3  162.47    2.74
  -2  -2  -3   43.76    0.96
   0  -2  -3  323.65    4.40
   2  -2  -3    2.00    0.17
   4  -2  -3  164.15    2.66
   6  -2  -3   42.68    1.07
   8  -2  -3   81.44    1.83
  10  -2  -3    2.96    0.49
  12  -2  -3  170.12    4.78
  14  -2  -3   94.46    2.49
  16  -2  -3   14.40    1.21
  18  -2  -3   21.21    1.29
  20  -2  -3   26.11    1.49
  22  -2  -3    1.31    0.51
 -19  -1  -3    0.91    0.47
 -17  -1  -3   46.72    1.53
 -15  -1  -3   55.70    1.66
 -13  -1  -3    0.30    0.23
 -11  -1  -3   21.71    0.73
  -9  -1  -3   66.37    1.45
  -7  -1  -3   92.83    1.83
  -5  -1  -3  353.06    4.94
  -3  -1  -3   42.16    0.93
  -1  -1  -3   29.84    0.66
   1  -1  -3    6.19    0.27
   3  -1  -3   27.91    0.63
   5  -1  -3   15.16    0.52
   7  -1  -3    7.86    0.41
   9  -1  -3  290.92    5.40
  11  -1  -3  121.13    2.61
  13  -1  -3    0.42    0.34
  15  -1  -3   26.86    1.46
  17  -1  -3   30.89    1.55
  19  -1  -3    8.34    1.41
  21  -1  -3    3.80    0.66
  23  -1  -3    0.60    0.40
 -20   0  -3   64.69    3.57
 -18   0  -3    6.11    0.85
 -16   0  -3    0.90    0.44
 -14   0  -3   38.43    1.25
 -12   0  -3    6.03    0.51
 -10   0  -3   44.48    1.12
  -8   0  -3   27.73    0.73
  -6   0  -3    1.09    0.17
  -4   0  -3  208.71    3.30
  -2   0  -3   59.44    1.15
   0   0  -3  458.64    6.19
   2   0  -3    2.86    0.19
   4   0  -3  226.13    3.97
   6   0  -3   60.74    1.22
   8   0  -3  107.60    2.08
  10   0  -3    4.10    0.27
  12   0  -3  218.67    4.98
  14   0  -3  111.01    2.88
  16   0  -3   20.26    0.83
  18   0  -3   24.99    1.35
  20   0  -3   29.58    1.52
  22   0  -3    1.28    0.67
  24   0  -3   33.83    2.63
 -19   1  -3    0.84    0.49
 -17   1  -3   46.02    1.60
 -15   1  -3   51.55    2.02
 -13   1  -3    0.23    0.24
 -11   1  -3   20.58    0.70
  -9   1  -3   66.20    1.42
  -7   1  -3   97.02    1.81
  -5   1  -3  347.41    5.40
  -3   1  -3   41.90    0.89
  -1   1  -3   27.82    0.55
   1   1  -3    5.75    0.26
   3   1  -3   28.05    0.59
   5   1  -3   15.01    0.38
   7   1  -3    6.96    0.39
   9   1  -3  298.03    5.09
  11   1  -3  119.46    2.87
  13   1  -3   -0.05    0.13
  15   1  -3   28.00    1.15
  17   1  -3   31.34    1.26
  19   1  -3    7.25    0.70
  21   1  -3    4.18    0.96
  23   1  -3    0.44    0.61
 -18   2  -3    3.58    0.72
 -16   2  -3    1.93    0.43
 -14   2  -3   30.02    1.25
 -12   2  -3    3.92    0.51
 -10   2  -3   35.02    1.23
  -8   2  -3   18.49    0.80
  -6   2  -3    0.86    0.18
  -4   2  -3  158.44    2.63
  -2   2  -3   44.79    0.78
   0   2  -3  325.64    4.84
   2   2  -3    1.98    0.22
   4   2  -3  163.34    3.02
   6   2  -3   41.44    0.99
   8   2  -3   86.47    1.73
  10   2  -3    3.38    0.38
  12   2  -3  177.22    4.20
  14   2  -3   89.83    2.47
  16   2  -3   16.74    0.85
  18   2  -3   22.52    1.49
  20   2  -3   26.73    1.31
  22   2  -3    1.98    0.80
 -15   3  -3   45.00    2.05
 -13   3  -3    0.02    0.29
 -11   3  -3   14.05    0.90
  -9   3  -3   45.38    1.42
  -7   3  -3   62.95    1.65
  -5   3  -3  224.21    4.31
  -3   3  -3   26.26    0.69
  -1   3  -3   15.49    0.48
   1   3  -3    3.56    0.32
   3   3  -3   14.56    0.57
   5   3  -3    9.69    0.47
   7   3  -3    5.07    0.39
   9   3  -3  182.52    4.39
  11   3  -3   77.58    2.27
  13   3  -3   -0.06    0.17
  15   3  -3   20.54    1.03
  17   3  -3   22.25    1.13
  19   3  -3    5.90    0.98
  21   3  -3    3.56    0.83
 -14   4  -3   19.22    1.39
 -12   4  -3    1.90    0.56
 -10   4  -3   21.52    1.00
  -8   4  -3   12.75    0.81
  -6   4  -3    0.42    0.23
  -4   4  -3   95.54    2.77
  -2   4  -3   21.29    1.05
   0   4  -3  168.79    3.33
   2   4  -3    0.84    0.22
   4   4  -3   81.37    1.88
   6   4  -3   20.56    0.79
   8   4  -3   50.23    1.71
  10   4  -3    1.90    0.39
  12   4  -3  107.26    3.09
  14   4  -3   51.41    1.94
  16   4  -3    8.95    0.88
  18   4  -3   12.15    1.06
  -9   5  -3   26.34    1.48
  -7   5  -3   32.04    1.59
  -5   5  -3  119.25    3.55
  -3   5  -3   15.66    1.07
  -1   5  -3    3.32    0.55
   1   5  -3    2.01    0.45
   3   5  -3    6.65    0.71
   5   5  -3    5.63    0.53
   7   5  -3    3.97    0.58
   9   5  -3   93.89    2.90
  11   5  -3   41.36    1.73
  13   5  -3    0.21    0.32
  -4   6  -3   50.47    2.99
  -2   6  -3   10.70    1.09
   0   6  -3   80.69    2.80
   2   6  -3    0.33    0.42
   4   6  -3   38.48    2.59
   6   6  -3    7.96    1.35
  -6  -6  -2    0.43    0.56
  -4  -6  -2    1.99    0.57
  -2  -6  -2   38.52    1.84
   0  -6  -2    4.62    0.73
   2  -6  -2   11.75    1.13
   4  -6  -2    6.40    1.26
   6  -6  -2   60.12    3.66
 -11  -5  -2   42.78    1.86
  -9  -5  -2   33.27    1.28
  -7  -5  -2   11.50    0.82
  -5  -5  -2    0.92    0.30
  -3  -5  -2    0.27    0.23
  -1  -5  -2   82.27    2.72
   1  -5  -2   26.00    1.27
   3  -5  -2  169.31    4.61
   5  -5  -2    1.37    0.41
   7  -5  -2   -0.07    0.27
   9  -5  -2   -0.09    0.29
  11  -5  -2    4.24    0.69
  13  -5  -2    0.07    0.39
 -16  -4  -2    2.83    0.88
 -14  -4  -2   46.21    1.88
 -12  -4  -2   51.86    1.95
 -10  -4  -2   36.43    1.25
  -8  -4  -2   17.76    0.80
  -6  -4  -2    0.12    0.18
  -4  -4  -2    5.81    0.49
  -2  -4  -2   80.42    1.91
   0  -4  -2    9.10    0.54
   2  -4  -2   18.39    0.69
   4  -4  -2   10.06    0.56
   6  -4  -2  131.06    2.77
   8  -4  -2   19.40    0.82
  10  -4  -2    0.22    0.26
  12  -4  -2   10.57    0.99
  14  -4  -2   32.61    1.67
  16  -4  -2   19.75    1.55
  18  -4  -2   57.14    2.47
 -17  -3  -2   53.16    2.90
 -15  -3  -2   51.31    1.62
 -13  -3  -2   14.02    0.77
 -11  -3  -2   85.67    2.68
  -9  -3  -2   61.15    1.43
  -7  -3  -2   24.77    0.76
  -5  -3  -2    3.05    0.32
  -3  -3  -2    0.15    0.15
  -1  -3  -2  184.69    2.99
   1  -3  -2   57.66    1.13
   3  -3  -2  363.22    5.43
   5  -3  -2    3.51    0.33
   7  -3  -2    0.05    0.16
   9  -3  -2    0.55    0.22
  11  -3  -2    8.51    0.63
  13  -3  -2    0.58    0.34
  15  -3  -2   86.06    2.88
  17  -3  -2   15.66    1.28
  19  -3  -2   23.53    1.50
  21  -3  -2    1.28    0.84
 -20  -2  -2    0.24    0.51
 -18  -2  -2   29.42    1.44
 -16  -2  -2    0.18    0.23
 -14  -2  -2   71.09    1.85
 -12  -2  -2   87.39    2.08
 -10  -2  -2   63.29    1.39
  -8  -2  -2   41.36    0.99
  -6  -2  -2    0.33    0.13
  -4  -2  -2   11.15    0.40
  -2  -2  -2  149.96    2.52
   0  -2  -2   18.01    0.40
   2  -2  -2   31.68    0.66
   4  -2  -2   18.06    0.46
   6  -2  -2  264.12    3.99
   8  -2  -2   35.29    1.03
  10  -2  -2    0.76    0.25
  12  -2  -2   18.46    0.83
  14  -2  -2   53.22    2.00
  16  -2  -2   23.71    1.31
  18  -2  -2   77.42    2.75
  20  -2  -2   67.61    2.55
  22  -2  -2    0.67    0.56
 -21  -1  -2    7.80    1.30
 -19  -1  -2    0.34    0.41
 -17  -1  -2   65.40    1.83
 -15  -1  -2   68.60    1.85
 -13  -1  -2   18.52    0.68
 -11  -1  -2  123.81    2.33
  -9  -1  -2   94.96    1.70
  -7  -1  -2   40.85    0.87
  -5  -1  -2    5.17    0.25
  -3  -1  -2    0.36    0.09
  -1  -1  -2  340.06    5.10
   1  -1  -2  120.50    1.93
   3  -1  -2  607.72    9.03
   5  -1  -2    7.27    0.31
   7  -1  -2    0.15    0.11
   9  -1  -2    0.15    0.13
  11  -1  -2   13.71    0.57
  13  -1  -2    0.68    0.38
  15  -1  -2  109.03    3.44
  17  -1  -2   16.04    1.03
  19  -1  -2   24.92    1.34
  21  -1  -2    2.77    0.57
  23  -1  -2   25.26    1.92
 -20   0  -2    1.07    0.76
 -18   0  -2   35.28    1.28
 -16   0  -2    0.68    0.29
 -14   0  -2   83.49    1.74
 -12   0  -2  112.14    2.12
 -10   0  -2   76.01    1.34
  -8   0  -2   52.78    0.98
  -6   0  -2    0.57    0.10
  -4   0  -2   15.29    0.41
  -2   0  -2  211.84    3.30
   0   0  -2   27.50    0.68
   2   0  -2   41.95    0.84
   4   0  -2   25.34    0.56
   6   0  -2  354.51    5.91
   8   0  -2   45.14    0.97
  10   0  -2    1.15    0.15
  12   0  -2   22.44    0.68
  14   0  -2   61.72    1.80
  16   0  -2   28.96    1.39
  18   0  -2   87.95    2.94
  20   0  -2   82.73    4.18
  22   0  -2    0.34    0.44
 -19   1  -2   -0.16    0.42
 -17   1  -2   64.11    1.88
 -15   1  -2   68.45    1.90
 -13   1  -2   18.32    0.87
 -11   1  -2  122.49    2.26
  -9   1  -2   95.75    1.79
  -7   1  -2   42.25    0.93
  -5   1  -2    4.88    0.27
  -3   1  -2    0.18    0.09
  -1   1  -2  334.42    4.40
   1   1  -2  119.78    1.84
   3   1  -2  609.22   10.23
   5   1  -2    6.48    0.29
   7   1  -2    0.10    0.08
   9   1  -2    0.29    0.12
  11   1  -2   14.41    0.52
  13   1  -2    0.38    0.16
  15   1  -2  119.80    2.95
  17   1  -2   17.34    0.90
  19   1  -2   25.91    1.84
 -18   2  -2   30.04    1.62
 -16   2  -2    0.96    0.47
 -14   2  -2   71.03    2.02
 -12   2  -2   88.10    2.22
 -10   2  -2   60.60    1.63
  -8   2  -2   38.00    1.14
  -6   2  -2    0.24    0.11
  -4   2  -2   10.82    0.36
  -2   2  -2  154.18    2.41
   0   2  -2   18.31    0.44
   2   2  -2   31.62    0.62
   4   2  -2   16.94    0.52
   6   2  -2  262.34    4.61
   8   2  -2   33.40    0.88
  10   2  -2    0.50    0.16
  12   2  -2   19.11    0.68
  14   2  -2   50.25    1.63
  16   2  -2   25.81    1.10
  18   2  -2   78.97    2.41
  20   2  -2   72.38    3.18
  22   2  -2   -0.59    0.53
 -17   3  -2   50.71    2.25
 -15   3  -2   52.96    2.17
 -13   3  -2   13.23    0.83
 -11   3  -2   81.63    2.09
  -9   3  -2   62.94    1.64
  -7   3  -2   25.55    0.87
  -5   3  -2    2.63    0.30
  -3   3  -2   -0.05    0.10
  -1   3  -2  187.17    2.95
   1   3  -2   59.12    1.10
   3   3  -2  352.28    6.30
   5   3  -2    3.37    0.31
   7   3  -2    0.21    0.15
   9   3  -2    0.46    0.17
  11   3  -2    9.10    0.54
  13   3  -2    0.15    0.22
  15   3  -2   79.47    2.45
  17   3  -2   13.74    0.94
  19   3  -2   20.63    1.16
  21   3  -2    1.43    0.64
 -14   4  -2   46.19    1.99
 -12   4  -2   52.58    2.02
 -10   4  -2   34.75    1.22
  -8   4  -2   18.00    0.79
  -6   4  -2    0.40    0.20
  -4   4  -2    6.26    0.48
  -2   4  -2   78.38    2.34
   0   4  -2    8.97    0.50
   2   4  -2   17.74    0.69
   4   4  -2    8.67    0.56
   6   4  -2  129.44    2.70
   8   4  -2   19.40    0.78
  10   4  -2    0.19    0.19
  12   4  -2   10.87    0.89
  14   4  -2   31.36    1.42
  16   4  -2   18.06    1.17
  18   4  -2   51.39    2.08
 -13   5  -2    8.29    1.30
 -11   5  -2   43.64    1.88
  -9   5  -2   30.89    2.24
  -7   5  -2   12.42    1.03
  -5   5  -2    1.44    0.42
  -3   5  -2   -0.20    0.25
  -1   5  -2   88.97    2.71
   1   5  -2   25.58    1.21
   3   5  -2  172.52    4.50
   5   5  -2    1.43    0.30
   7   5  -2    0.14    0.22
   9   5  -2    0.19    0.27
  11   5  -2    4.65    0.66
  13   5  -2    0.08    0.32
  -4   6  -2    1.90    0.54
  -2   6  -2   38.94    1.77
   0   6  -2    5.69    0.76
   2   6  -2   11.30    1.06
   4   6  -2    4.73    0.73
   6   6  -2   60.19    2.30
  -8  -6  -1   56.88    3.11
  -6  -6  -1   73.79    2.73
  -4  -6  -1    0.50    0.45
  -2  -6  -1    1.21    0.47
   0  -6  -1   -0.14    0.36
   2  -6  -1    0.24    0.58
   4  -6  -1    0.43    0.58
   8  -6  -1   -0.34    0.57
 -13  -5  -1   -0.06    0.42
 -11  -5  -1   23.29    1.09
  -9  -5  -1    2.20    0.42
  -7  -5  -1   32.48    1.22
  -5  -5  -1    2.54    0.39
  -3  -5  -1  126.54    2.85
  -1  -5  -1    0.14    0.28
   1  -5  -1    0.44    0.30
   3  -5  -1    0.76    0.25
   5  -5  -1   60.24    2.05
   7  -5  -1    1.90    0.45
   9  -5  -1   75.98    2.61
  11  -5  -1   73.82    2.68
  13  -5  -1   13.45    1.26
  15  -5  -1    0.90    0.49
 -16  -4  -1    1.51    0.49
 -14  -4  -1    0.78    0.36
 -12  -4  -1   13.60    0.88
 -10  -4  -1   30.46    1.12
  -8  -4  -1  106.90    2.46
  -6  -4  -1  140.77    3.03
  -4  -4  -1    1.52    0.27
  -2  -4  -1    3.22    0.36
   0  -4  -1    0.13    0.13
   2  -4  -1    0.29    0.16
   4  -4  -1    0.77    0.19
   6  -4  -1  163.14    3.33
   8  -4  -1    1.19    0.34
  10  -4  -1   36.03    1.53
  12  -4  -1   48.91    1.91
  14  -4  -1    5.91    0.78
  16  -4  -1    7.74    0.95
  18  -4  -1    0.00    0.36
 -19  -3  -1    5.63    0.78
 -17  -3  -1    5.45    0.70
 -15  -3  -1    1.47    0.43
 -13  -3  -1   -0.12    0.19
 -11  -3  -1   39.66    1.24
  -9  -3  -1    4.41    0.41
  -7  -3  -1   55.07    1.40
  -5  -3  -1    7.23    0.48
  -3  -3  -1  277.86    4.31
  -1  -3  -1    1.38    0.16
   1  -3  -1    0.76    0.14
   3  -3  -1    2.11    0.20
   5  -3  -1  118.47    2.45
   7  -3  -1    5.50    0.41
   9  -3  -1  140.36    3.74
  11  -3  -1  146.80    3.95
  13  -3  -1   28.70    1.34
  15  -3  -1    0.92    0.38
  17  -3  -1    0.72    0.38
  19  -3  -1   18.64    1.62
 -20  -2  -1   79.69    2.60
 -18  -2  -1   39.23    1.33
 -16  -2  -1    2.32    0.37
 -14  -2  -1    0.78    0.24
 -12  -2  -1   25.21    0.81
 -10  -2  -1   51.84    1.19
  -8  -2  -1  192.63    2.80
  -6  -2  -1  275.61    3.80
  -4  -2  -1    3.14    0.18
  -2  -2  -1    4.63    0.21
   0  -2  -1    0.89    0.11
   2  -2  -1    0.36    0.10
   4  -2  -1    0.70    0.09
   6  -2  -1  308.00    5.61
   8  -2  -1    0.81    0.19
  10  -2  -1   61.95    1.53
  12  -2  -1   87.43    2.62
  14  -2  -1    7.67    0.79
  16  -2  -1   10.39    0.91
  18  -2  -1    0.51    0.33
  20  -2  -1    1.43    0.58
  22  -2  -1   23.21    1.82
 -21  -1  -1    0.28    0.75
 -19  -1  -1    6.29    0.81
 -17  -1  -1    6.47    0.57
 -15  -1  -1    1.63    0.26
 -13  -1  -1    0.44    0.14
 -11  -1  -1   63.78    1.12
  -9  -1  -1    6.49    0.29
  -7  -1  -1   84.37    1.24
  -5  -1  -1   14.33    0.37
  -3  -1  -1  498.03    6.55
  -1  -1  -1    3.53    0.17
   1  -1  -1    1.29    0.11
   3  -1  -1    6.56    0.24
   5  -1  -1  219.98    3.87
   7  -1  -1   11.98    0.38
   9  -1  -1  242.45    4.28
  11  -1  -1  252.78    4.57
  13  -1  -1   38.07    1.24
  15  -1  -1    1.18    0.33
  17  -1  -1    0.62    0.31
  19  -1  -1   29.30    1.41
  21  -1  -1   83.30    3.81
  23  -1  -1   26.14    1.91
 -22   0  -1    1.76    0.77
 -20   0  -1   89.18    2.82
 -18   0  -1   45.90    1.46
 -16   0  -1    2.60    0.40
 -14   0  -1    0.91    0.17
 -12   0  -1   30.05    0.63
 -10   0  -1   60.34    0.97
  -8   0  -1  247.46    3.12
  -6   0  -1  368.94    4.16
  -4   0  -1    4.10    0.17
  -2   0  -1    4.62    0.16
   0   0  -1    1.59    0.09
   2   0  -1    0.46    0.10
   4   0  -1    0.39    0.08
   6   0  -1  434.86   11.99
  12   0  -1  108.67    4.05
  14   0  -1    8.03    0.53
  16   0  -1   10.95    0.90
  18   0  -1    0.06    0.24
  20   0  -1    2.72    0.67
  22   0  -1   23.65    1.58
 -21   1  -1   -0.11    0.40
 -19   1  -1    7.08    0.86
 -17   1  -1    7.13    0.79
 -15   1  -1    1.98    0.29
 -13   1  -1    0.76    0.21
 -11   1  -1   61.43    1.13
  -9   1  -1    6.46    0.29
  -7   1  -1   83.02    1.28
  -5   1  -1   13.67    0.33
  -3   1  -1  496.05    7.18
  -1   1  -1    3.52    0.16
   1   1  -1    1.24    0.09
   3   1  -1    6.05    0.23
   5   1  -1  221.39    4.82
   7   1  -1   11.43    0.51
   9   1  -1  228.83    7.50
  11   1  -1  236.41    7.94
  13   1  -1   40.58    1.92
  15   1  -1    0.90    0.27
  17   1  -1    0.74    0.23
  19   1  -1   30.20    1.99
 -20   2  -1   78.73    2.81
 -18   2  -1   40.00    1.85
 -16   2  -1    2.48    0.53
 -14   2  -1    0.86    0.23
 -12   2  -1   23.28    0.75
 -10   2  -1   50.32    1.12
  -8   2  -1  191.13    3.07
  -6   2  -1  271.52    3.63
  -4   2  -1    3.11    0.16
  -2   2  -1    4.05    0.20
   0   2  -1    0.80    0.10
   2   2  -1    0.25    0.07
   4   2  -1    0.22    0.08
   6   2  -1  324.20    5.39
   8   2  -1    0.55    0.14
  10   2  -1   61.36    1.80
  12   2  -1   87.02    2.45
  14   2  -1    5.69    0.63
  16   2  -1    9.72    1.13
  18   2  -1    0.31    0.25
  20   2  -1    1.60    0.55
 -19   3  -1    6.62    1.76
 -17   3  -1    4.58    0.75
 -15   3  -1    0.91    0.42
 -13   3  -1    0.08    0.26
 -11   3  -1   39.49    1.22
  -9   3  -1    4.20    0.39
  -7   3  -1   54.57    1.35
  -5   3  -1    6.83    0.44
  -3   3  -1  274.52    4.21
  -1   3  -1    1.48    0.17
   1   3  -1    0.75    0.15
   3   3  -1    2.32    0.19
   5   3  -1  123.07    3.04
   7   3  -1    6.13    0.55
   9   3  -1  145.87    3.67
  11   3  -1  147.92    3.82
  13   3  -1   27.04    1.20
  15   3  -1    0.66    0.44
  17   3  -1    0.57    0.29
  19   3  -1   19.95    1.12
 -16   4  -1    2.24    0.61
 -14   4  -1    0.05    0.33
 -12   4  -1   12.90    1.03
 -10   4  -1   29.37    1.31
  -8   4  -1  104.40    2.35
  -6   4  -1  143.79    2.93
  -4   4  -1    1.43    0.25
  -2   4  -1    4.04    0.36
   0   4  -1    0.32    0.16
   2   4  -1    0.05    0.15
   4   4  -1    0.17    0.16
   6   4  -1  163.09    3.29
   8   4  -1    0.87    0.24
  10   4  -1   36.88    1.18
  12   4  -1   46.44    1.41
  14   4  -1    4.61    0.61
  16   4  -1    6.46    0.76
  18   4  -1    0.26    0.48
 -13   5  -1    0.74    0.45
 -11   5  -1   25.72    1.35
  -9   5  -1    1.93    0.47
  -7   5  -1   29.86    2.03
  -5   5  -1    2.75    0.48
  -3   5  -1  124.03    3.51
  -1   5  -1    0.50    0.30
   1   5  -1    0.33    0.27
   3   5  -1    0.67    0.25
   5   5  -1   57.38    1.62
   7   5  -1    2.13    0.36
   9   5  -1   75.94    2.02
  11   5  -1   78.89    2.61
  13   5  -1   18.01    1.21
  -6   6  -1   70.64    3.68
  -4   6  -1    0.77    0.60
  -2   6  -1    2.73    0.57
   0   6  -1    0.24    0.36
   2   6  -1    0.07    0.36
   4   6  -1    0.31    0.37
   6   6  -1   78.19    2.75
   8   6  -1    0.66    0.34
  -8  -6   0    2.73    0.63
  -6  -6   0    1.86    0.55
  -4  -6   0    6.91    0.87
  -2  -6   0    0.36    0.51
   0  -6   0  224.77    8.98
   2  -6   0    0.00    0.55
   4  -6   0    6.92    1.32
   6  -6   0    1.65    0.52
   8  -6   0    2.81    0.61
 -13  -5   0   11.32    0.90
 -11  -5   0    9.95    0.79
  -9  -5   0   20.93    0.97
  -7  -5   0   22.47    0.98
  -5  -5   0   64.86    1.80
  -3  -5   0   24.43    1.23
  -1  -5   0    5.47    0.66
   1  -5   0    6.11    0.51
   3  -5   0   22.02    1.12
   5  -5   0   68.51    2.28
   7  -5   0   23.67    1.24
   9  -5   0   20.96    1.21
  11  -5   0    9.67    0.99
  13  -5   0   11.56    0.85
 -16  -4   0   44.81    1.86
 -14  -4   0   75.46    2.16
 -12  -4   0   34.65    1.25
 -10  -4   0    5.11    0.50
  -8  -4   0    8.25    0.60
  -6  -4   0    3.39    0.38
  -4  -4   0   11.97    0.47
  -2  -4   0    0.13    0.12
   0  -4   0  489.52    7.46
   2  -4   0   -0.07    0.13
   4  -4   0   11.83    0.46
   6  -4   0    3.68    0.37
   8  -4   0    8.02    0.56
  10  -4   0    6.29    0.53
  12  -4   0   35.98    1.20
  14  -4   0   79.04    2.08
  16  -4   0   43.43    1.77
 -19  -3   0    2.12    0.52
 -17  -3   0   68.63    2.31
 -15  -3   0   76.75    2.15
 -13  -3   0   17.74    0.83
 -11  -3   0   16.91    0.75
  -9  -3   0   42.78    1.24
  -7  -3   0   55.77    1.18
  -5  -3   0  146.11    2.44
  -3  -3   0   51.24    1.03
  -1  -3   0    9.09    0.26
   1  -3   0    8.93    0.28
   3  -3   0   52.05    1.22
   5  -3   0  141.61    2.83
   7  -3   0   57.18    1.77
   9  -3   0   43.38    1.53
  11  -3   0   18.26    0.95
  13  -3   0   18.60    1.02
  15  -3   0   78.31    2.00
  17  -3   0   64.85    2.17
  19  -3   0    1.44    0.45
 -20  -2   0   22.33    1.59
 -18  -2   0   -0.17    0.27
 -16  -2   0   64.45    1.57
 -14  -2   0  129.52    2.54
 -12  -2   0   57.96    1.15
 -10  -2   0   10.68    0.41
  -8  -2   0   13.41    0.45
  -6  -2   0    5.90    0.29
  -4  -2   0   20.06    0.49
  -2  -2   0    0.26    0.08
   0  -2   0  973.40   13.61
   2  -2   0    0.19    0.07
   4  -2   0   19.20    0.56
   6  -2   0    5.84    0.33
   8  -2   0   13.25    0.49
  10  -2   0   10.05    0.66
  12  -2   0   56.34    1.87
  14  -2   0  135.33    3.58
  16  -2   0   58.22    2.09
  18  -2   0    1.16    0.32
  20  -2   0   20.78    1.12
 -19  -1   0    2.61    0.53
 -17  -1   0   89.10    1.45
 -15  -1   0  112.66    1.48
 -13  -1   0   25.31    0.51
 -11  -1   0   28.15    0.53
  -9  -1   0   74.56    0.98
  -7  -1   0   96.57    1.15
  -5  -1   0  267.41    3.84
  -3  -1   0   99.94    1.42
  -1  -1   0   14.05    0.30
   1  -1   0   13.75    0.33
   3  -1   0   99.15    1.83
   5  -1   0  259.29    4.60
   7  -1   0  100.44    1.96
   9  -1   0   77.86    1.69
  11  -1   0   28.72    0.95
  13  -1   0   24.66    1.09
  15  -1   0  106.66    3.08
  17  -1   0   86.26    3.57
  19  -1   0    3.51    0.50
  21  -1   0   31.23    1.39
 -22   0   0   -0.11    0.56
 -20   0   0   24.65    0.97
 -18   0   0    0.61    0.25
 -16   0   0   75.57    1.56
 -14   0   0  163.41    1.96
 -12   0   0   69.23    0.96
 -10   0   0   13.96    0.32
  -8   0   0   17.70    0.34
  -6   0   0    8.62    0.22
  -4   0   0   25.98    0.40
  -2   0   0    0.53    0.05
  14   0   0  161.28    4.11
  16   0   0   75.97    2.30
  18   0   0    0.30    0.23
  20   0   0   21.65    1.48
 -21   1   0   32.53    1.23
 -19   1   0    3.78    0.47
 -17   1   0   88.94    2.12
 -15   1   0  111.48    2.12
 -13   1   0   23.54    0.73
 -11   1   0   27.72    0.61
  -9   1   0   73.89    1.18
  -7   1   0   98.14    1.41
  -5   1   0  259.81    3.83
  -3   1   0  101.04    1.52
  -1   1   0   14.34    0.29
   1   1   0   14.19    0.34
   3   1   0  100.57    2.15
   5   1   0  260.06    5.45
   7   1   0   97.67    2.37
  15   1   0  111.73    4.03
  17   1   0   94.70    3.52
 -20   2   0   20.99    1.03
 -18   2   0    0.36    0.26
 -16   2   0   65.49    1.73
 -14   2   0  125.54    2.70
 -12   2   0   58.24    1.25
 -10   2   0   11.48    0.44
  -8   2   0   12.91    0.43
  -6   2   0    6.21    0.28
  -4   2   0   18.88    0.46
  -2   2   0    0.11    0.06
   0   2   0  966.42   13.60
   2   2   0    0.19    0.09
   4   2   0   20.11    0.55
   6   2   0    6.15    0.34
   8   2   0   14.21    0.54
  10   2   0   10.94    0.55
  12   2   0   55.24    1.52
  14   2   0  132.07    3.72
  16   2   0   65.20    2.31
  18   2   0   -0.13    0.33
  20   2   0   18.11    1.60
 -19   3   0    2.11    0.60
 -17   3   0   65.45    1.86
 -15   3   0   74.87    1.94
 -13   3   0   18.46    0.77
 -11   3   0   17.85    0.70
  -9   3   0   45.87    1.00
  -7   3   0   57.45    1.14
  -5   3   0  142.53    2.33
  -3   3   0   50.96    0.85
  -1   3   0    8.54    0.39
   1   3   0    9.05    0.39
   3   3   0   51.34    1.55
   5   3   0  147.85    2.76
   7   3   0   54.79    1.75
   9   3   0   40.84    1.51
  11   3   0   16.06    0.93
  13   3   0   17.80    1.05
  15   3   0   81.56    2.68
  17   3   0   70.23    3.42
  19   3   0    1.42    0.68
 -16   4   0   46.85    1.94
 -14   4   0   77.50    2.00
 -12   4   0   32.97    1.12
 -10   4   0    5.39    0.47
  -8   4   0    7.07    0.44
  -6   4   0    3.14    0.29
  -4   4   0   10.94    0.52
  -2   4   0    0.18    0.16
   0   4   0  497.84    8.64
   2   4   0    0.12    0.20
   4   4   0   11.38    0.72
   6   4   0    3.17    0.47
   8   4   0    6.73    0.68
  10   4   0    4.97    0.64
  12   4   0   34.03    1.55
  14   4   0   79.31    2.73
  16   4   0   45.51    2.88
 -13   5   0   10.20    1.01
 -11   5   0   11.45    0.98
  -9   5   0   20.90    1.12
  -7   5   0   21.76    1.10
  -5   5   0   64.82    2.16
  -3   5   0   25.47    1.17
  -1   5   0    5.34    0.62
   1   5   0    4.57    0.60
   3   5   0   24.87    0.93
   5   5   0   68.43    1.80
   7   5   0   24.97    1.00
   9   5   0   19.96    1.20
  11   5   0    8.12    0.91
  13   5   0   11.38    1.06
  -6   6   0    0.26    0.54
  -4   6   0    5.98    1.12
  -2   6   0    0.29    0.36
   0   6   0  221.26    5.82
   2   6   0    0.29    0.37
   4   6   0    7.47    0.87
   6   6   0    1.19    0.49
   8   6   0    2.64    0.60
  -8  -6   1    0.49    0.44
  -6  -6   1   75.91    2.80
  -4  -6   1    0.40    0.58
  -2  -6   1    0.06    0.53
   0  -6   1    0.17    0.52
   2  -6   1    2.58    0.56
   4  -6   1    1.30    0.47
   6  -6   1   70.20    2.63
 -15  -5   1    0.94    0.86
 -13  -5   1   14.59    1.34
 -11  -5   1   76.25    2.78
  -9  -5   1   75.26    2.65
  -7  -5   1    2.44    0.50
  -5  -5   1   58.03    2.10
  -3  -5   1    0.70    0.25
  -1  -5   1    0.32    0.23
   1  -5   1    1.34    0.36
   3  -5   1  131.24    3.57
   5  -5   1    2.38    0.47
   7  -5   1   32.57    1.49
   9  -5   1    1.33    0.43
  11  -5   1   23.27    1.32
  13  -5   1   -0.17    0.33
 -18  -4   1    0.25    1.12
 -16  -4   1    6.55    0.69
 -14  -4   1    5.28    0.58
 -12  -4   1   46.27    1.50
 -10  -4   1   36.71    1.24
  -8  -4   1    0.78    0.24
  -6  -4   1  158.21    2.82
  -4  -4   1    0.42    0.16
  -2  -4   1    0.28    0.16
   0  -4   1    0.33    0.17
   2  -4   1    3.99    0.37
   4  -4   1    1.39    0.24
   6  -4   1  143.66    2.89
   8  -4   1  104.03    2.33
  10  -4   1   30.72    1.05
  12  -4   1   15.56    0.80
  14  -4   1    0.30    0.31
  16  -4   1    2.39    0.52
 -19  -3   1   20.79    1.11
 -17  -3   1    0.33    0.31
 -15  -3   1    0.36    0.25
 -13  -3   1   25.82    1.02
 -11  -3   1  150.28    2.68
  -9  -3   1  150.35    2.57
  -7  -3   1    5.36    0.35
  -5  -3   1  120.41    2.09
  -3  -3   1    2.45    0.22
  -1  -3   1    0.94    0.13
   1  -3   1    1.49    0.17
   3  -3   1  281.66    4.24
   5  -3   1    7.73    0.45
   7  -3   1   53.33    1.33
   9  -3   1    4.10    0.38
  11  -3   1   42.00    1.20
  13  -3   1   -0.11    0.16
  15  -3   1    1.08    0.35
  17  -3   1    3.61    0.56
  19  -3   1    4.57    0.91
 -20  -2   1    1.59    0.45
 -18  -2   1    0.44    0.27
 -16  -2   1    9.93    0.74
 -14  -2   1    7.38    0.48
 -12  -2   1   88.86    1.74
 -10  -2   1   61.35    1.06
  -8  -2   1    0.83    0.11
  -6  -2   1  314.06    4.13
  -4  -2   1    0.16    0.06
  -2  -2   1    0.44    0.07
   0  -2   1    0.68    0.10
   2  -2   1    4.67    0.21
   4  -2   1    3.10    0.18
   6  -2   1  270.65    4.10
   8  -2   1  194.35    3.53
  10  -2   1   51.65    1.27
  12  -2   1   24.26    0.83
  14  -2   1    1.13    0.30
  16  -2   1    2.46    0.43
  18  -2   1   38.63    1.52
  20  -2   1   72.81    2.38
 -19  -1   1   30.60    0.95
 -17  -1   1    0.44    0.13
 -15  -1   1    1.54    0.16
 -13  -1   1   39.83    0.67
 -11  -1   1  244.08    2.73
  -9  -1   1  233.42    2.56
  -7  -1   1   11.62    0.28
  -5  -1   1  219.07    2.65
  -3  -1   1    6.25    0.19
  -1  -1   1    1.77    0.12
   1  -1   1    3.62    0.15
   3  -1   1  495.37    8.22
   5  -1   1   13.03    0.41
   7  -1   1   81.16    1.64
   9  -1   1    7.19    0.43
  11  -1   1   62.98    1.46
  13  -1   1    0.55    0.18
  15  -1   1    1.69    0.33
  17  -1   1    7.64    0.68
  19  -1   1    7.63    0.72
  21  -1   1    0.06    0.42
 -22   0   1   28.72    1.66
 -20   0   1    2.66    0.45
 -18   0   1    0.23    0.18
 -16   0   1   12.81    0.44
 -14   0   1    8.07    0.29
 -12   0   1  111.06    1.38
 -10   0   1   79.31    1.02
  -8   0   1    0.54    0.08
  -6   0   1  429.37    4.45
  -4   0   1    0.27    0.06
  -2   0   1    0.87    0.16
   0   0   1    1.44    0.08
   2   0   1    4.71    0.20
   4   0   1    4.27    0.23
   6   0   1  375.18    7.25
   8   0   1  256.54    5.07
  10   0   1   60.99    1.55
  12   0   1   28.53    0.85
  14   0   1    1.06    0.26
  16   0   1    2.93    0.40
  18   0   1   45.61    2.13
  20   0   1   88.85    2.56
  22   0   1    2.20    0.72
 -23   1   1   23.92    1.84
 -21   1   1   90.57    2.60
 -19   1   1   29.18    1.06
 -17   1   1    0.44    0.21
 -15   1   1    1.43    0.23
 -13   1   1   39.64    0.84
 -11   1   1  238.84    3.37
  -9   1   1  230.55    3.17
  -7   1   1   11.76    0.31
  -5   1   1  224.62    2.90
  -3   1   1    6.60    0.17
  -1   1   1    1.26    0.09
   1   1   1    3.56    0.17
   3   1   1  504.13    7.99
   5   1   1   13.64    0.41
   7   1   1   84.26    1.88
   9   1   1    6.69    0.42
  11   1   1   64.38    1.68
  13   1   1   -0.05    0.16
  15   1   1    2.01    0.34
  17   1   1    6.07    0.90
  19   1   1    7.81    1.29
 -20   2   1    1.38    0.40
 -18   2   1    0.15    0.23
 -16   2   1    9.67    0.66
 -14   2   1    7.35    0.52
 -12   2   1   83.99    1.85
 -10   2   1   61.80    1.20
  -8   2   1    0.44    0.12
  -6   2   1  308.09    4.59
  -4   2   1    0.07    0.07
  -2   2   1    0.37    0.08
   0   2   1    0.71    0.09
   2   2   1    4.31    0.28
   4   2   1    3.55    0.28
   6   2   1  281.53    4.58
   8   2   1  188.44    4.43
  10   2   1   48.50    1.71
  12   2   1   22.44    1.19
  14   2   1    0.83    0.47
  16   2   1    2.97    0.96
  18   2   1   37.26    1.77
  20   2   1   71.95    3.72
 -19   3   1   19.07    0.97
 -17   3   1    0.37    0.27
 -15   3   1    0.75    0.27
 -13   3   1   25.50    0.90
 -11   3   1  149.99    2.90
  -9   3   1  143.81    2.77
  -7   3   1    5.39    0.30
  -5   3   1  120.20    1.98
  -3   3   1    2.45    0.20
  -1   3   1    0.98    0.13
   1   3   1    1.46    0.22
   3   3   1  280.97    4.99
   5   3   1    7.01    0.45
   7   3   1   53.62    1.37
   9   3   1    3.84    0.54
  11   3   1   41.58    1.71
  13   3   1    0.20    0.32
  15   3   1    0.48    0.43
  17   3   1    4.23    0.77
  19   3   1    6.65    1.21
 -18   4   1    0.09    0.37
 -16   4   1    6.56    0.61
 -14   4   1    4.65    0.50
 -12   4   1   44.95    1.32
 -10   4   1   36.53    1.10
  -8   4   1    0.50    0.21
  -6   4   1  166.73    2.70
  -4   4   1    0.17    0.17
  -2   4   1    0.24    0.16
   0   4   1    0.17    0.16
   2   4   1    4.86    0.38
   4   4   1    1.88    0.38
   6   4   1  138.92    3.80
   8   4   1  105.15    3.11
  10   4   1   27.92    1.41
  12   4   1   15.09    1.23
  14   4   1    0.46    0.45
  16   4   1    1.02    0.59
 -13   5   1   15.30    1.17
 -11   5   1   79.38    3.69
  -9   5   1   73.86    2.38
  -7   5   1    1.75    0.41
  -5   5   1   55.76    2.83
  -3   5   1    0.66    0.31
  -1   5   1    0.67    0.30
   1   5   1    1.23    0.36
   3   5   1  123.65    3.56
   5   5   1    1.64    0.44
   7   5   1   31.16    1.51
   9   5   1    2.94    0.60
  11   5   1   23.25    1.45
  13   5   1   -0.37    0.65
  -4   6   1    0.31    0.59
  -2   6   1   -0.41    0.45
   0   6   1    0.44    0.38
   2   6   1    1.46    0.51
   4   6   1    1.03    0.47
   6   6   1   70.80    3.81
   8   6   1   57.92    3.08
  -8  -6   2    8.20    1.41
  -6  -6   2   53.17    3.46
  -4  -6   2    5.79    1.24
  -2  -6   2   10.70    1.68
   0  -6   2    4.85    0.71
   2  -6   2   41.42    1.84
   4  -6   2    2.45    0.58
   6  -6   2    0.58    0.43
 -13  -5   2    0.51    0.44
 -11  -5   2    5.01    0.78
  -9  -5   2   -0.01    0.34
  -7  -5   2    0.18    0.32
  -5  -5   2    0.96    0.28
  -3  -5   2  171.95    3.61
  -1  -5   2   23.83    1.18
   1  -5   2   87.29    2.70
   3  -5   2   -0.05    0.25
   5  -5   2    0.65    0.35
   7  -5   2   12.65    1.02
   9  -5   2   33.15    1.54
  11  -5   2   45.38    1.75
  13  -5   2   11.08    1.36
 -18  -4   2   58.59    2.69
 -16  -4   2   17.42    1.50
 -14  -4   2   30.59    1.63
 -12  -4   2   11.98    1.07
 -10  -4   2    0.10    0.20
  -8  -4   2   19.49    0.81
  -6  -4   2  123.44    2.73
  -4  -4   2    9.34    0.59
  -2  -4   2   17.50    0.70
   0  -4   2   10.06    0.54
   2  -4   2   80.66    1.79
   4  -4   2    6.02    0.46
   6  -4   2   -0.06    0.17
   8  -4   2   19.69    0.78
  10  -4   2   37.13    1.41
  12  -4   2   52.07    1.84
  14  -4   2   46.75    1.78
 -21  -3   2    2.85    1.43
 -19  -3   2   23.51    1.64
 -17  -3   2   11.15    1.22
 -15  -3   2   81.83    2.94
 -13  -3   2    0.60    0.23
 -11  -3   2    9.00    0.63
  -9  -3   2   -0.08    0.15
  -7  -3   2    0.11    0.16
  -5  -3   2    2.81    0.30
  -3  -3   2  351.72    5.31
  -1  -3   2   59.16    1.11
   1  -3   2  190.01    2.95
   3  -3   2    0.13    0.14
   5  -3   2    2.62    0.29
   7  -3   2   24.21    0.81
   9  -3   2   63.42    1.55
  11  -3   2   80.00    2.32
  13  -3   2   13.12    0.94
  15  -3   2   52.81    1.86
  17  -3   2   50.02    1.86
 -22  -2   2    0.10    0.72
 -20  -2   2   72.88    2.78
 -18  -2   2   88.13    2.25
 -16  -2   2   27.51    1.11
 -14  -2   2   50.37    1.53
 -12  -2   2   19.34    0.67
 -10  -2   2    0.49    0.12
  -8  -2   2   34.92    0.76
  -6  -2   2  256.11    3.93
  -4  -2   2   17.57    0.44
  -2  -2   2   30.93    0.71
   0  -2   2   18.04    0.44
   2  -2   2  153.82    2.38
   4  -2   2   10.57    0.42
   6  -2   2    1.07    0.17
   8  -2   2   40.32    1.03
  10  -2   2   62.53    1.46
  12  -2   2   86.55    2.35
  14  -2   2   72.46    2.12
  16  -2   2    1.01    0.33
  18  -2   2   30.79    1.35
 -21  -1   2    2.62    0.56
 -19  -1   2   28.29    1.12
 -17  -1   2   17.28    0.66
 -15  -1   2  119.31    1.92
 -13  -1   2    0.45    0.13
 -11  -1   2   13.07    0.41
  -9  -1   2    0.36    0.11
  -7  -1   2    0.43    0.09
  -5  -1   2    6.91    0.19
  -3  -1   2  606.42    7.73
  -1  -1   2  120.05    1.63
   1  -1   2  331.49    5.60
   3  -1   2    0.19    0.09
   5  -1   2    5.01    0.27
   7  -1   2   40.82    0.95
   9  -1   2   92.22    1.89
  11  -1   2  120.91    2.90
  13  -1   2   18.51    0.83
  15  -1   2   65.62    1.95
  17  -1   2   64.33    1.98
  19  -1   2    0.29    0.42
 -22   0   2    0.45    0.33
 -20   0   2   84.02    1.95
 -18   0   2   98.71    2.06
 -16   0   2   31.56    0.86
 -14   0   2   65.00    1.08
 -12   0   2   23.95    0.52
 -10   0   2    0.91    0.13
  -8   0   2   44.52    0.81
  -6   0   2  344.62    4.56
  -4   0   2   23.71    0.51
  -2   0   2   42.23    0.76
   0   0   2   27.77    0.52
   2   0   2  215.02    3.46
   4   0   2   14.68    0.41
   6   0   2    0.22    0.09
   8   0   2   52.19    1.13
  10   0   2   77.02    1.88
  12   0   2  111.21    2.64
  14   0   2   84.87    3.07
  16   0   2    0.64    0.29
  18   0   2   32.42    1.31
  20   0   2    1.10    0.60
 -23   1   2   22.62    1.19
 -21   1   2    2.45    0.47
 -19   1   2   28.67    0.98
 -17   1   2   17.28    0.70
 -15   1   2  116.56    2.13
 -13   1   2    0.63    0.17
 -11   1   2   11.97    0.44
  -9   1   2    0.12    0.08
  -7   1   2    0.15    0.08
  -5   1   2    7.28    0.24
  -3   1   2  618.73    8.48
  -1   1   2  119.80    1.79
   1   1   2  335.86    5.47
   3   1   2    0.33    0.12
   5   1   2    5.25    0.21
   7   1   2   41.99    0.89
   9   1   2   96.36    1.80
  11   1   2  128.86    2.91
  13   1   2   19.76    0.85
  15   1   2   68.25    2.96
  17   1   2   62.79    2.92
  19   1   2    0.57    0.41
 -22   2   2    0.29    0.34
 -20   2   2   73.11    2.23
 -18   2   2   81.13    2.34
 -16   2   2   25.89    0.92
 -14   2   2   50.73    1.31
 -12   2   2   18.48    0.67
 -10   2   2    0.49    0.14
  -8   2   2   35.32    0.66
  -6   2   2  257.30    3.83
  -4   2   2   17.21    0.41
  -2   2   2   31.06    0.62
   0   2   2   18.63    0.44
   2   2   2  155.43    2.67
   4   2   2   12.06    0.41
   6   2   2    0.56    0.17
   8   2   2   39.24    1.46
  10   2   2   57.80    2.08
  12   2   2   90.33    3.64
  14   2   2   77.23    2.71
  16   2   2   -0.23    0.63
  18   2   2   34.35    2.58
  20   2   2    0.94    0.82
 -19   3   2   20.46    1.12
 -17   3   2   13.49    0.77
 -15   3   2   79.89    1.92
 -13   3   2    0.26    0.19
 -11   3   2    9.95    0.51
  -9   3   2    0.25    0.16
  -7   3   2   -0.08    0.14
  -5   3   2    3.15    0.23
  -3   3   2  358.18    5.24
  -1   3   2   58.24    1.08
   1   3   2  188.23    3.51
   3   3   2    0.20    0.17
   5   3   2    2.87    0.34
   7   3   2   25.63    0.94
   9   3   2   64.76    1.76
  11   3   2   86.13    2.95
  13   3   2   11.99    1.19
  15   3   2   49.24    3.01
  17   3   2   46.62    3.01
 -18   4   2   57.01    1.71
 -16   4   2   17.33    0.88
 -14   4   2   29.95    1.07
 -12   4   2   10.78    0.66
 -10   4   2    0.21    0.19
  -8   4   2   19.36    0.72
  -6   4   2  124.22    3.19
  -4   4   2    9.38    0.50
  -2   4   2   18.28    0.68
   0   4   2    8.88    0.52
   2   4   2   80.95    1.86
   4   4   2    6.53    0.51
   6   4   2    0.29    0.28
   8   4   2   16.08    1.06
  10   4   2   36.76    1.75
  12   4   2   52.45    2.32
  14   4   2   51.49    2.37
  16   4   2    1.23    1.22
 -15   5   2   54.61    3.14
 -13   5   2    0.10    0.34
 -11   5   2    4.93    0.64
  -9   5   2   -0.04    0.27
  -7   5   2    0.25    0.28
  -5   5   2    0.73    0.32
  -3   5   2  165.67    4.22
  -1   5   2   24.80    1.18
   1   5   2   87.37    2.68
   3   5   2   -0.01    0.28
   5   5   2    0.90    0.39
   7   5   2   10.17    1.04
   9   5   2   33.29    1.74
  11   5   2   44.76    2.20
  -6   6   2   56.98    3.19
  -4   6   2    4.16    0.99
  -2   6   2    9.91    1.41
   0   6   2    5.40    1.10
   2   6   2   37.62    1.78
   4   6   2    1.10    0.49
   6   6   2   -0.29    0.51
  -6  -6   3    8.36    1.56
  -4  -6   3   35.75    1.72
  -2  -6   3    0.27    0.39
   0  -6   3   78.99    2.81
   2  -6   3    9.43    1.01
   4  -6   3   47.95    3.12
 -13  -5   3   -0.20    0.41
 -11  -5   3   41.59    1.96
  -9  -5   3   94.73    3.16
  -7  -5   3    3.86    0.46
  -5  -5   3    4.06    0.58
  -3  -5   3    5.54    0.68
  -1  -5   3    1.20    0.37
   1  -5   3    4.82    0.64
   3  -5   3   14.80    1.04
   5  -5   3  117.78    3.52
   7  -5   3   33.29    2.11
   9  -5   3   25.20    1.86
  11  -5   3    6.44    1.02
 -18  -4   3   12.28    1.35
 -16  -4   3    9.44    1.13
 -14  -4   3   52.52    2.27
 -12  -4   3  109.03    2.66
 -10  -4   3    1.18    0.30
  -8  -4   3   48.09    1.43
  -6  -4   3   20.64    0.83
  -4  -4   3   80.82    1.96
  -2  -4   3    0.72    0.27
   0  -4   3  158.16    5.65
   2  -4   3   21.50    0.78
   4  -4   3   91.78    2.09
   6  -4   3    0.38    0.21
   8  -4   3   13.87    0.80
  10  -4   3   22.11    1.08
  12  -4   3    3.15    0.52
  14  -4   3   17.10    1.13
 -21  -3   3    1.85    1.25
 -19  -3   3    4.60    0.88
 -17  -3   3   22.08    1.10
 -15  -3   3   20.30    1.00
 -13  -3   3    0.10    0.21
 -11  -3   3   77.04    1.98
  -9  -3   3  186.05    3.76
  -7  -3   3    4.26    0.41
  -5  -3   3    9.96    0.39
  -3  -3   3   13.78    0.46
  -1  -3   3    3.47    0.26
   1  -3   3   14.44    0.56
   3  -3   3   26.06    0.80
   5  -3   3  222.19    4.15
   7  -3   3   61.57    1.81
   9  -3   3   45.86    1.52
  11  -3   3   13.89    0.81
  13  -3   3    0.22    0.26
  15  -3   3   43.17    1.65
  17  -3   3   39.48    2.38
 -22  -2   3    2.64    1.07
 -20  -2   3   28.01    1.21
 -18  -2   3   20.78    1.02
 -16  -2   3   14.87    0.84
 -14  -2   3   90.16    2.33
 -12  -2   3  180.71    3.52
 -10  -2   3    3.52    0.28
  -8  -2   3   84.00    1.55
  -6  -2   3   42.36    0.90
  -4  -2   3  162.70    2.90
  -2  -2   3    1.85    0.15
   0  -2   3  321.31    4.81
   2  -2   3   43.89    1.03
   4  -2   3  158.45    2.96
   6  -2   3    0.83    0.18
   8  -2   3   18.10    0.80
  10  -2   3   35.48    1.23
  12  -2   3    4.41    0.50
  14  -2   3   31.39    1.26
  16  -2   3    2.05    0.42
  18  -2   3    5.92    0.99
 -23  -1   3   -0.13    0.37
 -21  -1   3    4.50    0.68
 -19  -1   3    7.06    0.80
 -17  -1   3   30.87    1.03
 -15  -1   3   28.42    0.84
 -13  -1   3    0.39    0.16
 -11  -1   3  121.41    1.88
  -9  -1   3  292.45    3.99
  -7  -1   3    7.47    0.25
  -5  -1   3   15.44    0.35
  -3  -1   3   26.56    0.56
  -1  -1   3    5.43    0.23
   1  -1   3   27.74    0.58
   3  -1   3   41.63    0.90
   5  -1   3  356.72    5.97
   7  -1   3   96.54    2.25
   9  -1   3   65.47    1.74
  11  -1   3   20.54    0.86
  13  -1   3    0.13    0.20
  15  -1   3   55.81    2.43
  17  -1   3   47.44    1.70
  19  -1   3    0.67    0.37
 -22   0   3    1.63    0.40
 -20   0   3   31.24    1.23
 -18   0   3   27.72    0.83
 -16   0   3   19.62    0.66
 -14   0   3  114.73    2.05
 -12   0   3  224.18    4.20
 -10   0   3    3.82    0.24
  -8   0   3  111.70    1.63
  -6   0   3   58.07    1.09
  -4   0   3  225.84    3.04
  -2   0   3    2.74    0.19
   0   0   3  458.01    6.54
   2   0   3   60.88    1.17
   4   0   3  196.50    3.41
   6   0   3    1.14    0.17
   8   0   3   25.61    0.73
  10   0   3   46.80    1.11
  12   0   3    5.36    0.52
  14   0   3   35.39    1.32
  16   0   3    1.57    0.37
  18   0   3    5.76    0.64
 -23   1   3    0.43    0.45
 -21   1   3    4.67    0.49
 -19   1   3    8.34    0.59
 -17   1   3   30.39    0.97
 -15   1   3   29.08    0.89
 -13   1   3    0.20    0.13
 -11   1   3  119.71    2.01
  -9   1   3  290.27    4.30
  -7   1   3    7.13    0.27
  -5   1   3   15.25    0.39
  -3   1   3   27.58    0.57
  -1   1   3    5.61    0.24
   1   1   3   28.34    0.59
   3   1   3   40.10    0.96
   5   1   3  352.18    7.02
   7   1   3   94.66    2.26
   9   1   3   65.65    1.76
  11   1   3   19.76    0.87
  13   1   3    0.51    0.26
  15   1   3   57.09    2.76
  17   1   3   46.30    1.90
  19   1   3    1.17    0.48
 -22   2   3    1.18    0.41
 -20   2   3   28.31    1.23
 -18   2   3   22.16    1.01
 -16   2   3   14.55    0.69
 -14   2   3   88.09    1.73
 -12   2   3  180.53    2.89
 -10   2   3    3.13    0.26
  -8   2   3   86.89    1.52
  -6   2   3   43.35    0.74
  -4   2   3  162.98    2.25
  -2   2   3    1.96    0.18
   0   2   3  324.50    5.39
   2   2   3   45.26    1.02
   4   2   3  164.34    2.95
   6   2   3    1.07    0.23
   8   2   3   18.45    1.06
  10   2   3   32.94    1.56
  12   2   3    5.48    0.82
  14   2   3   34.21    1.85
  16   2   3    2.77    0.69
  18   2   3    6.65    1.45
 -19   3   3    5.51    0.65
 -17   3   3   21.95    1.06
 -15   3   3   19.43    0.79
 -13   3   3    0.24    0.18
 -11   3   3   77.17    1.73
  -9   3   3  183.34    3.38
  -7   3   3    4.72    0.36
  -5   3   3    9.47    0.36
  -3   3   3   14.32    0.45
  -1   3   3    4.01    0.27
   1   3   3   15.66    0.62
   3   3   3   27.03    0.89
   5   3   3  228.63    4.42
   7   3   3   65.82    2.11
   9   3   3   45.27    1.83
  11   3   3   14.45    1.26
  13   3   3   -0.38    1.07
  15   3   3   38.97    2.19
  17   3   3   44.20    3.50
 -18   4   3   14.94    1.09
 -16   4   3   10.48    0.73
 -14   4   3   54.39    1.50
 -12   4   3  106.76    2.35
 -10   4   3    1.87    0.30
  -8   4   3   47.77    1.27
  -6   4   3   20.15    0.94
  -4   4   3   78.67    2.25
  -2   4   3    0.85    0.22
   0   4   3  167.11    3.35
   2   4   3   22.13    0.84
   4   4   3   94.16    2.22
   6   4   3    0.26    0.26
   8   4   3   11.99    1.14
  10   4   3   25.12    1.57
  12   4   3    3.04    0.79
  14   4   3   17.76    2.22
 -15   5   3   10.55    1.49
 -13   5   3    0.13    0.34
 -11   5   3   41.53    1.67
  -9   5   3   94.34    2.81
  -7   5   3    3.18    0.52
  -5   5   3    3.46    0.54
  -3   5   3    6.57    0.68
  -1   5   3    3.18    0.49
   1   5   3    4.87    0.64
   3   5   3   17.24    1.14
   5   5   3  116.48    3.67
   7   5   3   30.08    1.67
   9   5   3   25.67    1.75
  -6   6   3    9.88    1.43
  -4   6   3   38.01    2.46
  -2   6   3    0.03    0.57
   2   6   3    8.18    1.37
   4   6   3   47.07    2.99
  -6  -6   4   76.04    3.53
  -4  -6   4    8.92    1.27
  -2  -6   4   38.41    1.85
   0  -6   4   10.55    1.71
 -13  -5   4    3.30    0.73
 -11  -5   4   24.74    1.15
  -9  -5   4   31.95    1.27
  -7  -5   4    0.47    0.34
  -5  -5   4   43.48    1.81
  -3  -5   4    0.07    0.28
  -1  -5   4   70.78    2.46
   1  -5   4    0.28    0.33
   3  -5   4    0.03    0.31
   5  -5   4    9.86    1.30
   7  -5   4    3.97    0.91
 -16  -4   4    8.64    1.11
 -14  -4   4   15.33    0.96
 -12  -4   4    1.01    0.33
 -10  -4   4   11.11    0.79
  -8  -4   4    1.58    0.32
  -6  -4   4  149.34    3.26
  -4  -4   4   19.98    1.02
  -2  -4   4   69.04    2.25
   0  -4   4   19.22    1.02
   2  -4   4   21.40    0.80
   4  -4   4   18.84    0.92
   6  -4   4   31.96    1.30
   8  -4   4   50.86    1.73
  10  -4   4   13.24    0.97
  12  -4   4   49.96    1.86
 -19  -3   4   14.11    1.05
 -17  -3   4   79.43    2.34
 -15  -3   4   30.17    1.24
 -13  -3   4    4.67    0.54
 -11  -3   4   45.70    1.43
  -9  -3   4   63.71    1.71
  -7  -3   4    1.37    0.27
  -5  -3   4   83.44    1.59
  -3  -3   4    0.41    0.14
  -1  -3   4  137.10    2.68
   1  -3   4    0.94    0.20
   3  -3   4    1.50    0.25
   5  -3   4   20.88    0.91
   7  -3   4    7.94    0.65
   9  -3   4    2.42    0.42
  11  -3   4   75.56    2.26
  13  -3   4    0.18    0.28
  15  -3   4   26.78    1.28
 -22  -2   4   38.66    3.08
 -20  -2   4    6.00    0.84
 -18  -2   4   30.71    1.70
 -16  -2   4   14.21    0.88
 -14  -2   4   25.19    0.81
 -12  -2   4    2.91    0.29
 -10  -2   4   20.67    0.64
  -8  -2   4    2.44    0.25
  -6  -2   4  267.49    4.22
  -4  -2   4   31.99    0.77
  -2  -2   4  126.73    2.06
   0  -2   4   37.01    0.90
   2  -2   4   38.06    0.82
   4  -2   4   35.17    1.15
   6  -2   4   54.12    1.58
   8  -2   4   81.48    2.15
  10  -2   4   19.07    0.88
  12  -2   4   75.52    2.19
  14  -2   4   20.27    1.02
  16  -2   4   24.31    1.23
 -23  -1   4   17.01    1.33
 -21  -1   4   79.64    4.34
 -19  -1   4   17.68    0.81
 -17  -1   4  107.27    3.34
 -15  -1   4   40.80    1.23
 -13  -1   4    6.12    0.48
 -11  -1   4   70.95    1.71
  -9  -1   4   96.72    1.71
  -7  -1   4    2.89    0.20
  -5  -1   4  130.04    2.12
  -3  -1   4    0.29    0.11
  -1  -1   4  221.36    3.34
   1  -1   4    1.91    0.18
   3  -1   4    2.47    0.25
   5  -1   4   33.65    0.87
   7  -1   4    8.57    0.44
   9  -1   4    3.61    0.34
  11  -1   4  102.63    2.15
  13  -1   4    0.17    0.22
  15  -1   4   29.96    1.30
  17  -1   4    0.63    0.33
 -24   0   4   17.07    1.31
 -22   0   4   36.64    2.20
 -20   0   4    6.86    0.66
 -18   0   4   35.41    1.17
 -16   0   4   17.23    0.63
 -14   0   4   31.42    0.83
 -12   0   4    3.70    0.29
 -10   0   4   25.48    0.66
  -8   0   4    3.11    0.24
  -6   0   4  344.60    5.16
  -4   0   4   41.04    0.73
  -2   0   4  157.24    2.46
   0   0   4   48.90    1.04
   2   0   4   51.71    1.10
   4   0   4   44.79    1.02
   6   0   4   68.82    1.44
   8   0   4  100.45    2.45
  10   0   4   23.45    0.96
  12   0   4   91.12    2.44
  14   0   4   22.13    1.04
  16   0   4   29.21    1.26
  18   0   4    0.41    0.56
 -23   1   4   17.40    1.08
 -21   1   4   74.68    1.88
 -19   1   4   17.68    0.76
 -17   1   4  108.67    2.31
 -15   1   4   41.63    1.14
 -13   1   4    6.65    0.44
 -11   1   4   70.68    1.55
  -9   1   4   97.26    1.65
  -7   1   4    3.48    0.22
  -5   1   4  129.06    2.07
  -3   1   4    0.39    0.11
  -1   1   4  219.23    3.30
   1   1   4    1.72    0.18
   3   1   4    3.00    0.31
   5   1   4   33.93    1.10
   7   1   4    7.09    0.57
   9   1   4    4.31    0.47
  11   1   4  107.06    2.67
  13   1   4    0.32    0.46
  15   1   4   32.54    1.56
  17   1   4    1.06    0.46
 -22   2   4   34.44    1.46
 -20   2   4    5.09    0.51
 -18   2   4   33.04    1.10
 -16   2   4   14.99    0.70
 -14   2   4   25.76    0.88
 -12   2   4    3.36    0.29
 -10   2   4   19.31    0.58
  -8   2   4    2.72    0.24
  -6   2   4  277.13    4.09
  -4   2   4   32.24    0.72
  -2   2   4  129.78    2.03
   0   2   4   37.83    0.94
   2   2   4   37.19    0.98
   4   2   4   36.53    1.00
   6   2   4   56.96    1.91
   8   2   4   75.22    2.52
  10   2   4   18.29    1.22
  12   2   4   84.85    2.90
  14   2   4   23.19    1.52
  16   2   4   29.49    1.68
 -19   3   4   13.94    0.99
 -17   3   4   77.24    2.33
 -15   3   4   30.38    1.22
 -13   3   4    3.98    0.39
 -11   3   4   45.34    1.20
  -9   3   4   63.09    1.47
  -7   3   4    1.38    0.22
  -5   3   4   81.49    1.75
  -3   3   4    0.12    0.12
  -1   3   4  138.66    2.75
   1   3   4    0.82    0.23
   3   3   4    1.26    0.33
   5   3   4   21.33    1.08
   7   3   4    7.51    0.81
   9   3   4    3.18    0.62
  11   3   4   75.64    3.63
  13   3   4    0.71    0.64
  15   3   4   26.83    3.38
 -18   4   4   22.97    1.66
 -16   4   4    8.87    0.81
 -14   4   4   16.82    0.93
 -12   4   4    0.76    0.25
 -10   4   4    9.51    0.61
  -8   4   4    1.28    0.33
  -6   4   4  149.09    3.73
  -4   4   4   19.85    0.93
  -2   4   4   71.62    2.12
   0   4   4   19.68    0.80
   2   4   4   18.42    0.82
   4   4   4   18.84    0.90
   6   4   4   34.12    1.31
   8   4   4   49.75    2.31
  10   4   4   16.38    1.63
  12   4   4   52.76    2.74
 -13   5   4    3.46    0.61
 -11   5   4   23.49    1.24
  -9   5   4   33.03    1.45
  -7   5   4    0.38    0.32
  -5   5   4   44.82    1.70
  -3   5   4   -0.07    0.27
  -1   5   4   70.22    3.41
   1   5   4    0.31    0.35
   3   5   4    0.36    0.39
   5   5   4   11.30    1.16
   7   5   4    4.02    0.81
  -6   6   4   71.41    3.46
 -13  -5   5   -0.33    0.35
 -11  -5   5   43.29    1.62
  -9  -5   5    3.36    0.64
  -7  -5   5   42.50    1.88
  -5  -5   5   18.80    1.26
  -3  -5   5   17.15    1.22
  -1  -5   5   39.18    1.74
   1  -5   5   82.24    3.80
   3  -5   5    4.63    0.99
   5  -5   5   24.18    1.90
 -16  -4   5    2.49    0.50
 -14  -4   5   39.13    1.50
 -12  -4   5   23.27    1.09
 -10  -4   5   64.52    1.90
  -8  -4   5   12.25    0.82
  -6  -4   5    9.27    0.87
  -4  -4   5    1.85    0.43
  -2  -4   5    0.18    0.25
   0  -4   5   13.92    0.70
   2  -4   5   53.86    1.77
   4  -4   5    0.14    0.26
   6  -4   5   90.22    2.58
   8  -4   5   34.01    1.43
  10  -4   5    5.28    0.67
 -19  -3   5    1.21    0.42
 -17  -3   5    5.74    0.68
 -15  -3   5   90.13    2.55
 -13  -3   5    0.11    0.25
 -11  -3   5   74.62    2.05
  -9  -3   5    6.94    0.60
  -7  -3   5   84.08    1.66
  -5  -3   5   34.48    0.89
  -3  -3   5   26.41    0.87
  -1  -3   5   75.96    1.74
   1  -3   5  150.17    3.51
   3  -3   5    8.03    0.52
   5  -3   5   41.84    1.18
   7  -3   5   31.35    1.02
   9  -3   5    2.95    0.38
  11  -3   5    0.74    0.28
  13  -3   5    6.89    0.61
 -20  -2   5   10.82    1.11
 -18  -2   5   21.29    1.41
 -16  -2   5    2.99    0.62
 -14  -2   5   55.80    1.54
 -12  -2   5   34.52    1.10
 -10  -2   5  103.13    2.26
  -8  -2   5   20.72    0.76
  -6  -2   5   19.46    0.72
  -4  -2   5    2.96    0.32
  -2  -2   5    0.97    0.17
   0  -2   5   23.29    0.63
   2  -2   5   85.59    1.78
   4  -2   5    0.43    0.18
   6  -2   5  143.18    2.76
   8  -2   5   55.00    1.38
  10  -2   5    7.73    0.56
  12  -2   5   20.25    1.02
  14  -2   5   39.53    1.59
 -21  -1   5    6.79    0.84
 -19  -1   5    3.08    0.42
 -17  -1   5    8.40    0.62
 -15  -1   5  124.07    2.72
 -13  -1   5    0.90    0.25
 -11  -1   5  103.63    2.31
  -9  -1   5   10.58    0.58
  -7  -1   5  122.36    2.09
  -5  -1   5   57.05    1.14
  -3  -1   5   43.61    0.95
  -1  -1   5  123.61    2.09
   1  -1   5  220.09    3.86
   3  -1   5   10.95    0.49
   5  -1   5   56.30    1.31
   7  -1   5   41.29    1.08
   9  -1   5    4.42    0.50
  11  -1   5    2.14    0.40
  13  -1   5    9.67    0.82
  15  -1   5   38.84    1.53
 -22   0   5   18.27    1.57
 -20   0   5   11.28    1.40
 -18   0   5   24.67    0.97
 -16   0   5    3.62    0.42
 -14   0   5   68.85    1.44
 -12   0   5   39.80    0.95
 -10   0   5  121.53    2.13
  -8   0   5   27.07    0.71
  -6   0   5   26.44    0.68
  -4   0   5    4.23    0.23
  -2   0   5    0.64    0.16
   0   0   5   28.91    0.77
   2   0   5  101.69    1.99
   4   0   5    0.45    0.17
   6   0   5  173.03    3.93
   8   0   5   70.99    1.95
  10   0   5    9.65    0.74
  12   0   5   22.54    1.06
  14   0   5   45.69    1.66
  16   0   5    1.35    0.41
 -21   1   5    7.90    0.77
 -19   1   5    2.95    0.38
 -17   1   5    8.29    0.57
 -15   1   5  125.13    2.49
 -13   1   5    1.22    0.24
 -11   1   5  102.87    2.11
  -9   1   5    9.92    0.47
  -7   1   5  122.15    2.00
  -5   1   5   55.95    1.08
  -3   1   5   42.70    0.91
  -1   1   5  121.24    2.03
   1   1   5  226.74    3.98
   3   1   5   11.36    0.55
   5   1   5   57.18    1.45
   7   1   5   41.50    1.23
   9   1   5    3.79    0.44
  11   1   5    1.15    0.31
  13   1   5   11.52    1.06
  15   1   5   39.83    1.80
 -22   2   5   16.17    1.60
 -20   2   5   11.94    0.78
 -18   2   5   21.04    0.87
 -16   2   5    3.08    0.38
 -14   2   5   54.51    1.44
 -12   2   5   32.63    1.01
 -10   2   5   97.95    2.12
  -8   2   5   22.16    0.62
  -6   2   5   19.48    0.58
  -4   2   5    3.23    0.26
  -2   2   5    0.75    0.20
   0   2   5   22.21    0.73
   2   2   5   86.19    1.86
   4   2   5    1.17    0.24
   6   2   5  139.14    3.81
   8   2   5   48.85    2.00
  10   2   5    8.22    0.95
  12   2   5   21.96    1.45
  14   2   5   42.72    2.01
 -19   3   5    2.59    0.48
 -17   3   5    4.47    0.57
 -15   3   5   93.39    2.57
 -13   3   5    0.32    0.24
 -11   3   5   75.66    2.11
  -9   3   5    7.31    0.48
  -7   3   5   85.13    1.82
  -5   3   5   35.77    0.98
  -3   3   5   28.43    0.85
  -1   3   5   74.73    1.78
   1   3   5  146.62    3.71
   3   3   5    8.44    0.78
   5   3   5   41.25    1.67
   7   3   5   26.91    1.44
   9   3   5    3.33    0.70
  11   3   5    0.77    0.54
  13   3   5    6.38    1.08
 -16   4   5    2.41    0.49
 -14   4   5   38.44    1.50
 -12   4   5   23.12    1.09
 -10   4   5   66.08    1.64
  -8   4   5   13.99    0.81
  -6   4   5    8.69    0.74
  -4   4   5    1.79    0.38
  -2   4   5    0.52    0.29
   0   4   5   14.65    0.88
   2   4   5   55.02    1.62
   4   4   5    0.32    0.30
   6   4   5   89.47    2.50
   8   4   5   35.59    1.57
  10   4   5    4.30    0.98
 -11   5   5   44.22    1.77
  -9   5   5    4.36    0.61
  -7   5   5   42.18    1.69
  -5   5   5   18.72    1.07
  -3   5   5   16.05    1.06
  -1   5   5   38.11    2.35
   1   5   5   78.14    3.85
   3   5   5    4.99    0.78
   5   5   5   24.92    1.67
   7   5   5   14.56    2.20
 -11  -5   6    2.32    0.76
  -9  -5   6   28.22    1.58
  -7  -5   6   35.16    1.79
  -5  -5   6   56.05    2.31
  -3  -5   6    1.17    0.63
  -1  -5   6    7.24    1.21
   1  -5   6   48.23    2.82
 -16  -4   6   37.03    2.10
 -14  -4   6    5.14    0.74
 -12  -4   6   44.94    1.64
 -10  -4   6    5.99    0.64
  -8  -4   6   19.53    1.21
  -6  -4   6   14.90    1.18
  -4  -4   6  131.97    3.77
  -2  -4   6    9.68    1.25
   0  -4   6    4.52    0.59
   2  -4   6   31.76    1.35
   4  -4   6   11.28    0.93
   6  -4   6    1.07    0.40
   8  -4   6   21.18    1.14
 -19  -3   6    6.11    0.95
 -17  -3   6    0.01    0.41
 -15  -3   6    5.11    0.84
 -13  -3   6   43.49    2.02
 -11  -3   6    5.80    0.78
  -9  -3   6   42.03    1.80
  -7  -3   6   63.14    1.63
  -5  -3   6  102.36    2.30
  -3  -3   6    2.84    0.36
  -1  -3   6   11.78    0.77
   1  -3   6   86.17    2.43
   3  -3   6    3.70    0.49
   5  -3   6   28.62    0.98
   7  -3   6    3.38    0.40
   9  -3   6   97.23    2.23
  11  -3   6   25.64    1.02
 -20  -2   6  101.36    5.75
 -18  -2   6   23.43    1.54
 -16  -2   6   55.31    2.31
 -14  -2   6    9.22    0.61
 -12  -2   6   69.70    1.85
 -10  -2   6   10.05    0.61
  -8  -2   6   28.69    0.98
  -6  -2   6   29.14    0.98
  -4  -2   6  206.69    4.03
  -2  -2   6   16.65    0.79
   0  -2   6    6.72    0.46
   2  -2   6   52.48    1.33
   4  -2   6   19.50    0.73
   6  -2   6    1.22    0.26
   8  -2   6   25.79    0.91
  10  -2   6   20.15    1.04
  12  -2   6   25.78    1.26
 -21  -1   6   50.05    1.58
 -19  -1   6    6.82    0.61
 -17  -1   6    0.19    0.20
 -15  -1   6    7.57    0.59
 -13  -1   6   62.00    1.67
 -11  -1   6    9.00    0.62
  -9  -1   6   56.20    1.51
  -7  -1   6   87.27    2.05
  -5  -1   6  150.90    2.56
  -3  -1   6    4.20    0.34
  -1  -1   6   16.48    0.61
   1  -1   6  135.16    2.60
   3  -1   6    6.00    0.44
   5  -1   6   37.93    1.06
   7  -1   6    3.87    0.49
   9  -1   6  120.99    3.19
  11  -1   6   32.34    1.36
  13  -1   6   40.24    1.60
 -22   0   6    0.16    0.29
 -18   0   6   24.74    1.01
 -16   0   6   64.81    1.75
 -14   0   6    9.56    0.66
 -12   0   6   87.08    1.71
 -10   0   6   12.60    0.49
  -8   0   6   32.17    0.81
  -6   0   6   38.21    0.91
  -4   0   6  253.43    4.42
  -2   0   6   20.41    0.59
   0   0   6    7.57    0.47
   2   0   6   64.64    1.84
   4   0   6   23.67    1.00
   6   0   6    1.95    0.37
   8   0   6   27.96    1.16
  10   0   6   21.69    1.06
  12   0   6   27.87    1.29
  14   0   6    0.95    0.41
 -21   1   6   51.20    1.85
 -19   1   6    7.28    0.74
 -17   1   6    0.39    0.22
 -15   1   6    6.61    0.50
 -13   1   6   62.54    1.50
 -11   1   6    8.22    0.52
  -9   1   6   59.98    1.40
  -7   1   6   89.74    1.88
  -5   1   6  150.47    2.47
  -3   1   6    3.52    0.29
  -1   1   6   17.08    0.64
   1   1   6  135.47    2.68
   3   1   6    6.30    0.50
   5   1   6   39.41    1.19
   7   1   6    5.17    0.51
   9   1   6  131.73    2.85
  11   1   6   32.66    1.59
  13   1   6   42.64    1.89
 -20   2   6  102.39    3.02
 -18   2   6   24.54    0.96
 -16   2   6   54.49    1.51
 -14   2   6    7.52    0.56
 -12   2   6   70.56    1.72
 -10   2   6    9.72    0.61
  -8   2   6   27.21    0.92
  -6   2   6   29.22    0.85
  -4   2   6  210.74    3.81
  -2   2   6   16.47    0.63
   0   2   6    7.14    0.50
   2   2   6   55.57    1.43
   4   2   6   19.52    1.07
   6   2   6    1.78    0.48
   8   2   6   26.42    1.43
  10   2   6   19.80    1.50
  12   2   6   30.57    1.69
 -19   3   6    5.87    0.70
 -17   3   6   -0.03    0.26
 -15   3   6    5.44    0.54
 -13   3   6   41.77    1.34
 -11   3   6    7.05    0.57
  -9   3   6   42.84    1.45
  -7   3   6   61.58    1.50
  -5   3   6  103.20    2.18
  -3   3   6    3.05    0.43
  -1   3   6   12.26    0.75
   1   3   6   85.66    2.56
   3   3   6    4.58    0.63
   5   3   6   29.22    1.43
   7   3   6    3.92    0.70
   9   3   6   90.42    3.25
  11   3   6   23.46    1.81
 -16   4   6   38.71    2.20
 -14   4   6    5.39    0.66
 -12   4   6   41.80    1.62
 -10   4   6    5.41    0.88
  -8   4   6   19.83    1.01
  -6   4   6   16.81    0.93
  -4   4   6  125.94    3.41
  -2   4   6   10.87    0.89
   0   4   6    4.39    0.61
   2   4   6   29.70    1.40
   4   4   6   13.04    0.97
   6   4   6    1.06    0.45
   8   4   6   17.56    1.65
  -9   5   6   24.04    1.82
  -7   5   6   38.91    1.64
  -5   5   6   56.04    2.06
  -3   5   6    1.84    0.50
  -1   5   6    5.82    0.76
   1   5   6   50.20    2.02
   3   5   6    2.93    0.96
 -14  -4   7   25.98    1.79
 -12  -4   7    9.49    1.13
 -10  -4   7   88.66    3.18
  -8  -4   7   15.37    1.29
  -6  -4   7    9.51    1.27
  -4  -4   7    8.74    1.24
  -2  -4   7   35.71    2.29
   0  -4   7   24.08    1.21
   2  -4   7   43.62    1.73
   4  -4   7   52.75    1.96
 -17  -3   7   63.47    2.74
 -15  -3   7   23.56    1.61
 -13  -3   7   70.43    2.86
 -11  -3   7    0.48    0.45
  -9  -3   7    0.40    0.24
  -7  -3   7    4.92    0.50
  -5  -3   7    0.66    0.28
  -3  -3   7    0.19    0.26
  -1  -3   7   61.11    1.95
   1  -3   7    0.52    0.30
   3  -3   7   48.46    1.73
   5  -3   7    8.33    0.80
   7  -3   7   39.45    1.59
   9  -3   7    1.84    0.68
 -18  -2   7   22.78    1.54
 -16  -2   7    2.40    0.58
 -14  -2   7   44.01    1.40
 -12  -2   7   13.88    0.74
 -10  -2   7  136.90    3.04
  -8  -2   7   23.71    0.97
  -6  -2   7   12.34    0.78
  -4  -2   7   15.17    0.81
  -2  -2   7   56.73    1.78
   0  -2   7   40.02    1.43
   2  -2   7   63.31    1.60
   4  -2   7   79.34    1.85
   6  -2   7    0.96    0.34
   8  -2   7    0.57    0.31
  10  -2   7    0.40    0.35
 -21  -1   7    1.39    0.51
 -19  -1   7    0.06    0.25
 -17  -1   7   79.17    2.82
 -15  -1   7   27.44    1.07
 -13  -1   7   90.22    2.20
 -11  -1   7    0.99    0.28
  -9  -1   7    0.07    0.20
  -7  -1   7    8.26    0.60
  -5  -1   7    0.26    0.17
  -3  -1   7    0.05    0.15
  -1  -1   7   86.01    1.88
   1  -1   7    0.96    0.23
   3  -1   7   60.54    1.86
   5  -1   7   13.65    0.87
   7  -1   7   53.27    1.79
   9  -1   7    1.49    0.41
  11  -1   7   18.81    1.07
 -20   0   7    4.47    0.60
 -18   0   7   26.33    1.88
 -16   0   7    3.18    0.43
 -14   0   7   43.02    1.37
 -12   0   7   16.82    0.81
 -10   0   7  160.02    2.80
  -8   0   7   29.07    0.80
  -6   0   7   13.80    0.58
  -4   0   7   17.90    0.68
  -2   0   7   68.62    1.58
   0   0   7   47.67    1.28
   2   0   7   72.86    2.08
   4   0   7   89.85    2.47
   6   0   7    0.95    0.33
   8   0   7    0.56    0.31
  10   0   7    1.29    0.42
  12   0   7   14.05    1.09
 -21   1   7    0.71    0.37
 -19   1   7    0.36    0.32
 -17   1   7   78.64    2.40
 -15   1   7   27.26    0.95
 -13   1   7   93.42    2.03
 -11   1   7    0.85    0.22
  -9   1   7    0.14    0.18
  -7   1   7    7.10    0.50
  -5   1   7    0.17    0.20
  -3   1   7    0.33    0.22
  -1   1   7   83.82    1.91
   1   1   7    0.58    0.23
   3   1   7   58.66    1.59
   5   1   7   12.00    0.77
   7   1   7   52.41    1.57
   9   1   7    1.78    0.54
  11   1   7   16.53    1.31
 -20   2   7    3.84    0.64
 -18   2   7   24.40    0.99
 -16   2   7    1.78    0.35
 -14   2   7   41.46    1.28
 -12   2   7   13.82    0.70
 -10   2   7  137.48    2.85
  -8   2   7   23.04    0.98
  -6   2   7   12.27    0.74
  -4   2   7   14.88    0.78
  -2   2   7   57.74    1.44
   0   2   7   39.41    1.18
   2   2   7   66.04    1.70
   4   2   7   76.67    2.53
   6   2   7    0.14    0.38
   8   2   7    0.00    0.39
  10   2   7    1.74    0.64
 -17   3   7   63.33    1.84
 -15   3   7   19.42    0.96
 -13   3   7   71.51    2.19
 -11   3   7    0.20    0.27
  -9   3   7   -0.34    0.22
  -7   3   7    4.98    0.57
  -5   3   7   -0.25    0.22
  -3   3   7    0.27    0.26
  -1   3   7   60.37    2.00
   1   3   7    0.88    0.36
   3   3   7   45.16    1.86
   5   3   7    9.59    0.99
   7   3   7   39.04    1.89
 -14   4   7   30.71    1.96
 -12   4   7    9.00    1.20
 -10   4   7   87.08    3.73
  -8   4   7   15.93    1.34
  -6   4   7    6.18    0.96
  -4   4   7    9.23    0.83
  -2   4   7   35.31    2.21
   0   4   7   23.17    1.25
   2   4   7   43.72    2.68
   4   4   7   52.57    2.17
   6   4   7    0.83    1.19
  -3   5   7    0.44    0.59
 -12  -4   8    0.52    1.36
  -8  -4   8   17.16    1.85
  -6  -4   8   12.72    1.57
  -4  -4   8   25.10    1.96
  -2  -4   8   25.76    2.03
   0  -4   8    8.51    1.20
 -15  -3   8    4.42    0.84
 -13  -3   8    0.89    0.51
 -11  -3   8   31.88    1.91
  -9  -3   8    1.41    0.38
  -7  -3   8   68.31    2.18
  -5  -3   8   78.66    2.40
  -3  -3   8   22.38    1.13
  -1  -3   8   10.03    0.88
   1  -3   8    1.50    0.42
   3  -3   8    7.31    0.79
   5  -3   8   35.79    1.58
 -18  -2   8    0.30    0.46
 -16  -2   8    7.97    0.70
 -14  -2   8    0.59    0.30
 -12  -2   8    0.19    0.25
 -10  -2   8   74.70    2.01
  -8  -2   8   25.83    1.18
  -6  -2   8   17.71    0.94
  -4  -2   8   42.03    1.55
  -2  -2   8   40.32    1.54
   0  -2   8   12.12    0.93
   2  -2   8    0.28    0.30
   4  -2   8    2.55    0.50
   6  -2   8   77.73    2.43
   8  -2   8    9.24    1.23
 -19  -1   8   90.90    3.22
 -17  -1   8    5.30    0.54
 -15  -1   8    9.27    0.72
 -13  -1   8    0.25    0.24
 -11  -1   8   44.08    1.40
  -9  -1   8    2.68    0.43
  -7  -1   8   92.06    2.59
  -5  -1   8  104.37    2.84
  -3  -1   8   30.12    0.98
  -1  -1   8   15.15    0.71
   1  -1   8    2.10    0.39
   3  -1   8    8.87    0.77
   5  -1   8   44.69    1.66
   7  -1   8   13.61    1.02
   9  -1   8    0.04    0.35
 -20   0   8    0.88    0.39
 -18   0   8    0.94    0.37
 -16   0   8    9.95    0.84
 -14   0   8    0.35    0.28
 -12   0   8    0.08    0.24
 -10   0   8   88.81    2.53
  -8   0   8   30.60    0.96
  -6   0   8   20.55    0.77
  -4   0   8   48.21    1.56
  -2   0   8   50.64    1.64
   0   0   8   13.42    0.92
   2   0   8    0.35    0.26
   4   0   8    3.08    0.43
   6   0   8   89.05    2.63
   8   0   8   11.83    0.98
  10   0   8   99.93    4.07
 -19   1   8   93.81    2.82
 -17   1   8    5.35    0.67
 -15   1   8    8.17    0.77
 -13   1   8    1.00    0.23
 -11   1   8   42.80    1.24
  -9   1   8    2.42    0.33
  -7   1   8   89.79    2.43
  -5   1   8  107.23    2.74
  -3   1   8   30.85    1.22
  -1   1   8   15.02    0.88
   1   1   8    1.91    0.35
   3   1   8    9.51    0.70
   5   1   8   43.51    1.43
   7   1   8   12.43    0.87
   9   1   8    0.65    0.75
 -18   2   8    0.65    0.31
 -16   2   8    7.95    0.65
 -14   2   8    0.32    0.26
 -12   2   8    0.46    0.29
 -10   2   8   75.37    2.18
  -8   2   8   27.94    1.16
  -6   2   8   18.76    0.92
  -4   2   8   42.03    1.50
  -2   2   8   42.01    1.51
   0   2   8   13.33    0.77
   2   2   8    0.51    0.36
   4   2   8    2.90    0.58
   6   2   8   81.90    2.82
   8   2   8   10.74    1.73
 -15   3   8    7.12    0.75
 -13   3   8   -0.09    0.29
 -11   3   8   35.63    1.43
  -9   3   8    1.44    0.39
  -7   3   8   71.07    2.17
  -5   3   8   77.68    3.35
  -3   3   8   22.35    1.60
  -1   3   8   10.34    0.90
   1   3   8    1.00    0.43
   3   3   8    5.98    0.81
   5   3   8   36.91    1.82
  -8   4   8   20.06    1.60
  -6   4   8   12.75    1.46
   0   4   8    9.42    1.35
 -11  -3   9   37.53    2.53
  -9  -3   9    5.11    0.66
  -7  -3   9   14.12    1.06
  -5  -3   9   31.64    1.45
  -3  -3   9    7.97    0.83
  -1  -3   9   25.38    1.32
   1  -3   9   83.77    3.91
 -16  -2   9  129.65    6.64
 -14  -2   9    0.02    0.30
 -12  -2   9    0.03    0.29
 -10  -2   9    1.57    0.43
  -8  -2   9    2.40    0.48
  -6  -2   9    0.46    0.33
  -4  -2   9   26.16    1.27
  -2  -2   9   33.36    1.46
   0  -2   9   58.74    2.84
   2  -2   9    9.02    1.22
 -17  -1   9    3.02    0.48
 -15  -1   9   16.56    0.94
 -13  -1   9   73.04    2.36
 -11  -1   9   53.32    1.88
  -9  -1   9    8.55    0.79
  -7  -1   9   21.15    1.09
  -5  -1   9   44.38    1.66
  -3  -1   9    8.62    1.13
  -1  -1   9   32.15    1.95
   1  -1   9  106.19    2.96
   3  -1   9    2.06    0.46
   5  -1   9   13.60    1.04
 -18   0   9    1.05    0.41
 -16   0   9  154.25    4.01
 -14   0   9    0.35    0.30
 -12   0   9    0.04    0.27
 -10   0   9    2.50    0.48
  -8   0   9    2.92    0.63
  -6   0   9    1.22    0.35
  -4   0   9   32.70    1.28
  -2   0   9   42.47    1.56
   0   0   9   65.92    2.13
   2   0   9    8.90    0.82
   4   0   9   26.97    1.31
   6   0   9    3.61    0.59
 -17   1   9    2.67    0.52
 -15   1   9   16.31    1.16
 -13   1   9   74.64    2.38
 -11   1   9   52.73    1.72
  -9   1   9    8.80    0.73
  -7   1   9   20.12    0.99
  -5   1   9   44.72    1.58
  -3   1   9   10.35    0.84
  -1   1   9   33.05    1.39
   1   1   9  110.43    3.05
   3   1   9    1.04    0.42
   5   1   9   14.67    1.21
 -16   2   9  139.46    5.06
 -14   2   9    0.27    0.30
 -12   2   9    0.47    0.32
 -10   2   9    1.65    0.41
  -8   2   9    2.17    0.45
  -6   2   9    0.99    0.35
  -4   2   9   28.81    1.27
  -2   2   9   35.54    1.46
   0   2   9   57.93    2.93
   2   2   9    7.95    1.27
   4   2   9   25.53    2.10
 -13   3   9   56.88    2.85
 -11   3   9   42.48    1.63
  -9   3   9    7.15    0.75
  -7   3   9   13.46    1.43
  -5   3   9   34.63    2.09
  -3   3   9    9.71    1.29
  -1   3   9   23.38    1.86
 -12  -2  10    5.37    0.91
 -10  -2  10   80.33    2.59
  -8  -2  10   65.78    2.25
  -6  -2  10   10.67    0.98
  -4  -2  10    4.74    0.94
 -13  -1  10   41.52    1.71
 -11  -1  10    0.31    0.34
  -9  -1  10   17.34    1.11
  -7  -1  10    9.94    1.22
  -5  -1  10   55.55    2.76
  -3  -1  10    0.10    0.45
  -1  -1  10    1.19    0.59
 -14   0  10    3.70    0.60
 -12   0  10    7.12    1.04
 -10   0  10   93.00    3.83
  -8   0  10   75.56    3.25
  -6   0  10   12.17    1.36
  -4   0  10    3.83    0.82
  -2   0  10    0.20    0.35
   0   0  10    4.87    0.70
   2   0  10   15.24    1.67
 -13   1  10   40.63    2.29
 -11   1  10    1.02    0.50
  -9   1  10   15.34    0.99
  -7   1  10   10.52    0.87
  -5   1  10   55.10    1.92
  -3   1  10   -0.22    0.31
  -1   1  10    0.89    0.43
   1   1  10    0.50    0.53
 -12   2  10    7.50    1.06
 -10   2  10   83.50    2.49
  -8   2  10   64.29    2.15
  -6   2  10   11.06    0.93
  -4   2  10    3.43    0.58
   0   0   0    0.00    0.00
;
_shelx_hkl_checksum              4473
#END Tags that were not found in dictionaries
loop_
_space_group_symop_operation_xyz
'x, y, z'
'-x, y, -z'
'x+1/2, y+1/2, z'
'-x+1/2, y+1/2, -z'
'-x, -y, -z'
'x, -y, z'
'-x+1/2, -y+1/2, -z'
'x+1/2, -y+1/2, z'
loop_
_atom_site_label
_atom_site_type_symbol
_atom_site_fract_x
_atom_site_fract_y
_atom_site_fract_z
_atom_site_U_iso_or_equiv
_atom_site_adp_type
_atom_site_occupancy
_atom_site_site_symmetry_order
_atom_site_calc_flag
_atom_site_refinement_flags_posn
_atom_site_refinement_flags_adp
_atom_site_refinement_flags_occupancy
Sm1 Sm 0.34636(2) 0.0000 0.05959(3) 0.00607(6) Uani 1 2 d S T P
Sm2 Sm 0.58881(2) 0.0000 0.38273(3) 0.00549(6) Uani 1 2 d S T P
Co Co 0.21945(4) 0.0000 0.62585(9) 0.00655(12) Uani 1 2 d S T P
In In 0.0000 0.0000 0.0000 0.00742(14) Uani 0.973(2) 4 d S T .
Ge1 Ge 0.06703(3) 0.0000 0.65687(7) 0.00595(10) Uani 1 2 d S T P
Ge2 Ge 0.20766(3) 0.0000 0.27226(7) 0.00609(10) Uani 1 2 d S T P
loop_
_atom_site_aniso_label
_atom_site_aniso_U_11
_atom_site_aniso_U_22
_atom_site_aniso_U_33
_atom_site_aniso_U_23
_atom_site_aniso_U_13
_atom_site_aniso_U_12
Sm1 0.00691(11) 0.00587(10) 0.00506(10) 0.000 0.00125(7) 0.000
Sm2 0.00612(11) 0.00465(10) 0.00609(10) 0.000 0.00247(8) 0.000
Co 0.0068(3) 0.0055(3) 0.0073(3) 0.000 0.0021(2) 0.000
In 0.0084(2) 0.0072(2) 0.0070(2) 0.000 0.00303(16) 0.000
Ge1 0.0066(2) 0.0056(2) 0.0056(2) 0.000 0.00180(16) 0.000
Ge2 0.0082(2) 0.0045(2) 0.0061(2) 0.000 0.00277(16) 0.000
loop_
_atom_type_symbol
_atom_type_description
_atom_type_scat_dispersion_real
_atom_type_scat_dispersion_imag
_atom_type_scat_source
Co Co 0.3494 0.9721 'International Tables Vol C Tables 4.2.6.8 and 6.1.1.4'
Ge Ge 0.1547 1.8001 'International Tables Vol C Tables 4.2.6.8 and 6.1.1.4'
In In -0.7276 1.3100 'International Tables Vol C Tables 4.2.6.8 and 6.1.1.4'
Sm Sm -0.1638 3.4418 'International Tables Vol C Tables 4.2.6.8 and 6.1.1.4'
loop_
_geom_angle_atom_site_label_1
_geom_angle_atom_site_label_2
_geom_angle_atom_site_label_3
_geom_angle
_geom_angle_site_symmetry_1
_geom_angle_site_symmetry_3
Ge1 Sm1 Ge1 92.066(15) 7_556 7_546
Ge1 Sm1 Ge2 84.712(13) 7_556 .
Ge1 Sm1 Ge2 84.712(13) 7_546 .
Ge1 Sm1 Ge2 167.102(15) 7_556 7_545
Ge1 Sm1 Ge2 89.105(11) 7_546 7_545
Ge2 Sm1 Ge2 108.185(12) . 7_545
Ge1 Sm1 Ge2 89.105(11) 7_556 7
Ge1 Sm1 Ge2 167.102(15) 7_546 7
Ge2 Sm1 Ge2 108.185(12) . 7
Ge2 Sm1 Ge2 86.947(15) 7_545 7
Ge1 Sm1 Co 133.948(8) 7_556 1_554
Ge1 Sm1 Co 133.948(8) 7_546 1_554
Ge2 Sm1 Co 99.117(17) . 1_554
Ge2 Sm1 Co 45.866(9) 7_545 1_554
Ge2 Sm1 Co 45.866(8) 7 1_554
Ge1 Sm1 In 55.091(10) 7_556 3
Ge1 Sm1 In 110.455(12) 7_546 3
Ge2 Sm1 In 136.319(6) . 3
Ge2 Sm1 In 112.606(11) 7_545 3
Ge2 Sm1 In 60.216(9) 7 3
Co Sm1 In 98.100(11) 1_554 3
Ge1 Sm1 In 110.455(12) 7_556 3_545
Ge1 Sm1 In 55.091(10) 7_546 3_545
Ge2 Sm1 In 136.319(6) . 3_545
Ge2 Sm1 In 60.216(9) 7_545 3_545
Ge2 Sm1 In 112.606(11) 7 3_545
Co Sm1 In 98.100(11) 1_554 3_545
In Sm1 In 79.633(8) 3 3_545
Ge1 Sm1 Co 44.075(14) 7_556 7_556
Ge1 Sm1 Co 99.693(14) 7_546 7_556
Ge2 Sm1 Co 43.332(9) . 7_556
Ge2 Sm1 Co 148.093(15) 7_545 7_556
Ge2 Sm1 Co 90.068(12) 7 7_556
Co Sm1 Co 114.438(13) 1_554 7_556
In Sm1 Co 93.058(9) 3 7_556
In Sm1 Co 147.386(12) 3_545 7_556
Ge1 Sm1 Co 99.693(14) 7_556 7_546
Ge1 Sm1 Co 44.075(14) 7_546 7_546
Ge2 Sm1 Co 43.332(9) . 7_546
Ge2 Sm1 Co 90.068(12) 7_545 7_546
Ge2 Sm1 Co 148.093(15) 7 7_546
Co Sm1 Co 114.438(13) 1_554 7_546
In Sm1 Co 147.386(12) 3 7_546
In Sm1 Co 93.058(9) 3_545 7_546
Co Sm1 Co 76.058(14) 7_556 7_546
Ge1 Sm1 Sm1 140.209(14) 7_556 7_545
Ge1 Sm1 Sm1 84.796(10) 7_546 7_545
Ge2 Sm1 Sm1 55.497(10) . 7_545
Ge2 Sm1 Sm1 52.688(10) 7_545 7_545
Ge2 Sm1 Sm1 102.419(12) 7 7_545
Co Sm1 Sm1 61.878(11) 1_554 7_545
In Sm1 Sm1 159.861(11) 3 7_545
In Sm1 Sm1 100.053(7) 3_545 7_545
Co Sm1 Sm1 97.320(13) 7_556 7_545
Co Sm1 Sm1 52.561(11) 7_546 7_545
Ge1 Sm1 Sm1 84.796(10) 7_556 7
Ge1 Sm1 Sm1 140.209(14) 7_546 7
Ge2 Sm1 Sm1 55.497(10) . 7
Ge2 Sm1 Sm1 102.419(12) 7_545 7
Ge2 Sm1 Sm1 52.688(10) 7 7
Co Sm1 Sm1 61.878(11) 1_554 7
In Sm1 Sm1 100.053(6) 3 7
In Sm1 Sm1 159.861(11) 3_545 7
Co Sm1 Sm1 52.561(11) 7_556 7
Co Sm1 Sm1 97.320(13) 7_546 7
Sm1 Sm1 Sm1 73.283(11) 7_545 7
Ge1 Sm2 Ge1 91.563(15) 3 3_545
Ge1 Sm2 Co 108.933(13) 3 5_656
Ge1 Sm2 Co 108.934(13) 3_545 5_656
Ge1 Sm2 Ge2 82.382(11) 3 3
Ge1 Sm2 Ge2 149.306(15) 3_545 3
Co Sm2 Ge2 46.843(9) 5_656 3
Ge1 Sm2 Ge2 149.306(15) 3 3_545
Ge1 Sm2 Ge2 82.382(11) 3_545 3_545
Co Sm2 Ge2 46.843(9) 5_656 3_545
Ge2 Sm2 Ge2 87.642(15) 3 3_545
Ge1 Sm2 Co 47.688(15) 3 3
Ge1 Sm2 Co 108.414(15) 3_545 3
Co Sm2 Co 61.312(16) 5_656 3
Ge2 Sm2 Co 47.019(15) 3 3
Ge2 Sm2 Co 105.890(15) 3_545 3
Ge1 Sm2 Co 108.414(15) 3 3_545
Ge1 Sm2 Co 47.688(14) 3_545 3_545
Co Sm2 Co 61.312(16) 5_656 3_545
Ge2 Sm2 Co 105.890(15) 3 3_545
Ge2 Sm2 Co 47.019(15) 3_545 3_545
Co Sm2 Co 87.263(17) 3 3_545
Ge1 Sm2 Ge1 107.596(9) 3 7_546
Ge1 Sm2 Ge1 48.838(16) 3_545 7_546
Co Sm2 Ge1 137.368(7) 5_656 7_546
Ge2 Sm2 Ge1 160.841(15) 3 7_546
Ge2 Sm2 Ge1 90.954(11) 3_545 7_546
Co Sm2 Ge1 150.328(16) 3 7_546
Co Sm2 Ge1 86.797(12) 3_545 7_546
Ge1 Sm2 Ge1 48.838(16) 3 7_556
Ge1 Sm2 Ge1 107.596(9) 3_545 7_556
Co Sm2 Ge1 137.368(7) 5_656 7_556
Ge2 Sm2 Ge1 90.954(11) 3 7_556
Ge2 Sm2 Ge1 160.841(15) 3_545 7_556
Co Sm2 Ge1 86.797(13) 3 7_556
Co Sm2 Ge1 150.328(16) 3_545 7_556
Ge1 Sm2 Ge1 84.148(14) 7_546 7_556
Ge1 Sm2 Ge2 78.109(12) 3 5_656
Ge1 Sm2 Ge2 78.109(12) 3_545 5_656
Co Sm2 Ge2 44.912(16) 5_656 5_656
Ge2 Sm2 Ge2 71.197(13) 3 5_656
Ge2 Sm2 Ge2 71.197(13) 3_545 5_656
Co Sm2 Ge2 43.746(9) 3 5_656
Co Sm2 Ge2 43.746(9) 3_545 5_656
Ge1 Sm2 Ge2 126.195(10) 7_546 5_656
Ge1 Sm2 Ge2 126.195(10) 7_556 5_656
Ge1 Sm2 In 150.727(12) 3 3_545
Ge1 Sm2 In 88.495(9) 3_545 3_545
Co Sm2 In 98.662(11) 5_656 3_545
Ge2 Sm2 In 111.197(11) 3 3_545
Ge2 Sm2 In 59.566(10) 3_545 3_545
Co Sm2 In 156.772(14) 3 3_545
Co Sm2 In 93.085(10) 3_545 3_545
Ge1 Sm2 In 52.690(9) 7_546 3_545
Ge1 Sm2 In 103.534(10) 7_556 3_545
Ge2 Sm2 In 130.267(7) 5_656 3_545
Ge1 Sm2 In 88.495(10) 3 3
Ge1 Sm2 In 150.727(12) 3_545 3
Co Sm2 In 98.662(11) 5_656 3
Ge2 Sm2 In 59.566(10) 3 3
Ge2 Sm2 In 111.197(11) 3_545 3
Co Sm2 In 93.085(10) 3 3
Co Sm2 In 156.772(14) 3_545 3
Ge1 Sm2 In 103.534(10) 7_546 3
Ge1 Sm2 In 52.690(9) 7_556 3
Ge2 Sm2 In 130.267(7) 5_656 3
In Sm2 In 77.642(8) 3_545 3
Ge2 Co Ge2 123.39(3) 7_556 7_546
Ge2 Co Ge1 110.698(19) 7_556 .
Ge2 Co Ge1 110.698(19) 7_546 .
Ge2 Co Ge2 100.83(2) 7_556 .
Ge2 Co Ge2 100.83(2) 7_546 .
Ge1 Co Ge2 108.46(3) . .
Ge2 Co Sm2 68.061(17) 7_556 5_656
Ge2 Co Sm2 68.061(17) 7_546 5_656
Ge1 Co Sm2 176.20(3) . 5_656
Ge2 Co Sm2 75.34(2) . 5_656
Ge2 Co Sm2 160.91(2) 7_556 3_445
Ge2 Co Sm2 74.335(12) 7_546 3_445
Ge1 Co Sm2 63.698(15) . 3_445
Ge2 Co Sm2 66.264(15) . 3_445
Sm2 Co Sm2 118.690(16) 5_656 3_445
Ge2 Co Sm2 74.335(12) 7_556 3_455
Ge2 Co Sm2 160.91(2) 7_546 3_455
Ge1 Co Sm2 63.698(15) . 3_455
Ge2 Co Sm2 66.264(15) . 3_455
Sm2 Co Sm2 118.690(15) 5_656 3_455
Sm2 Co Sm2 87.261(17) 3_445 3_455
Ge2 Co Sm1 66.699(17) 7_556 1_556
Ge2 Co Sm1 66.699(17) 7_546 1_556
Ge1 Co Sm1 104.73(2) . 1_556
Ge2 Co Sm1 146.81(3) . 1_556
Sm2 Co Sm1 71.468(15) 5_656 1_556
Sm2 Co Sm1 131.773(12) 3_445 1_556
Sm2 Co Sm1 131.773(12) 3_455 1_556
Ge2 Co Sm1 57.940(15) 7_556 7_556
Ge2 Co Sm1 123.64(2) 7_546 7_556
Ge1 Co Sm1 57.109(13) . 7_556
Ge2 Co Sm1 135.496(14) . 7_556
Sm2 Co Sm1 120.267(16) 5_656 7_556
Sm2 Co Sm1 120.73(2) 3_445 7_556
Sm2 Co Sm1 70.175(11) 3_455 7_556
Sm1 Co Sm1 65.560(13) 1_556 7_556
Ge2 Co Sm1 123.64(2) 7_556 7_546
Ge2 Co Sm1 57.940(14) 7_546 7_546
Ge1 Co Sm1 57.109(13) . 7_546
Ge2 Co Sm1 135.496(14) . 7_546
Sm2 Co Sm1 120.267(16) 5_656 7_546
Sm2 Co Sm1 70.175(11) 3_445 7_546
Sm2 Co Sm1 120.73(2) 3_455 7_546
Sm1 Co Sm1 65.560(13) 1_556 7_546
Sm1 Co Sm1 76.057(15) 7_556 7_546
Ge1 In Ge1 180.000(15) 5_556 1_554
Ge1 In Sm1 56.068(7) 5_556 3_445
Ge1 In Sm1 123.932(7) 1_554 3_445
Ge1 In Sm1 123.932(7) 5_556 7
Ge1 In Sm1 56.068(7) 1_554 7
Sm1 In Sm1 180.0 3_445 7
Ge1 In Sm1 123.933(7) 5_556 7_545
Ge1 In Sm1 56.067(7) 1_554 7_545
Sm1 In Sm1 100.368(8) 3_445 7_545
Sm1 In Sm1 79.632(8) 7 7_545
Ge1 In Sm1 56.067(7) 5_556 3_455
Ge1 In Sm1 123.933(7) 1_554 3_455
Sm1 In Sm1 79.632(8) 3_445 3_455
Sm1 In Sm1 100.368(8) 7 3_455
Sm1 In Sm1 180.0 7_545 3_455
Ge1 In Sm2 59.806(8) 5_556 3_455
Ge1 In Sm2 120.194(8) 1_554 3_455
Sm1 In Sm2 115.761(6) 3_445 3_455
Sm1 In Sm2 64.239(6) 7 3_455
Sm1 In Sm2 111.605(6) 7_545 3_455
Sm1 In Sm2 68.395(6) 3_455 3_455
Ge1 In Sm2 120.194(8) 5_556 7_545
Ge1 In Sm2 59.806(8) 1_554 7_545
Sm1 In Sm2 64.239(6) 3_445 7_545
Sm1 In Sm2 115.761(6) 7 7_545
Sm1 In Sm2 68.395(6) 7_545 7_545
Sm1 In Sm2 111.605(6) 3_455 7_545
Sm2 In Sm2 180.0 3_455 7_545
Ge1 In Sm2 59.806(8) 5_556 3_445
Ge1 In Sm2 120.194(8) 1_554 3_445
Sm1 In Sm2 68.395(6) 3_445 3_445
Sm1 In Sm2 111.605(6) 7 3_445
Sm1 In Sm2 64.239(6) 7_545 3_445
Sm1 In Sm2 115.761(6) 3_455 3_445
Sm2 In Sm2 77.642(7) 3_455 3_445
Sm2 In Sm2 102.358(8) 7_545 3_445
Ge1 In Sm2 120.194(8) 5_556 7
Ge1 In Sm2 59.806(8) 1_554 7
Sm1 In Sm2 111.605(6) 3_445 7
Sm1 In Sm2 68.395(6) 7 7
Sm1 In Sm2 115.761(6) 7_545 7
Sm1 In Sm2 64.239(6) 3_455 7
Sm2 In Sm2 102.358(8) 3_455 7
Sm2 In Sm2 77.642(7) 7_545 7
Sm2 In Sm2 180.0 3_445 7
Co Ge1 Ge1 118.82(3) . 5_556
Co Ge1 In 132.45(2) . 1_556
Ge1 Ge1 In 108.73(3) 5_556 1_556
Co Ge1 Sm1 78.817(15) . 7_556
Ge1 Ge1 Sm1 132.652(10) 5_556 7_556
In Ge1 Sm1 68.842(11) 1_556 7_556
Co Ge1 Sm1 78.817(15) . 7_546
Ge1 Ge1 Sm1 132.652(10) 5_556 7_546
In Ge1 Sm1 68.842(11) 1_556 7_546
Sm1 Ge1 Sm1 92.064(15) 7_556 7_546
Co Ge1 Sm2 68.614(14) . 3_445
Ge1 Ge1 Sm2 69.813(15) 5_556 3_445
In Ge1 Sm2 133.215(8) 1_556 3_445
Sm1 Ge1 Sm2 147.286(19) 7_556 3_445
Sm1 Ge1 Sm2 79.031(9) 7_546 3_445
Co Ge1 Sm2 68.614(14) . 3_455
Ge1 Ge1 Sm2 69.813(15) 5_556 3_455
In Ge1 Sm2 133.215(8) 1_556 3_455
Sm1 Ge1 Sm2 79.031(9) 7_556 3_455
Sm1 Ge1 Sm2 147.286(19) 7_546 3_455
Sm2 Ge1 Sm2 91.565(16) 3_445 3_455
Co Ge1 Sm2 136.683(8) . 7_546
Ge1 Ge1 Sm2 61.349(14) 5_556 7_546
In Ge1 Sm2 67.503(10) 1_556 7_546
Sm1 Ge1 Sm2 136.169(18) 7_556 7_546
Sm1 Ge1 Sm2 75.925(9) 7_546 7_546
Sm2 Ge1 Sm2 72.403(9) 3_445 7_546
Sm2 Ge1 Sm2 131.162(16) 3_455 7_546
Co Ge1 Sm2 136.683(9) . 7_556
Ge1 Ge1 Sm2 61.349(14) 5_556 7_556
In Ge1 Sm2 67.503(10) 1_556 7_556
Sm1 Ge1 Sm2 75.925(9) 7_556 7_556
Sm1 Ge1 Sm2 136.169(18) 7_546 7_556
Sm2 Ge1 Sm2 131.162(16) 3_445 7_556
Sm2 Ge1 Sm2 72.403(9) 3_455 7_556
Sm2 Ge1 Sm2 84.149(14) 7_546 7_556
Co Ge2 Co 123.39(3) 7_556 7_546
Co Ge2 Co 79.17(2) 7_556 .
Co Ge2 Co 79.17(2) 7_546 .
Co Ge2 Sm1 78.727(18) 7_556 .
Co Ge2 Sm1 78.727(18) 7_546 .
Co Ge2 Sm1 132.31(2) . .
Co Ge2 Sm2 142.95(2) 7_556 3_445
Co Ge2 Sm2 65.098(16) 7_546 3_445
Co Ge2 Sm2 66.719(14) . 3_445
Sm1 Ge2 Sm2 135.434(8) . 3_445
Co Ge2 Sm2 65.098(16) 7_556 3_455
Co Ge2 Sm2 142.95(2) 7_546 3_455
Co Ge2 Sm2 66.719(14) . 3_455
Sm1 Ge2 Sm2 135.434(8) . 3_455
Sm2 Ge2 Sm2 87.640(15) 3_445 3_455
Co Ge2 Sm1 145.87(2) 7_556 7_545
Co Ge2 Sm1 67.434(15) 7_546 7_545
Co Ge2 Sm1 133.993(10) . 7_545
Sm1 Ge2 Sm1 71.815(12) . 7_545
Sm2 Ge2 Sm1 70.806(9) 3_445 7_545
Sm2 Ge2 Sm1 128.608(18) 3_455 7_545
Co Ge2 Sm1 67.434(15) 7_556 7
Co Ge2 Sm1 145.87(2) 7_546 7
Co Ge2 Sm1 133.993(10) . 7
Sm1 Ge2 Sm1 71.815(12) . 7
Sm2 Ge2 Sm1 128.608(18) 3_445 7
Sm2 Ge2 Sm1 70.806(9) 3_455 7
Sm1 Ge2 Sm1 86.947(15) 7_545 7
Co Ge2 Sm2 61.919(16) 7_556 5_656
Co Ge2 Sm2 61.919(16) 7_546 5_656
Co Ge2 Sm2 59.751(19) . 5_656
Sm1 Ge2 Sm2 72.562(14) . 5_656
Sm2 Ge2 Sm2 108.804(13) 3_445 5_656
Sm2 Ge2 Sm2 108.804(13) 3_455 5_656
Sm1 Ge2 Sm2 122.108(12) 7_545 5_656
Sm1 Ge2 Sm2 122.108(12) 7 5_656
loop_
_geom_bond_atom_site_label_1
_geom_bond_atom_site_label_2
_geom_bond_distance
_geom_bond_site_symmetry_2
Sm1 Ge1 2.9680(4) 7_556
Sm1 Ge1 2.9680(4) 7_546
Sm1 Ge2 2.9965(6) .
Sm1 Ge2 3.1048(4) 7_545
Sm1 Ge2 3.1048(4) 7
Sm1 Co 3.1217(7) 1_554
Sm1 In 3.3360(2) 3
Sm1 In 3.3360(2) 3_545
Sm1 Co 3.4674(5) 7_556
Sm1 Co 3.4674(5) 7_546
Sm1 Sm1 3.5793(4) 7_545
Sm1 Sm1 3.5793(4) 7
Sm2 Ge1 2.9806(4) 3
Sm2 Ge1 2.9806(4) 3_545
Sm2 Co 3.0168(7) 5_656
Sm2 Ge2 3.0851(4) 3
Sm2 Ge2 3.0851(4) 3_545
Sm2 Co 3.0958(5) 3
Sm2 Co 3.0958(5) 3_545
Sm2 Ge1 3.1878(4) 7_546
Sm2 Ge1 3.1878(4) 7_556
Sm2 Ge2 3.3785(6) 5_656
Sm2 In 3.4075(3) 3_545
Sm2 In 3.4075(3) 3
Co Ge2 2.4262(4) 7_556
Co Ge2 2.4262(4) 7_546
Co Ge1 2.4586(8) .
Co Ge2 2.4656(8) .
Co Sm2 3.0168(7) 5_656
Co Sm2 3.0958(5) 3_445
Co Sm2 3.0958(5) 3_455
Co Sm1 3.1217(7) 1_556
Co Sm1 3.4675(5) 7_556
Co Sm1 3.4675(5) 7_546
In Ge1 2.9335(5) 5_556
In Ge1 2.9335(5) 1_554
In Sm1 3.3361(2) 3_445
In Sm1 3.3361(2) 7
In Sm1 3.3361(2) 7_545
In Sm1 3.3361(2) 3_455
In Sm2 3.4075(2) 3_455
In Sm2 3.4075(2) 7_545
In Sm2 3.4075(2) 3_445
In Sm2 3.4075(2) 7
Ge1 Ge1 2.5570(9) 5_556
Ge1 In 2.9335(5) 1_556
Ge1 Sm1 2.9680(4) 7_556
Ge1 Sm1 2.9680(4) 7_546
Ge1 Sm2 2.9805(4) 3_445
Ge1 Sm2 2.9805(4) 3_455
Ge1 Sm2 3.1878(4) 7_546
Ge1 Sm2 3.1878(4) 7_556
Ge2 Co 2.4262(4) 7_556
Ge2 Co 2.4262(4) 7_546
Ge2 Sm2 3.0852(4) 3_445
Ge2 Sm2 3.0852(4) 3_455
Ge2 Sm1 3.1048(4) 7_545
Ge2 Sm1 3.1048(4) 7
Ge2 Sm2 3.3785(6) 5_656
