#------------------------------------------------------------------------------
#$Date: 2015-06-05 05:23:31 +0300 (Fri, 05 Jun 2015) $
#$Revision: 138119 $
#$URL: svn://www.crystallography.net/cod/cif/4/34/29/4342961.cif $
#------------------------------------------------------------------------------
#
# This file is available in the Crystallography Open Database (COD),
# http://www.crystallography.net/
#
# All data on this site have been placed in the public domain by the
# contributors.
#
data_4342961
loop_
_publ_author_name
'Karhu, Aino J.'
'Pakkanen, Olli J.'
'Rautiainen, J. Mikko'
'Oilunkaniemi, Raija'
'Chivers, Tristram'
'Laitinen, Risto S.'
_publ_section_title
;
 Experimental and Computational (77)Se NMR Investigations of the Cyclic
 Eight-Membered Selenium Imides 1,3,5,7-Se4(NR)4 (R = Me, (t)Bu) and
 1,5-Se6(NMe)2.
;
_journal_issue                   10
_journal_name_full               'Inorganic chemistry'
_journal_page_first              4990
_journal_page_last               4997
_journal_paper_doi               10.1021/acs.inorgchem.5b00582
_journal_volume                  54
_journal_year                    2015
_chemical_formula_sum            'C2 H6 N2 Se10'
_chemical_formula_weight         847.69
_chemical_name_systematic
'dimethyl hexaselenium diimide-octaselenium(2/1)'
_space_group_crystal_system      monoclinic
_space_group_IT_number           14
_space_group_name_Hall           '-P 2yn'
_space_group_name_H-M_alt        'P 1 21/n 1'
_symmetry_space_group_name_Hall  '-P 2yn'
_symmetry_space_group_name_H-M   'P 1 21/n 1'
_atom_sites_solution_hydrogens   geom
_atom_sites_solution_primary     direct
_atom_sites_solution_secondary   difmap
_audit_creation_method           SHELXL-2013
_audit_update_record
;
2015-03-12 # Formatted by publCIF

;
_cell_angle_alpha                90
_cell_angle_beta                 90.07(3)
_cell_angle_gamma                90
_cell_formula_units_Z            4
_cell_length_a                   12.000(2)
_cell_length_b                   5.6347(11)
_cell_length_c                   23.631(5)
_cell_measurement_reflns_used    1484
_cell_measurement_temperature    150(2)
_cell_measurement_theta_max      24.704
_cell_measurement_theta_min      3.095
_cell_volume                     1597.8(5)
_computing_cell_refinement       'DENZO-SMN (Otwinowski & Minor, 1997)'
_computing_data_collection       'COLLECT (Bruker, 2008)'
_computing_data_reduction        'DENZO-SMN (Otwinowski & Minor, 1997)'
_computing_molecular_graphics    'DIAMOND (Branderburg, 2006)'
_computing_publication_material  'WinGX (Farrugia, 1999)'
_computing_structure_refinement  'SHELXL-2013 (Sheldrick, 2013)'
_computing_structure_solution    'SHELXS-2013 (Sheldrick, 2013)'
_diffrn_ambient_temperature      150(2)
_diffrn_measured_fraction_theta_full 0.919
_diffrn_measured_fraction_theta_max 0.975
_diffrn_measurement_device_type  'Bruker Kappa CCD'
_diffrn_measurement_method       '\f scans, and \w scans with \k offsets'
_diffrn_radiation_type           MoK\a
_diffrn_radiation_wavelength     0.71073
_diffrn_reflns_av_R_equivalents  0.1529
_diffrn_reflns_av_unetI/netI     0.1084
_diffrn_reflns_laue_measured_fraction_full 0.919
_diffrn_reflns_laue_measured_fraction_max 0.975
_diffrn_reflns_limit_h_max       13
_diffrn_reflns_limit_h_min       -14
_diffrn_reflns_limit_k_max       6
_diffrn_reflns_limit_k_min       -6
_diffrn_reflns_limit_l_max       27
_diffrn_reflns_limit_l_min       -27
_diffrn_reflns_number            9346
_diffrn_reflns_point_group_measured_fraction_full 0.919
_diffrn_reflns_point_group_measured_fraction_max 0.975
_diffrn_reflns_theta_full        25.242
_diffrn_reflns_theta_max         24.704
_diffrn_reflns_theta_min         3.095
_diffrn_source                   'fine-focus sealed tube'
_exptl_absorpt_coefficient_mu    22.822
_exptl_absorpt_correction_T_max  0.8923
_exptl_absorpt_correction_T_min  0.5360
_exptl_absorpt_correction_type   multi-scan
_exptl_absorpt_process_details   'XPREP in SHELXTL (Sheldrick (2008)'
_exptl_crystal_colour            orange-red
_exptl_crystal_density_diffrn    3.524
_exptl_crystal_description       block
_exptl_crystal_F_000             1488
_exptl_crystal_size_max          0.120
_exptl_crystal_size_mid          0.100
_exptl_crystal_size_min          0.080
_refine_diff_density_max         4.273
_refine_diff_density_min         -1.397
_refine_diff_density_rms         0.289
_refine_ls_extinction_method     none
_refine_ls_goodness_of_fit_ref   1.083
_refine_ls_hydrogen_treatment    constr
_refine_ls_matrix_type           full
_refine_ls_number_parameters     147
_refine_ls_number_reflns         2661
_refine_ls_number_restraints     4
_refine_ls_restrained_S_all      1.085
_refine_ls_R_factor_all          0.1969
_refine_ls_R_factor_gt           0.1207
_refine_ls_shift/su_max          0.000
_refine_ls_shift/su_mean         0.000
_refine_ls_structure_factor_coef Fsqd
_refine_ls_weighting_details
'w=1/[\s^2^(Fo^2^)+(0.1221P)^2^+61.0666P] where P=(Fo^2^+2Fc^2^)/3'
_refine_ls_weighting_scheme      calc
_refine_ls_wR_factor_gt          0.2737
_refine_ls_wR_factor_ref         0.3149
_reflns_Friedel_coverage         0.000
_reflns_number_gt                1484
_reflns_number_total             2661
_reflns_threshold_expression     'I > 2\s(I)'
_cod_data_source_file            ic5b00582_si_003.cif
_cod_data_source_block           cmpd1bse8
_cod_depositor_comments
'Adding full bibliography for 4342961--4342962.cif.'
_cod_original_cell_volume        1597.9(5)
_cod_database_code               4342961
_publcif_datablock.id            {b8fcc229-79e3-42cd-9423-15048af5dff3}
_shelx_space_group_comment
;
The symmetry employed for this shelxl refinement is uniquely defined
by the following loop, which should always be used as a source of
symmetry information in preference to the above space-group names.
They are only intended as comments.
;
_shelx_estimated_absorpt_t_min   0.170
_shelx_estimated_absorpt_t_max   0.263
_shelxl_version_number           2013-4
_shelx_res_file
;
TITL SIR92 run in space group P 21/n
CELL  0.71073  12.0001   5.6347  23.6312   90.000   90.067   90.000
ZERR  4   0.0024   0.0011   0.0047    0.000    0.030    0.000
LATT   1
SYMM  1/2 - X, 1/2 + Y, 1/2 - Z
SFAC  C    H    N    SE
UNIT  8 24 8 40
MERG   2
OMIT     -2 50
OMIT -1  0  3
OMIT  0  1  2
FMAP   2
PLAN   20
TEMP -123.15
SIZE  0.12 0.10 0.08
EQIV $1 -x, -y, -z+1
DFIX 2.35 0.01 SE1A SE4B_$1 SE4A SE1B_$1
DFIX 1.45 0.01 C1 N1 C2 N2
EADP  N1  C1
EADP  N1  C2
EADP  N1  N2
ACTA
BOND  $H
CONF
L.S. 30
TEMP    25.00
WGHT    0.122100   61.066601
FVAR       0.10811
SE1   4    0.364896    0.805460    0.238615    11.00000    0.06248    0.09677 =
         0.07645   -0.00967   -0.01104   -0.01123
SE2   4    0.635536    0.806370    0.238930    11.00000    0.06100    0.09955 =
         0.07003   -0.00904    0.01135    0.01003
SE3   4    0.321460    0.874842    0.333879    11.00000    0.07567    0.06839 =
         0.08410   -0.00586    0.02222    0.00723
SE4   4    0.678449    0.875194    0.333749    11.00000    0.07810    0.06450 =
         0.08197   -0.00587   -0.01990   -0.00522
SE5   4    0.367666    0.522019    0.378923    11.00000    0.10995    0.05778 =
         0.11104    0.00555    0.03797   -0.01477
SE6   4    0.632708    0.522579    0.379489    11.00000    0.11306    0.05833 =
         0.10931    0.00859   -0.03296    0.01675
N1    3    0.498673    0.925229    0.222031    11.00000    0.06435    0.13315 =
         0.02992    0.01548    0.00446    0.01571
N2    3    0.500314    0.573064    0.418291    11.00000    0.06435    0.13315 =
         0.02992    0.01548    0.00446    0.01571
C1    1    0.501087    1.172737    0.233676    11.00000    0.06435    0.13315 =
         0.02992    0.01548    0.00446    0.01571
AFIX 137
H1A   2    0.569776    1.238853    0.220110    11.00000   -1.50000
H1B   2    0.495523    1.197713    0.273759    11.00000   -1.50000
H1C   2    0.439594    1.248760    0.215022    11.00000   -1.50000
AFIX   0
C2    1    0.500175    0.772579    0.456549    11.00000    0.06435    0.13315 =
         0.02992    0.01548    0.00446    0.01571
AFIX 137
H2A   2    0.431695    0.774426    0.477505    11.00000   -1.50000
H2B   2    0.506937    0.917103    0.435317    11.00000   -1.50000
H2C   2    0.561802    0.758973    0.482285    11.00000   -1.50000
AFIX   0
PART  1
SE1A  4    0.089478    0.073074    0.397027    10.50000    0.07600    0.13520 =
         0.04530   -0.00424    0.00071    0.02572
SE2A  4    0.208551    0.167647    0.471694    10.50000    0.05630    0.07661 =
         0.05213    0.01407   -0.00465    0.00482
SE3A  4    0.208160   -0.164776    0.528472    10.50000    0.05831    0.07158 =
         0.05396    0.00859    0.00738   -0.00525
SE4A  4    0.088791   -0.071410    0.603050    10.50000    0.06980    0.13484 =
         0.04115   -0.00081    0.00404   -0.02381
PART  2
SE1B  4    0.069807    0.299964    0.421345    10.50000    0.13435    0.47096 =
         0.17905    0.13235   -0.00573   -0.06683
SE2B  4    0.158991   -0.025336    0.450038    10.50000    0.06326    0.18829 =
         0.11840    0.01728    0.01735    0.02783
SE3B  4    0.159024    0.026362    0.548862    10.50000    0.06360    0.17842 =
         0.12830    0.02370   -0.02230   -0.02744
SE4B  4    0.068139   -0.302741    0.577112    10.50000    0.12136    0.41693 =
         0.17571    0.10282    0.01051    0.03559
HKLF   4

REM  SIR92 run in space group P 21/n
REM R1 =  0.1207 for    1484 Fo > 4sig(Fo)  and  0.1969 for all    2661 data
REM    147 parameters refined using      4 restraints

END

WGHT      0.1067     68.0984

REM Highest difference peak  4.273,  deepest hole -1.397,  1-sigma level  0.289
Q1    1   0.3113  0.9094  0.2953  11.00000  0.05    1.08
Q2    1   0.1769  0.2097  0.5106  11.00000  0.05    1.02
Q3    1   0.3786  0.6441  0.2627  11.00000  0.05    0.98
Q4    1   0.0087 -0.1255  0.5800  11.00000  0.05    0.96
Q5    1   0.0760 -0.3658  0.5728  11.00000  0.05    0.95
Q6    1   0.6746  0.8557  0.2922  11.00000  0.05    0.94
Q7    1   0.1917 -0.2223  0.4905  11.00000  0.05    0.90
Q8    1   0.0777  0.3713  0.4266  11.00000  0.05    0.90
Q9    1   0.4797  0.9173  0.4947  11.00000  0.05    0.85
Q10   1   0.6406  0.6594  0.2685  11.00000  0.05    0.81
Q11   1   0.1833  0.0332  0.4906  11.00000  0.05    0.81
Q12   1   0.6135  0.6233  0.4252  11.00000  0.05    0.80
Q13   1   0.4569  0.5811  0.4426  11.00000  0.05    0.76
Q14   1   0.5646  0.6488  0.4358  11.00000  0.05    0.75
Q15   1   0.0535 -0.3351  0.5048  11.00000  0.05    0.75
Q16   1   0.5431  0.6907  0.4659  11.00000  0.05    0.74
Q17   1   0.1197  0.1238  0.5038  11.00000  0.05    0.73
Q18   1   0.0400  0.4243  0.4913  11.00000  0.05    0.69
Q19   1   0.1605 -0.0849  0.5084  11.00000  0.05    0.67
Q20   1   0.3558  0.9579  0.2509  11.00000  0.05    0.66
;
_shelx_res_checksum              57858
_shelx_hkl_file
;
   0   0   3   -1.80    0.95
   0   0  -3    1.93    0.97
   0   0   4   42.50    2.70
   0   0  -4   10.74    1.87
   0   0   5    2.54    2.45
   0   0  -5   -1.09    1.66
   0   0   6  507.05   22.49
   0   0  -6  485.91   20.79
   0   0   7   -9.08    2.52
   0   0  -7    1.06    2.38
   0   0   8  453.48   21.24
   0   0  -8  453.04   21.78
   0   0   9    2.60    2.91
   0   0  -9   -4.51    2.30
   0   0  10  280.35   12.18
   0   0 -10  302.97   15.62
   0   0  11    0.73    2.45
   0   0 -11    0.69    2.49
   0   0  12   72.22    5.63
   0   0 -12   68.82    5.04
   0   0  13   -0.62    2.79
   0   0 -13   -1.03    2.45
   0   0  14  598.01   24.06
   0   0 -14  613.48   27.46
   0   0  15    1.85    2.89
   0   0 -15    3.56    3.10
   0   0  16   17.45    3.76
   0   0 -16   20.23    3.42
   0   0  17   10.90    9.29
   0   0 -17   -1.18    2.87
   0   0  18   53.99    6.81
   0   0 -18   51.74    4.64
   0   0  19    1.33    4.32
   0   0 -19    7.24    3.62
   0   0  20   23.16    5.70
   0   0 -20   19.19    4.03
   0   0  21   10.28    5.20
   0   0 -21    6.27    4.43
   0   0  22   28.66    6.08
   0   0 -22   41.51    5.33
   0   0  23    0.81    3.76
   0   0 -23    1.94    4.34
   0   0  24    5.77    4.40
   0   0 -24   -5.17    3.85
   0   0  25    9.41    4.53
   0   0 -25   -6.06    3.65
   0   0  26    7.00    4.41
   0   0 -26   -0.12    4.49
   0   0  27   -0.62    4.03
   0   0 -27    3.74    5.18
   1   0 -27   11.34    4.48
  -1   0  27   12.40    4.91
   1   0 -26    3.49    4.40
  -1   0  26    2.45    4.15
   1   0 -25   16.22    6.63
  -1   0  25    5.51    4.01
   1   0 -24    3.55    3.70
  -1   0  24   -7.70    3.19
   1   0 -23   36.13    6.87
  -1   0  23   20.63    5.42
   1   0 -22   -2.51    3.80
  -1   0  22    0.70    4.09
   1   0 -21  102.45    9.17
  -1   0  21   71.84    7.91
   1   0 -20    2.02    4.87
  -1   0  20    0.95    4.06
   1   0 -19   11.07    2.97
  -1   0  19   14.18    3.81
   1   0 -18    3.19    3.71
  -1   0  18   -1.29    3.17
   1   0 -17    4.95    3.14
  -1   0  17    4.22    3.48
   1   0 -16   -4.73    3.29
  -1   0  16   -2.48    3.61
   1   0 -15  129.50    6.74
  -1   0  15  116.77    8.68
   1   0 -14   -5.77    2.80
  -1   0  14   -0.75    3.04
   1   0 -13  102.49    5.69
  -1   0  13   84.91    5.20
   1   0 -12   -3.20    2.49
  -1   0  12   -1.27    3.32
   1   0 -11   22.02    2.57
  -1   0  11   21.39    3.11
   1   0 -10    1.27    4.37
  -1   0  10   -1.11    2.62
   1   0  -9  193.34    9.17
  -1   0   9  177.81    9.26
   1   0  -8   -5.19    2.56
  -1   0   8   -2.60    2.29
   1   0  -7  967.90   37.14
  -1   0   7  891.39   35.27
   1   0  -6    1.75    1.70
  -1   0   6    1.19    1.98
   1   0  -5   32.45    2.42
  -1   0   5   28.88    2.35
  -1   0   4    1.06    1.44
  -1   0   3   72.99    4.22
  -1   0   2    0.37    0.44
  -1   0  -2    1.58    1.18
   1   0   3  354.24   15.43
  -1   0  -3    0.53    1.19
   1   0   4   -0.23    1.80
  -1   0  -4   -1.00    1.81
   1   0   5   32.70    3.00
  -1   0  -5   42.99    3.30
   1   0   6    8.34    2.58
  -1   0  -6   10.60    2.94
   1   0   7  844.14   33.65
  -1   0  -7  854.37   35.33
   1   0   8   -2.39    2.53
   1   0   9  155.43    8.28
  -1   0  -9  163.11    8.30
   1   0  10    3.89    3.02
  -1   0 -10    6.15    3.23
   1   0  11   22.30    3.73
  -1   0 -11   34.03    6.84
   1   0  12   -3.30    3.77
  -1   0 -12   -5.71    2.71
   1   0  13   66.65    5.76
  -1   0 -13   80.14    6.50
   1   0  14   -1.20    3.03
  -1   0 -14   -4.06    3.21
   1   0  15  104.12    6.54
  -1   0 -15  117.68    6.15
   1   0  16   -0.24    3.86
  -1   0 -16    2.20    4.21
   1   0  17   -1.81    3.44
  -1   0 -17   -3.39    3.08
   1   0  18   12.99    5.15
  -1   0 -18    1.15    3.48
   1   0  19   11.36    3.75
  -1   0 -19   11.74    3.58
   1   0  20  -12.28    4.12
  -1   0 -20   -4.31    3.31
   1   0  21   76.53    7.75
  -1   0 -21   68.15    6.11
   1   0  22   -8.77    4.12
  -1   0 -22   -5.10    3.54
   1   0  23   31.56    5.90
  -1   0 -23   25.00    4.51
   1   0  24    0.05    4.19
  -1   0 -24    8.65    4.59
   1   0  25    8.59    4.22
  -1   0 -25    4.50    4.21
   1   0  26   -7.56    4.15
  -1   0 -26    6.24    4.29
   1   0  27    1.15    3.75
  -1   0 -27   -7.83    4.55
   2   0 -27    1.91    5.32
  -2   0  27   -2.62    4.37
   2   0 -26   18.43    5.24
  -2   0  26   -1.51    4.04
   2   0 -25   -4.06    3.55
  -2   0  25   -7.07    4.85
   2   0 -24    4.61    4.51
  -2   0  24   23.50    5.90
   2   0 -23   11.54    5.74
  -2   0  23   -7.18    3.67
   2   0 -22   16.89    5.17
  -2   0  22   10.93    4.12
   2   0 -21    3.24    3.36
  -2   0  21    0.39    3.90
   2   0 -20   16.47    5.52
  -2   0  20   14.79    3.81
   2   0 -19    2.24    3.01
  -2   0  19    0.33    3.26
   2   0 -18    3.19    3.31
  -2   0  18    1.97    3.84
   2   0 -17   12.66    4.50
  -2   0  17    0.56    3.73
   2   0 -16   10.37    3.22
  -2   0  16    4.26    2.98
   2   0 -15   -2.79    2.73
  -2   0  15   -7.50    3.20
   2   0 -14   86.37    5.13
  -2   0  14   72.11    5.68
   2   0 -13    3.12    2.15
  -2   0  13    0.02    4.32
   2   0 -12   -1.42    1.90
  -2   0  12   -0.80    2.82
   2   0 -11    0.99    2.13
  -2   0  11   -0.07    2.18
   2   0 -10  249.40   10.78
  -2   0  10  242.17   13.97
   2   0  -9    4.58    2.99
  -2   0   9    1.39    2.15
   2   0  -8    8.43    1.57
  -2   0   8    8.03    2.28
   2   0  -7    1.08    1.45
  -2   0   7    2.83    2.22
  -2   0   6  977.40   36.20
  -2   0   5    2.90    1.27
  -2   0   4   35.84    1.91
  -2   0   3    1.70    0.73
  -2   0   2    3.35    0.49
  -2   0   1    3.78    0.72
  -2   0   1    3.50    0.71
   2   0   0  222.06    9.08
  -2   0   0    2.91    0.88
   2   0   1    4.63    1.37
  -2   0  -1    1.01    1.11
   2   0   2    3.01    1.25
  -2   0  -2    5.39    1.37
   2   0   3    1.23    1.49
  -2   0  -3    5.96    1.48
   2   0   4   32.13    2.75
  -2   0  -4   27.14    3.04
   2   0   5    2.83    2.56
  -2   0  -5    4.26    2.27
   2   0   6 1016.42   38.05
  -2   0  -6  951.32   38.74
   2   0   7   -0.19    2.42
  -2   0  -7   -1.50    2.72
   2   0   8    1.59    2.68
  -2   0  -8    0.64    2.75
   2   0   9    3.24    3.16
  -2   0  -9   -0.62    3.00
   2   0  10  221.84   11.03
  -2   0 -10  242.57   11.40
   2   0  11   -2.97    2.98
  -2   0 -11    4.60    3.67
   2   0  12    2.80    2.65
  -2   0 -12   23.41    8.10
   2   0  13   -3.46    3.34
  -2   0 -13   -1.46    2.91
   2   0  14   71.54    5.04
  -2   0 -14   81.21    7.27
   2   0  15    0.07    3.62
  -2   0 -15   -7.15    3.37
   2   0  16   11.34    3.66
  -2   0 -16    0.85    3.71
   2   0  17    8.97    7.03
  -2   0 -17   -5.41    3.29
   2   0  18    0.95    4.32
  -2   0 -18   -4.76    3.57
   2   0  19   -3.34    3.73
  -2   0 -19    6.47    4.46
   2   0  20   20.31    4.73
   2   0  21   12.02    5.88
  -2   0 -21   -1.25    5.69
   2   0  22   15.02    5.91
  -2   0 -22   25.67    4.66
   2   0  23   29.08   14.85
  -2   0 -23   -0.73    4.01
   2   0  24   25.77    5.83
  -2   0 -24    9.44    4.68
   2   0  25   -4.55    4.52
  -2   0 -25   -1.01    4.05
   2   0  26   11.81    5.48
  -2   0 -26    4.29    4.86
   2   0  27    3.01    4.20
  -2   0 -27    6.69    4.75
   3   0 -27    3.36    4.96
   3   0 -26   -3.16    3.79
  -3   0  26   -6.04    4.91
   3   0 -25    2.50    5.36
  -3   0  25    7.93    6.23
   3   0 -24    5.92    2.59
  -3   0  24   -4.24    2.86
   3   0 -23   29.58    4.92
  -3   0  23   24.96    5.36
   3   0 -22    4.98    3.16
  -3   0  22    5.77    4.11
   3   0 -21  109.97    7.70
  -3   0  21   92.72    7.75
   3   0 -20   -0.67    2.92
  -3   0  20   -5.24    3.94
   3   0 -19   64.34    4.62
  -3   0  19   56.73    4.75
   3   0 -18    7.50    2.99
  -3   0  18    5.86    3.91
   3   0 -17   14.44    3.67
  -3   0  17   15.20    2.82
   3   0 -16   33.55    8.72
  -3   0  16    4.03    3.01
   3   0 -15   21.59    2.37
  -3   0  15   22.26    3.09
   3   0 -14   -3.01    1.80
  -3   0  14    0.00    2.39
   3   0 -13    3.91    2.28
  -3   0  13    0.89    2.04
   3   0 -12    2.76    2.57
  -3   0  12   -2.27    2.20
   3   0 -11  159.19    7.39
  -3   0  11  144.56    6.54
   3   0 -10    1.60    1.15
  -3   0  10    0.74    1.85
   3   0  -9   22.58    2.08
  -3   0   9   23.26    2.68
   3   0  -8    4.05    1.51
  -3   0   8   -1.59    1.76
  -3   0   7  604.66   23.76
  -3   0   6   -0.90    1.14
  -3   0   5   96.50    4.35
  -3   0   4    0.52    0.85
  -3   0   2    1.60    0.83
  -3   0   2    2.64    1.00
  -3   0   1    0.55    0.80
  -3   0   1    2.94    1.29
   3   0   0   -2.92    0.89
  -3   0   0    0.66    1.26
   3   0   1    3.24    1.26
  -3   0  -1    2.76    1.61
   3   0   2    3.96    1.89
  -3   0  -2    0.42    1.72
   3   0   3 2489.93   86.71
  -3   0  -3 2412.01   92.15
   3   0   4    2.35    2.59
  -3   0  -4    3.76    2.08
   3   0   5   92.03    5.67
  -3   0  -5   82.58    6.05
   3   0   6   -4.08    2.52
  -3   0  -6    0.03    3.01
   3   0   7  559.51   25.10
  -3   0  -7  569.11   26.06
   3   0   8    0.56    2.68
  -3   0  -8    2.23    3.51
   3   0   9   24.31    3.76
  -3   0  -9   19.86    3.09
   3   0  10   -0.16    2.98
   3   0  11  162.35    8.44
  -3   0 -11  162.44    9.14
   3   0  12    8.60    4.51
  -3   0 -12   -2.93    2.86
   3   0  13   -4.45    3.30
  -3   0 -13   -5.48    3.71
   3   0  14    5.10    3.38
  -3   0 -14    3.52    3.52
   3   0  15   13.75    3.75
  -3   0 -15   17.86    5.25
   3   0  16    1.24    3.64
  -3   0 -16   -2.17    3.22
   3   0  17   14.59    4.52
  -3   0 -17    9.56    3.81
   3   0  18    6.80    4.41
  -3   0 -18    1.59    3.43
   3   0  19   50.61    6.43
  -3   0 -19   35.40    5.93
   3   0  20   -5.76    3.97
  -3   0 -20   -1.11    4.37
   3   0  21   96.50    8.57
  -3   0 -21  106.91    9.23
   3   0  22    7.58    7.60
  -3   0 -22   -0.05    3.82
   3   0  23   29.51    6.01
  -3   0 -23   30.62    5.37
   3   0  24   -5.52    4.50
  -3   0 -24   -1.35    4.95
   3   0  25    8.23    5.32
  -3   0 -25   10.39    9.61
   3   0  26   13.56    3.80
  -3   0 -26    6.61    5.83
   3   0  27    9.51    4.53
  -3   0 -27   11.25    5.13
   4   0 -25   -1.97    2.79
  -4   0  25   -7.47    4.98
   4   0 -24   29.11   12.78
  -4   0  24    0.63    3.94
   4   0 -23   -6.91    2.90
  -4   0  23    3.52    3.82
   4   0 -22    3.68    3.68
  -4   0  22    4.35    3.96
   4   0 -21   -4.12    3.83
  -4   0  21    8.59    4.19
   4   0 -20   47.23    9.98
  -4   0  20   18.69    5.08
   4   0 -19    2.83    2.48
  -4   0  19    4.04    3.29
   4   0 -18   34.88    4.05
  -4   0  18   35.70    5.18
   4   0 -17   -3.67    2.59
  -4   0  17   -1.81    3.00
   4   0 -16   79.14    5.82
  -4   0  16   74.37    5.08
   4   0 -15    5.93    2.48
  -4   0  15    0.86    3.37
   4   0 -14   90.99    5.40
  -4   0  14   87.07    5.09
   4   0 -13   -1.85    1.92
  -4   0  13    1.36    2.72
   4   0 -12    2.79    1.80
  -4   0  12    2.36    2.57
   4   0 -11    0.71    1.52
  -4   0  11   -1.75    2.05
   4   0 -10   59.81    3.53
  -4   0  10   45.64    3.40
  -4   0   9   -0.47    1.49
  -4   0   8  522.48   19.93
  -4   0   7   -2.24    1.43
  -4   0   6  441.22   15.89
  -4   0   5    1.64    0.90
  -4   0   4  180.78    6.77
  -4   0   3    1.55    0.79
  -4   0   3    0.10    1.03
   4   0  -1   -0.75    1.04
  -4   0   1    2.97    0.98
  -4   0   1    1.33    1.58
   4   0   0 2363.85   78.35
  -4   0   0 2354.21   78.90
   4   0   1    4.09    1.85
  -4   0  -1    2.33    1.55
   4   0   2  244.96   11.20
  -4   0  -2  236.55   11.50
   4   0   3    3.26    2.10
  -4   0  -3   -4.92    2.65
   4   0   4  178.94    9.50
  -4   0  -4  153.66    8.18
   4   0   5   -1.35    2.27
  -4   0  -5   -2.79    2.93
   4   0   6  424.90   17.88
  -4   0  -6  354.65   15.82
   4   0   7   -4.84    2.35
  -4   0  -7   -5.55    2.86
   4   0   8  471.13   19.62
  -4   0  -8  479.23   21.37
  -4   0  -9   -2.90    2.99
   4   0  10   52.64    4.64
  -4   0 -10   52.77    4.63
   4   0  11    8.43    4.33
  -4   0 -11    1.99    3.42
   4   0  12    1.64    3.10
  -4   0 -12   25.30    6.84
   4   0  13   -1.04    3.12
  -4   0 -13   -0.48    3.55
   4   0  14   81.27    6.20
  -4   0 -14   90.93    7.85
   4   0  15   -2.34    3.31
  -4   0 -15   -4.03    3.97
   4   0  16   63.83    7.05
  -4   0 -16   68.70    6.80
   4   0  17   -8.64    3.75
  -4   0 -17   -0.50    4.91
   4   0  18   24.15    4.06
  -4   0 -18   30.96    4.74
   4   0  19   -2.28    3.58
  -4   0 -19   -3.44    4.41
   4   0  20   17.52    6.83
  -4   0 -20   19.33    4.58
   4   0  21    8.48    7.06
  -4   0 -21    8.57    5.46
   4   0  22   11.88    4.94
  -4   0 -22    0.37    4.72
   4   0  23   12.17    7.89
  -4   0 -23   11.34    7.73
   4   0  24   -5.53    5.06
  -4   0 -24    9.37    6.46
   4   0  25    8.51    5.29
  -4   0 -25   -0.75    5.50
   4   0  26    3.26    4.81
  -4   0 -26    6.21    5.06
   5   0 -24    2.51    3.57
  -5   0  24   -3.82    3.34
   5   0 -23    4.42    3.76
  -5   0  23   10.88    4.51
   5   0 -22    7.26    6.91
  -5   0  22   -2.73    3.43
  -5   0  21   14.42    4.05
   5   0 -20   -4.88    2.45
  -5   0  20   -2.96    3.39
   5   0 -19   26.06    3.17
  -5   0  19   32.05    4.16
   5   0 -18    1.59    2.39
  -5   0  18    0.17    3.02
   5   0 -17   34.27    3.80
  -5   0  17   38.96    3.82
   5   0 -16    7.82    3.49
  -5   0  16   -0.07    2.85
   5   0 -15   45.02    3.59
  -5   0  15   42.60    4.18
   5   0 -14    2.95    2.19
  -5   0  14   -0.85    2.45
   5   0 -13  159.07    7.78
  -5   0  13  161.85    9.52
   5   0 -12    1.92    1.41
  -5   0  12    2.10    2.88
  -5   0  11  148.52    7.49
  -5   0   9   56.41    2.92
  -5   0   8    3.20    1.56
  -5   0   7   40.99    2.19
  -5   0   6    1.28    0.79
  -5   0   5    8.70    1.02
  -5   0   5    3.31    0.95
  -5   0   4    0.49    0.90
  -5   0   4    1.43    1.28
  -5   0   3  516.34   17.04
  -5   0   3  538.35   20.69
  -5   0   2   -2.26    1.14
  -5   0   2   -0.22    1.70
  -5   0   1    1.23    1.23
  -5   0   1    7.85    3.25
   5   0   0    0.61    1.36
  -5   0   0    0.12    1.82
   5   0   1    3.99    2.13
  -5   0  -1   -2.19    1.55
   5   0   2    2.76    2.59
  -5   0  -2   -0.22    1.84
   5   0   3  456.18   17.49
  -5   0  -3  505.22   21.06
   5   0   4    2.66    2.45
  -5   0  -4    2.29    3.63
   5   0   5    3.76    2.12
  -5   0  -5    6.24    3.33
   5   0   6   -2.64    2.35
  -5   0  -6   -7.05    3.54
   5   0   7   32.30    3.22
  -5   0  -7   30.35    5.58
   5   0   8   -2.06    3.41
  -5   0  -8    5.71    3.43
   5   0   9   60.29    4.36
  -5   0  -9   50.92    5.95
   5   0  10    0.75    3.05
  -5   0 -10    2.86    4.56
   5   0  11  125.70    6.49
  -5   0 -11  173.20   22.08
   5   0  12   -0.51    4.74
  -5   0 -12   -3.13    3.68
   5   0  13  132.81    9.72
  -5   0 -13  132.75   10.46
   5   0  14   -0.58    3.44
  -5   0 -14    3.38    3.64
   5   0  15   43.60    5.16
  -5   0 -15   58.80   14.27
   5   0  16   -1.94    3.71
  -5   0 -16    3.72    4.47
   5   0  17   28.79    5.82
  -5   0 -17   26.68    4.68
   5   0  18   -5.03    4.13
  -5   0 -18    5.11    5.84
   5   0  19   24.30    5.61
  -5   0 -19   19.80    5.77
   5   0  20    7.71    5.11
  -5   0 -20    8.40    4.36
   5   0  21   15.25    4.95
  -5   0 -21    6.06    5.28
   5   0  22   -2.86    5.38
  -5   0 -22    7.07    6.36
   5   0  23  -12.09    4.74
  -5   0 -23    4.00    7.77
   5   0  24   -0.50    5.20
  -5   0 -24    2.22    5.58
   5   0  25    1.89    5.62
  -5   0 -25    5.89    5.36
   6   0 -23   31.42    8.14
  -6   0  23    4.96    3.77
   6   0 -22   -1.38    2.60
  -6   0  22   -3.39    3.65
   6   0 -21    7.02    4.16
  -6   0  21   -0.56    3.52
   6   0 -20    5.92    2.70
  -6   0  20    6.48    4.19
   6   0 -19    2.85    2.24
  -6   0  19    5.41    2.83
   6   0 -18    0.87    1.73
  -6   0  18    3.70    2.93
   6   0 -17    1.46    1.75
  -6   0  17   -1.86    2.51
   6   0 -16    7.28    2.00
  -6   0  16    9.67    3.36
   6   0 -15    5.27    1.93
  -6   0  15    0.18    2.75
  -6   0  14    3.22    3.20
  -6   0  12   19.53    2.40
  -6   0  11    1.36    1.57
  -6   0  10  486.49   18.78
  -6   0   9   -1.06    1.28
  -6   0   8    2.53    1.41
  -6   0   7    1.02    1.31
  -6   0   6  152.50    5.89
  -6   0   6  148.19    6.26
  -6   0   5    0.16    1.04
  -6   0   5   -0.25    1.25
  -6   0   4   67.01    2.76
  -6   0   4   71.70    3.38
  -6   0   3    2.58    1.09
  -6   0   3   -3.30    1.54
  -6   0   2  164.24    6.90
  -6   0   2  173.82    8.61
  -6   0   1    0.75    1.37
  -6   0   1   -1.78    2.14
   6   0   0  640.20   23.86
  -6   0   0  673.49   28.02
   6   0   1    2.10    1.51
  -6   0  -1    1.23    2.43
   6   0   2  160.66    8.40
  -6   0  -2  152.80    7.15
   6   0   3   -2.46    1.91
  -6   0  -3    1.30    2.97
   6   0   4   61.21    4.79
  -6   0  -4   57.61    5.15
   6   0   5    1.98    2.20
  -6   0  -5    1.61    2.45
   6   0   6  146.00    8.73
  -6   0  -6  151.42    7.50
   6   0   7    0.51    2.85
  -6   0  -7    0.78    3.35
   6   0   8    0.58    2.94
  -6   0  -8    0.86    3.67
   6   0   9    2.55    3.42
  -6   0  -9   -8.64    3.62
   6   0  10  420.10   20.13
  -6   0 -10  366.51   16.55
   6   0  11    1.03    3.74
  -6   0 -11    3.54    3.75
   6   0  12   12.51    3.67
  -6   0 -12   22.88    4.65
   6   0  13   -0.99    3.51
  -6   0 -13   11.52    7.79
   6   0  14    2.74    3.82
  -6   0 -14    3.35    4.02
   6   0  15   -1.90    4.40
  -6   0 -15    1.60    4.03
   6   0  16    7.31    5.05
  -6   0 -16    0.37    4.03
   6   0  17    0.46    4.18
  -6   0 -17   -5.89    4.15
   6   0  18    4.54    4.56
  -6   0 -18    5.94    4.84
   6   0  19   -1.49    4.68
  -6   0 -19   15.13   13.42
   6   0  20    0.80    4.20
  -6   0 -20    8.02    5.18
   6   0  21    0.10    7.58
  -6   0 -21    6.93    8.62
   6   0  22    5.24    6.12
  -6   0 -22   14.16    5.35
   6   0  23    8.45    7.55
  -6   0 -23   -6.28    7.54
   6   0  24   43.55    9.93
  -6   0 -24   15.86    6.48
   6   0  25   15.70    6.20
  -6   0 -25   -0.71    6.59
   7   0 -21   14.71    3.21
  -7   0  21   36.19    5.24
   7   0 -20   -0.19    1.44
  -7   0  20   -0.12    2.67
   7   0 -19    0.86    1.51
  -7   0  19    3.04    2.60
   7   0 -18    2.81    1.47
  -7   0  18    6.13    3.16
  -7   0  17  101.62    5.82
  -7   0  16   -1.89    2.33
  -7   0  15    7.23    2.56
  -7   0  14    3.04    2.90
  -7   0  13  101.95    5.13
   7   0 -12   11.74    2.17
  -7   0  12    4.18    1.51
   7   0 -11   36.25    2.42
  -7   0  11   32.07    2.29
   7   0 -10    8.36    1.73
  -7   0  10    1.37    1.32
   7   0  -9   12.37    1.47
  -7   0   9   10.36    1.45
  -7   0   8    0.75    1.12
  -7   0   8   -0.80    1.19
  -7   0   7  174.56    6.54
  -7   0   7  172.96    6.90
  -7   0   6   -0.68    1.00
  -7   0   6   -0.14    1.72
  -7   0   4   -0.24    1.07
  -7   0   4   -0.68    1.47
  -7   0   3    2.32    1.22
  -7   0   3    1.28    1.84
  -7   0   2    0.15    1.34
  -7   0   2   -1.48    2.17
   7   0   0    1.13    1.62
  -7   0   0    5.57    2.18
   7   0   1  209.79    9.09
  -7   0  -1  208.69    8.97
   7   0   2    3.03    1.56
  -7   0  -2   -1.53    2.27
   7   0   3    4.58    2.29
  -7   0  -3    1.78    2.72
   7   0   4    2.13    2.25
  -7   0  -4   -5.08    3.12
   7   0   5  195.01    9.18
  -7   0  -5  183.37   11.09
   7   0   6   -3.38    2.13
  -7   0  -6    6.47    4.12
   7   0   7  147.14    9.08
  -7   0  -7  150.37    9.62
   7   0   8    1.26    2.78
  -7   0  -8   -3.43    3.75
   7   0   9   13.68    4.66
  -7   0  -9    9.87    3.25
   7   0  10   -3.96    3.57
  -7   0 -10    0.49    3.01
   7   0  11   34.71    4.47
  -7   0 -11   25.89    5.42
   7   0  12   -7.72    3.61
  -7   0 -12   -2.20    3.16
   7   0  13   97.33    7.70
  -7   0 -13   93.34    8.24
   7   0  14    9.54    3.64
  -7   0 -14    1.92    3.44
   7   0  15   14.71    4.78
  -7   0 -15   -0.24    4.41
   7   0  16   -2.44    3.84
  -7   0 -16   -5.61    4.72
   7   0  17   68.52    8.76
  -7   0 -17   61.00    7.40
   7   0  18   -1.50    4.19
  -7   0 -18    3.58    4.52
   7   0  19    6.11    5.04
   7   0  20    0.68    4.81
  -7   0 -20  -14.98    5.57
   7   0  21   46.54    7.37
  -7   0 -21   65.01   12.87
   7   0  22  -11.25    4.26
  -7   0 -22   20.55   11.64
   7   0  23   -2.48    4.33
  -7   0 -23    1.69    5.57
   7   0  24    3.58    3.53
   8   0 -20  152.75   15.59
  -8   0  20    5.58    2.51
  -8   0  19    1.89    2.41
  -8   0  18   -1.45    2.43
   8   0 -17    8.29    2.11
  -8   0  17   -1.87    2.71
   8   0 -16   38.97    3.55
  -8   0  16   49.97    3.77
   8   0 -15   -0.99    1.25
  -8   0  15    8.21    3.52
   8   0 -14    1.39    1.44
  -8   0  14    0.00    1.83
   8   0 -13    1.25    1.51
  -8   0  13   -0.64    1.59
   8   0 -12   18.18    1.85
  -8   0  12   20.92    1.78
  -8   0  11   -0.08    1.39
  -8   0  11    0.13    1.47
  -8   0  10    2.77    1.25
  -8   0  10    1.00    1.30
  -8   0   9   -1.40    1.11
  -8   0   9   -3.21    1.20
  -8   0   8  298.32   10.31
  -8   0   8  284.47   11.08
  -8   0   7   -0.29    0.92
  -8   0   7    0.86    1.40
  -8   0   5    1.99    1.05
  -8   0   5   -0.10    1.65
  -8   0   4   38.65    2.07
  -8   0   4   40.05    2.90
  -8   0   3    0.40    1.06
  -8   0   3   -0.51    1.69
  -8   0   1    0.37    1.59
  -8   0   1    0.97    2.52
  -8   0   0    9.44    2.48
  -8   0   0    5.51    2.51
   8   0   1    1.28    1.81
  -8   0  -1    1.35    3.06
   8   0   2  115.27    6.58
  -8   0  -2  123.79    6.84
   8   0   3    0.01    2.38
  -8   0  -3    1.99    3.20
   8   0   4   45.32    3.97
  -8   0  -4   41.66    4.17
   8   0   5   -2.17    2.44
  -8   0  -5   -7.48    3.64
   8   0   6  356.58   15.48
  -8   0  -6  286.45   14.25
  -8   0  -7    0.14    2.82
   8   0   8  277.29   13.25
  -8   0  -8  233.43   13.09
   8   0   9    6.01    3.98
  -8   0  -9   -0.04    3.26
   8   0  10    2.69    3.33
  -8   0 -10    2.95    2.91
   8   0  11   -3.11    3.31
  -8   0 -11   10.71    3.75
   8   0  12   14.01    3.45
  -8   0 -12   12.49    4.24
   8   0  13    9.79    3.73
  -8   0 -13   11.63    5.48
   8   0  14    3.74    4.05
  -8   0 -14    1.89    5.67
   8   0  15   -1.83    3.44
  -8   0 -15    1.17    5.08
   8   0  16   52.73   11.57
  -8   0 -16   24.67    5.47
   8   0  17   -5.79    3.74
  -8   0 -17   -2.54    6.84
   8   0  18    3.53    5.04
  -8   0 -18    4.88    5.10
   8   0  19   38.05   14.81
  -8   0 -19   10.05    8.69
   8   0  20   15.37    7.22
  -8   0 -20    0.58    5.42
   8   0  21    2.18    4.70
  -8   0 -21    2.57    5.49
   8   0  22   -4.74    3.87
  -8   0 -22   -0.11    3.96
   9   0 -19    0.27    1.30
  -9   0  18    5.55    2.77
   9   0 -17    2.39    1.34
  -9   0  17    1.72    2.29
   9   0 -16    2.05    1.39
  -9   0  16   -2.28    1.66
  -9   0  15   43.49    2.73
  -9   0  14    0.84    1.67
  -9   0  14    1.78    1.58
  -9   0  13   15.16    1.60
  -9   0  13   11.78    1.31
  -9   0  12    1.54    1.17
  -9   0  11    0.14    1.09
  -9   0  11    0.08    1.03
  -9   0  10    3.24    1.18
  -9   0   9   -0.97    1.18
  -9   0   9    0.29    1.38
  -9   0   8    0.60    1.07
  -9   0   8    2.88    1.46
  -9   0   7   22.80    1.46
  -9   0   7   26.96    3.00
  -9   0   6   -0.40    1.08
  -9   0   6    2.59    1.84
  -9   0   5   44.82    2.35
  -9   0   5   53.81    3.70
  -9   0   4    0.64    1.20
  -9   0   4    3.55    2.26
  -9   0   3   55.91    3.30
  -9   0   3   61.54    4.36
  -9   0   2   -2.84    1.50
  -9   0   2    0.22    2.61
  -9   0   1    4.99    2.31
  -9   0   1   10.48    3.80
  -9   0   0    1.48    1.76
  -9   0   0    0.58    2.41
   9   0   1    4.82    2.11
  -9   0  -1    6.34    1.91
  -9   0  -1   -1.34    3.26
   9   0   2   -2.32    2.20
  -9   0  -2    1.74    3.13
   9   0   3   48.71    3.82
  -9   0  -3   64.49    8.05
   9   0   4   35.50    7.29
  -9   0  -4    6.64    4.72
   9   0   5   56.08    5.02
  -9   0  -5   48.40    4.77
   9   0   6    1.11    3.65
  -9   0  -6    3.83    4.91
   9   0   7   20.65    4.03
  -9   0  -7   12.89    3.95
   9   0   8   -0.80    2.72
  -9   0  -8   49.27   21.36
   9   0   9   17.74    6.08
  -9   0  -9    3.68    4.33
   9   0  10    1.86    3.49
  -9   0 -10    1.02    4.28
   9   0  11   -4.24    3.05
  -9   0 -11   -2.31    3.61
   9   0  12   -3.47    4.11
  -9   0 -12   -0.48    4.16
   9   0  13    7.89    3.81
  -9   0 -13    7.41    4.44
   9   0  14    3.25    3.76
  -9   0 -14   -3.92    4.71
   9   0  15   61.40   11.13
  -9   0 -15   37.54    5.75
   9   0  16    5.18    4.50
  -9   0 -16   17.27    8.40
   9   0  17   -0.02    6.67
  -9   0 -17    1.92    5.43
   9   0  18    8.33    7.84
  -9   0 -18    6.85    4.98
   9   0  19  -10.95    6.02
  -9   0 -19    0.29    6.09
   9   0  20    0.93    5.19
  -9   0 -20   11.81    6.14
   9   0  21   -1.51    4.60
  -9   0 -21    9.06    7.28
 -10   0   9    1.84    0.95
 -10   0   8    5.53    1.15
 -10   0   8    7.74    1.47
 -10   0   7    1.10    0.98
 -10   0   7   -1.86    1.86
 -10   0   6   19.60    1.69
 -10   0   6   27.46    2.51
 -10   0   5   -0.22    1.20
 -10   0   5   -4.17    2.05
 -10   0   4    4.26    1.52
 -10   0   4    6.73    2.44
 -10   0   3    7.87    2.21
 -10   0   3    4.44    2.94
 -10   0   2   16.09    1.94
 -10   0   2   16.58    2.82
 -10   0   1   -3.13    1.57
 -10   0   1    5.45    2.50
 -10   0   0   -1.07    1.83
 -10   0   0    4.81    2.65
 -10   0  -1    1.56    2.04
 -10   0  -1   -2.66    2.72
  10   0   2   22.53    2.95
 -10   0  -2   17.30    2.78
 -10   0  -2   13.23    3.83
  10   0   3    1.31    4.06
 -10   0  -3   -0.74    3.80
  10   0   4    2.26    2.38
 -10   0  -4    2.93    5.01
  10   0   5    3.26    3.71
 -10   0  -5    5.82    4.81
  10   0   6   15.50    3.22
 -10   0  -6   21.57    4.06
  10   0   7    5.50    3.94
 -10   0  -7    5.75    3.96
  10   0   8    9.88    4.57
 -10   0  -8    2.93    4.09
  10   0   9   -7.50    2.65
 -10   0  -9    5.30    3.80
  10   0  10   68.61    6.15
 -10   0 -10   50.66    6.09
  10   0  11   -4.33    3.37
 -10   0 -11    1.88    4.12
  10   0  12    7.61    3.61
 -10   0 -12    3.90    4.70
  10   0  13    4.12    3.96
 -10   0 -13    5.03    4.82
  10   0  14    9.77    5.26
 -10   0 -14   29.08    7.96
  10   0  15   31.17   11.14
 -10   0 -15   -2.22    4.89
  10   0  16   26.93    5.24
 -10   0 -16   18.26    5.62
  10   0  17    4.09    7.53
 -10   0 -17   -2.70    6.29
  10   0  18    6.28    4.43
 -10   0 -18   18.61    5.63
  10   0  19   -7.76    4.47
 -10   0 -19    2.93    4.56
 -11   0   8    1.04    0.93
 -11   0   8    2.03    1.43
 -11   0   7    3.97    1.24
 -11   0   7    3.53    2.06
 -11   0   6    3.03    1.06
 -11   0   6    1.72    2.39
 -11   0   4    1.73    1.38
 -11   0   4    4.04    2.40
 -11   0   3    2.76    1.68
 -11   0   3    0.50    2.50
 -11   0   2   -0.24    1.98
 -11   0   2    0.35    3.54
 -11   0   1    6.93    3.02
 -11   0   1   -5.88    3.28
 -11   0   0    0.64    2.04
 -11   0   0    1.34    3.51
 -11   0  -1   -2.72    1.78
 -11   0  -1    3.15    3.71
 -11   0  -2    3.17    2.73
 -11   0  -2    0.09    3.11
  11   0   3    6.74    2.47
 -11   0  -3    4.86    2.69
 -11   0  -3    1.13    2.80
  11   0   4    6.23    3.06
 -11   0  -4   -0.41    3.67
  11   0   5   51.21    4.84
 -11   0  -5  177.60   25.19
  11   0   6    3.08    2.70
 -11   0  -6    2.87    4.50
  11   0   7   10.79    3.83
 -11   0  -7   12.04    4.63
  11   0   8    2.12    2.93
 -11   0  -8   -5.17    4.83
  11   0   9   20.10    4.21
 -11   0  -9   13.69    4.04
  11   0  10   -3.12    4.60
 -11   0 -10    7.86    4.58
  11   0  11    6.14    5.40
 -11   0 -11    1.73    6.50
  11   0  12    2.61    3.31
 -11   0 -12   -4.05    6.33
  11   0  13   19.50    5.66
 -11   0 -13   25.56    9.53
  11   0  14   -0.48    5.14
 -11   0 -14   -7.80    4.83
  11   0  15   25.05    6.47
 -11   0 -15   13.93    6.33
  11   0  16    6.08    4.21
 -11   0 -16    7.15    6.04
 -12   0   7    2.79    1.11
 -12   0   7    2.82    1.92
 -12   0   6    6.14    1.60
 -12   0   6    4.72    1.99
 -12   0   5    3.70    1.69
 -12   0   5   -2.18    2.38
 -12   0   4   29.11    2.19
 -12   0   4   34.38    3.47
 -12   0   3   -1.43    2.11
 -12   0   3    0.45    3.41
 -12   0   2    3.70    1.81
 -12   0   2    2.36    3.09
 -12   0   1   -0.10    1.83
 -12   0   1   -1.70    2.46
 -12   0   0    2.33    2.13
 -12   0   0   -2.69    2.91
 -12   0  -1    1.57    2.35
 -12   0  -1   -3.90    3.49
 -12   0  -2   12.55    3.92
 -12   0  -2    1.85    3.75
 -12   0  -3   -1.06    2.89
 -12   0  -3   -4.84    3.61
 -12   0  -4   32.28    4.22
 -12   0  -4   36.33    5.07
  12   0   5    0.62    2.38
 -12   0  -5   -7.36    3.95
  12   0   6   -0.73    3.59
 -12   0  -6    3.33    6.30
  12   0   7   14.62    6.16
 -12   0  -7   -6.43    4.61
  12   0   8   22.07    5.98
 -12   0  -8    7.17    4.75
  12   0   9   -8.79    3.81
 -12   0  -9   13.50    6.43
  12   0  10   16.54    6.77
 -12   0 -10  -11.42    5.18
  12   0  11    5.87    4.34
 -12   0 -11   -4.36    4.20
  12   0  12   -8.57    3.52
 -12   0 -12    2.61    5.81
  12   0  13    2.21    4.22
 -12   0 -13   24.23    7.37
  12   0  14   -4.65    3.72
 -12   0 -14   12.79    4.35
 -13   0   6    4.05    2.01
 -13   0   5   -3.17    1.97
 -13   0   4    3.37    3.21
 -13   0   3    5.52    2.93
 -13   0   2    0.52    1.90
 -13   0   2   -1.25    3.21
 -13   0   1   41.79    7.80
 -13   0   1    6.88    3.69
 -13   0   0    5.15    2.18
 -13   0   0   -2.39    2.54
 -13   0  -1    2.92    2.73
 -13   0  -1    5.60    3.95
 -13   0  -2    7.42    2.94
 -13   0  -2    2.49    3.94
 -13   0  -3   -2.84    2.68
 -13   0  -3    6.52    3.84
 -13   0  -4    4.05    2.92
 -13   0  -4   -2.47    4.25
 -13   0  -5    4.28    4.19
 -13   0  -6   -0.14    3.14
 -13   0  -6   -4.23    3.60
  13   0   7   -2.82    3.98
 -13   0  -7    4.92    5.82
  13   0   8    8.12    5.04
 -13   0  -8    6.04    4.52
  13   0   9   -2.29    3.41
 -13   0  -9    2.10    4.35
  13   0  10   -0.09    3.52
 -13   0 -10   18.65   11.55
 -14   0   3   -1.18    2.40
 -14   0   2   -2.22    2.72
 -14   0   1    7.42    2.88
 -14   0   0   -2.04    2.99
 -14   0  -1    7.12    3.48
 -14   0  -2    4.21    4.15
 -14   0  -3   -1.23    4.80
 -13  -1  -9    6.96    4.54
  13   1   9   -4.04    3.63
 -13  -1  -8   13.94    7.57
  13   1   8    2.49    2.57
 -13  -1  -7    6.16    3.44
  13   1   7    7.08    3.79
 -13  -1  -6   -2.02    3.64
  13   1   6   -2.09    3.68
 -13  -1  -5    6.39    3.75
  13   1   5   21.03    6.67
 -13  -1  -4   -2.57    3.81
  13   1   4   -2.75    2.93
 -13  -1  -3    9.50    3.52
  13   1   3   -2.11    2.91
 -13  -1  -1    0.64    2.26
 -13  -1   0    6.35    2.53
 -13  -1   1    1.65    2.32
 -13  -1   2    0.96    1.65
 -13  -1   3    1.92    0.93
 -13  -1   3    1.20    1.16
 -12  -1 -13    3.56    4.62
  12   1  13   15.50    4.82
 -12  -1 -12   11.14    4.98
  12   1  12    6.74    6.00
 -12  -1 -11   -8.27    5.67
  12   1  11    1.75    3.12
 -12  -1 -10   13.23    4.88
  12   1  10    9.00    3.76
 -12  -1  -9   -0.88    3.87
  12   1   9    5.57    4.27
 -12  -1  -8    3.27    3.70
  12   1   8    0.28    3.53
 -12  -1  -7   -0.51    3.32
  12   1   7   -2.05    2.45
 -12  -1  -6    2.34    4.25
  12   1   6   40.12    9.51
 -12  -1  -5   14.53    4.08
  12   1   5   -1.67    2.44
 -12  -1  -4    3.00    2.78
  12   1   4    7.09    3.32
 -12  -1  -3    9.20    3.59
  12   1   3   25.16    4.33
 -12  -1  -2    3.31    3.12
  12   1   2    4.78    3.42
 -12  -1  -1    8.61    1.94
 -12  -1  -1    7.82    3.22
 -12  -1   0   -1.17    2.18
 -12  -1   0    0.23    2.25
 -12  -1   1   10.27    1.83
 -12  -1   1   14.66    2.45
 -12  -1   2    3.53    1.43
 -12  -1   2    5.24    2.11
 -12  -1   3    8.81    1.27
 -12  -1   3   11.45    1.59
 -11  -1 -16   -6.85    5.31
  11   1  16    0.86    2.88
 -11  -1 -15    4.98    5.07
  11   1  15   -6.22    3.32
 -11  -1 -14   -6.97    5.59
  11   1  14    3.36    3.82
 -11  -1 -13    5.42    4.59
  11   1  13    5.23    4.73
 -11  -1 -12  -10.31    5.70
 -11  -1 -11    0.84    4.45
  11   1  11   11.26    4.08
 -11  -1 -10   11.76    4.57
  11   1  10    2.25    3.93
 -11  -1  -9   39.45    6.75
  11   1   9   10.38    3.99
 -11  -1  -8   22.50    5.56
  11   1   8   12.31    4.65
 -11  -1  -7   29.88    6.15
  11   1   7   29.46    4.08
 -11  -1  -6   30.25    5.09
  11   1   6   18.02    4.02
 -11  -1  -5   45.55    5.59
  11   1   5   55.97    5.38
 -11  -1  -4    9.81    3.85
  11   1   4   30.34    5.69
 -11  -1  -3   23.45    3.75
  11   1   3   35.92    4.08
 -11  -1  -2    4.06    2.99
  11   1   2    0.43    2.23
 -11  -1  -1   12.83    3.40
  11   1   1   -0.14    2.16
 -11  -1   0    5.76    2.08
 -11  -1   0   -2.75    2.49
 -11  -1   1    5.51    1.59
 -11  -1   1    2.16    1.70
 -11  -1   2   -0.79    1.29
 -11  -1   2   -2.20    1.32
 -11  -1   3   35.32    2.21
 -11  -1   3   42.73    3.17
 -11  -1   4    9.10    0.75
 -11  -1   4   13.28    1.33
 -10  -1 -18    6.19    4.76
  10   1  18    4.91    3.35
 -10  -1 -17    0.76    4.82
  10   1  17    1.18    3.71
 -10  -1 -16   17.32    6.16
  10   1  16   -2.83    4.24
 -10  -1 -15    3.92    4.71
  10   1  15   26.21    5.46
 -10  -1 -14    1.29    6.79
  10   1  14   21.92   10.73
 -10  -1 -13   15.01    5.72
  10   1  13   -2.11    4.44
 -10  -1 -12   10.30    5.32
  10   1  12    5.79    3.97
 -10  -1 -11    2.86    4.62
  10   1  11   16.51    4.65
 -10  -1 -10   -4.10    3.77
  10   1  10    8.19    3.48
 -10  -1  -9   19.01    7.22
  10   1   9   19.31    4.67
 -10  -1  -8    9.33    4.47
  10   1   8   19.08    3.89
 -10  -1  -7    0.50    3.37
  10   1   7    1.95    2.46
 -10  -1  -6   -0.50    3.09
  10   1   6    4.25    3.36
 -10  -1  -5   -2.70    3.24
  10   1   5    0.92    2.32
 -10  -1  -4   26.52    3.94
  10   1   4   19.81    3.23
 -10  -1  -3   10.52    3.08
  10   1   3    9.79    2.38
 -10  -1  -2   11.20    2.89
  10   1   2    5.69    2.97
 -10  -1  -1    8.91    2.74
  10   1   1    8.07    2.11
 -10  -1   0   -1.61    2.23
  10   1   0   -0.63    1.75
 -10  -1   1    8.03    1.73
 -10  -1   1    1.38    1.85
 -10  -1   2    6.66    1.42
 -10  -1   2    0.55    1.52
 -10  -1   3    7.87    1.07
 -10  -1   3    6.00    1.45
 -10  -1   4   22.92    1.42
 -10  -1   4   21.78    1.23
  -9  -1 -20   10.72    6.72
   9   1  20    0.36    4.31
  -9  -1 -19   -5.79    4.91
   9   1  19   11.93    4.91
  -9  -1 -18   -7.95    5.00
   9   1  18    4.10    5.40
  -9  -1 -17    5.72    4.60
   9   1  17    1.93    4.42
  -9  -1 -16   23.38    6.35
   9   1  16   -2.04    4.27
  -9  -1 -15   -5.51    7.41
   9   1  15    3.88    5.32
  -9  -1 -14   14.85    5.39
   9   1  14    9.05    4.06
  -9  -1 -13    6.00    6.95
   9   1  13    5.90    3.59
  -9  -1 -12   20.65    4.37
   9   1  12   11.02    3.57
  -9  -1 -11   35.79    5.88
   9   1  11   39.61    5.00
  -9  -1 -10    3.71    4.30
   9   1  10    7.11    3.14
  -9  -1  -9   -5.18    3.16
   9   1   9    8.21    6.20
  -9  -1  -8    3.81    4.88
   9   1   8   -0.90    3.33
  -9  -1  -7    8.78    4.28
   9   1   7    2.41    2.84
  -9  -1  -6    8.08    3.73
   9   1   6    3.83    3.17
  -9  -1  -5   29.47    4.26
   9   1   5   40.58    4.27
  -9  -1  -4   31.43    4.10
   9   1   4   35.64    3.51
  -9  -1  -3   -0.70    3.17
   9   1   3   -1.06    2.16
  -9  -1  -2    5.17    3.30
   9   1   2    9.34    3.18
  -9  -1  -1   17.12    3.98
   9   1   1    1.45    2.01
  -9  -1   0   26.80    2.85
   9   1   0   27.63    2.73
  -9  -1   1    3.88    2.33
   9   1  -1    0.84    1.42
  -9  -1   2    1.39    1.23
  -9  -1   2    3.13    1.48
  -9  -1   3    0.76    0.95
  -9  -1   3    0.25    1.35
  -9  -1   4   38.76    1.61
  -9  -1   4   43.04    1.90
  -8  -1 -22   -0.95    4.69
   8   1  22   -1.47    4.89
  -8  -1 -21   -3.66    5.41
   8   1  21   -7.93    4.40
  -8  -1 -20   -1.49    7.28
   8   1  20    9.49    6.28
  -8  -1 -19   12.69    8.15
   8   1  19   -1.46    5.58
  -8  -1 -18   -0.35    4.87
   8   1  18   -3.75    4.77
  -8  -1 -17   17.26    6.03
   8   1  17    6.50    4.07
  -8  -1 -16   46.39    9.20
   8   1  16   29.52    5.31
  -8  -1 -15   35.49    6.67
   8   1  15   39.57    4.99
  -8  -1 -14   22.20    5.27
   8   1  14   22.26    4.85
  -8  -1 -13    1.65    3.80
   8   1  13    7.08    3.90
  -8  -1 -12   11.77    4.28
   8   1  12   13.50    6.02
  -8  -1 -11    6.48    6.08
   8   1  11   -0.03    2.83
  -8  -1 -10    3.72    3.56
   8   1  10    0.08    3.11
  -8  -1  -9   10.35    5.57
   8   1   9   14.99    3.50
  -8  -1  -8   -0.40    3.38
   8   1   8   -4.68    2.77
  -8  -1  -7    9.13    3.52
   8   1   7   11.21    2.97
  -8  -1  -6   -2.34    2.84
   8   1   6    0.72    2.70
  -8  -1  -5   -5.99    2.84
  -8  -1  -4  110.87    7.43
   8   1   4  129.24    6.63
  -8  -1  -3   80.30    5.17
   8   1   3   95.61    7.26
  -8  -1  -2    5.73    2.84
   8   1   2    8.54    2.65
  -8  -1  -1   98.09    5.57
   8   1   1   95.85    5.77
  -8  -1   0   -0.21    2.12
   8   1   0    3.62    2.21
  -8  -1   1  110.15    5.24
   8   1  -1  101.29    4.56
  -8  -1   2   11.39    2.27
   8   1  -2   10.20    1.32
  -8  -1   3   85.52    3.11
  -8  -1   3   89.97    3.87
  -8  -1   4  135.11    4.52
  -8  -1   4  147.49    5.09
  -8  -1  20    1.38    1.34
   8   1 -20    4.04    1.36
  -7  -1 -23    0.28    4.98
   7   1  23    4.52    3.90
  -7  -1 -22    1.49    4.88
   7   1  22   -6.80    4.92
  -7  -1 -21    9.38    7.13
   7   1  21   10.79    5.33
  -7  -1 -20   20.15    6.24
   7   1  20   17.93    7.10
  -7  -1 -19    6.53    9.55
   7   1  19   -4.39    3.83
  -7  -1 -18   -5.18    5.01
   7   1  18   -1.11    4.14
  -7  -1 -17   -3.38    4.64
   7   1  17   13.20    3.89
  -7  -1 -16   41.97    6.20
   7   1  16   50.82    6.59
  -7  -1 -15   14.14    5.12
   7   1  15   11.17    4.46
  -7  -1 -14   21.08    4.71
   7   1  14   10.78    3.46
  -7  -1 -13    2.71    3.82
   7   1  13   -5.04    3.88
  -7  -1 -12   31.77    4.72
   7   1  12   27.37    4.49
  -7  -1 -11   63.62    6.59
   7   1  11   51.12    5.64
  -7  -1 -10   16.98    5.52
   7   1  10   -1.41    3.14
  -7  -1  -9   26.23    4.41
   7   1   9   34.00    4.35
  -7  -1  -8    6.79    3.55
   7   1   8   16.80    6.86
  -7  -1  -7  145.74    8.65
   7   1   7  176.22   12.24
  -7  -1  -6    2.15    4.68
   7   1   6   10.16    3.58
  -7  -1  -5   -2.88    2.96
   7   1   5    5.54    3.66
  -7  -1  -4   99.42    6.78
   7   1   4  119.82    7.25
  -7  -1  -3  213.62   12.52
   7   1   3  226.45   11.97
  -7  -1  -2   31.22    3.13
   7   1   2   37.91    3.00
  -7  -1  -1   62.44    4.85
   7   1   1   59.71    4.16
  -7  -1   0   -3.49    2.07
   7   1   0    3.23    1.45
  -7  -1   1   55.09    3.40
   7   1  -1   59.97    3.01
  -7  -1   2   44.34    2.81
   7   1  -2   34.33    2.26
  -7  -1   3  222.13    7.40
  -7  -1   3  236.06    9.51
   7   1 -15   23.09    1.79
  -7  -1  16   51.14    2.73
   7   1 -16   42.82    3.02
  -7  -1  17    7.03    2.04
   7   1 -17    4.17    1.22
  -7  -1  18    1.48    1.57
   7   1 -18    0.47    0.99
  -7  -1  19    5.94    2.13
   7   1 -19   -0.28    1.06
  -7  -1  20    5.28    2.87
   7   1 -20    8.80    2.07
  -7  -1  21    3.76    2.11
   7   1 -21  226.84   19.35
  -6  -1 -24    2.11    6.08
   6   1  24   14.04    5.88
  -6  -1 -23   -6.37    5.10
   6   1  23   -2.93    5.77
  -6  -1 -22    4.71    3.84
   6   1  22    2.67    4.47
  -6  -1 -21   17.93    5.02
   6   1  21    8.32    4.18
  -6  -1 -20    5.44    5.14
   6   1  20    3.17    5.55
  -6  -1 -19    5.72    4.98
   6   1  19   17.95    5.25
  -6  -1 -18    3.46    5.01
   6   1  18    5.58    4.44
  -6  -1 -17    5.07    4.54
   6   1  17   -7.92    3.39
  -6  -1 -16    6.44    3.92
   6   1  16    8.56    3.75
  -6  -1 -15    1.26    4.50
   6   1  15    2.17    3.74
  -6  -1 -14   11.89    4.08
   6   1  14   15.44    4.43
  -6  -1 -13   -1.97    3.88
   6   1  13    0.95    3.42
  -6  -1 -12    2.39    4.53
   6   1  12    3.96    3.50
  -6  -1 -11    0.91    3.26
   6   1  11    3.59    4.07
  -6  -1 -10   43.57    6.04
   6   1  10   38.96    4.14
  -6  -1  -9  261.45   18.64
   6   1   9  334.48   17.18
  -6  -1  -8    6.67    3.65
   6   1   8    5.75    3.50
  -6  -1  -7    6.55    4.73
   6   1   7   -2.13    2.62
  -6  -1  -6    5.98    3.48
   6   1   6   -1.70    2.89
  -6  -1  -5   87.74    6.54
   6   1   5   95.19    6.33
  -6  -1  -4    8.53    3.56
   6   1   4    2.16    1.91
  -6  -1  -3    0.24    2.35
   6   1   3    4.54    2.10
  -6  -1  -2  205.09   10.85
   6   1   2  217.74    9.30
  -6  -1  -1   14.17    2.51
   6   1   1   15.70    2.01
  -6  -1   0    0.81    1.78
   6   1   0    1.32    1.63
  -6  -1   1   17.24    1.69
   6   1  -1   15.80    1.61
  -6  -1   2  253.08   10.03
   6   1  -2  237.58    8.37
  -6  -1   3    3.45    0.90
   6   1  -3    6.61    0.86
  -6  -1  12    3.49    0.95
  -6  -1  13    4.01    1.16
   6   1 -13    6.10    1.05
  -6  -1  14   11.49    1.52
   6   1 -14   10.19    1.40
  -6  -1  15   -0.49    1.80
   6   1 -15    5.57    1.48
  -6  -1  16    2.26    2.22
  -6  -1  17    1.55    1.97
  -6  -1  18    8.11    2.46
  -6  -1  19   12.81    2.90
  -6  -1  20   13.57    3.40
   6   1 -20   37.30    6.77
  -6  -1  21   12.39    2.53
   6   1 -21    6.11    2.90
  -6  -1  22   14.88    4.21
   6   1 -22    8.31    4.04
  -5  -1 -25    1.74    5.01
   5   1  25    3.28    5.82
  -5  -1 -24  -15.88    5.41
   5   1  24   21.25   10.33
  -5  -1 -23   19.00    9.90
   5   1  23   -1.12    4.51
  -5  -1 -22   -1.32    4.84
   5   1  22   15.07    5.44
  -5  -1 -21   24.31    6.10
   5   1  21    8.86    4.89
  -5  -1 -20   -1.33    5.59
   5   1  20    0.58    4.78
  -5  -1 -19   19.19    6.03
   5   1  19   10.24    6.10
  -5  -1 -18   79.84    7.25
   5   1  18   84.85    7.27
  -5  -1 -17   -0.39    4.31
   5   1  17   -0.37    3.89
  -5  -1 -16    4.16    9.82
   5   1  16    6.81    6.33
  -5  -1 -15    8.69    5.11
   5   1  15    6.65    4.19
  -5  -1 -14   31.25    4.78
   5   1  14   33.18    4.11
  -5  -1 -13   11.50    3.60
   5   1  13    5.23    3.44
  -5  -1 -12    8.27    4.15
   5   1  12   15.77    3.30
  -5  -1 -11    8.55    3.18
   5   1  11    4.65    3.20
  -5  -1 -10   51.39    5.25
   5   1  10   76.53    5.67
  -5  -1  -9   17.09    4.70
   5   1   9   13.37    3.48
  -5  -1  -8    9.34    3.35
   5   1   8   16.47    3.30
  -5  -1  -7  479.08   24.19
   5   1   7  527.31   21.65
  -5  -1  -6   -2.00    2.72
   5   1   6   -3.06    2.38
  -5  -1  -5   78.30    5.44
   5   1   5   84.14    5.25
  -5  -1  -4  359.08   19.07
   5   1   4  346.88   14.49
  -5  -1  -3   45.03    5.31
   5   1   3   41.06    3.58
  -5  -1  -2   70.04    4.87
   5   1   2   74.01    4.35
  -5  -1  -1    4.33    2.00
   5   1   1    8.12    1.90
  -5  -1   0  264.11   11.73
   5   1   0  244.93   10.86
  -5  -1   1    7.79    1.17
   5   1  -1    6.05    1.46
  -5  -1   2   88.34    3.87
   5   1  -2   78.92    3.56
  -5  -1   3   46.22    1.84
   5   1  -3   41.50    1.74
  -5  -1  10   74.62    3.12
   5   1 -10   68.33    2.79
  -5  -1  11    3.70    1.28
   5   1 -11    5.67    1.69
  -5  -1  12   17.40    1.91
  -5  -1  13   11.12    1.86
  -5  -1  14   40.27    2.88
  -5  -1  15    2.65    1.70
  -5  -1  16    9.85    2.68
   5   1 -16   15.18    3.47
  -5  -1  17   16.70    4.13
   5   1 -17    2.99    1.92
  -5  -1  18   83.52    7.12
   5   1 -18   95.08    6.77
  -5  -1  19   -3.09    2.39
   5   1 -19    2.01    2.63
  -5  -1  20    2.55    2.67
   5   1 -20    0.30    2.17
  -5  -1  21    4.93    2.73
   5   1 -21    3.96    2.10
  -5  -1  22   -0.93    3.10
   5   1 -22    7.32    4.36
  -5  -1  23    8.02    3.84
   5   1 -23   19.33    3.29
   5   1 -24   19.21    8.26
  -4  -1 -26   -4.21    4.90
   4   1  26    4.88    4.23
  -4  -1 -25   24.06    9.16
   4   1  25    7.30    5.92
  -4  -1 -24    8.16    7.26
   4   1  24  181.10   26.82
  -4  -1 -23   -1.66    7.62
   4   1  23   -8.07    4.00
  -4  -1 -22   26.64    5.26
   4   1  22   31.34    7.63
  -4  -1 -21   22.16    4.88
   4   1  21    8.27    4.25
  -4  -1 -20   31.74    5.54
   4   1  20   18.34    6.53
  -4  -1 -19   48.46    6.77
   4   1  19   54.34    7.37
  -4  -1 -18   29.85    5.60
   4   1  18   20.40    4.92
  -4  -1 -17   16.19    4.79
   4   1  17   22.12    5.55
  -4  -1 -16   54.65    6.89
   4   1  16   49.17    5.87
  -4  -1 -15    5.95    3.36
   4   1  15    7.49    4.21
  -4  -1 -14   47.68    5.16
   4   1  14   45.62    6.13
  -4  -1 -13   13.81    4.25
   4   1  13   27.63    4.85
  -4  -1 -12   57.55    6.38
   4   1  12   55.21    5.62
  -4  -1 -11   39.83    4.81
   4   1  11   28.97    4.19
  -4  -1 -10   22.74    4.69
   4   1  10   18.09    3.73
  -4  -1  -9  137.87    8.32
   4   1   9  153.09    8.94
  -4  -1  -8  208.64   12.19
   4   1   8  232.60   12.17
  -4  -1  -7   75.21    6.20
   4   1   7   78.98    5.89
  -4  -1  -6   14.07    3.02
   4   1   6   17.82    3.20
  -4  -1  -5   26.28    3.64
   4   1   5   34.71    3.46
  -4  -1  -4    8.90    2.54
   4   1   4   10.48    2.85
  -4  -1  -3   57.01    4.30
   4   1   3   45.92    4.05
  -4  -1  -2   -2.69    2.50
   4   1   2    0.15    1.95
  -4  -1  -1    6.47    2.03
   4   1   1   12.58    3.12
  -4  -1   0    1.24    1.82
   4   1   0   -0.43    1.94
  -4  -1   1   11.07    1.35
   4   1  -1    9.69    1.33
  -4  -1   2    1.77    0.90
   4   1  -2    1.63    1.00
  -4  -1   3   53.70    2.02
   4   1  -3   52.58    2.26
   4   1  -7   84.89    3.00
   4   1  -7   84.91    3.46
  -4  -1   8  268.12    9.34
   4   1  -8  265.43   10.04
  -4  -1   9  169.51    6.72
  -4  -1  10   25.62    2.25
  -4  -1  11   52.94    3.04
  -4  -1  12   64.77    3.93
  -4  -1  13   23.71    2.61
   4   1 -13   40.80    3.41
  -4  -1  14   45.01    3.29
   4   1 -14   41.11    2.92
  -4  -1  15   11.09    2.87
   4   1 -15   13.38    4.36
  -4  -1  16   51.96    3.86
   4   1 -16   56.87    3.96
  -4  -1  17   23.91    3.14
   4   1 -17   21.33    3.31
  -4  -1  18   48.33    7.16
   4   1 -18   23.29    3.34
  -4  -1  19   47.30    4.67
   4   1 -19   71.09    5.64
  -4  -1  20   24.84    4.89
   4   1 -20   16.84    3.20
  -4  -1  21    5.08    3.77
   4   1 -21   10.10    3.09
  -4  -1  22   33.19    4.61
   4   1 -22   24.24    4.04
  -4  -1  23    9.83    4.17
   4   1 -23   -2.47    2.45
  -4  -1  24   10.64    3.86
   4   1 -24   -1.45    2.17
   4   1 -25   10.62    5.32
  -3  -1 -26   -1.70    3.44
   3   1  26    0.39    2.04
  -3  -1 -25   -2.43    5.32
   3   1  25   -0.76    4.46
  -3  -1 -24    5.48    5.68
   3   1  24    2.59    5.14
  -3  -1 -23    9.17    5.61
   3   1  23    2.13    4.04
  -3  -1 -22    4.48    4.53
   3   1  22    5.45    4.48
  -3  -1 -21    3.56    3.46
   3   1  21   -7.19    5.20
  -3  -1 -20    4.26    4.40
   3   1  20   16.29    6.15
   3   1  19   23.81    5.36
  -3  -1 -18    3.18    3.74
   3   1  18    7.82    5.38
  -3  -1 -17   12.05    4.55
   3   1  17    7.87    4.10
  -3  -1 -16   18.40    4.87
   3   1  16   26.41    4.27
  -3  -1 -15   15.58    4.11
   3   1  15    4.03    3.69
  -3  -1 -14   -7.22    3.44
   3   1  14    6.11    3.82
  -3  -1 -13  211.04    9.80
   3   1  13  218.25   15.59
  -3  -1 -12  546.85   21.46
   3   1  12  497.93   23.21
  -3  -1 -11   62.05    6.90
   3   1  11   72.52    4.91
  -3  -1 -10    9.72    2.99
   3   1  10    8.27    3.24
  -3  -1  -9  284.74   15.08
   3   1   9  324.19   15.16
  -3  -1  -8   67.14    4.82
   3   1   8   80.26    5.08
  -3  -1  -7    5.98    2.22
   3   1   7    9.85    2.71
  -3  -1  -6  118.72    7.96
   3   1   6  102.65    6.16
  -3  -1  -5   16.40    2.99
   3   1   5   10.85    2.70
  -3  -1  -4   23.51    3.32
   3   1   4   19.16    2.83
  -3  -1  -3  294.98   12.84
   3   1   3  245.27   11.56
  -3  -1  -2  597.89   26.08
   3   1   2  527.90   21.20
  -3  -1  -1 1353.30   49.45
   3   1   1 1158.58   45.29
  -3  -1   0  214.90    9.01
   3   1   0  175.67    9.30
  -3  -1   1 1309.72   45.60
   3   1  -1 1231.48   42.59
  -3  -1   2  530.92   18.21
   3   1  -2  555.03   19.75
  -3  -1   3  286.56    9.87
   3   1  -3  282.89   10.08
   3   1  -4   23.98    1.17
   3   1  -4   30.05    1.47
   3   1  -5   12.90    0.99
   3   1  -6  130.36    5.58
  -3  -1   7    8.68    1.34
  -3  -1   8   89.39    4.18
  -3  -1   9  309.83   12.23
  -3  -1  10    9.73    2.03
   3   1 -10   20.72    2.54
  -3  -1  11   82.03    4.40
   3   1 -11   76.60    5.43
  -3  -1  12  546.92   21.10
   3   1 -12  530.79   21.21
  -3  -1  13  250.62   11.70
   3   1 -13  235.12   12.36
  -3  -1  14   -2.85    2.19
   3   1 -14    1.18    2.44
  -3  -1  15    6.01    2.92
   3   1 -15    4.49    2.20
  -3  -1  16   27.01    3.71
   3   1 -16   20.18    3.06
  -3  -1  17    0.47    2.04
   3   1 -17    0.51    2.74
  -3  -1  18    3.47    3.82
   3   1 -18    6.44    2.46
  -3  -1  19    2.77    3.56
   3   1 -19   -4.67    2.40
  -3  -1  20    5.85    3.31
   3   1 -20   42.80    6.18
  -3  -1  21   -3.27    3.85
   3   1 -21    2.56    2.54
  -3  -1  22   -5.73    3.20
   3   1 -22    5.89    2.59
  -3  -1  23   15.27    4.81
   3   1 -23    6.63    3.74
  -3  -1  24    4.74    4.09
   3   1 -24   19.80    8.84
  -3  -1  25   11.52    3.87
   3   1 -25   -1.31    3.18
   3   1 -26   -3.35    3.46
  -2  -1 -27   49.16   12.29
   2   1  27    0.92    1.90
  -2  -1 -26    2.14    5.27
   2   1  26   -2.07    2.68
  -2  -1 -25   39.10    9.84
   2   1  25    0.05    3.94
  -2  -1 -24    6.48    4.21
   2   1  24   -4.49    5.30
  -2  -1 -23    7.04    5.22
   2   1  23   16.02    5.14
  -2  -1 -22   -7.24    4.54
   2   1  22    1.47    4.68
  -2  -1 -21   21.64    4.69
   2   1  21   16.53    4.74
  -2  -1 -20   34.68    5.22
   2   1  20   19.38    5.03
  -2  -1 -19   28.72   14.21
   2   1  19   -0.20    3.56
  -2  -1 -18    4.78    3.93
   2   1  18   -3.11    3.83
  -2  -1 -17    4.87    3.62
   2   1  17    1.52    4.70
  -2  -1 -16    5.64    3.57
   2   1  16   12.73    3.84
  -2  -1 -15   31.48    4.90
   2   1  15   52.08   12.26
  -2  -1 -14    3.37    3.50
   2   1  14    1.75    3.19
  -2  -1 -13    0.13    3.84
   2   1  13    9.79    3.21
  -2  -1 -12   -1.86    3.14
   2   1  12   12.55    4.56
  -2  -1 -11    0.39    3.48
   2   1  11    2.89    2.77
  -2  -1 -10  233.19   12.28
   2   1  10  196.12   10.19
  -2  -1  -9  135.17    7.98
   2   1   9  132.46    8.66
  -2  -1  -8    5.20    3.30
   2   1   8   -1.69    2.80
  -2  -1  -7    9.02    3.77
   2   1   7    6.55    2.82
  -2  -1  -6  129.94    7.93
   2   1   6  119.41    6.89
  -2  -1  -5  188.65   10.01
   2   1   5  189.25    9.55
  -2  -1  -4  158.55    8.67
   2   1   4  139.46    7.04
  -2  -1  -3    2.09    1.98
   2   1   3    3.22    2.05
  -2  -1  -2  120.10    6.63
   2   1   2  111.17    6.23
  -2  -1  -1  182.20    8.10
   2   1   1  178.25    8.08
  -2  -1   0    0.23    1.19
   2   1   0    0.42    0.98
  -2  -1   1  194.78    8.24
   2   1  -1  182.74    8.36
  -2  -1   2  105.27    4.63
   2   1  -2  104.42    4.47
  -2  -1   3    1.14    0.81
   2   1  -3    1.98    0.83
   2   1  -4  141.02    5.68
   2   1  -5  181.90    7.78
  -2  -1   6  133.10    6.42
  -2  -1   7   11.47    1.61
  -2  -1   8    7.30    1.75
   2   1  -8    6.56    1.55
  -2  -1   9  152.32    7.49
   2   1  -9  143.36    7.37
  -2  -1  10  238.69    9.82
   2   1 -10  208.02   10.79
  -2  -1  11    4.63    2.31
   2   1 -11    5.86    2.14
  -2  -1  12    6.59    2.06
   2   1 -12    9.98    2.36
  -2  -1  13    3.02    2.14
   2   1 -13    3.32    2.31
  -2  -1  14    1.22    3.11
   2   1 -14   -0.21    2.23
  -2  -1  15   42.88    4.89
   2   1 -15   33.03    3.81
  -2  -1  16   10.50    3.73
   2   1 -16   10.86    5.78
  -2  -1  17    2.21    3.91
   2   1 -17    2.03    4.06
  -2  -1  18    4.88    3.59
   2   1 -18    0.50    2.92
  -2  -1  19   14.83    4.41
   2   1 -19    2.62    3.33
  -2  -1  20   13.62    3.80
   2   1 -20   28.59    4.55
  -2  -1  21   20.03    3.70
   2   1 -21   27.29    6.43
  -2  -1  22    1.33    3.90
   2   1 -22   -3.28    3.56
  -2  -1  23   -5.04    3.45
   2   1 -23    4.17    4.13
  -2  -1  24   11.56    4.80
   2   1 -24    6.66    3.96
  -2  -1  25    0.28    5.33
   2   1 -25   43.38   10.21
  -2  -1  26    5.97    3.78
   2   1 -26    4.16    5.39
   2   1 -27    8.39    3.99
  -1  -1 -27    9.83    4.34
   1   1  27    2.83    2.58
  -1  -1 -26   10.78    5.70
   1   1  26    3.64    3.82
  -1  -1 -25   17.93    4.66
   1   1  25   -9.08    3.99
  -1  -1 -24   -6.93    4.48
   1   1  24    4.88    4.37
  -1  -1 -23   12.38    4.67
   1   1  23    2.99    4.66
  -1  -1 -22   15.10    6.73
   1   1  22   14.69    5.21
  -1  -1 -21    0.28    3.73
   1   1  21   -6.81    4.08
  -1  -1 -20    6.45    3.00
   1   1  20    3.70    3.82
  -1  -1 -19   -0.06    4.14
   1   1  19   -0.73    4.30
  -1  -1 -18    1.36    3.31
   1   1  18    8.43    4.11
  -1  -1 -17    5.30    3.96
   1   1  17    1.63    4.68
  -1  -1 -16    7.96    5.04
   1   1  16    0.20    3.14
  -1  -1 -15   -6.58    2.94
   1   1  15   -3.92    3.04
  -1  -1 -14   52.82    5.33
   1   1  14   57.84    5.28
  -1  -1 -13  117.12    8.15
   1   1  13  118.66    9.19
  -1  -1 -12  198.65   11.09
   1   1  12  193.64    9.54
  -1  -1 -11   52.53    4.49
   1   1  11   55.49    4.80
  -1  -1 -10  135.75    7.39
   1   1  10  129.84    7.17
  -1  -1  -9   32.77    3.60
   1   1   9   34.11    3.75
  -1  -1  -8   94.25    6.58
   1   1   8   96.41    5.71
  -1  -1  -7   59.79    4.57
   1   1   7   76.82    5.54
  -1  -1  -6   99.96    5.74
   1   1   6   95.05    5.47
  -1  -1  -5  118.32    6.28
   1   1   5  141.97    8.33
  -1  -1  -4  726.59   28.53
   1   1   4  618.65   25.40
  -1  -1  -3   20.88    2.34
   1   1   3   23.39    2.21
  -1  -1  -2  659.00   24.97
   1   1   2  591.66   23.31
  -1  -1  -1  990.03   35.39
   1   1   1  795.00   29.75
  -1  -1   0  260.21   10.33
   1   1   0  265.18   10.64
   1   1  -1  819.34   31.17
  -1  -1   2  605.82   22.33
   1   1  -2  592.28   21.43
  -1  -1   3   22.35    1.58
   1   1  -3   19.36    1.57
   1   1  -4  652.60   24.31
  -1  -1   5  118.02    5.69
   1   1  -5  122.83    5.88
  -1  -1   6  100.57    5.53
   1   1  -6   97.61    5.34
  -1  -1   7   66.74    4.16
   1   1  -7   83.32    4.37
  -1  -1   8  107.37    5.43
   1   1  -8  103.17    5.65
  -1  -1   9   27.35    3.31
   1   1  -9   27.76    3.78
  -1  -1  10  156.73    7.83
   1   1 -10  164.61    7.78
  -1  -1  11   51.67    4.02
   1   1 -11   52.74    3.91
  -1  -1  12  176.76    9.57
   1   1 -12  199.76   10.44
  -1  -1  13  118.27    6.52
   1   1 -13  115.22    7.07
  -1  -1  14   59.54    4.70
   1   1 -14   55.86    5.48
  -1  -1  15   -0.31    3.55
   1   1 -15    1.29    3.65
  -1  -1  16    9.83    3.07
   1   1 -16    2.03    2.45
  -1  -1  17   -5.68    3.53
   1   1 -17   -0.88    2.18
  -1  -1  18    3.08    3.58
   1   1 -18    4.55    4.14
  -1  -1  19    1.65    3.86
   1   1 -19   -0.78    2.43
  -1  -1  20   10.80    3.33
   1   1 -20    5.24    3.37
  -1  -1  21    9.69    4.22
   1   1 -21   -3.78    3.54
  -1  -1  22    4.35    3.47
   1   1 -22    8.61    4.16
  -1  -1  23    2.11    3.38
   1   1 -23    2.25    5.48
  -1  -1  24    7.69    5.77
   1   1 -24   -3.07    3.70
  -1  -1  25    5.65    5.06
   1   1 -25   -0.64    4.38
  -1  -1  26   10.28    4.93
   1   1 -26    5.51    3.48
  -1  -1  27   27.43    7.87
   1   1 -27    1.19    4.54
   0  -1 -27  -14.32    3.88
   0   1  27    1.30    2.48
   0  -1 -26   -0.64    4.44
   0   1  26    1.20    4.02
   0  -1 -25   21.50    6.45
   0   1  25   12.77    4.61
   0  -1 -24   23.42    5.12
   0   1  24    8.94    4.40
   0  -1 -23    8.56    4.95
   0   1  23   -2.43    4.26
   0  -1 -22   23.42    4.25
   0   1  22   19.18    5.39
   0  -1 -21   -1.40    3.52
   0   1  21    3.75    3.52
   0  -1 -20   75.90    7.01
   0   1  20   96.25    7.70
   0  -1 -19  100.43    7.35
   0   1  19  125.76    7.63
   0  -1 -18   34.87    3.95
   0   1  18   26.88    4.70
   0  -1 -17   68.69    5.97
   0   1  17   69.78    6.42
   0  -1 -16   -1.30    3.16
   0   1  16   10.86    6.54
   0  -1 -15  225.29   10.26
   0   1  15  221.40   11.85
   0  -1 -14   77.99    5.21
   0   1  14   65.47    5.39
   0  -1 -13    4.63    2.02
   0   1  13    8.16    3.29
   0  -1 -12    1.38    2.99
   0   1  12   -1.22    3.09
   0  -1 -11  190.70    8.83
   0   1  11  198.82    9.93
   0  -1 -10  418.98   18.18
   0   1  10  434.61   17.26
   0  -1  -9  915.97   35.18
   0   1   9  928.17   39.21
   0  -1  -8  392.55   17.31
   0   1   8  417.21   18.11
   0  -1  -7    5.20    2.22
   0   1   7    1.24    3.10
   0  -1  -6  161.28    7.29
   0   1   6  147.43    7.48
   0  -1  -5  321.53   13.08
   0   1   5  311.04   13.88
   0  -1  -4  392.60   14.93
   0   1   4  436.18   18.70
   0  -1  -3  122.18    5.69
   0   1   3  116.91    5.81
   0  -1  -2   69.12    3.34
   0   1   2   65.62    3.82
   0  -1  -1  137.89    5.88
   0   1   1  147.78    6.62
   0  -1   0    3.18    1.29
   0   1   0    3.25    1.08
   0  -1   1  142.73    6.72
   0   1  -1  147.64    6.31
   0  -1   2   67.07    3.51
   0   1  -2   57.64    3.35
   0   1  -3  106.29    5.00
   0   1  -3  108.05    5.68
   0  -1   4  399.59   16.46
   0   1  -4  418.08   16.67
   0  -1   5  320.48   13.73
   0   1  -5  331.81   14.78
   0  -1   6  157.99    7.74
   0   1  -6  160.55    8.86
   0  -1   7    1.72    2.07
   0   1  -7   -1.11    2.25
   0  -1   8  373.95   16.17
   0   1  -8  411.98   17.21
   0  -1   9  912.32   35.96
   0   1  -9  929.88   36.75
   0  -1  10  421.69   17.74
   0   1 -10  438.24   21.04
   0  -1  11  184.08    9.05
   0   1 -11  188.72   10.30
   0  -1  12   -4.16    2.18
   0   1 -12    2.62    2.68
   0  -1  13    5.48    3.43
   0   1 -13    9.04    2.75
   0  -1  14   68.61    4.39
   0   1 -14   70.17    5.13
   0  -1  15  205.65   10.45
   0   1 -15  187.61   12.61
   0  -1  16    3.46    2.84
   0   1 -16   -4.08    3.17
   0  -1  17   57.66    4.94
   0   1 -17   73.23    6.78
   0  -1  18   21.49    4.13
   0   1 -18   28.99    3.80
   0  -1  19  114.68    7.42
   0   1 -19  118.89    8.06
   0  -1  20   77.63    8.46
   0   1 -20   76.98    6.57
   0  -1  21   -6.11    3.67
   0   1 -21    4.87    5.29
   0  -1  22   31.48    5.67
   0   1 -22   30.28    4.35
   0  -1  23    5.79    3.89
   0   1 -23   -6.29    3.46
   0  -1  24   29.17    8.02
   0   1 -24   25.31    5.51
   0  -1  25   17.09    4.46
   0   1 -25   12.03    5.08
   0  -1  26   10.74    3.61
   0   1 -26    0.01    4.06
   0  -1  27    1.13    4.83
   0   1 -27   21.87    6.19
   1  -1 -27    3.93    3.61
  -1   1  27    1.79    2.17
   1  -1 -26    0.39    4.12
  -1   1  26    5.90    3.80
   1  -1 -25    3.63    7.17
  -1   1  25   -3.78    4.33
   1  -1 -24    1.32    3.89
  -1   1  24    3.95    4.19
   1  -1 -23    1.78    5.46
  -1   1  23   -1.43    4.15
   1  -1 -22   14.16    6.25
  -1   1  22    3.97    5.14
   1  -1 -21   -6.02    3.39
  -1   1  21   -1.46    3.29
   1  -1 -20   15.40    7.82
  -1   1  20    7.87    3.88
   1  -1 -19    3.95    5.08
  -1   1  19   -4.20    3.57
   1  -1 -18    9.63    6.47
  -1   1  18   18.12    5.50
   1  -1 -17   -2.64    2.76
  -1   1  17   10.28    5.73
   1  -1 -16    4.81    3.16
  -1   1  16    5.82    6.05
   1  -1 -15    3.07    2.93
  -1   1  15   -1.34    2.47
   1  -1 -14   59.43    6.22
  -1   1  14   62.68    5.31
   1  -1 -13  123.88    6.79
  -1   1  13  122.51    7.52
   1  -1 -12  228.54   10.39
  -1   1  12  218.07   10.13
   1  -1 -11   57.19    4.23
  -1   1  11   50.88    3.96
   1  -1 -10  152.00    6.84
  -1   1  10  161.39    7.94
   1  -1  -9   35.23    3.23
  -1   1   9   32.11    3.66
   1  -1  -8  107.84    5.88
  -1   1   8  112.50    6.18
   1  -1  -7   60.46    3.59
  -1   1   7   67.70    4.40
   1  -1  -6   98.03    5.22
  -1   1   6  101.00    5.38
   1  -1  -5  118.42    5.56
  -1   1   5  119.58    6.45
   1  -1  -4  708.32   26.36
  -1   1   4  722.43   28.01
   1  -1  -3   18.16    1.31
  -1   1   3   19.32    1.86
   1  -1  -2  580.44   21.54
  -1   1   2  616.68   23.04
   1  -1  -1  823.07   30.15
  -1   1   1  908.27   33.51
   1  -1   0  254.91   11.02
  -1   1   0  271.10   10.54
   1  -1   1  830.11   31.12
  -1   1  -1  887.37   32.38
   1  -1   2  572.34   21.99
  -1   1  -2  563.05   23.21
  -1   1  -2  562.57   22.14
   1  -1   3   23.52    2.42
  -1   1  -3   27.53    2.31
  -1   1  -3   25.57    2.13
   1  -1   4  656.48   25.02
  -1   1  -4  670.35   26.69
   1  -1   5  121.16    6.56
  -1   1  -5  128.61    6.56
   1  -1   6  102.10    5.59
  -1   1  -6  108.38    6.19
   1  -1   7   56.21    4.49
  -1   1  -7   70.41    4.57
   1  -1   8  109.03    6.55
  -1   1  -8   95.16    5.79
   1  -1   9   23.81    3.30
  -1   1  -9   33.03    3.55
   1  -1  10  150.43    7.35
  -1   1 -10  153.96    8.39
   1  -1  11   46.18    3.77
  -1   1 -11   50.64    4.39
   1  -1  12  214.17   12.36
  -1   1 -12  195.66    9.43
   1  -1  13  121.91    7.99
  -1   1 -13  111.32    7.96
   1  -1  14   54.22    4.83
  -1   1 -14   55.74    6.29
   1  -1  15    2.76    3.10
  -1   1 -15   -5.52    3.28
   1  -1  16   12.24    3.41
  -1   1 -16   12.06    5.03
   1  -1  17    3.63    2.76
  -1   1 -17   -1.88    3.79
   1  -1  18   -2.56    3.55
  -1   1 -18    3.54    4.18
   1  -1  19    6.04    3.39
  -1   1 -19    9.09    6.03
   1  -1  20    9.06    4.53
  -1   1 -20   11.00    4.56
   1  -1  21    0.20    4.82
  -1   1 -21    7.47    5.58
   1  -1  22   -9.21    3.82
  -1   1 -22   -4.21    4.84
   1  -1  23   11.92    5.04
  -1   1 -23    3.22    3.28
   1  -1  24    1.31    4.09
  -1   1 -24    4.22    4.29
   1  -1  25   -2.40    4.41
  -1   1 -25   -5.54    4.85
   1  -1  26    7.57    4.63
  -1   1 -26   12.74    5.72
   1  -1  27   10.28    5.70
  -1   1 -27    2.26    4.80
   2  -1 -27    2.36    4.65
  -2   1  27    2.09    3.45
   2  -1 -26   -2.28    4.10
  -2   1  26   82.32   15.88
   2  -1 -25   -0.95    4.39
  -2   1  25    0.19    3.77
   2  -1 -24   -0.03    4.35
  -2   1  24    2.58    4.02
   2  -1 -23   -2.88    6.04
  -2   1  23    6.51    3.98
   2  -1 -22   10.28    4.17
  -2   1  22    4.11    4.70
   2  -1 -21   18.88    5.40
  -2   1  21   16.54    4.74
   2  -1 -20   15.99    3.85
  -2   1  20   14.71    3.62
   2  -1 -19   11.87    5.11
  -2   1  19   -2.91    2.94
   2  -1 -18    6.45    2.97
  -2   1  18    2.02    3.02
   2  -1 -17    2.13    4.05
  -2   1  17   -3.50    3.65
   2  -1 -16    9.05    4.02
  -2   1  16    9.65    3.27
   2  -1 -15   26.78    3.57
  -2   1  15   28.64    4.01
   2  -1 -14    3.24    2.69
  -2   1  14   -1.60    2.62
   2  -1 -13    3.73    3.03
  -2   1  13    5.45    2.64
   2  -1 -12    4.04    2.16
  -2   1  12    8.47    3.85
   2  -1 -11    7.16    2.79
  -2   1  11    3.31    2.42
   2  -1 -10  220.67   10.10
  -2   1  10  251.52   11.09
   2  -1  -9  167.57    7.81
  -2   1   9  153.34    7.78
   2  -1  -8    7.11    2.00
  -2   1   8    3.60    1.73
   2  -1  -7   11.19    2.51
  -2   1   7   17.10    2.98
   2  -1  -6  117.77    5.23
  -2   1   6  128.82    6.44
   2  -1  -5  176.64    7.50
  -2   1   5  196.97    9.51
   2  -1  -4  148.98    6.37
  -2   1   4  156.99    7.29
   2  -1  -3    2.05    1.42
  -2   1   3    0.55    1.43
   2  -1  -2  100.69    4.49
  -2   1   2  111.01    5.68
   2  -1  -1  181.80    8.35
  -2   1   1  198.02    8.33
   2  -1   0    2.45    1.44
  -2   1   0    1.73    1.63
   2  -1   1  168.78    7.12
  -2   1  -1  183.33    7.68
  -2   1  -2  107.35    5.41
  -2   1  -2  110.68    6.12
   2  -1   3    1.50    2.88
  -2   1  -3    1.38    1.76
   2  -1   4  158.42    7.75
  -2   1  -4  154.24    8.00
   2  -1   5  203.86   10.73
  -2   1  -5  192.63    9.43
   2  -1   6  153.27    7.18
  -2   1  -6  128.27    8.15
   2  -1   7    2.77    2.65
  -2   1  -7    7.26    2.86
   2  -1   8   -2.39    2.62
  -2   1  -8   12.53    4.10
   2  -1   9  161.15    8.28
  -2   1  -9  152.86    7.88
   2  -1  10  222.58   11.08
  -2   1 -10  211.77   12.60
   2  -1  11   -3.63    2.51
  -2   1 -11   -0.19    2.68
   2  -1  12    2.93    2.88
  -2   1 -12    2.21    3.05
   2  -1  13   16.55    3.64
  -2   1 -13   10.91    3.20
   2  -1  14    0.00    3.06
  -2   1 -14   -1.12    2.34
   2  -1  15   23.86    3.85
  -2   1 -15   22.41    4.24
   2  -1  16    4.89    3.40
  -2   1 -16    4.57    3.98
   2  -1  17   -0.30    6.13
  -2   1 -17   -1.64    2.97
   2  -1  18    4.42    3.21
  -2   1 -18   -0.90    3.29
   2  -1  19    3.27    4.67
  -2   1 -19    3.90    3.85
   2  -1  20   16.46    4.37
  -2   1 -20   16.58    4.20
   2  -1  21   26.76    5.99
  -2   1 -21   17.62    4.30
   2  -1  22   -7.09    3.88
  -2   1 -22    3.78    4.18
   2  -1  23    1.90    4.86
  -2   1 -23   10.49    5.58
   2  -1  24   -4.91    5.38
  -2   1 -24    4.64    5.46
   2  -1  25    6.33    5.57
  -2   1 -25    3.08    5.98
   2  -1  26    7.20    4.51
  -2   1 -26   17.21    6.45
   2  -1  27   -0.57    4.67
  -2   1 -27   -0.25    4.34
   3  -1 -26   16.24    6.04
  -3   1  26    0.08    3.69
   3  -1 -25    8.21    5.34
  -3   1  25  104.21   18.54
   3  -1 -24   14.13    4.46
  -3   1  24    7.79    3.60
   3  -1 -23   13.06    3.71
  -3   1  23    3.73    3.73
   3  -1 -22   12.76    4.45
  -3   1  22   -3.43    3.51
   3  -1 -21    3.02    4.21
  -3   1  21    0.32    4.07
   3  -1 -20   -0.51    2.94
  -3   1  20   13.78    4.39
   3  -1 -19    3.82    3.42
  -3   1  19   -1.98    2.88
   3  -1 -18    5.96    3.21
  -3   1  18    5.57    3.21
   3  -1 -17   13.51    4.01
  -3   1  17    4.00    3.62
   3  -1 -16   28.33    3.32
  -3   1  16   16.53    2.80
   3  -1 -15    6.12    2.59
  -3   1  15    7.68    3.10
   3  -1 -14   -0.52    2.98
  -3   1  14   -1.63    2.93
   3  -1 -13  260.32   10.42
  -3   1  13  257.59   13.58
   3  -1 -12  563.53   23.97
  -3   1  12  616.07   26.04
   3  -1 -11   82.53    5.10
  -3   1  11   97.67    5.61
   3  -1 -10    6.41    2.29
  -3   1  10   12.97    2.46
   3  -1  -9  333.17   13.76
  -3   1   9  326.11   13.90
   3  -1  -8   79.29    4.71
  -3   1   8   98.39    5.39
   3  -1  -7    5.92    1.83
  -3   1   7    5.11    1.66
   3  -1  -6  130.53    5.39
  -3   1   6  144.02    7.19
   3  -1  -5   13.47    1.97
  -3   1   5   13.22    1.73
   3  -1  -4   19.58    2.28
  -3   1   4   23.99    2.00
   3  -1  -3  270.09   11.77
  -3   1   3  281.32   11.86
   3  -1  -2  518.09   20.39
  -3   1   2  525.69   21.55
   3  -1  -1 1347.15   46.58
  -3   1   1 1370.31   47.00
   3  -1   0  201.76    8.98
  -3   1   0  192.36    8.28
  -3   1  -1 1231.48   44.17
  -3   1  -1 1235.09   46.45
  -3   1  -2  534.84   20.72
  -3   1  -2  543.01   22.51
   3  -1   3  272.38   11.51
  -3   1  -3  274.65   12.01
   3  -1   4   27.02    2.98
  -3   1  -4   28.62    2.87
   3  -1   5   14.86    2.63
  -3   1  -5   26.17    2.80
   3  -1   6  133.04    6.35
  -3   1  -6  135.57    7.44
   3  -1   7    0.68    2.50
  -3   1  -7    6.05    2.76
   3  -1   8   89.94    5.06
  -3   1  -8   80.51    5.86
   3  -1   9  326.67   12.75
  -3   1  -9  319.96   13.28
   3  -1  10    6.92    3.67
  -3   1 -10    7.49    2.85
   3  -1  11   83.44    5.74
  -3   1 -11   86.28    7.54
   3  -1  12  498.85   20.71
  -3   1 -12  520.82   20.67
   3  -1  13  254.99   11.33
  -3   1 -13  221.10   11.41
   3  -1  14   -6.57    3.08
  -3   1 -14   -0.74    2.61
   3  -1  15   -1.27    3.36
  -3   1 -15    5.68    3.64
   3  -1  16   15.05    3.80
  -3   1 -16   15.91    4.03
   3  -1  17    4.58    3.50
  -3   1 -17   11.18    3.63
   3  -1  18   20.39    6.14
  -3   1 -18    1.40    3.06
   3  -1  19   -0.67    3.90
  -3   1 -19    0.80    3.71
   3  -1  20    0.07    3.73
  -3   1 -20   13.13    4.44
   3  -1  21   11.25    4.85
  -3   1 -21    3.10    4.76
   3  -1  22    3.59    4.07
  -3   1 -22    3.80    8.12
   3  -1  23   -4.06    4.65
  -3   1 -23   12.29    4.36
   3  -1  24    1.17    3.83
  -3   1 -24   15.68    7.59
   3  -1  25    9.57    4.84
   3  -1  26    5.42    4.39
  -3   1 -26   -2.02    5.18
   4  -1 -26   -0.03    3.97
   4  -1 -25    8.68    3.25
  -4   1  25    3.65    2.68
   4  -1 -24   30.51   10.60
  -4   1  24   10.43    6.89
   4  -1 -23   -1.89    3.76
   4  -1 -22   20.18    4.09
  -4   1  22   26.94    4.99
   4  -1 -21    8.10    3.98
  -4   1  21    7.33    5.05
   4  -1 -20   33.99    5.27
  -4   1  20   16.35    3.83
   4  -1 -19   55.42    4.90
  -4   1  19   43.13    4.40
   4  -1 -18   19.09    3.43
  -4   1  18   24.36    4.37
   4  -1 -17   23.59    3.98
  -4   1  17   17.03    3.29
   4  -1 -16   60.12    4.99
  -4   1  16   56.63    4.93
   4  -1 -15    6.48    2.40
  -4   1  15    1.79    2.29
   4  -1 -14   38.37    4.67
  -4   1  14   43.32    3.97
   4  -1 -13   29.49    2.78
  -4   1  13   29.46    4.26
   4  -1 -12   55.85    3.90
  -4   1  12   64.78    4.11
   4  -1 -11   44.53    3.15
  -4   1  11   58.95    3.60
   4  -1 -10   22.75    2.60
  -4   1  10   28.72    2.81
   4  -1  -9  160.20    7.69
  -4   1   9  178.90    8.31
   4  -1  -8  257.68   10.05
  -4   1   8  288.45   11.46
   4  -1  -7   75.01    4.10
  -4   1   7   90.51    4.42
   4  -1  -6   24.34    3.15
  -4   1   6   25.90    2.20
   4  -1  -5   29.03    2.53
  -4   1   5   34.47    2.38
   4  -1  -4   14.83    2.07
  -4   1   4   11.68    1.39
   4  -1  -3   42.63    3.23
  -4   1   3   64.37    4.29
   4  -1  -2    1.73    1.48
  -4   1   2    1.65    1.53
   4  -1  -1    8.82    1.63
  -4   1   1    9.68    1.89
  -4   1   0    1.53    1.64
  -4   1   0    0.31    2.67
  -4   1  -1   12.77    2.14
  -4   1  -1    9.80    2.15
  -4   1  -2   -1.00    1.60
  -4   1  -2    4.87    2.76
   4  -1   3   53.25    3.50
  -4   1  -3   51.97    3.81
   4  -1   4   13.79    3.31
  -4   1  -4   19.12    3.07
   4  -1   5   23.07    3.29
  -4   1  -5   27.05    3.29
   4  -1   6   17.44    3.15
  -4   1  -6   26.65    2.78
   4  -1   7   91.02    4.96
  -4   1  -7   89.74    6.52
   4  -1   8  251.92   13.23
  -4   1  -8  271.66   12.98
   4  -1   9  169.21    8.32
  -4   1  -9  172.98    8.41
   4  -1  10   30.24    3.76
  -4   1 -10   19.01    3.24
   4  -1  11   32.13    4.18
  -4   1 -11   48.03    4.53
   4  -1  12   66.90    6.71
  -4   1 -12   48.82    5.41
   4  -1  13   34.28    4.12
  -4   1 -13   16.63    3.36
   4  -1  14   32.07    4.80
  -4   1 -14   34.41    4.98
   4  -1  15    6.15    3.81
  -4   1 -15   18.18    5.55
   4  -1  16   40.30    4.82
  -4   1 -16   43.05    4.39
   4  -1  17   10.47    4.00
  -4   1 -17   20.90    4.32
   4  -1  18   22.48    5.28
  -4   1 -18   31.07    4.96
   4  -1  19   58.66    7.50
  -4   1 -19   51.55    6.94
   4  -1  20   24.27    5.49
  -4   1 -20   20.53    5.91
   4  -1  21   10.12    6.44
  -4   1 -21   13.26    4.60
   4  -1  22   33.73    5.17
  -4   1 -22   24.54    5.93
   4  -1  23   -4.97    4.89
  -4   1 -23   -4.87    5.51
   4  -1  24    0.02    4.32
  -4   1 -24   -1.89    6.02
   4  -1  25   19.03    4.60
  -4   1 -25   23.75    7.89
   4  -1  26   -3.05    4.29
  -4   1 -26   18.97    5.09
   5  -1 -25    2.97    3.06
   5  -1 -24    2.09    3.04
  -5   1  24   -1.95    2.56
   5  -1 -23   14.05    3.51
  -5   1  23    5.29    2.72
   5  -1 -22    9.56    4.85
  -5   1  22    2.87    2.87
   5  -1 -21   43.97    9.48
  -5   1  21    5.46    3.87
   5  -1 -20    7.46    2.95
  -5   1  20    1.06    3.36
   5  -1 -19   -0.76    4.65
  -5   1  19   -1.21    2.27
   5  -1 -18   82.19    5.55
  -5   1  18   98.90    7.30
   5  -1 -17   -4.52    2.83
  -5   1  17   -3.48    3.38
   5  -1 -16    2.20    2.23
  -5   1  16    3.53    2.49
   5  -1 -15    4.76    2.12
  -5   1  15    0.97    2.51
   5  -1 -14   48.44    6.30
  -5   1  14   41.98    3.70
   5  -1 -13    5.99    2.23
  -5   1  13    9.86    2.38
   5  -1 -12    9.22    2.02
  -5   1  12   14.52    2.14
   5  -1 -11    4.31    1.66
  -5   1  11    3.75    2.76
   5  -1 -10   58.38    3.30
  -5   1  10   73.97    4.23
   5  -1  -9   16.42    2.59
  -5   1   9   16.99    1.81
   5  -1  -8   27.44    3.13
  -5   1   8   17.98    1.96
   5  -1  -7  565.69   23.12
  -5   1   7  572.48   21.74
   5  -1  -6    1.16    2.04
  -5   1   6    3.82    1.40
   5  -1  -5   85.93    4.87
  -5   1   5   89.28    4.70
   5  -1  -4  370.66   15.31
  -5   1   4  380.00   14.27
   5  -1  -3   35.45    3.15
  -5   1   3   50.57    3.71
   5  -1  -2   78.10    3.64
  -5   1   2   72.72    3.93
  -5   1   2   82.87    4.74
  -5   1   1    8.10    2.14
  -5   1   1    8.05    1.86
  -5   1   0  232.22   10.10
  -5   1   0  239.29   11.37
  -5   1  -1   12.78    2.06
  -5   1  -1    5.55    2.01
  -5   1  -2   81.85    5.24
  -5   1  -2   85.44    5.47
   5  -1   3   49.03    4.31
  -5   1  -3   44.96    3.10
   5  -1   4  360.22   13.14
  -5   1  -4  405.01   18.53
   5  -1   5   98.24    4.92
  -5   1  -5   90.84    5.96
   5  -1   6   -0.86    2.92
  -5   1  -6    3.04    2.93
   5  -1   7  560.77   26.65
  -5   1  -7  597.81   23.28
   5  -1   8   16.61    3.30
  -5   1  -8   21.25    4.54
   5  -1   9   14.79    4.52
  -5   1  -9   15.03    3.62
   5  -1  10   67.99    5.42
  -5   1 -10   68.56    5.51
   5  -1  11   19.95    8.31
  -5   1 -11   -1.25    2.98
   5  -1  12    8.82    3.45
  -5   1 -12   20.13    3.43
   5  -1  13    5.11    3.25
  -5   1 -13   -0.84    3.84
   5  -1  14   47.40    6.77
  -5   1 -14   35.77    4.84
   5  -1  15    0.93    3.50
  -5   1 -15    6.45    4.16
   5  -1  16    0.51    3.91
  -5   1 -16   12.13    5.60
   5  -1  17    3.10    4.18
  -5   1 -17   -3.48    3.94
   5  -1  18   76.26    6.88
  -5   1 -18   75.22    8.85
   5  -1  19   -0.42    4.61
  -5   1 -19   10.35    4.39
   5  -1  20   12.08    5.18
  -5   1 -20   14.31    4.80
   5  -1  21    5.11    5.81
  -5   1 -21    7.58    4.73
   5  -1  22   15.66    5.17
  -5   1 -22   21.87    7.87
   5  -1  23   21.02    5.08
  -5   1 -23    6.40    4.76
   5  -1  24   -6.29    4.66
  -5   1 -24   10.37    8.71
   5  -1  25    6.94    5.30
  -5   1 -25    5.54    5.06
   6  -1 -23    2.17    3.22
  -6   1  23    1.14    2.62
   6  -1 -22    0.01    2.26
  -6   1  22    6.88    3.68
   6  -1 -21   20.76    4.97
  -6   1  21    2.64    3.44
   6  -1 -20   23.12    4.02
  -6   1  20    5.87    3.00
   6  -1 -19    4.64    2.83
  -6   1  19    1.22    3.41
   6  -1 -18    8.51    2.62
  -6   1  18   10.70    3.06
   6  -1 -17   -0.95    2.90
  -6   1  17   -3.79    2.37
   6  -1 -16    5.80    2.34
  -6   1  16   11.31    6.11
   6  -1 -15    3.20    2.83
  -6   1  15   -1.07    2.53
   6  -1 -14   13.24    2.68
  -6   1  14    4.52    1.91
   6  -1 -13    6.54    2.28
  -6   1  13    1.94    1.82
   6  -1 -12    0.28    1.59
  -6   1  12    0.49    2.08
   6  -1 -11    4.17    2.09
  -6   1  11   -3.56    1.93
   6  -1 -10   48.23    3.40
  -6   1  10   44.52    2.89
   6  -1  -9  286.81   12.98
  -6   1   9  336.44   13.60
   6  -1  -8   12.78    2.46
  -6   1   8   21.16    2.40
   6  -1  -7    6.06    1.95
  -6   1   7   -2.27    1.72
   6  -1  -6    7.79    2.01
  -6   1   6    4.23    1.71
   6  -1  -5   89.48    5.06
  -6   1   5  104.85    5.98
   6  -1  -4    8.76    2.13
  -6   1   4    3.17    1.80
  -6   1   3    7.70    2.22
  -6   1   3    1.63    1.76
  -6   1   2  237.67    9.89
  -6   1   2  232.28   10.35
  -6   1   1   13.78    2.25
  -6   1   1   22.61    2.53
  -6   1   0    0.88    2.09
  -6   1   0    2.65    2.36
  -6   1  -1   17.11    2.52
  -6   1  -1   15.81    3.69
  -6   1  -2  222.56   10.15
  -6   1  -2  229.30   12.31
   6  -1   3    2.96    1.97
  -6   1  -3    3.39    2.02
  -6   1  -3    5.87    2.54
   6  -1   4    2.58    2.09
  -6   1  -4    4.88    2.75
   6  -1   5   92.60    5.35
  -6   1  -5   87.15    5.99
   6  -1   6    2.77    3.03
  -6   1  -6    1.35    2.63
   6  -1   7   -0.35    2.73
  -6   1  -7    0.36    2.72
   6  -1   8   14.71    2.91
  -6   1  -8   22.44    3.59
   6  -1   9  318.44   13.10
  -6   1  -9  327.22   16.80
   6  -1  10   38.14    4.46
  -6   1 -10   50.98    6.37
   6  -1  11   -1.68    3.04
  -6   1 -11    0.29    4.54
   6  -1  12    1.84    3.77
  -6   1 -12    0.59    3.39
   6  -1  13    6.03    3.65
  -6   1 -13    1.31    2.93
   6  -1  14   -0.96    3.90
  -6   1 -14   20.15    6.56
   6  -1  15    5.14    4.73
  -6   1 -15   -3.51    3.66
   6  -1  16   -4.87    3.42
  -6   1 -16   -2.45    4.76
   6  -1  17   -5.87    3.77
  -6   1 -17    2.30    4.03
   6  -1  18    4.82    6.74
  -6   1 -18    2.95    4.10
  -6   1 -19   12.47    5.27
   6  -1  20    5.15    5.26
  -6   1 -20   16.22    4.97
   6  -1  21    5.02    4.70
  -6   1 -21   11.76    5.32
   6  -1  22   -0.08    5.66
  -6   1 -22    9.21    7.60
   6  -1  23   -1.02    6.29
  -6   1 -23    0.14    5.17
   6  -1  24    5.08    5.82
  -6   1 -24    0.11    5.32
   7  -1 -22   -0.66    1.79
   7  -1 -21    2.22    2.62
  -7   1  21    8.63    2.83
   7  -1 -20    4.24    2.17
  -7   1  20    1.35    3.43
   7  -1 -19    2.37    2.11
  -7   1  19   11.53    4.70
   7  -1 -18    0.32    1.51
  -7   1  18   -1.70    2.64
   7  -1 -17    4.70    2.50
  -7   1  17   10.63    4.22
   7  -1 -16   46.78    4.68
  -7   1  16   54.87    5.22
   7  -1 -15   23.64    3.29
  -7   1  15   13.51    3.06
   7  -1 -14   11.87    2.11
  -7   1  14   24.66    2.65
   7  -1 -13    1.69    2.43
  -7   1  13    3.92    2.06
   7  -1 -12   38.86    4.19
  -7   1  12   33.01    2.90
   7  -1 -11   62.31    4.45
  -7   1  11   67.68    4.37
  -7   1  10    0.92    1.47
   7  -1  -9   42.11    3.57
  -7   1   9   38.57    2.92
   7  -1  -8   22.92    4.98
  -7   1   8   14.13    2.05
   7  -1  -7  157.08    8.53
  -7   1   7  172.15    7.74
  -7   1   6    8.31    1.81
  -7   1   5    0.72    1.69
  -7   1   5    6.18    2.19
  -7   1   4  123.61    5.99
  -7   1   4  112.32    6.49
  -7   1   3  237.10   10.88
  -7   1   3  230.89   10.68
  -7   1   2   33.13    2.91
  -7   1   2   39.16    3.05
  -7   1   1   60.93    4.00
  -7   1   1   56.02    4.13
  -7   1   0    2.26    1.93
  -7   1   0    2.30    2.48
  -7   1  -1   54.60    4.33
  -7   1  -1   61.97    4.46
  -7   1  -2   37.02    3.46
  -7   1  -2   48.75    5.05
  -7   1  -3  245.20   11.91
  -7   1  -3  225.87   12.30
   7  -1   4  119.43    6.27
  -7   1  -4  116.37    6.92
   7  -1   5    3.11    2.46
  -7   1  -5    6.28    2.91
   7  -1   6    4.18    2.14
  -7   1  -6    3.37    2.57
   7  -1   7  133.78    7.11
  -7   1  -7  169.97   10.55
   7  -1   8   11.43    2.98
  -7   1  -8   14.29    4.05
   7  -1   9   42.30    6.33
  -7   1  -9   35.18    4.31
   7  -1  10    5.90    3.94
  -7   1 -10   -6.04    2.78
   7  -1  11   53.08    5.35
  -7   1 -11   57.89    6.31
   7  -1  12   29.54    4.47
  -7   1 -12   30.87    5.95
   7  -1  13   -6.70    5.75
  -7   1 -13    0.19    3.46
   7  -1  14   16.64    5.38
  -7   1 -14   10.61    3.93
   7  -1  15   14.25    4.28
  -7   1 -15    8.63    4.82
   7  -1  16   42.79    4.78
  -7   1 -16   42.54    5.45
   7  -1  17    0.54    5.49
  -7   1 -17    0.47    4.36
   7  -1  18    9.42    5.13
  -7   1 -18    4.38    5.85
   7  -1  19   15.57    5.54
  -7   1 -19    1.21    4.97
   7  -1  20    2.41    5.07
  -7   1 -20    7.27    7.89
   7  -1  21    4.45    5.31
  -7   1 -21   19.94    8.37
   7  -1  22    0.11    5.52
  -7   1 -22   -3.40    4.77
   7  -1  23   -4.16    5.72
  -7   1 -23    0.70    5.56
   8  -1 -20   32.57    6.56
  -8   1  20    1.32    1.79
   8  -1 -19   -2.74    2.04
  -8   1  19   -3.83    2.38
   8  -1 -18    5.38    2.21
  -8   1  18    2.93    2.45
   8  -1 -17   12.52    2.85
  -8   1  17   11.48    2.83
   8  -1 -16   27.78    4.42
  -8   1  16   30.33    4.57
   8  -1 -15   37.50    5.70
  -8   1  15   39.16    4.38
   8  -1 -14   24.72    3.10
  -8   1  14   26.73    3.34
   8  -1 -13    3.03    2.50
  -8   1  13    7.13    2.31
   8  -1 -12   11.06    2.44
  -8   1  12   14.77    2.21
   8  -1 -11    5.86    2.84
  -8   1  11    5.34    1.94
   8  -1 -10    4.97    1.85
  -8   1  10    4.25    1.94
   8  -1  -9   11.87    2.22
  -8   1   9   14.73    3.99
   8  -1  -8   -0.91    1.79
  -8   1   7   13.21    1.86
  -8   1   7   14.02    4.17
  -8   1   6    3.30    1.41
  -8   1   6    3.01    2.49
  -8   1   5    3.82    1.87
  -8   1   5    5.21    2.64
  -8   1   3   76.09    4.00
  -8   1   3   89.41    5.38
  -8   1   2    7.84    2.03
  -8   1   2   12.12    2.13
  -8   1   1  120.47    6.25
  -8   1   1  105.71    7.15
  -8   1   0    4.42    2.35
  -8   1   0    0.24    1.98
  -8   1  -1   97.34    5.76
  -8   1  -1  119.14    7.18
  -8   1  -2    8.46    1.60
  -8   1  -2   17.79    2.92
  -8   1  -3   77.45    5.06
  -8   1  -3   78.75    5.78
   8  -1   4  134.64    7.08
  -8   1  -4  127.92    6.94
  -8   1  -4  126.76    6.74
  -8   1  -5   -2.74    3.07
   8  -1   6   -3.59    2.35
  -8   1  -6    5.24    3.27
   8  -1   7   13.36    2.85
  -8   1  -7   17.64    4.55
   8  -1   8    3.86    2.80
  -8   1  -8   -5.17    4.46
   8  -1   9   17.12    4.88
  -8   1  -9    1.66    3.90
   8  -1  10   14.12    4.23
  -8   1 -10   -2.51    4.16
   8  -1  11    7.17    4.81
  -8   1 -11    9.44    3.90
   8  -1  12   20.90    4.05
  -8   1 -12   28.69    6.46
   8  -1  13    6.16    3.22
  -8   1 -13    7.88    4.92
   8  -1  14   23.90    6.77
  -8   1 -14   12.64    4.57
   8  -1  15   32.34    6.49
  -8   1 -15   33.22    5.54
   8  -1  16   36.01    6.00
  -8   1 -16   29.59    5.82
   8  -1  17   21.55    5.68
  -8   1 -17   13.91    5.04
   8  -1  18   11.88    7.63
  -8   1 -18   17.48    8.59
   8  -1  19   53.98   15.88
  -8   1 -19   -2.51    5.37
   8  -1  20    0.74    5.12
  -8   1 -20    5.25    6.34
   8  -1  21    9.83    8.25
  -8   1 -21    8.61    5.11
   8  -1  22    9.24    6.38
  -8   1 -22   -4.24    4.67
   9  -1 -18   15.57    4.34
  -9   1  18   91.10   14.67
   9  -1 -17    2.48    1.90
  -9   1  17    1.04    2.05
   9  -1 -16    0.33    1.88
  -9   1  16    0.85    2.53
   9  -1 -15    2.02    2.18
  -9   1  15   -1.55    1.97
   9  -1 -14    8.90    2.80
  -9   1  14   15.06    2.55
   9  -1 -13    8.08    2.80
  -9   1  13   -0.06    2.12
   9  -1 -12   10.97    2.62
  -9   1  12   10.00    1.95
   9  -1 -11   30.58    3.81
  -9   1  11   41.78    2.90
   9  -1 -10    4.34    2.07
  -9   1  10    3.79    1.88
  -9   1  10    8.51    2.34
  -9   1   9    6.46    1.86
  -9   1   9    2.18    2.27
  -9   1   8   -1.75    1.49
  -9   1   8    5.60    2.16
  -9   1   7    1.53    1.41
  -9   1   7    0.95    2.19
  -9   1   6   10.04    1.82
  -9   1   6    7.68    2.19
  -9   1   5   44.90    3.21
  -9   1   5   45.50    3.97
  -9   1   4   40.82    3.59
  -9   1   4   43.38    4.20
  -9   1   3    2.11    1.93
  -9   1   3   -2.53    2.82
  -9   1   2   -1.27    1.72
  -9   1   2    5.42    3.95
  -9   1   1   11.11    2.75
  -9   1   1   -0.73    2.61
  -9   1   0   26.53    2.66
  -9   1   0   21.48    2.61
  -9   1  -1    2.54    2.20
  -9   1  -1    6.64    3.76
  -9   1  -2    1.58    2.51
  -9   1  -2    3.83    3.33
  -9   1  -3    3.45    2.57
  -9   1  -3   -1.41    3.89
  -9   1  -4   28.32    3.64
  -9   1  -4   32.11    4.10
   9  -1   5   42.68    4.31
  -9   1  -5   41.80    4.03
  -9   1  -5   35.97    4.17
   9  -1   6    2.59    4.48
  -9   1  -6   48.18   16.25
   9  -1   7    9.75    4.90
  -9   1  -7   -0.79    4.01
   9  -1   8   16.04    4.79
  -9   1  -8    7.40    5.59
   9  -1   9    1.86    3.02
  -9   1  -9    3.59    3.57
   9  -1  10   10.75    4.66
  -9   1 -10    5.76    4.32
   9  -1  11   23.50    4.16
  -9   1 -11   22.91    5.09
   9  -1  12   10.00    4.08
  -9   1 -12   13.80    3.54
   9  -1  13   -0.78    3.39
  -9   1 -13    1.01    4.15
   9  -1  14    5.48    5.40
  -9   1 -14   17.37    5.23
   9  -1  15   11.23    4.44
  -9   1 -15   -9.78    4.73
   9  -1  16   21.92    6.96
  -9   1 -16   -0.61    4.46
   9  -1  17    4.52    5.38
  -9   1 -17   -2.26    4.56
   9  -1  18   -4.86    5.03
  -9   1 -18   -0.46    6.89
   9  -1  19   -1.32    4.43
  -9   1 -19    3.68    6.63
   9  -1  20  -11.00    4.48
 -10   1  16    1.20    1.95
  10  -1 -15   -4.36    1.62
 -10   1  15    3.13    2.62
 -10   1  14    4.35    2.31
 -10   1  13   -0.18    2.04
 -10   1  13    2.34    1.99
 -10   1  12    9.01    2.29
 -10   1  12    8.94    2.25
 -10   1  11   16.44    3.76
 -10   1  11    5.61    2.79
 -10   1  10    8.75    2.34
 -10   1  10    6.23    2.29
 -10   1   9    9.42    1.90
 -10   1   9    6.20    2.58
 -10   1   8    6.34    1.75
 -10   1   8    6.96    2.46
 -10   1   6    3.07    1.79
 -10   1   6    1.62    2.21
 -10   1   5   -0.08    1.31
 -10   1   5    7.19    2.33
 -10   1   4   23.11    2.51
 -10   1   4   16.10    3.48
 -10   1   3    3.00    1.94
 -10   1   3   17.44    3.05
 -10   1   2    4.80    1.98
 -10   1   2    6.09    2.33
 -10   1   1    0.57    2.09
 -10   1   1   12.06    4.43
 -10   1   0    2.86    3.12
 -10   1   0   -1.10    2.43
 -10   1  -1    6.68    2.43
 -10   1  -1   13.71    3.68
 -10   1  -2    8.19    2.88
 -10   1  -2   13.16    4.24
 -10   1  -3    9.70    2.29
 -10   1  -3   10.31    3.24
 -10   1  -4   24.88    2.88
 -10   1  -4   20.85    3.71
 -10   1  -5    0.20    3.06
 -10   1  -5    5.95    4.77
  10  -1   6   -1.17    3.34
 -10   1  -6    7.80    3.38
 -10   1  -6  -11.25    3.30
  10  -1   7    4.79    2.69
 -10   1  -7    3.30    3.57
  10  -1   8    0.38    3.38
 -10   1  -8   15.33    5.39
  10  -1   9   17.46    4.56
 -10   1  -9    8.06    4.27
  10  -1  10   10.26    3.75
 -10   1 -10   18.52    6.49
  10  -1  11   -1.16    3.72
 -10   1 -11    1.38    3.79
  10  -1  12   32.96    7.18
 -10   1 -12   -4.54    4.31
  10  -1  13   -8.19    3.76
 -10   1 -13   -5.48    4.90
  10  -1  14   29.95    7.76
 -10   1 -14   11.03    4.14
  10  -1  15   -4.43    4.01
 -10   1 -15    2.96    4.59
  10  -1  16   -5.02    3.14
 -10   1 -16   -0.53    4.45
  10  -1  17   29.16    7.47
 -10   1 -17    3.15    4.85
  10  -1  18   21.65    5.91
 -10   1 -18    5.01    4.25
 -11   1  16    1.32    2.70
 -11   1  15   -2.55    2.64
 -11   1  14   10.13    2.96
 -11   1  13    2.27    1.75
 -11   1  13   -0.12    1.61
 -11   1  12    2.18    2.09
 -11   1  11   -0.63    1.97
 -11   1  11    0.03    1.86
 -11   1  10    7.90    2.10
 -11   1  10    5.43    2.11
 -11   1   9   34.07    3.06
 -11   1   9   23.67    3.41
 -11   1   8    4.03    1.97
 -11   1   8    2.71    2.44
 -11   1   7   28.07    2.90
 -11   1   7   31.43    3.43
 -11   1   6   26.72    2.75
 -11   1   6   20.68    3.13
 -11   1   5   45.27    3.19
 -11   1   5   48.35    4.88
 -11   1   4    7.96    2.32
 -11   1   4   11.96    3.81
 -11   1   3   41.57    5.40
 -11   1   3   31.80    3.98
 -11   1   2    1.80    2.76
 -11   1   2    3.54    4.63
 -11   1   1    7.61    2.06
 -11   1   1    4.17    3.55
 -11   1   0    4.51    2.02
 -11   1   0    9.29    3.91
 -11   1  -1    6.35    2.62
 -11   1  -1    5.17    3.61
 -11   1  -3   38.04    4.04
 -11   1  -3   34.52    6.16
 -11   1  -4    9.87    2.51
 -11   1  -4   21.00    5.22
 -11   1  -5   48.05    5.00
 -11   1  -5   42.26    6.03
 -11   1  -6   23.34    3.23
 -11   1  -6   20.53    4.73
  11  -1   7   32.82    5.07
 -11   1  -7   36.11    4.88
 -11   1  -7   32.22    5.40
  11  -1   8   22.68    7.14
 -11   1  -8    8.98    3.67
  11  -1   9   40.53    5.30
 -11   1  -9   17.68    5.15
  11  -1  10    2.88    4.12
 -11   1 -10   18.83    9.64
  11  -1  11   22.54    7.62
 -11   1 -11    4.81    3.93
 -11   1 -12    4.90    5.22
  11  -1  13    5.90    7.18
 -11   1 -13   -0.41    4.94
  11  -1  14    9.75    5.81
 -11   1 -14   -2.70    5.27
  11  -1  15    1.53    5.71
 -11   1 -15    4.68    5.82
  11  -1  16   10.49    4.92
 -11   1 -16    8.17    5.17
 -12   1  13   18.92    4.95
 -12   1  12    5.36    2.43
 -12   1  11    7.03    4.48
 -12   1  10    7.94    4.49
 -12   1   9    3.37    1.78
 -12   1   9   -1.91    2.69
 -12   1   8   11.79    2.41
 -12   1   8    4.32    2.84
 -12   1   7    3.46    1.74
 -12   1   7   -2.02    2.74
 -12   1   6    9.26    2.09
 -12   1   6    5.55    2.88
 -12   1   5    6.36    1.93
 -12   1   5    4.91    3.01
 -12   1   4    4.90    2.11
 -12   1   4    1.40    3.28
 -12   1   3    9.44    2.48
 -12   1   3    8.75    3.86
 -12   1   2    7.49    2.83
 -12   1   2    7.65    3.55
 -12   1   1   10.58    2.72
 -12   1   1    9.56    3.60
 -12   1   0   -2.83    2.42
 -12   1   0    2.00    3.23
 -12   1  -1    3.39    3.82
 -12   1  -1    5.95    3.56
 -12   1  -2   -0.51    2.90
 -12   1  -2   -0.76    3.83
 -12   1  -3   11.81    3.25
 -12   1  -3   15.69    4.34
 -12   1  -4    0.26    3.28
 -12   1  -4   -0.57    2.83
 -12   1  -5    9.96    3.20
 -12   1  -5   11.59    4.74
 -12   1  -6    6.46    2.60
 -12   1  -6   -0.30    3.98
 -12   1  -7    3.51    3.37
 -12   1  -7    9.65    3.80
 -12   1  -8    7.02    3.68
 -12   1  -8   11.97    4.07
  12  -1   9   -3.63    3.17
 -12   1  -9   -6.49    2.80
 -12   1  -9   -0.47    5.38
  12  -1  10    4.67    4.53
 -12   1 -10    1.62    4.83
  12  -1  11   -2.86    4.55
 -12   1 -11   14.44    6.40
  12  -1  12   -1.66    3.43
 -12   1 -12   -3.04    5.68
  12  -1  13    3.97    5.59
 -12   1 -13   -0.63    4.96
 -13   1  10    4.95    3.10
 -13   1   9    8.66    2.98
 -13   1   8    9.74    4.04
 -13   1   7   -3.89    2.68
 -13   1   6   -3.77    2.93
 -13   1   5    2.54    3.26
 -13   1   4    2.42    3.19
 -13   1   3    0.12    2.09
 -13   1   2    8.21    3.52
 -13   1   1   -2.08    1.73
 -13   1   1    1.34    2.75
 -13   1   0   -1.88    2.40
 -13   1   0   -2.24    2.79
 -13   1  -1    3.19    2.57
 -13   1  -1    5.81    3.09
 -13   1  -2    3.25    3.39
 -13   1  -3    7.75    3.23
 -13   1  -3   -4.17    3.34
 -13   1  -4    8.23    4.52
 -13   1  -4    6.56    4.33
 -13   1  -5    1.42    3.07
 -13   1  -5   -1.11    3.53
 -13   1  -6   -3.93    2.94
 -13   1  -6   -5.29    4.60
 -13   1  -7   -2.55    3.59
 -13   1  -7   -0.35    3.54
 -13   1  -8    5.84    3.27
 -13   1  -8    1.67    3.56
 -13   1  -9    5.12    3.84
 -13   1  -9   -0.72    4.27
 -13  -2  -6    7.38    3.87
  13   2   6   -0.50    3.06
 -13  -2  -5    0.09    2.79
  13   2   5   15.63    4.22
 -13  -2  -4    1.45    2.89
  13   2   4    8.20    3.24
 -13  -2  -3    1.45    2.25
  13   2   3   -3.12    2.41
 -13  -2  -2    0.47    2.36
  13   2   2    4.59    2.58
 -13  -2  -1   -0.91    2.15
  13   2   1   -0.94    1.67
 -13  -2   0    0.23    2.15
 -13  -2   1    2.88    1.25
 -12  -2 -11   -4.53    4.25
  12   2  11   -6.57    2.89
 -12  -2 -10    1.89    3.97
  12   2  10   12.50    4.19
 -12  -2  -9    0.44    3.85
  12   2   9   19.20    6.71
 -12  -2  -8   -3.76    3.60
  12   2   8   -1.77    2.98
 -12  -2  -7   29.03    5.91
  12   2   7   16.34    4.36
 -12  -2  -6    5.17    3.93
  12   2   6    0.22    2.83
 -12  -2  -5   11.94    3.37
  12   2   5    7.24    3.29
 -12  -2  -4   22.61    3.91
  12   2   4    7.32    2.93
 -12  -2  -3    4.68    2.72
  12   2   3   12.97    2.67
 -12  -2  -2    4.22    2.98
  12   2   2   -4.18    2.26
 -12  -2  -1   -3.56    1.95
  12   2   1   -1.17    1.76
 -12  -2   0   17.87    3.63
  12   2   0   16.03    2.45
 -12  -2   1   -1.64    1.36
 -12  -2   1    2.10    1.69
 -12  -2   2    0.92    0.82
 -12  -2   2    0.64    0.87
 -11  -2 -15    4.44    2.25
  11   2  15    8.72    5.12
 -11  -2 -14    8.43    4.02
  11   2  14   15.48    7.09
 -11  -2 -13   -4.67    4.62
  11   2  13   -1.70    3.68
 -11  -2 -12   14.91    7.73
  11   2  12    4.51    5.79
 -11  -2 -11    6.68    5.51
  11   2  11    5.73    4.30
  11   2  10    1.84    3.42
 -11  -2  -9   13.51    6.78
  11   2   9   13.07    4.43
 -11  -2  -8    5.74    4.10
  11   2   8   -4.09    3.33
 -11  -2  -7   -1.76    4.92
  11   2   7    3.55    3.27
 -11  -2  -6    6.22    4.66
  11   2   6   -3.07    2.95
 -11  -2  -5   -0.47    2.75
  11   2   5   -2.10    2.17
 -11  -2  -4    7.99    3.30
  11   2   4    2.22    2.68
 -11  -2  -3    8.63    3.36
  11   2   3    5.59    3.14
 -11  -2  -2   37.87    3.34
  11   2   2   31.57    3.55
 -11  -2  -1    3.09    2.38
  11   2   1    7.98    2.38
  11   2   0    5.61    2.09
 -11  -2   1    6.24    1.38
  11   2  -1    9.50    1.85
 -11  -2   2   42.91    2.24
 -11  -2   2   38.05    2.22
 -10  -2 -17    0.05    3.91
  10   2  17   -0.22    3.47
 -10  -2 -16    6.80    5.68
  10   2  16   -0.02    3.88
 -10  -2 -15    3.48    5.38
  10   2  15    3.11    6.58
 -10  -2 -14    1.30    4.59
  10   2  14   17.40    5.47
 -10  -2 -13   -3.27    6.13
  10   2  13    9.39    4.81
 -10  -2 -12   18.24    6.72
  10   2  12   68.64   15.36
 -10  -2 -11    0.78    4.03
  10   2  11   -2.22    3.94
 -10  -2 -10    2.46    3.91
  10   2  10   -1.17    3.08
 -10  -2  -9   10.07    5.62
  10   2   9    9.59    3.77
 -10  -2  -8   10.83    4.36
  10   2   8    0.74    3.10
 -10  -2  -7    9.37    3.76
  10   2   7    5.62    3.31
 -10  -2  -6    6.58    3.27
  10   2   6    8.33    3.33
 -10  -2  -5   40.52    4.82
  10   2   5   41.26    6.22
 -10  -2  -4   -0.86    2.48
  10   2   4   -0.98    2.66
 -10  -2  -3   13.62    4.67
  10   2   3    2.54    2.44
 -10  -2  -2   19.33    2.97
  10   2   2   11.27    3.12
 -10  -2  -1    9.48    2.19
  10   2   1   18.45    4.51
 -10  -2   0    4.77    1.95
  10   2   0    3.46    1.79
 -10  -2   1    8.82    1.83
  10   2  -1    9.73    1.70
 -10  -2   2   12.20    1.46
  10   2  -2   19.19    3.06
 -10  -2   3    1.85    0.78
 -10  -2   3    3.62    0.74
  -9  -2 -19    5.25    3.97
   9   2  19   -1.56    4.49
  -9  -2 -18    3.98    5.04
   9   2  18   10.28    6.85
  -9  -2 -17    1.45    4.46
   9   2  17    3.87    4.72
  -9  -2 -16    3.48    4.66
   9   2  16    2.46    4.50
  -9  -2 -15   -0.49    4.22
   9   2  15    8.72    5.01
  -9  -2 -14    9.05    4.66
   9   2  14   23.03   10.06
  -9  -2 -13    6.05    4.51
   9   2  13    7.90    4.78
  -9  -2 -12    3.18    4.87
   9   2  12    5.44    3.83
  -9  -2 -11    8.80    4.06
   9   2  11   12.32    4.13
  -9  -2 -10    3.97    3.84
   9   2  10    8.14    3.20
  -9  -2  -9   11.81    6.71
   9   2   9    0.05    2.89
  -9  -2  -8    6.10    4.10
   9   2   8    0.10    3.96
  -9  -2  -7    2.09    2.99
   9   2   7    3.27    3.38
  -9  -2  -6   23.08    6.57
   9   2   6   32.01   10.33
  -9  -2  -5    1.81    2.64
   9   2   5   15.41    6.40
  -9  -2  -4   55.98    4.32
   9   2   4   52.54    4.34
  -9  -2  -3    5.08    2.14
   9   2   3    3.21    2.34
  -9  -2  -2   -0.64    2.30
   9   2   2    5.91    2.26
  -9  -2  -1   14.60    2.28
   9   2   1   21.84    2.29
  -9  -2   0   10.38    4.72
   9   2   0   -0.47    1.69
  -9  -2   1   22.40    2.39
   9   2  -1   23.90    2.28
  -9  -2   2    3.33    0.97
   9   2  -2    2.53    1.41
  -9  -2   3    2.60    0.79
   9   2  -3    5.87    1.14
  -8  -2 -21   -2.05    5.72
  -8  -2 -20    1.61    4.38
   8   2  20   -1.24    4.73
  -8  -2 -19   16.15    5.63
   8   2  19    3.73    4.99
  -8  -2 -18   11.93    5.67
   8   2  18   10.05    6.19
  -8  -2 -17    1.02    4.25
   8   2  17    8.83    4.65
  -8  -2 -16    2.02    4.87
   8   2  16   11.30    5.84
  -8  -2 -15    2.29    4.63
   8   2  15    0.00    4.34
  -8  -2 -14    7.68    5.63
   8   2  14    9.18    6.25
  -8  -2 -13   10.42    4.91
   8   2  13    0.08    4.81
  -8  -2 -12   16.75    5.06
   8   2  12   23.11    4.87
  -8  -2 -11    5.02    3.64
   8   2  11   14.39    4.16
  -8  -2 -10   22.78    4.91
   8   2  10   28.22    5.39
  -8  -2  -9   25.75    4.45
   8   2   9   20.30    4.04
  -8  -2  -8   -0.29    3.17
   8   2   8    9.81    4.93
  -8  -2  -7   22.20    3.72
   8   2   7   17.13    3.86
  -8  -2  -6   17.85    3.75
   8   2   6   21.31    3.44
  -8  -2  -5  122.38    7.15
   8   2   5   99.86    6.89
  -8  -2  -4  109.99    6.67
   8   2   4   91.46    6.57
  -8  -2  -3   18.94    3.25
   8   2   3   21.65    4.29
  -8  -2  -2   48.16    3.70
   8   2   2   41.44    3.87
  -8  -2  -1   15.52    2.62
   8   2   1   24.22    4.15
  -8  -2   0    1.37    1.76
   8   2   0   -0.18    1.72
  -8  -2   1   11.93    1.72
   8   2  -1   14.35    2.61
  -8  -2   2   41.43    2.77
   8   2  -2   39.78    2.42
  -8  -2   3   17.70    1.41
   8   2  -3   19.13    1.94
  -7  -2 -22    1.39    4.61
   7   2  22    1.35    5.14
  -7  -2 -21    7.63    6.91
   7   2  21    5.34    5.52
  -7  -2 -20    3.67    5.20
   7   2  20   -2.22    4.60
  -7  -2 -19   -0.73    4.86
   7   2  19    9.81    5.53
  -7  -2 -18   -1.00    5.03
   7   2  18   11.71    7.53
  -7  -2 -17   19.80    5.98
   7   2  17   27.50    6.38
  -7  -2 -16   42.10    5.87
   7   2  16   36.42    5.49
  -7  -2 -15    0.29    4.44
   7   2  15    5.33    4.40
  -7  -2 -14   12.39    4.30
   7   2  14    8.15    4.35
  -7  -2 -13   -0.19    4.09
   7   2  13    0.68    4.16
  -7  -2 -12   46.62   12.43
   7   2  12   17.19    5.28
  -7  -2 -11    0.69    3.77
   7   2  11   12.96    3.67
  -7  -2 -10   61.94    6.04
   7   2  10   57.89    5.17
  -7  -2  -9   64.46    5.16
   7   2   9   87.50    5.49
  -7  -2  -8    7.40    3.93
   7   2   8   -3.51    2.74
  -7  -2  -7    9.94    3.24
   7   2   7    2.26    3.39
  -7  -2  -6   11.61    3.02
   7   2   6   11.81    2.49
  -7  -2  -5   35.80    3.98
   7   2   5   32.95    3.39
  -7  -2  -4    4.65    2.36
   7   2   4    5.71    2.59
  -7  -2  -3  128.77    7.15
   7   2   3  119.08    8.72
  -7  -2  -2   45.98    3.64
   7   2   2   47.12    4.44
  -7  -2  -1    0.27    1.43
   7   2   1    6.48    2.88
  -7  -2   0    0.12    1.79
   7   2   0    0.40    1.84
  -7  -2   1    2.58    1.18
   7   2  -1    0.57    1.63
  -7  -2   2   53.05    3.10
   7   2  -2   47.00    2.52
  -7  -2   3  104.21    4.27
   7   2  -3  106.18    4.70
  -7  -2   4   10.56    1.15
   7   2  -4    7.88    1.01
   7   2 -18    2.60    1.01
   7   2 -18    3.77    1.08
   7   2 -19    2.86    1.83
   7   2 -19    0.18    0.93
   7   2 -20    7.55    1.96
   7   2 -20    7.70    1.68
   7   2 -21    7.05    2.15
   7   2 -22    6.22    2.67
  -6  -2 -23    9.40    8.54
   6   2  23   -6.26    4.13
  -6  -2 -22   -4.57    4.94
   6   2  22    0.39    3.43
  -6  -2 -21   22.45    6.75
   6   2  21   -3.66    4.18
  -6  -2 -20    9.49    6.83
   6   2  20   17.27    7.06
  -6  -2 -19   -1.19    5.22
   6   2  19    9.44    7.30
  -6  -2 -18   -4.27    2.96
   6   2  18    5.81    5.04
  -6  -2 -17   25.75    5.62
   6   2  17   32.65    5.71
  -6  -2 -16   -3.84    4.21
   6   2  16    8.39    4.86
  -6  -2 -15    1.24    4.86
   6   2  15   -4.60    3.30
  -6  -2 -14   26.22    5.72
   6   2  14   12.69    4.32
  -6  -2 -13   71.97    6.73
   6   2  13   66.67    7.81
  -6  -2 -12   21.70    4.61
   6   2  12   29.33    4.24
  -6  -2 -11   23.54    4.19
   6   2  11   21.91    4.81
  -6  -2 -10   13.95    4.09
   6   2  10    8.17    3.43
  -6  -2  -9   -2.07    3.16
   6   2   9    1.56    2.91
  -6  -2  -8   25.87    3.97
   6   2   8   22.83    3.43
  -6  -2  -7   17.47    3.04
   6   2   7   11.20    3.23
  -6  -2  -6   16.16    2.96
   6   2   6    8.37    3.23
  -6  -2  -5   35.26    4.91
   6   2   5   25.86    4.16
  -6  -2  -4    2.64    2.59
   6   2   4    3.52    2.32
  -6  -2  -3   -2.97    1.58
   6   2   3   -1.48    2.57
  -6  -2  -2   30.06    2.82
   6   2   2   23.89    2.71
  -6  -2  -1  147.38    7.40
   6   2   1  143.18    6.46
  -6  -2   0    6.89    1.57
   6   2   0    4.52    2.22
  -6  -2   1  144.11    6.56
   6   2  -1  125.42    6.61
  -6  -2   2   28.89    1.86
   6   2  -2   29.82    3.77
  -6  -2   3    4.37    1.64
   6   2  -3   -0.43    1.54
  -6  -2   4    3.96    0.98
   6   2  -4    3.86    1.17
   6   2 -13   68.06    2.69
   6   2 -13   71.20    3.19
   6   2 -14   21.18    1.59
   6   2 -14   18.34    1.75
   6   2 -15    6.68    2.05
   6   2 -15    3.93    1.59
   6   2 -16    0.11    1.50
   6   2 -16    2.28    1.32
   6   2 -17   32.74    2.63
   6   2 -17   36.56    3.25
   6   2 -18    2.43    2.02
   6   2 -18    5.88    1.75
   6   2 -19   -5.07    2.00
   6   2 -20    5.33    2.37
   6   2 -21   10.12    3.67
   6   2 -22    7.61    2.89
   6   2 -23    0.97    1.96
  -5  -2 -24    0.40    4.54
   5   2  24    2.17    2.89
  -5  -2 -23    7.02    6.97
   5   2  23   18.45    6.88
  -5  -2 -22   16.78    5.52
   5   2  22   17.97    5.29
  -5  -2 -21    6.27    4.67
   5   2  21   28.04   13.14
  -5  -2 -20    6.67    4.68
   5   2  20   12.56    5.03
  -5  -2 -19   -3.23    5.16
   5   2  19   -1.81    4.56
  -5  -2 -18   20.02    4.91
   5   2  18   13.15    4.82
  -5  -2 -17   35.39    6.50
   5   2  17   16.87    5.28
  -5  -2 -16    5.84    4.57
   5   2  16   20.43    4.29
  -5  -2 -15    6.23    5.02
   5   2  15   -7.73    4.09
  -5  -2 -14   41.08    4.99
   5   2  14   38.68    5.72
  -5  -2 -13    8.13    4.70
   5   2  13   -3.95    3.52
  -5  -2 -12   -5.52    3.60
   5   2  12    6.67    4.74
  -5  -2 -11   23.32    4.13
   5   2  11   21.03    4.44
  -5  -2 -10   -4.62    3.44
   5   2  10    2.50    3.16
  -5  -2  -9   10.79    4.40
   5   2   9    0.42    3.36
  -5  -2  -8  142.52   10.30
   5   2   8  142.17    7.72
  -5  -2  -7    3.28    2.48
   5   2   7   -1.11    2.66
  -5  -2  -6  113.16    7.33
   5   2   6   99.88    6.30
  -5  -2  -5    4.20    2.57
   5   2   5    3.06    2.53
  -5  -2  -4   86.45    6.67
   5   2   4   56.66    4.45
  -5  -2  -3   38.56    3.97
   5   2   3   31.35    2.97
  -5  -2  -2   82.40    4.98
   5   2   2   74.28    4.84
  -5  -2  -1    7.55    1.94
   5   2   1    4.73    2.10
  -5  -2   0    0.31    1.56
   5   2   0    0.81    1.37
  -5  -2   1   10.79    1.61
   5   2  -1    7.08    2.21
  -5  -2   2   76.92    4.15
   5   2  -2   76.31    4.01
  -5  -2   3   36.20    2.10
   5   2  -3   39.43    2.17
  -5  -2   4   67.30    3.07
   5   2  -4   62.60    3.40
  -5  -2   5    5.74    1.14
   5   2  -5    7.61    1.37
   5   2  -6  114.23    4.69
   5   2  -6  118.70    4.65
   5   2  -7    6.38    1.00
   5   2  -7    6.36    0.99
   5   2  -8  152.76    5.38
   5   2  -8  145.06    5.99
   5   2  -9    6.82    1.02
   5   2  -9    6.34    1.20
   5   2 -10    0.63    1.11
   5   2 -10    1.11    1.55
   5   2 -11   41.92    3.21
   5   2 -11   33.26    2.33
   5   2 -12    8.26    4.32
   5   2 -12   12.90    2.43
   5   2 -13    1.96    1.57
   5   2 -14   51.62    3.40
   5   2 -15    2.84    1.91
   5   2 -16   13.37    2.49
   5   2 -17   25.62    3.02
  -5  -2  18   19.37    3.16
   5   2 -18   18.31    3.23
   5   2 -18   16.16    2.35
   5   2 -19    4.32    2.78
  -5  -2  20    4.17    3.58
   5   2 -20    0.07    1.91
  -5  -2  21   -0.91    3.23
   5   2 -21    5.21    3.67
  -5  -2  22   18.90    3.23
   5   2 -22   23.14    4.00
  -4  -2 -25   26.06    7.16
   4   2  25   -2.22    3.31
  -4  -2 -24   -0.88    5.27
   4   2  24   -2.44    2.79
  -4  -2 -23    2.89    5.03
   4   2  23   -0.08    4.68
  -4  -2 -22    7.79    3.49
   4   2  22   -1.06    3.93
  -4  -2 -21   13.83    5.47
   4   2  21    8.58    4.15
  -4  -2 -20   -7.19    4.40
   4   2  20   20.49    6.68
  -4  -2 -19   -1.68    3.93
   4   2  19   -4.33    4.18
  -4  -2 -18    9.29    4.69
   4   2  18    5.13    4.67
  -4  -2 -17    1.98    4.07
   4   2  17   -3.32    3.96
  -4  -2 -16   -1.72    3.95
   4   2  16   13.49    5.58
  -4  -2 -15   -0.18    4.87
   4   2  15    7.81    4.73
  -4  -2 -14    2.60    3.68
   4   2  14   -2.50    4.18
  -4  -2 -13    2.80    3.17
   4   2  13    0.84    3.82
  -4  -2 -12  148.61    9.03
   4   2  12  158.59    9.39
  -4  -2 -11   86.59    6.06
   4   2  11   78.80    6.28
  -4  -2 -10   36.85    4.89
   4   2  10   37.23    4.43
  -4  -2  -9   80.85    6.59
   4   2   9  112.15   21.45
  -4  -2  -8    4.45    3.39
   4   2   8   -3.49    2.92
  -4  -2  -7   17.11    3.35
   4   2   7    8.59    3.42
  -4  -2  -6   49.00    3.72
   4   2   6   41.53    3.87
  -4  -2  -5  154.87    7.55
   4   2   5  140.39    6.88
  -4  -2  -4  487.97   20.67
   4   2   4  437.27   21.59
  -4  -2  -3  143.68    7.44
   4   2   3  125.45    6.64
  -4  -2  -2  284.46   12.90
   4   2   2  256.97   12.31
  -4  -2  -1  103.17    5.80
   4   2   1  101.32    5.53
  -4  -2   0  109.15    5.59
   4   2   0  100.89    4.85
  -4  -2   1   97.36    5.59
   4   2  -1  102.01    6.13
  -4  -2   2  256.26   10.53
   4   2  -2  271.19   11.78
  -4  -2   3  144.23    5.94
   4   2  -3  139.61    5.64
  -4  -2   4  477.67   17.86
   4   2  -4  448.83   16.97
  -4  -2   5  150.63    6.30
   4   2  -5  147.28    6.59
   4   2  -6   45.44    2.52
   4   2  -7   16.04    1.40
   4   2  -8    6.50    1.40
   4   2  -9   96.09    5.89
   4   2 -10   44.14    2.79
   4   2 -11   88.15    4.08
   4   2 -12  174.91    7.90
   4   2 -13   11.27    2.21
   4   2 -13   10.02    1.84
   4   2 -14    4.87    1.87
   4   2 -14    7.74    2.42
  -4  -2  15    1.47    1.92
   4   2 -15   -1.81    2.35
  -4  -2  16    4.89    2.16
   4   2 -16   10.93    2.99
  -4  -2  17   16.70    5.46
   4   2 -17    6.20    3.25
  -4  -2  18    8.57    3.01
   4   2 -18    6.16    1.98
  -4  -2  19    3.79    3.19
   4   2 -19   -3.68    2.23
  -4  -2  20    4.36    3.56
   4   2 -20    3.50    2.55
  -4  -2  21    6.87    4.19
   4   2 -21    0.24    2.09
  -4  -2  22   12.25    5.35
   4   2 -22    0.46    2.56
  -4  -2  23   -2.53    3.33
   4   2 -23   11.38    4.47
  -3  -2 -25   22.08    7.28
   3   2  25   -3.98    4.12
  -3  -2 -24   15.19    5.97
   3   2  24    4.54    3.67
  -3  -2 -23   14.40    5.58
   3   2  23    8.28    4.07
  -3  -2 -22   19.78    4.99
   3   2  22   17.67    5.19
   3   2  21    9.41    4.76
  -3  -2 -20   25.09    4.97
   3   2  20   19.79    6.92
  -3  -2 -19   29.22    5.13
   3   2  19   62.44    9.02
  -3  -2 -18   21.31    4.91
   3   2  18   26.95    6.43
  -3  -2 -17   20.95    4.43
   3   2  17   26.58    5.42
  -3  -2 -16    2.62    3.45
   3   2  16    2.21    5.08
  -3  -2 -15    5.86    3.27
   3   2  15    4.66    3.13
  -3  -2 -14   45.16    4.38
   3   2  14   38.45    5.32
  -3  -2 -13    0.55    1.82
   3   2  13    1.96    3.22
  -3  -2 -12   55.92    5.73
   3   2  12   64.64    5.65
  -3  -2 -11   47.47    4.66
   3   2  11   37.59    4.44
  -3  -2 -10  190.21    9.36
   3   2  10  163.88   10.67
  -3  -2  -9  192.38    8.71
   3   2   9  206.93   10.71
  -3  -2  -8  342.05   16.96
   3   2   8  321.52   15.82
  -3  -2  -7   43.71    3.83
   3   2   7   37.51    3.34
  -3  -2  -6    9.73    4.12
   3   2   6    5.47    3.28
  -3  -2  -5    6.09    2.54
   3   2   5    4.18    2.81
  -3  -2  -4   70.66    4.69
   3   2   4   68.52    3.68
  -3  -2  -3  109.94    5.64
   3   2   3  101.17    5.66
  -3  -2  -2  128.79    7.42
   3   2   2  131.62    5.91
  -3  -2  -1   53.73    3.41
   3   2   1   61.29    4.29
  -3  -2   0   -0.85    1.27
   3   2   0   -0.89    2.08
  -3  -2   1   58.88    3.15
   3   2  -1   57.39    3.34
  -3  -2   2  131.49    6.08
   3   2  -2  136.37    6.53
  -3  -2   3  105.81    5.27
   3   2  -3  102.82    4.43
  -3  -2   4   68.46    3.61
   3   2  -4   63.51    3.93
  -3  -2   5    2.79    1.06
   3   2  -5    5.21    1.32
   3   2  -6    5.53    1.45
   3   2  -7   35.71    2.48
   3   2  -7   47.15    2.59
   3   2  -8  352.65   16.61
   3   2  -9  215.33   10.67
   3   2  -9  222.75    9.58
   3   2 -10  181.11    8.04
   3   2 -10  184.14    8.82
   3   2 -11   31.53    2.75
   3   2 -11   40.81    3.19
   3   2 -12   73.94    4.69
   3   2 -12   68.48    5.35
  -3  -2  13    3.03    1.96
   3   2 -13    2.75    2.02
  -3  -2  14   46.52    3.44
   3   2 -14   51.70    3.56
  -3  -2  15   10.12    2.48
   3   2 -15    8.49    3.15
  -3  -2  16   -1.66    2.30
   3   2 -16    7.59    3.06
  -3  -2  17   17.91    3.65
   3   2 -17   22.39    4.22
  -3  -2  18   27.99    3.77
   3   2 -18   30.89    4.14
  -3  -2  19   44.10    5.00
   3   2 -19   50.08    7.13
  -3  -2  20   21.75    3.78
   3   2 -20   20.33    3.35
  -3  -2  21   -4.83    3.50
   3   2 -21    6.45    2.71
  -3  -2  22   33.52    5.20
   3   2 -22   29.05    5.82
  -3  -2  23    3.94    4.49
   3   2 -23   -0.77    4.18
  -3  -2  24   -1.78    3.76
   3   2 -24   -1.80    2.26
  -2  -2 -26    2.52    3.09
   2   2  26    1.30    2.54
  -2  -2 -25    3.42    2.94
   2   2  25    0.00    2.39
  -2  -2 -24   10.18    4.74
   2   2  24    1.25    5.42
  -2  -2 -23    3.95    3.95
   2   2  23    2.33    4.09
  -2  -2 -22   -4.68    4.51
   2   2  22    1.43    4.41
  -2  -2 -21    4.63    5.16
   2   2  21    3.97    4.07
  -2  -2 -20   14.24    6.58
   2   2  20   -2.30    4.40
  -2  -2 -19    6.02    2.86
   2   2  19    0.99    4.07
  -2  -2 -18   -1.92    3.44
   2   2  18    6.54    4.01
  -2  -2 -17   15.48    4.65
   2   2  17   27.85    4.39
  -2  -2 -16   13.40    3.82
   2   2  16    8.61    3.87
  -2  -2 -15    6.09    3.79
   2   2  15    6.63    3.85
  -2  -2 -14   12.51    3.98
   2   2  14    6.80    3.73
  -2  -2 -13   26.55    3.93
   2   2  13   29.40    4.04
  -2  -2 -12    8.94    3.68
   2   2  12    3.47    3.04
  -2  -2 -11  131.51    8.53
   2   2  11  116.76    7.99
  -2  -2 -10    4.38    3.04
   2   2  10   13.78    3.90
  -2  -2  -9   28.53    4.37
   2   2   9   23.43    3.78
  -2  -2  -8   13.81    3.26
   2   2   8   12.08    2.95
  -2  -2  -7   13.41    5.50
   2   2   7   -1.83    2.23
  -2  -2  -6    4.26    2.09
   2   2   6   -2.02    2.24
  -2  -2  -5  114.91    5.45
   2   2   5  123.64    6.97
  -2  -2  -4    8.14    2.62
   2   2   4    6.00    2.34
  -2  -2  -3   36.21    3.02
   2   2   3   40.67    3.36
  -2  -2  -2    3.10    1.96
   2   2   2   -1.34    2.01
  -2  -2  -1  178.51    7.19
   2   2   1  172.33    6.91
  -2  -2   0    8.86    1.70
   2   2   0    8.03    1.64
  -2  -2   1  167.33    7.74
   2   2  -1  161.34    6.99
  -2  -2   2    1.06    1.37
   2   2  -2    6.59    1.64
  -2  -2   3   35.94    2.54
   2   2  -3   36.76    2.67
  -2  -2   4    3.42    1.46
   2   2  -4    4.99    1.39
  -2  -2   5  111.14    5.25
   2   2  -5  112.35    5.43
   2   2  -5  113.72    5.78
   2   2  -6   -0.91    1.62
   2   2  -6   -0.17    1.59
   2   2  -7    0.19    1.57
   2   2  -7    4.65    1.81
   2   2  -8   11.88    2.14
   2   2  -8   16.55    2.02
   2   2  -9   27.13    2.74
   2   2  -9   35.50    3.17
   2   2 -10   11.69    2.48
   2   2 -10   16.47    2.73
  -2  -2  11  106.01    5.62
   2   2 -11  104.37    5.97
   2   2 -11  112.97    5.56
  -2  -2  12    5.31    4.14
   2   2 -12    2.33    1.76
  -2  -2  13   30.45    3.15
   2   2 -13   32.75    3.74
  -2  -2  14    5.51    2.58
   2   2 -14   22.16    4.05
  -2  -2  15    3.89    2.86
   2   2 -15    6.17    2.63
  -2  -2  16    8.21    2.20
   2   2 -16   11.47    3.69
  -2  -2  17   31.32    4.12
   2   2 -17   18.73    3.24
  -2  -2  18    2.25    3.83
   2   2 -18    5.60    4.25
  -2  -2  19    5.27    3.72
   2   2 -19    4.61    3.14
  -2  -2  20   -0.80    3.53
   2   2 -20   -7.47    4.08
  -2  -2  21   11.84    3.88
   2   2 -21    5.22    3.47
   2   2 -22   10.85    3.76
  -2  -2  23    6.59    4.17
   2   2 -23    0.45    4.20
  -2  -2  24    6.26    3.52
   2   2 -24   -5.67    3.77
  -2  -2  25   14.77    4.35
   2   2 -25   19.49    5.56
  -1  -2 -26    4.46    3.85
   1   2  26   -1.34    2.12
  -1  -2 -25    1.84    4.83
   1   2  25    3.96    3.51
  -1  -2 -24   -4.27    5.78
   1   2  24    3.85    4.57
  -1  -2 -23  -12.20    4.16
   1   2  23    2.36    4.37
  -1  -2 -22   -0.50    4.40
   1   2  22    8.12    5.10
  -1  -2 -21    9.32    4.84
   1   2  21   13.45    6.88
  -1  -2 -20    9.87    5.34
   1   2  20   11.34    4.01
  -1  -2 -19   35.97    5.78
   1   2  19   29.11    5.19
  -1  -2 -18   37.46    5.39
   1   2  18   34.35    5.08
  -1  -2 -17   17.42    4.05
   1   2  17   19.10    4.12
  -1  -2 -16    1.67    2.16
   1   2  16    5.62    3.52
  -1  -2 -15    6.25    3.13
   1   2  15   -5.72    3.34
  -1  -2 -14   24.08    5.60
   1   2  14   18.83    4.80
  -1  -2 -13    9.18    4.29
   1   2  13    8.18    3.45
  -1  -2 -12   71.26    5.49
   1   2  12   68.83    6.53
  -1  -2 -11   18.76    3.86
   1   2  11   21.56    3.61
  -1  -2 -10   16.74    3.76
   1   2  10   27.00    3.93
  -1  -2  -9  111.84    5.45
   1   2   9  127.21    8.32
  -1  -2  -8   64.94    3.79
   1   2   8   62.62    4.58
  -1  -2  -7   12.14    2.67
   1   2   7   15.43    2.70
  -1  -2  -6   23.76    3.03
   1   2   6   17.37    2.59
  -1  -2  -5   16.79    2.98
   1   2   5   20.55    2.62
  -1  -2  -4   31.28    3.26
   1   2   4   34.21    3.00
  -1  -2  -3   94.93    5.59
   1   2   3   93.89    5.32
  -1  -2  -2   37.16    2.84
   1   2   2   41.82    3.34
  -1  -2  -1   31.32    2.64
   1   2   1   28.36    2.50
  -1  -2   0    0.60    1.81
   1   2   0   -2.10    1.42
  -1  -2   1   35.04    2.89
   1   2  -1   33.82    2.80
  -1  -2   2   30.62    2.42
   1   2  -2   32.01    2.45
  -1  -2   3  102.49    4.51
   1   2  -3  104.60    5.26
  -1  -2   4   36.05    3.16
   1   2  -4   36.19    2.98
   1   2  -5   26.09    2.57
   1   2  -5   22.12    2.09
   1   2  -6   18.95    2.16
   1   2  -6   18.51    2.71
   1   2  -7   11.23    2.02
   1   2  -7   10.60    2.13
   1   2  -8   57.73    4.24
   1   2  -8   68.36    4.29
   1   2  -9  108.77    7.00
   1   2  -9  107.68    5.52
  -1  -2  10   24.08    3.11
   1   2 -10   23.15    3.21
  -1  -2  11   29.02    3.08
   1   2 -11   31.51    3.01
  -1  -2  12   67.42    5.58
   1   2 -12   80.46    4.98
  -1  -2  13    0.09    1.99
   1   2 -13    5.45    2.84
  -1  -2  14   10.59    3.36
   1   2 -14   14.03    3.65
  -1  -2  15    2.38    3.39
   1   2 -15    4.89    3.42
  -1  -2  16    1.92    2.83
   1   2 -16    7.76    2.77
  -1  -2  17   36.81    4.40
   1   2 -17   24.34    4.25
  -1  -2  18   30.78    4.34
   1   2 -18   45.35    4.47
  -1  -2  19   34.50    4.67
   1   2 -19   53.08    5.41
  -1  -2  20   13.73    3.60
   1   2 -20   17.58    8.89
  -1  -2  21   11.41    4.60
   1   2 -21   -0.67    3.33
  -1  -2  22   12.76    4.63
   1   2 -22    1.43    3.27
  -1  -2  23   -3.46    3.87
   1   2 -23   23.20    5.17
  -1  -2  24    2.57    3.47
   1   2 -24    9.29    5.14
  -1  -2  25   12.03    4.50
   1   2 -25    1.25    3.80
  -1  -2  26   10.35    5.27
   1   2 -26   16.47    5.41
   0  -2 -26   -2.09    3.81
   0   2  26   -1.19    2.23
   0  -2 -25    8.19    4.94
   0   2  25    8.79    4.40
   0  -2 -24   -5.60    3.82
   0  -2 -23   -9.29    4.20
   0   2  23    5.71    4.58
   0  -2 -22    1.10    4.47
   0   2  22   -5.75    4.73
   0  -2 -21    4.86    5.14
   0   2  21   -0.14    4.18
   0  -2 -20   12.44    8.29
   0   2  20   -1.14    3.66
   0  -2 -19   32.25   10.96
   0   2  19   23.69    4.35
   0  -2 -18   65.37    5.78
   0   2  18   59.59    6.05
   0  -2 -17   -0.64    3.86
   0   2  17    2.65    3.71
   0  -2 -16   10.46    4.10
   0   2  16   10.42    3.52
   0  -2 -15    0.15    2.73
   0   2  15    4.40    3.17
   0  -2 -14    7.11    4.34
   0   2  14    1.25    4.32
   0  -2 -13   -0.36    2.91
   0   2  13    6.83    3.54
   0  -2 -12  305.55   14.73
   0   2  12  297.47   14.46
   0  -2 -11  819.78   29.53
   0   2  11  811.95   34.26
   0  -2 -10  137.46    7.69
   0   2  10  138.53    8.80
   0  -2  -9    0.24    1.91
   0   2   9   -4.67    2.20
   0  -2  -8    5.72    2.67
   0   2   8    3.30    1.76
   0  -2  -7  141.85    7.19
   0   2   7  139.27    7.47
   0  -2  -6    5.39    2.27
   0   2   6    9.70    2.44
   0  -2  -5   48.75    3.63
   0   2   5   51.62    3.23
   0  -2  -4 1498.36   51.58
   0   2   4 1356.07   49.06
   0  -2  -3  421.48   17.35
   0   2   3  479.72   20.75
   0  -2  -2  230.41    9.08
   0   2   2  201.43    9.58
   0  -2  -1  389.30   16.73
   0   2   1  395.10   16.15
   0  -2   0   89.27    4.67
   0   2   0   91.41    5.25
   0  -2   1  350.36   14.04
   0   2  -1  390.89   15.54
   0  -2   2  221.75    9.17
   0   2  -2  225.50    8.70
   0  -2   3  432.28   16.88
   0   2  -3  410.47   16.59
   0  -2   4 1396.20   51.95
   0   2  -4 1344.71   47.04
   0   2  -5   50.02    3.59
   0   2  -5   51.76    3.66
   0   2  -6    3.40    1.95
   0   2  -6    4.50    2.08
   0   2  -7  136.92    6.65
   0   2  -7  136.02    6.96
   0   2  -8    3.25    2.16
   0  -2   9   -3.35    2.57
   0   2  -9   -1.74    1.88
   0   2  -9   -0.09    2.15
   0  -2  10  140.08    7.50
   0   2 -10  143.59    8.19
   0  -2  11  809.17   34.42
   0   2 -11  793.38   30.47
   0  -2  12  285.45   13.69
   0   2 -12  264.75   12.17
   0  -2  13    4.71    3.16
   0   2 -13    8.56    3.23
   0  -2  14   -0.25    2.64
   0   2 -14    0.36    2.55
   0  -2  15   -2.14    2.61
   0   2 -15   -3.92    3.02
   0  -2  16   17.64    3.63
   0   2 -16   13.04    3.17
   0  -2  17   -9.46    3.34
   0   2 -17    5.13    3.77
   0  -2  18   74.37    6.45
   0   2 -18   71.01    6.59
   0  -2  19   27.14    5.24
   0   2 -19   38.78    8.98
   0  -2  20    3.74    3.33
   0   2 -20   -0.19    4.27
   0  -2  21   -1.92    3.84
   0   2 -21   -3.38    3.30
   0  -2  22    8.88    5.35
   0   2 -22    0.86    5.68
   0  -2  23    1.79    4.43
   0   2 -23    6.02    4.15
   0  -2  24    4.47    4.14
   0   2 -24   16.71    6.76
   0  -2  25   13.12    5.74
   0   2 -25   13.01    5.11
   0  -2  26    5.18    5.19
   0   2 -26    5.27    6.31
   1  -2 -26    0.33    3.70
  -1   2  26    4.21    2.98
   1  -2 -25   51.75   12.51
  -1   2  25    4.87    3.31
   1  -2 -24   -0.69    4.26
  -1   2  24   -3.11    3.18
   1  -2 -23    5.19    6.04
  -1   2  23   -6.89    3.99
   1  -2 -22   -7.57    5.26
  -1   2  22   -6.16    3.93
   1  -2 -21   -9.38    3.81
  -1   2  21   -2.67    3.95
   1  -2 -20   19.93    4.90
  -1   2  20   14.31    3.93
   1  -2 -19   45.75    5.09
  -1   2  19   42.48    5.56
   1  -2 -18   31.37    4.17
  -1   2  18   43.09    5.41
   1  -2 -17   28.88    4.00
  -1   2  17   26.39    4.59
   1  -2 -16    6.40    3.68
  -1   2  16    5.75    3.57
   1  -2 -15   -1.65    3.74
  -1   2  15   -2.85    3.10
   1  -2 -14   14.04    3.80
  -1   2  14   19.90    4.00
   1  -2 -13    4.48    3.54
  -1   2  13    0.47    3.15
   1  -2 -12   78.46    5.26
  -1   2  12   80.29    5.64
   1  -2 -11   27.43    3.66
  -1   2  11   31.32    3.83
   1  -2 -10   19.32    4.17
  -1   2  10   17.25    3.21
   1  -2  -9  109.61    5.80
  -1   2   9  106.86    5.71
   1  -2  -8   68.60    4.30
  -1   2   8   68.09    4.27
   1  -2  -7   15.55    3.03
  -1   2   7   12.55    2.44
   1  -2  -6   19.29    4.46
  -1   2   6   28.17    2.64
   1  -2  -5   23.51    2.90
  -1   2   5   21.55    2.88
   1  -2  -4   35.75    2.81
  -1   2   4   41.14    3.51
   1  -2  -3   96.20    5.00
  -1   2   3  102.92    5.70
   1  -2  -2   34.40    2.99
  -1   2   2   39.26    3.35
   1  -2  -1   29.08    3.54
  -1   2   1   33.48    2.89
   1  -2   0    2.73    1.98
  -1   2   0   -1.48    1.94
   1  -2   1   35.85    2.99
  -1   2  -1   35.31    3.14
   1  -2   2   40.22    3.57
  -1   2  -2   33.69    2.86
   1  -2   3   98.92    6.19
  -1   2  -3   98.26    5.55
  -1   2  -4   36.86    2.87
  -1   2  -4   35.61    3.49
  -1   2  -5   17.36    2.58
  -1   2  -5   18.89    2.50
  -1   2  -6   17.47    2.74
  -1   2  -6   16.72    2.74
  -1   2  -7   14.68    3.18
  -1   2  -7   12.88    2.93
   1  -2   8   70.20    7.67
  -1   2  -8   54.60    4.62
  -1   2  -8   58.00    4.40
   1  -2   9  113.07    5.64
  -1   2  -9  114.60    6.21
   1  -2  10   17.62    3.39
  -1   2 -10   19.45    4.00
   1  -2  11   25.53    3.90
  -1   2 -11   22.29    2.77
   1  -2  12   70.60    5.51
  -1   2 -12   75.94    6.22
   1  -2  13   -2.76    2.82
  -1   2 -13    4.90    2.81
   1  -2  14   11.34    4.11
  -1   2 -14   13.42    3.03
   1  -2  15   -3.53    3.55
  -1   2 -15    6.63    2.86
   1  -2  16    7.81    3.97
  -1   2 -16    4.31    2.92
   1  -2  17   19.38    3.88
  -1   2 -17   27.04    4.72
   1  -2  18   37.52    5.80
  -1   2 -18   44.27    5.55
   1  -2  19   35.73    4.46
  -1   2 -19   34.63    4.75
   1  -2  20   13.85    3.74
  -1   2 -20    5.84    3.84
   1  -2  21    0.21    5.19
  -1   2 -21    8.40    4.31
   1  -2  22   13.05    5.35
  -1   2 -22    5.44    4.63
   1  -2  23    3.17    4.87
  -1   2 -23    0.39    4.43
   1  -2  24    2.38    4.91
  -1   2 -24    1.54    5.26
   1  -2  25    2.64    4.17
  -1   2 -25    1.15    4.78
   1  -2  26    2.09    6.34
  -1   2 -26    2.54    4.15
   2  -2 -26   12.23    5.17
  -2   2  26   -0.89    2.56
   2  -2 -25    7.44    4.33
  -2   2  25    1.88    3.24
   2  -2 -24   -0.49    5.00
  -2   2  24    0.46    3.54
   2  -2 -23    2.73    6.25
  -2   2  23    0.58    3.71
   2  -2 -22    9.75    5.13
  -2   2  22   -3.76    3.04
   2  -2 -21   14.41    4.29
  -2   2  21    5.52    3.69
   2  -2 -20   -1.04    3.88
  -2   2  20    1.15    5.22
   2  -2 -19    1.55    3.95
  -2   2  19    1.78    3.87
   2  -2 -18   -0.77    3.54
  -2   2  18    8.15    4.17
   2  -2 -17   39.50    8.80
  -2   2  17   19.94    4.27
   2  -2 -16   10.49    3.43
  -2   2  16    7.49    4.94
   2  -2 -15    1.43    3.09
  -2   2  15    3.59    2.84
   2  -2 -14   13.91    5.41
  -2   2  14    9.34    2.68
   2  -2 -13   29.77    3.87
  -2   2  13   32.45    3.46
   2  -2 -12    3.99    2.89
  -2   2  12   10.93    2.54
   2  -2 -11  121.10    6.34
  -2   2  11  121.91    7.78
   2  -2 -10   14.04    2.75
  -2   2  10   17.11    2.56
   2  -2  -9   31.92    3.69
  -2   2   9   25.08    3.17
   2  -2  -8   14.96    2.69
  -2   2   8   12.61    1.86
   2  -2  -7    3.17    2.26
  -2   2   7    5.53    2.72
   2  -2  -6   -1.46    1.59
  -2   2   6   -0.36    2.23
   2  -2  -5  112.45    5.96
  -2   2   5  105.19    4.96
   2  -2  -4    7.77    2.71
  -2   2   4    5.26    2.26
   2  -2  -3   46.06    3.30
  -2   2   3   43.35    3.66
   2  -2  -2    2.94    3.23
  -2   2   2    1.02    2.13
   2  -2  -1  176.50    8.11
  -2   2   1  188.48    8.72
   2  -2   0   13.70    2.88
  -2   2   0    6.95    2.47
   2  -2   1  167.99    8.21
  -2   2  -1  168.96    8.52
   2  -2   2    2.17    1.92
  -2   2  -2    0.67    1.92
   2  -2   3   31.71    3.15
  -2   2  -3   35.44    2.60
  -2   2  -3   40.17    3.04
  -2   2  -4    6.60    2.42
  -2   2  -4   -1.51    2.88
  -2   2  -5  111.52    5.99
  -2   2  -5  106.96    6.00
  -2   2  -6    0.82    2.69
  -2   2  -6   -0.43    2.58
  -2   2  -7    1.33    2.39
  -2   2  -7   -2.08    2.27
   2  -2   8   16.84    2.58
  -2   2  -8   13.97    2.59
   2  -2   9   34.27    4.45
  -2   2  -9   35.93    3.45
   2  -2  10    3.52    3.24
  -2   2 -10   19.56    5.07
   2  -2  11  118.57    7.31
  -2   2 -11  133.36    7.76
   2  -2  12   -0.85    3.42
  -2   2 -12    6.53    2.93
   2  -2  13   28.12    3.88
  -2   2 -13   23.66    3.14
   2  -2  14   24.45    6.26
  -2   2 -14    2.00    2.64
   2  -2  15    2.79    4.01
  -2   2 -15   15.87    3.86
   2  -2  16    5.43    3.71
  -2   2 -16    8.06    2.95
   2  -2  17   26.21    4.38
  -2   2 -17   17.91    4.29
   2  -2  18   -3.09    4.07
  -2   2 -18    9.31    3.54
   2  -2  19   -1.37    3.72
  -2   2 -19   -4.08    3.32
   2  -2  20    2.66    3.72
  -2   2 -20   -2.86    5.36
   2  -2  21    6.62    4.02
  -2   2 -21   -2.39    5.52
   2  -2  22    0.52    6.07
  -2   2 -22   13.29    5.02
   2  -2  23    4.69    5.31
  -2   2 -23    2.75    4.51
   2  -2  24   -1.25    4.35
  -2   2 -24   17.83    8.30
   2  -2  25    8.64    4.24
  -2   2 -25   -4.80    3.91
   2  -2  26   -9.01    6.47
  -2   2 -26   -3.23    4.53
   3  -2 -25   10.14    5.93
  -3   2  25   -2.69    2.80
   3  -2 -24   -1.29    4.54
  -3   2  24    1.42    2.29
   3  -2 -23    4.57    3.92
  -3   2  23    7.98    4.23
   3  -2 -22   38.75    5.30
  -3   2  22   28.14    8.24
   3  -2 -21   -3.68    3.31
  -3   2  21   21.78    6.17
   3  -2 -20   28.60    5.42
  -3   2  20   18.94    4.56
   3  -2 -19   37.84    5.34
  -3   2  19   34.99    5.14
   3  -2 -18   48.38    6.40
  -3   2  18   28.41    5.34
   3  -2 -17   16.46    3.54
  -3   2  17   29.27    4.55
   3  -2 -16   12.70    6.36
  -3   2  16    4.28    2.69
   3  -2 -15    7.31    3.35
  -3   2  15    2.58    2.64
   3  -2 -14   50.61    5.28
  -3   2  14   55.43    5.30
   3  -2 -13    3.74    2.77
  -3   2  13   -0.75    2.65
   3  -2 -12   53.63    4.19
  -3   2  12   57.84    5.06
   3  -2 -11   48.04    3.93
  -3   2  11   44.15    3.54
   3  -2 -10  183.78    8.11
  -3   2  10  187.78    8.33
   3  -2  -9  210.58    9.84
  -3   2   9  228.78   10.53
   3  -2  -8  340.43   14.15
  -3   2   8  388.01   15.11
   3  -2  -7   44.82    3.42
  -3   2   7   31.93    3.19
   3  -2  -6    3.57    2.28
  -3   2   6    7.47    2.52
   3  -2  -5   10.62    2.96
  -3   2   5    9.89    2.30
   3  -2  -4   68.82    3.93
  -3   2   4   63.77    3.58
   3  -2  -3  111.03    7.87
  -3   2   3   98.78    5.37
   3  -2  -2  115.29    5.24
  -3   2   2  134.60    6.81
   3  -2  -1   68.00    4.29
  -3   2   1   61.93    4.01
   3  -2   0    1.75    2.40
  -3   2   0    1.71    2.24
   3  -2   1   56.97    5.06
  -3   2  -1   55.09    4.12
   3  -2   2  122.53    7.84
  -3   2  -2  131.07    6.26
  -3   2  -2  124.35    6.48
  -3   2  -3  101.30    5.63
  -3   2  -3   97.51    6.50
  -3   2  -4   73.06    3.97
  -3   2  -4   74.91    4.35
  -3   2  -5    8.94    2.39
  -3   2  -5    7.00    2.27
  -3   2  -6    4.61    2.14
  -3   2  -6    1.45    2.26
   3  -2   7   23.59    3.13
  -3   2  -7   49.67    3.90
  -3   2  -7   39.93    3.70
   3  -2   8  351.56   15.95
  -3   2  -8  382.43   17.33
   3  -2   9  228.09   10.33
  -3   2  -9  209.53    9.73
   3  -2  10  171.78    9.42
  -3   2 -10  179.96    9.40
   3  -2  11   47.74    4.76
  -3   2 -11   45.76    4.61
   3  -2  12   49.23    4.88
  -3   2 -12   68.07    6.03
   3  -2  13   -0.57    4.31
  -3   2 -13    9.31    3.74
   3  -2  14   43.04    4.54
  -3   2 -14   46.69    6.58
   3  -2  15    4.68    3.82
  -3   2 -15   12.29    3.66
   3  -2  16    9.01    4.43
  -3   2 -16    8.57    4.36
   3  -2  17   31.33    5.70
  -3   2 -17   25.93    3.99
   3  -2  18   17.54    4.32
  -3   2 -18   59.75   12.54
   3  -2  19   19.26    4.75
  -3   2 -19   35.85    5.29
   3  -2  20   37.46    7.57
  -3   2 -20   23.64    6.22
   3  -2  21    5.44    4.31
  -3   2 -21   -0.97    4.22
   3  -2  22   22.99    4.94
  -3   2 -22   21.62    6.81
   3  -2  23   -9.32    4.62
  -3   2 -23    5.31    4.44
   3  -2  24  -11.07    5.91
  -3   2 -24    3.34    4.93
   3  -2  25   -8.42    5.51
  -3   2 -25    9.47    4.69
   4  -2 -25   -3.09    3.05
  -4   2  25    0.47    3.33
   4  -2 -24   13.28    5.10
  -4   2  24    1.49    3.26
   4  -2 -23   15.34    3.84
  -4   2  23    0.95    2.36
   4  -2 -22    8.80    5.08
  -4   2  22    0.33    2.40
   4  -2 -21    6.92    3.72
  -4   2  21   10.57    4.09
   4  -2 -20    5.26    4.14
  -4   2  20    1.88    3.24
   4  -2 -19   16.28    4.34
  -4   2  19    1.48    3.58
   4  -2 -18   12.67    6.33
  -4   2  18   11.05    3.84
   4  -2 -17    1.45    3.24
  -4   2  17    1.65    2.84
  -4   2  16   -2.50    3.29
   4  -2 -15    6.99    3.57
  -4   2  15    2.41    3.69
   4  -2 -14    9.75    3.40
  -4   2  14    9.93    3.17
   4  -2 -13    5.55    2.41
  -4   2  13    9.93    3.11
   4  -2 -12  151.69    8.31
  -4   2  12  178.80    8.64
   4  -2 -11   88.99    5.37
  -4   2  11   89.45    6.37
   4  -2 -10   36.37    5.80
  -4   2  10   44.10    4.18
   4  -2  -9   87.51    5.04
  -4   2   9   85.48    5.15
   4  -2  -8   -1.29    2.40
  -4   2   8    8.15    2.38
   4  -2  -7   17.78    2.41
  -4   2   7   22.34    2.76
   4  -2  -6   49.22    3.68
  -4   2   6   48.96    3.29
   4  -2  -5  142.90    7.24
  -4   2   5  148.26    6.58
   4  -2  -4  446.55   16.43
  -4   2   4  490.62   18.66
   4  -2  -3  134.54    7.13
  -4   2   3  131.61    7.17
   4  -2  -2  244.38   11.08
  -4   2   2  279.65   12.44
   4  -2  -1  104.62    5.64
  -4   2   1  104.48    5.48
   4  -2   0   93.87    7.34
  -4   2   0   96.55    5.01
   4  -2   1  103.48    6.07
  -4   2  -1  103.32    5.53
  -4   2  -1   93.74    5.71
  -4   2  -2  263.60   12.74
  -4   2  -2  269.68   12.25
  -4   2  -3  137.94    8.41
  -4   2  -3  140.57    8.14
  -4   2  -4  470.47   17.17
  -4   2  -4  446.10   19.90
  -4   2  -5  160.29    9.21
  -4   2  -5  151.49    9.47
  -4   2  -6   43.94    4.93
  -4   2  -6   36.19    3.53
   4  -2   7   12.51    3.44
  -4   2  -7   17.63    3.02
  -4   2  -7   18.47    3.00
   4  -2   8    3.14    2.58
  -4   2  -8    3.93    2.98
   4  -2   9   83.23    5.75
  -4   2  -9   93.04    5.54
   4  -2  10   38.55    4.20
  -4   2 -10   26.94    4.20
   4  -2  11   90.37    6.78
  -4   2 -11   83.71    5.43
   4  -2  12  164.51    8.91
  -4   2 -12  191.56    8.78
   4  -2  13   -5.44    4.50
  -4   2 -13   23.08    5.01
   4  -2  14    8.95    3.63
  -4   2 -14   17.43    5.67
   4  -2  15    5.99    3.89
  -4   2 -15    3.62    3.60
   4  -2  16   -1.16    3.65
  -4   2 -16    6.76    4.45
   4  -2  17   -1.93    4.63
  -4   2 -17    1.96    4.38
   4  -2  18    2.16    4.48
  -4   2 -18    6.89    3.94
   4  -2  19   13.23    5.57
  -4   2 -19    4.50    4.03
   4  -2  20    0.76    4.14
  -4   2 -20    2.95    3.77
   4  -2  21   -0.89    4.49
  -4   2 -21    5.64    5.28
   4  -2  22    3.46    4.40
  -4   2 -22    8.14    5.20
   4  -2  23   11.93    4.92
  -4   2 -23   16.59    9.16
   4  -2  24    2.10    4.87
  -4   2 -24   -7.60    4.60
   4  -2  25    0.89    5.82
  -4   2 -25   19.28    9.73
   5  -2 -24   10.41    4.54
  -5   2  24    1.27    1.74
   5  -2 -23   -1.05    3.98
  -5   2  23   -0.93    2.82
   5  -2 -22   23.79    5.92
  -5   2  22    4.71    2.79
   5  -2 -21    9.83    5.04
  -5   2  21    2.59    2.77
   5  -2 -20    2.17    3.62
  -5   2  20   -1.97    2.81
   5  -2 -19    3.14    3.39
  -5   2  19    0.51    3.76
   5  -2 -18   10.05    2.83
  -5   2  18   14.79    4.05
   5  -2 -17   16.56    3.29
  -5   2  17   21.64    3.73
   5  -2 -16   21.15    5.86
  -5   2  16   16.80    3.17
   5  -2 -15   -0.37    2.39
  -5   2  15    2.03    7.33
   5  -2 -14   46.09    4.26
  -5   2  14   46.64    4.24
   5  -2 -13   10.37    3.58
  -5   2  13   -0.44    2.69
   5  -2 -12    8.60    2.75
  -5   2  12    3.68    2.59
   5  -2 -11   24.45    3.46
  -5   2  11   33.75    3.25
   5  -2 -10   -7.21    2.55
  -5   2  10   -1.82    2.03
   5  -2  -9   10.38    2.52
  -5   2   9    8.51    2.07
   5  -2  -8  130.98    8.81
  -5   2   8  172.71    8.13
   5  -2  -7    7.52    2.42
  -5   2   7    8.97    2.50
   5  -2  -6  105.75    5.48
  -5   2   6  111.28    4.92
   5  -2  -5    5.77    2.84
  -5   2   5    3.79    1.96
   5  -2  -4   61.18    5.34
  -5   2   4   57.65    3.86
   5  -2  -3   37.68    3.97
  -5   2   3   31.16    2.77
   5  -2  -2   75.45    5.49
  -5   2   2   83.29    4.87
   5  -2  -1    8.39    2.31
  -5   2   1    8.17    2.22
   5  -2   0   -0.22    1.82
  -5   2   0   -3.83    2.28
  -5   2   0   -0.86    1.91
  -5   2  -1    5.16    1.79
  -5   2  -1    6.34    2.30
  -5   2  -2   78.68    5.95
  -5   2  -2   85.22    5.07
  -5   2  -3   41.79    3.65
  -5   2  -3   32.90    3.19
  -5   2  -4   79.89   12.10
  -5   2  -4   55.86    4.75
  -5   2  -5    4.37    3.72
  -5   2  -5    0.45    2.61
  -5   2  -6  103.61    6.44
  -5   2  -6  118.74    7.58
   5  -2   7    6.32    3.13
  -5   2  -7   14.21    5.71
  -5   2  -7   10.43    2.95
   5  -2   8  150.98    8.88
  -5   2  -8  162.29    8.18
   5  -2   9    6.37    2.98
  -5   2  -9    7.98    2.58
   5  -2  10    7.15    3.91
  -5   2 -10    3.66    3.29
   5  -2  11   28.76    5.23
  -5   2 -11   24.33    3.73
   5  -2  12    2.33    3.79
  -5   2 -12    1.16    4.46
   5  -2  13    1.31    3.63
  -5   2 -13   -4.66    2.92
   5  -2  14   45.36    5.30
  -5   2 -14   50.72    5.42
   5  -2  15    2.82    5.15
  -5   2 -15    0.49    3.33
   5  -2  16    5.33    3.78
  -5   2 -16    7.83    3.78
   5  -2  17   19.27    5.75
  -5   2 -17   38.85    5.23
   5  -2  18    1.82    4.02
  -5   2 -18   17.83    6.41
   5  -2  19   -1.32    4.47
  -5   2 -19  -14.65    5.22
   5  -2  20    7.84    4.27
  -5   2 -20   11.87    4.11
   5  -2  21    5.70    5.31
  -5   2 -21    0.99    4.20
   5  -2  22    8.44    5.37
  -5   2 -22   12.79    6.46
   5  -2  23    9.45    6.10
  -5   2 -23    1.83    4.79
   5  -2  24    2.66    5.20
  -5   2 -24    9.16    6.43
   6  -2 -23   -6.63    3.38
  -6   2  23    0.01    1.26
   6  -2 -22   16.50    5.61
  -6   2  22   -0.40    3.19
   6  -2 -21    9.92    3.59
  -6   2  21    3.33    2.44
   6  -2 -20   13.38    3.91
  -6   2  20   12.51    3.21
   6  -2 -19   -9.03    3.54
  -6   2  19    5.03    3.84
   6  -2 -18   -0.46    2.64
  -6   2  18    1.10    3.54
   6  -2 -17   29.41    4.62
  -6   2  17   40.15    4.84
   6  -2 -16    6.17    3.66
  -6   2  16    2.69    2.51
   6  -2 -15    5.59    3.75
  -6   2  15    3.25    2.70
   6  -2 -14   18.09    3.53
  -6   2  14   24.14    4.09
   6  -2 -13   69.14    5.76
  -6   2  13   78.02    5.40
   6  -2 -12   19.99    3.30
  -6   2  12   42.25    5.20
   6  -2 -11   35.08    3.48
  -6   2  11   36.24    3.68
   6  -2 -10   11.93    3.56
  -6   2  10   14.60    2.62
   6  -2  -9    6.18    3.08
  -6   2   9    0.45    1.91
   6  -2  -8   23.07    3.39
  -6   2   8   18.39    2.66
   6  -2  -7   23.48    3.68
  -6   2   7   12.87    2.55
   6  -2  -6   11.52    3.66
  -6   2   6    6.50    2.14
   6  -2  -5   31.38    3.21
  -6   2   5   28.47    2.81
   6  -2  -4    6.84    3.10
  -6   2   4    1.15    2.42
   6  -2  -3   -5.23    2.29
  -6   2   3    0.05    1.78
   6  -2  -2   26.42    3.06
  -6   2   2   31.20    2.91
  -6   2   1  152.97    8.33
  -6   2   1  132.30    8.69
  -6   2   0    1.51    2.59
  -6   2   0   13.64    3.54
  -6   2  -1  142.80    9.10
  -6   2  -1  150.21    7.83
  -6   2  -2   32.47    2.91
  -6   2  -2   23.86    3.46
  -6   2  -3    0.36    2.36
  -6   2  -3   -8.54    2.99
  -6   2  -4    3.74    2.42
  -6   2  -4    4.75    4.14
  -6   2  -5   37.06    3.81
  -6   2  -5   24.84    4.21
  -6   2  -6    7.85    3.33
  -6   2  -6   14.69    8.05
  -6   2  -7   17.19    3.07
  -6   2  -7   11.40    3.27
   6  -2   8   20.88    3.54
  -6   2  -8   24.35    3.62
  -6   2  -8   27.92    3.56
   6  -2   9    5.42    3.64
  -6   2  -9   -1.40    3.15
   6  -2  10    5.11    3.85
  -6   2 -10   23.18    5.33
   6  -2  11   26.50    3.87
  -6   2 -11   39.73    4.51
   6  -2  12   18.95    4.01
  -6   2 -12   25.23    4.06
   6  -2  13   56.83    7.08
  -6   2 -13   72.10    7.30
   6  -2  14   17.25    4.66
  -6   2 -14   19.91    4.92
   6  -2  15    1.21    3.54
  -6   2 -15   -2.14    4.38
   6  -2  16    1.04    4.33
  -6   2 -16    1.08    3.94
   6  -2  17   56.74    9.73
  -6   2 -17   47.43    5.85
   6  -2  18   -6.62    4.12
  -6   2 -18    3.20    4.39
   6  -2  19    9.99    5.49
  -6   2 -19   23.78    8.58
   6  -2  20   14.48    5.25
  -6   2 -20   11.51    5.94
   6  -2  21   12.67    6.85
  -6   2 -21   26.31    8.43
   6  -2  22    6.68    5.84
  -6   2 -22    4.17    4.68
   6  -2  23   -7.78    4.47
  -6   2 -23   10.73    8.29
   7  -2 -21    5.39    2.98
  -7   2  21   -1.56    2.74
   7  -2 -20    8.91    3.73
  -7   2  20    0.58    2.78
   7  -2 -19    2.02    3.06
  -7   2  19  182.53   24.71
   7  -2 -18    3.17    3.39
  -7   2  18   -2.83    2.81
   7  -2 -17   54.45   10.03
  -7   2  17   26.95    4.06
   7  -2 -16   27.05    3.52
  -7   2  16   29.20    3.38
   7  -2 -15    2.45    2.73
  -7   2  15    4.21    2.39
  -7   2  14    9.65    2.87
   7  -2 -13    0.65    3.09
  -7   2  13    5.49    2.41
   7  -2 -12   14.48    3.74
  -7   2  12   21.20    3.27
   7  -2 -11   14.17    4.29
  -7   2  11    7.98    2.25
   7  -2 -10   67.26    5.44
  -7   2  10   58.32    3.62
   7  -2  -9   83.87    5.42
  -7   2   9   86.95    5.03
   7  -2  -8   13.25    4.34
  -7   2   8    3.45    2.08
   7  -2  -7   13.49    3.86
  -7   2   7   11.47    2.19
   7  -2  -6   28.44    3.71
  -7   2   6   16.45    2.63
   7  -2  -5   33.37    4.37
  -7   2   5   26.23    2.77
   7  -2  -4    4.50    2.26
  -7   2   4    8.59    2.18
   7  -2  -3  105.11    6.96
  -7   2   3  110.10    5.09
  -7   2   3  116.93    8.10
  -7   2   2   49.99    4.47
  -7   2   2   42.22    4.34
  -7   2   1    0.02    1.89
  -7   2   1    2.12    2.46
  -7   2   0   -1.90    1.98
  -7   2   0   -1.09    2.29
  -7   2  -1    4.43    2.39
  -7   2  -1   -0.11    2.43
  -7   2  -2   50.01    4.20
  -7   2  -2   41.01    4.56
  -7   2  -3   93.63    5.69
  -7   2  -3  107.57    7.26
  -7   2  -4    9.84    2.66
  -7   2  -4    9.13    2.52
  -7   2  -5   32.81    5.29
  -7   2  -5   27.84    3.76
  -7   2  -6    9.68    3.63
  -7   2  -6   11.03    3.28
  -7   2  -7    1.47    2.82
  -7   2  -7    5.93    3.28
   7  -2   8    1.66    2.36
  -7   2  -8    2.14    2.93
  -7   2  -8    3.86    2.91
   7  -2   9   71.57    6.02
  -7   2  -9   81.60    5.42
  -7   2  -9   85.14    6.55
   7  -2  10   62.63    5.89
  -7   2 -10   57.42    5.27
   7  -2  11    6.55    3.18
  -7   2 -11    3.44    4.25
   7  -2  12   17.66    4.41
  -7   2 -12   12.52    4.04
   7  -2  13    0.92    3.92
  -7   2 -13   -4.25    4.40
   7  -2  14    5.29    4.05
  -7   2 -14    6.85    3.64
   7  -2  15    2.91    4.02
  -7   2 -15   -0.21    4.87
   7  -2  16   38.61    5.84
  -7   2 -16   27.12    4.87
   7  -2  17   29.08    7.00
  -7   2 -17   21.46    5.19
   7  -2  18   -4.29    4.13
  -7   2 -18   -2.76    5.15
   7  -2  19    5.53    6.90
  -7   2 -19   15.67    6.39
   7  -2  20   16.44    5.67
  -7   2 -20    8.02    5.45
   7  -2  21  -10.93    4.45
  -7   2 -21   -0.94    4.70
   7  -2  22   -9.20    4.62
  -7   2 -22    5.81    6.68
   8  -2 -19    8.14    2.72
  -8   2  19    0.00    2.96
   8  -2 -18   -2.87    1.89
  -8   2  18    4.31    3.05
   8  -2 -17   -1.80    2.43
  -8   2  17    5.83    3.10
   8  -2 -16    0.74    3.75
  -8   2  16    2.59    4.33
   8  -2 -15    3.30    3.46
  -8   2  15    3.61    2.52
   8  -2 -14   -1.73    2.34
  -8   2  14    6.04    3.75
   8  -2 -13   14.53    3.86
  -8   2  13   -0.86    2.48
   8  -2 -12   38.99    8.75
  -8   2  12   18.99    3.06
   8  -2 -11   35.55    4.92
  -8   2  11   16.44    2.17
   8  -2 -10   22.40    4.15
  -8   2  10   18.32    2.44
   8  -2  -9   36.22    4.27
  -8   2   9   26.18    3.32
   8  -2  -8    6.66    4.65
  -8   2   8    0.23    1.83
   8  -2  -7   38.37    4.68
  -8   2   7   21.52    2.76
   8  -2  -6   25.38    4.15
  -8   2   6   16.13    2.32
   8  -2  -5   98.58    7.64
  -8   2   5  112.94    7.08
  -8   2   5  104.24    6.57
  -8   2   4  106.34    6.04
  -8   2   4   96.27    6.55
  -8   2   3   24.29    5.40
  -8   2   3   17.24    3.25
  -8   2   2   42.68    3.68
  -8   2   2   45.53    3.42
  -8   2   1   12.22    2.43
  -8   2   1    6.85    2.99
  -8   2   0    2.96    3.04
  -8   2   0   -8.08    3.09
  -8   2  -1   13.55    3.28
  -8   2  -1   13.10    2.76
  -8   2  -2   44.89    3.39
  -8   2  -2   46.58    4.02
  -8   2  -3   18.35    3.61
  -8   2  -3   17.56    5.11
  -8   2  -4   97.28    5.59
  -8   2  -4   99.70    7.45
  -8   2  -5  111.96    8.72
  -8   2  -5  108.20    6.92
  -8   2  -6   12.72    2.83
  -8   2  -6    9.73    3.64
  -8   2  -7   20.37    4.03
  -8   2  -7   25.50    3.85
  -8   2  -8    5.64    4.02
  -8   2  -8    1.72    3.56
   8  -2   9   29.91    4.53
  -8   2  -9   35.41    4.41
  -8   2  -9   26.81    4.15
   8  -2  10   13.66    3.52
  -8   2 -10   21.06    4.60
   8  -2  11   14.51    3.69
  -8   2 -11   19.85    3.98
   8  -2  12   22.55    3.76
  -8   2 -12   18.77    3.94
   8  -2  13   -1.82    4.57
  -8   2 -13   12.25    6.81
   8  -2  14    7.52    4.88
  -8   2 -14    1.98    5.78
   8  -2  15    4.32    4.65
  -8   2 -15   -2.70    5.46
   8  -2  16   -7.43    3.68
  -8   2 -16    4.40    5.06
   8  -2  17   14.82   11.25
  -8   2 -17    7.32    5.56
   8  -2  18   -1.23    4.39
  -8   2 -18   23.15    8.47
   8  -2  19   18.42    5.94
  -8   2 -19   22.09    4.53
   8  -2  20   16.21    6.23
   8  -2  21    4.47    4.58
  -8   2 -21   18.01    9.05
   9  -2 -17    5.02    2.93
  -9   2  17    3.74    2.32
   9  -2 -16    2.50    2.42
  -9   2  16   -2.49    3.45
   9  -2 -15   43.73   11.97
  -9   2  15    9.05    2.52
   9  -2 -14   20.49    5.38
  -9   2  14    3.24    2.22
   9  -2 -13   -3.78    2.22
  -9   2  13    2.00    2.52
   9  -2 -12   -1.19    2.59
  -9   2  12   -0.53    2.81
   9  -2 -11   -0.87    1.97
  -9   2  11    4.45    2.65
   9  -2 -10   54.79   12.09
  -9   2  10   11.34    2.72
   9  -2  -9   -4.74    3.27
  -9   2   9    3.37    2.32
   9  -2  -8   15.83    4.58
  -9   2   8    9.65    2.15
   9  -2  -7   11.60    3.86
  -9   2   7   -0.89    1.88
  -9   2   7    0.65    2.03
  -9   2   6    1.09    2.29
  -9   2   6   11.66    5.45
  -9   2   5    5.93    2.54
  -9   2   5    5.51    2.25
  -9   2   4   50.52    4.81
  -9   2   4   54.20    5.12
  -9   2   3    5.58    2.72
  -9   2   3    1.49    2.82
  -9   2   2   -1.30    3.01
  -9   2   2    6.92    2.81
  -9   2   1   26.09    3.34
  -9   2   1   29.85    6.50
  -9   2   0   -4.36    2.77
  -9   2   0    2.71    2.91
  -9   2  -1   12.18    2.82
  -9   2  -1   19.24    4.10
  -9   2  -2    4.81    2.62
  -9   2  -2    6.48    3.06
  -9   2  -3    6.24    2.59
  -9   2  -3   11.68    4.19
  -9   2  -4   59.18    5.17
  -9   2  -4   50.67    6.08
  -9   2  -5    0.10    4.18
  -9   2  -6    1.53    3.34
  -9   2  -6   10.04   10.45
  -9   2  -7   -0.21    3.05
  -9   2  -7    5.15    4.14
  -9   2  -8    1.53    3.34
  -9   2  -8   -5.95    3.91
  -9   2  -9    0.17    5.27
  -9   2  -9    3.33    3.64
   9  -2  10   24.91    3.72
  -9   2 -10   11.48    3.55
  -9   2 -10   14.89    4.02
   9  -2  11    0.07    3.62
  -9   2 -11    4.38    3.86
  -9   2 -11   -4.23    3.97
   9  -2  12    2.14    3.68
  -9   2 -12   10.09    4.22
   9  -2  13    4.26    3.93
  -9   2 -13   15.81    4.62
   9  -2  14    1.05    4.21
  -9   2 -14   -5.58    4.38
   9  -2  15   15.91    6.87
  -9   2 -15    3.03    4.59
   9  -2  16    2.70    5.83
  -9   2 -16   -3.26    4.36
   9  -2  17    9.35    5.54
  -9   2 -17   -7.77    4.42
   9  -2  18    1.48    4.74
  -9   2 -18    8.46    5.07
   9  -2  19    3.49    8.06
  -9   2 -19    2.21    5.14
  10  -2 -15   14.95    4.79
  10  -2 -14    2.39    3.19
 -10   2  14   -1.97    1.89
 -10   2  13   20.23    5.22
  10  -2 -12   10.14    3.21
 -10   2  12    3.97    2.74
  10  -2 -11    1.52    3.41
 -10   2  11   -1.96    2.29
  10  -2 -10    4.32    2.86
 -10   2  10    3.30    2.28
 -10   2  10   -0.54    2.88
 -10   2   9    8.25    2.65
 -10   2   9   16.66    3.38
 -10   2   8    2.12    2.52
 -10   2   8    3.25    2.34
 -10   2   7    3.69    2.21
 -10   2   7    4.85    3.18
 -10   2   6   12.45    2.82
 -10   2   6    8.58    3.57
 -10   2   5   44.60    3.46
 -10   2   5   40.18    3.91
 -10   2   4    1.78    2.88
 -10   2   4    9.06    3.60
 -10   2   3   -0.24    2.23
 -10   2   3    2.10    5.49
 -10   2   2   11.66    2.95
 -10   2   2   22.63    3.24
 -10   2   1   10.15    2.31
 -10   2   1    8.77    3.20
 -10   2   0    6.59    2.37
 -10   2   0   12.31    4.81
 -10   2  -1    4.55    2.77
 -10   2  -1   10.72    4.12
 -10   2  -2   13.89    3.09
 -10   2  -2   12.01    3.61
 -10   2  -3   -0.83    2.45
 -10   2  -3    0.37    3.37
 -10   2  -4   -3.08    3.15
 -10   2  -5   34.41    4.59
 -10   2  -5   31.95    4.19
 -10   2  -6   10.36    3.20
 -10   2  -6   20.75    4.50
 -10   2  -7   40.99    8.77
 -10   2  -7    3.38    4.51
 -10   2  -8    0.42    3.80
 -10   2  -8   -2.03    4.78
 -10   2  -9   22.05    5.28
 -10   2  -9   30.43    6.50
 -10   2 -10   -1.10    3.09
 -10   2 -10   13.51    4.72
  10  -2  11   -1.22    3.70
 -10   2 -11    0.44    5.02
 -10   2 -11   -0.31    4.42
  10  -2  12   15.49    5.93
 -10   2 -12    7.09    4.31
 -10   2 -12   -7.30    3.88
  10  -2  13    2.14    5.29
 -10   2 -13   15.12    4.98
  10  -2  14    8.10    4.61
 -10   2 -14   11.84    6.79
  10  -2  15    9.65    5.66
 -10   2 -15   -3.29    5.38
  10  -2  16    0.48    6.68
 -10   2 -16   15.31    5.39
  10  -2  17   19.62    4.86
 -10   2 -17   -1.78    4.13
 -11   2  14    9.62    2.54
 -11   2  13    1.16    2.30
 -11   2  12    2.01    2.40
 -11   2  11    3.41    1.90
 -11   2  11    4.65    2.61
 -11   2  10   -1.36    2.95
 -11   2  10    5.49    3.62
 -11   2   9    6.28    2.29
 -11   2   9    4.99    2.67
 -11   2   8    3.09    1.96
 -11   2   8    8.96    3.98
 -11   2   7    0.70    2.36
 -11   2   7   10.06    3.92
 -11   2   6   -4.94    1.95
 -11   2   6   -0.26    3.58
 -11   2   5    2.92    2.84
 -11   2   5    5.33    3.15
 -11   2   4    6.44    2.66
 -11   2   4   12.00    3.87
 -11   2   3    1.15    2.23
 -11   2   3    2.83    2.90
 -11   2   2   36.50    4.39
 -11   2   2   35.55    4.73
 -11   2   1   14.10    3.80
 -11   2   1   13.02    3.62
 -11   2   0    7.88    2.96
 -11   2   0   -6.29    3.40
 -11   2  -1    8.41    3.70
 -11   2  -1    6.91    4.75
 -11   2  -2   37.36    5.19
 -11   2  -2   40.70    6.65
 -11   2  -3   -5.03    2.79
 -11   2  -3   -3.52    4.44
 -11   2  -4   11.50    3.90
 -11   2  -4   12.40    5.84
 -11   2  -5    2.88    3.90
 -11   2  -5    0.92    3.92
 -11   2  -6    3.50    3.14
 -11   2  -6   -4.81    4.35
 -11   2  -7    8.17    6.11
 -11   2  -7   46.08   12.75
 -11   2  -8    0.05    3.10
 -11   2  -8    6.26    4.51
 -11   2  -9   10.30    4.69
 -11   2  -9    8.40    4.54
 -11   2 -10    7.07    3.51
 -11   2 -10    3.11    5.64
 -11   2 -11    6.55    5.70
 -11   2 -11    9.90    4.92
 -11   2 -12    0.03    3.93
 -11   2 -12   -2.70    4.14
  11  -2  13    1.54    5.24
 -11   2 -13    8.08    3.78
 -11   2 -13   -4.48    4.49
  11  -2  14   12.26    4.91
 -11   2 -14   13.65    4.50
 -11   2 -14    8.92    4.11
 -11   2 -15    0.59    2.29
 -12   2  11   -4.14    3.00
 -12   2  10   -5.23    2.48
 -12   2   9    2.90    1.88
 -12   2   8    2.49    2.52
 -12   2   7   13.09    3.04
 -12   2   7    6.62    3.00
 -12   2   6   11.02    4.59
 -12   2   6   10.85    3.71
 -12   2   5    1.16    2.89
 -12   2   5    5.41    3.28
 -12   2   4    8.10    2.74
 -12   2   4   15.28    4.77
 -12   2   3    4.76    2.80
 -12   2   3   -1.13    3.00
 -12   2   2    3.85    2.25
 -12   2   2    6.15    4.42
 -12   2   1    2.19    2.88
 -12   2   1    2.15    3.89
 -12   2   0   25.51    3.78
 -12   2   0   17.09    4.02
 -12   2  -1    3.56    4.28
 -12   2  -1    4.00    4.06
 -12   2  -2   -1.05    4.39
 -12   2  -3    3.02    3.03
 -12   2  -4    9.51    4.60
 -12   2  -4   27.21    7.10
 -12   2  -5   14.51    4.86
 -12   2  -5    6.07    4.69
 -12   2  -6   -2.23    3.36
 -12   2  -6   -1.18    4.33
 -12   2  -7   27.16    5.90
 -12   2  -7   18.79    5.70
 -12   2  -8   -1.60    3.38
 -12   2  -8    5.70    4.64
 -12   2  -9   11.32    5.50
 -12   2  -9   -8.56    3.93
 -12   2 -10    5.46    3.89
 -12   2 -10    3.50    4.48
 -12   2 -11   -4.18    3.94
 -12   2 -11    9.88    5.26
 -13   2   6    3.34    3.78
 -13   2   5    1.89    3.74
 -13   2   4   -1.67    3.37
 -13   2   3   -0.75    3.19
 -13   2   2   -0.72    3.73
 -13   2   1    2.19    2.77
 -13   2   0    4.57    3.33
 -13   2  -1    4.07    2.92
 -13   2  -2   -1.73    2.99
 -13   2  -2   -0.31    3.16
 -13   2  -3    2.77    3.09
 -13   2  -3    4.28    4.52
 -13   2  -4    4.88    4.09
 -13   2  -4    0.36    3.24
 -13   2  -5   -0.37    3.13
 -13   2  -5   -0.49    4.64
 -13   2  -6    0.72    2.97
 -13   2  -6    6.87    5.35
 -12  -3  -7    1.24    2.61
  12   3   7    3.11    3.96
 -12  -3  -6    7.81    3.88
  12   3   6   10.77    4.09
 -12  -3  -5   -3.43    2.24
  12   3   5    8.52    3.51
 -12  -3  -4    9.04    3.44
  12   3   4    0.32    3.74
  12   3   3   -0.68    2.21
 -12  -3  -2   -1.61    2.05
  12   3   2    4.29    3.05
 -12  -3  -1    4.95    1.78
  12   3   1    3.69    2.51
 -12  -3   0    1.27    2.20
 -12  -3   1    5.56    1.31
  12   3  -1    6.47    1.79
 -11  -3 -11   -0.99    4.71
  11   3  11    0.89    2.79
 -11  -3 -10    2.59    4.25
  11   3  10    0.23    4.15
 -11  -3  -9    2.72    4.74
  11   3   9    3.20    3.11
 -11  -3  -8   15.67    4.16
  11   3   8   -0.52    3.54
 -11  -3  -7    5.41    2.71
  11   3   7    3.12    2.78
 -11  -3  -6   16.67    2.99
  11   3   6   10.32    4.02
 -11  -3  -5    8.66    4.66
  11   3   5   19.14    5.07
 -11  -3  -4    3.32    2.88
  11   3   4    2.45    3.23
 -11  -3  -3    4.57    2.81
  11   3   3    5.71    2.69
 -11  -3  -2    4.98    2.24
  11   3   2    9.23    2.72
 -11  -3  -1    9.39    2.04
  11   3   1   18.42    3.19
 -11  -3   0    1.77    1.84
  11   3   0    0.44    2.06
 -11  -3   1   14.39    1.62
  11   3  -1   28.02    4.02
 -11  -3   2    3.93    1.27
  11   3  -2    4.18    1.95
 -10  -3 -14    1.94    4.22
  10   3  14    2.92    5.40
 -10  -3 -13   -3.63    4.01
  10   3  13    0.02    8.84
 -10  -3 -12   -3.68    5.40
  10   3  12    8.43    3.87
 -10  -3 -11    5.45    4.74
  10   3  11   -3.86    2.81
 -10  -3 -10   13.40    5.43
  10   3  10    6.76    4.69
 -10  -3  -9    2.08    3.32
  10   3   9   -0.11    2.48
 -10  -3  -8   -0.80    3.08
  10   3   8    1.57    4.06
 -10  -3  -7    0.40    4.22
  10   3   7   -0.11    2.40
 -10  -3  -6   -1.31    4.46
  10   3   6    6.51    2.80
 -10  -3  -5    2.91    3.07
  10   3   5    7.07    3.03
 -10  -3  -4   -1.03    2.94
  10   3   4    1.46    2.47
 -10  -3  -3    6.40    2.01
  10   3   3    4.06    2.71
 -10  -3  -2    3.31    2.35
  10   3   2    4.63    2.82
 -10  -3  -1    8.61    2.16
  10   3   1    6.00    2.72
 -10  -3   0    1.11    1.83
  10   3   0    5.23    2.30
 -10  -3   1    7.12    1.49
  10   3  -1   12.46    2.73
 -10  -3   2    4.90    1.43
  10   3  -2    8.67    2.29
 -10  -3   3    7.29    1.42
  10   3  -3    2.53    1.17
  -9  -3 -17   -1.03    3.00
   9   3  17   -7.79    4.00
  -9  -3 -16   18.19    4.69
   9   3  16    3.87    5.98
  -9  -3 -15   -6.22    4.38
   9   3  15    4.68    5.73
  -9  -3 -14    3.30    4.19
   9   3  14    3.40    4.84
  -9  -3 -13   -7.16    4.72
   9   3  13    7.97    5.01
  -9  -3 -12    0.71    4.13
   9   3  12    4.17    3.97
  -9  -3 -11    0.11    4.34
   9   3  11   21.87    6.33
  -9  -3 -10    1.85    4.12
   9   3  10    6.50    5.81
  -9  -3  -9    1.56    3.51
   9   3   9   22.32    9.76
  -9  -3  -8    7.08    3.09
   9   3   8   -0.29    4.12
  -9  -3  -7    3.27    3.40
   9   3   7    6.41    2.79
  -9  -3  -6   26.41    4.59
   9   3   6   13.12    3.36
  -9  -3  -5    3.43    4.15
   9   3   5    7.40    3.55
  -9  -3  -4    1.62    2.20
   9   3   4   -0.35    3.32
  -9  -3  -3    3.50    2.10
   9   3   3    2.54    2.93
  -9  -3  -2   10.74    3.37
   9   3   2    4.21    2.51
  -9  -3  -1   12.18    2.52
   9   3   1    6.47    2.22
  -9  -3   0   20.51    2.38
   9   3   0   25.47    3.78
  -9  -3   1    9.75    1.82
   9   3  -1   10.45    2.60
  -9  -3   2   10.74    2.56
   9   3  -2    8.03    1.86
  -9  -3   3    6.05    1.21
   9   3  -3    7.08    2.58
  -9  -3   4    2.31    1.11
   9   3  -4    1.87    1.67
  -8  -3 -18    6.10    6.22
   8   3  18   -2.56    3.85
  -8  -3 -17   22.81    9.45
   8   3  17    6.30    5.32
  -8  -3 -16    2.70    4.44
   8   3  16   13.31    5.27
  -8  -3 -15   27.42    5.77
   8   3  15    6.81    4.55
  -8  -3 -14    4.11    4.80
   8   3  14   -1.91    6.34
  -8  -3 -13   18.43    4.89
   8   3  13   46.66    8.57
  -8  -3 -12   12.26    4.54
   8   3  12    1.62    4.10
  -8  -3 -11   -1.63    3.53
   8   3  11   12.75    6.43
  -8  -3 -10   21.28    4.04
   8   3  10   19.97    4.08
  -8  -3  -9    3.20    6.39
   8   3   9    7.97    3.90
  -8  -3  -8   16.27    3.46
   8   3   8   14.87    4.61
  -8  -3  -7   -2.82    3.12
   8   3   7    3.31    3.21
  -8  -3  -6   -3.44    2.56
   8   3   6    0.39    3.82
  -8  -3  -5   80.97    5.94
   8   3   5   64.16    6.58
  -8  -3  -4   16.37    3.33
   8   3   4   17.99    4.64
  -8  -3  -3    1.97    2.47
   8   3   3   -1.76    2.50
  -8  -3  -2   -4.73    2.24
   8   3   2   -1.94    2.18
  -8  -3  -1    1.25    1.86
   8   3   1   -2.30    2.91
  -8  -3   0    0.87    1.81
   8   3   0    3.36    2.78
  -8  -3   1    0.00    1.84
   8   3  -1    1.43    2.37
  -8  -3   2    2.02    1.66
   8   3  -2   -1.68    1.87
  -8  -3   3    0.77    1.27
   8   3  -3    3.19    1.92
  -8  -3   4   15.55    1.64
   8   3  -4   13.05    1.73
  -8  -3   5   72.54    3.18
   8   3  -5   65.20    3.20
  -7  -3 -20    3.49    6.65
   7   3  20   -4.64    4.64
  -7  -3 -19    2.94    5.62
   7   3  19   23.15    5.91
  -7  -3 -18    4.47    5.11
   7   3  18    8.98    5.58
  -7  -3 -17    6.03    5.75
   7   3  17    2.22    6.50
  -7  -3 -16   -0.08    5.29
   7   3  16   -2.74    7.75
  -7  -3 -15   18.69    4.42
   7   3  15   11.35    5.68
  -7  -3 -14   20.13    4.74
   7   3  14    9.47    6.86
  -7  -3 -13    0.71    4.24
   7   3  13   -0.44    4.82
  -7  -3 -12    7.62    5.04
   7   3  12    6.13    4.71
  -7  -3 -11   14.25    4.54
   7   3  11   -4.14    4.78
  -7  -3 -10   26.58    4.60
   7   3  10   44.60    6.96
  -7  -3  -9    0.55    3.00
   7   3   9    4.14    4.83
  -7  -3  -8   80.62    7.27
   7   3   8   56.35    7.42
  -7  -3  -7   -3.29    2.58
   7   3   7   14.11    5.27
  -7  -3  -6    2.28    2.64
   7   3   6    9.24    5.20
  -7  -3  -5   26.09    4.18
   7   3   5   34.16    4.10
  -7  -3  -4   23.99    3.06
   7   3   4   15.06    3.28
  -7  -3  -3   11.27    3.66
   7   3   3    9.58    2.88
  -7  -3  -2  175.27   27.29
   7   3   2    4.08    2.34
  -7  -3  -1    3.17    2.14
   7   3   1   -3.75    2.38
  -7  -3   0  199.99   10.22
   7   3   0  181.53   10.25
  -7  -3   1    2.15    1.58
  -7  -3   2    2.32    1.83
   7   3  -2    6.99    2.33
  -7  -3   3    4.59    1.45
   7   3  -3   12.75    2.71
  -7  -3   4   20.31    1.65
   7   3  -4   24.38    2.81
  -7  -3   5   40.77    2.27
   7   3  -5   34.09    3.45
   7   3  -6    5.00    1.51
   7   3  -6    5.11    1.37
   7   3  -7    2.04    1.33
   7   3  -7    0.03    0.94
   7   3  -8   84.62    3.77
   7   3  -8   73.04    3.12
   7   3 -19    2.33    0.97
  -6  -3 -21   -2.02    5.14
   6   3  21   18.85    7.94
  -6  -3 -20    4.33    5.66
   6   3  20    1.95    4.97
  -6  -3 -19    0.10    6.52
   6   3  19    1.17    6.12
  -6  -3 -18    6.33    9.05
   6   3  18    2.39    5.87
  -6  -3 -17    9.43    6.38
   6   3  17   -4.80    4.48
  -6  -3 -16    6.51    4.53
   6   3  16    6.43    5.12
  -6  -3 -15   27.23    9.83
   6   3  15    0.78    5.03
  -6  -3 -14    7.42    4.61
   6   3  14    1.72    4.11
  -6  -3 -13   12.60    4.24
   6   3  13    4.83    4.04
  -6  -3 -12   -2.36    3.65
   6   3  12   -5.67    3.71
  -6  -3 -11   26.51    7.13
   6   3  11   14.59    3.70
  -6  -3 -10   15.78    6.51
   6   3  10    7.84    3.65
  -6  -3  -9   14.22    4.46
   6   3   9    1.15    4.32
  -6  -3  -8   -5.47    2.69
   6   3   8    8.42    5.24
  -6  -3  -7   29.43    3.74
   6   3   7   30.92    5.27
  -6  -3  -6   21.77    3.34
   6   3   6   25.37    3.91
  -6  -3  -5   -1.75    2.25
   6   3   5   -1.73    3.00
  -6  -3  -4    7.32    2.47
   6   3   4    0.02    2.75
  -6  -3  -3   61.97    4.51
   6   3   3   42.47    5.12
  -6  -3  -2  122.07    7.80
   6   3   2   96.35    6.41
  -6  -3  -1   18.45    3.50
   6   3   1  236.99   30.59
  -6  -3   0   -2.11    1.75
   6   3   0    3.33    2.36
  -6  -3   1   15.19    2.18
   6   3  -1    7.25    2.21
  -6  -3   2  114.40    5.94
   6   3  -2  100.97    5.55
  -6  -3   3   56.63    3.18
   6   3  -3   58.70    3.97
  -6  -3   4    6.32    1.48
   6   3  -4    3.44    1.78
  -6  -3   5   -0.41    1.52
   6   3  -5    3.78    2.58
   6   3  -6   12.51    1.44
   6   3  -7   33.05    2.41
   6   3  -8    6.26    1.97
   6   3  -8   13.32    2.40
   6   3  -9   13.80    1.52
   6   3  -9   15.74    1.89
   6   3 -10    4.91    1.36
   6   3 -10    7.74    1.75
   6   3 -11    6.92    1.24
   6   3 -11    7.03    1.72
   6   3 -12    2.85    1.48
   6   3 -12    0.99    1.45
   6   3 -13    1.03    1.26
   6   3 -13    0.83    1.29
   6   3 -14    2.05    1.85
   6   3 -14    2.50    1.37
   6   3 -15    2.39    1.47
   6   3 -15   -0.44    1.52
   6   3 -16   17.96    2.59
   6   3 -16    9.25    2.03
   6   3 -17    1.75    1.78
   6   3 -17    5.33    1.88
   6   3 -18    3.00    2.14
   6   3 -18    2.24    1.33
   6   3 -20   15.13    3.39
   6   3 -21    8.86    2.74
  -5  -3 -22    8.60    4.61
   5   3  22   -0.91    2.32
  -5  -3 -21    3.83    3.54
   5   3  21    3.77    4.86
  -5  -3 -20   18.85    6.98
   5   3  20    6.14    4.57
  -5  -3 -19   -1.00    4.91
   5   3  19    3.98    6.35
  -5  -3 -18   -1.08    2.78
   5   3  18    1.28    5.33
  -5  -3 -17    0.22    4.78
   5   3  17   -0.85    4.31
  -5  -3 -16    3.70    4.76
   5   3  16    8.19    4.56
  -5  -3 -15   -3.29    3.54
   5   3  15    0.14    3.94
  -5  -3 -14    9.83    5.94
   5   3  14   11.18    4.78
  -5  -3 -13   -4.42    3.20
   5   3  13    7.83    4.52
  -5  -3 -12   31.11    4.78
   5   3  12   35.91    5.13
  -5  -3 -11   47.28    6.18
   5   3  11   47.22    5.59
  -5  -3 -10    3.95    3.56
   5   3  10   16.76    4.45
  -5  -3  -9   10.05    3.64
   5   3   9    7.37    3.22
  -5  -3  -8   66.41    4.82
   5   3   8   58.55    5.48
  -5  -3  -7   39.20    4.48
   5   3   7   27.20    3.85
  -5  -3  -6   46.71    4.06
   5   3   6   36.43    4.59
  -5  -3  -5    3.42    2.35
   5   3   5   -2.59    2.89
  -5  -3  -4   17.66    2.89
   5   3   4    8.14    3.13
  -5  -3  -3   42.14    3.61
   5   3   3   37.62    3.36
  -5  -3  -2   31.67    3.26
   5   3   2   33.47    3.05
  -5  -3  -1   19.77    2.52
   5   3   1   24.50    3.12
  -5  -3   0   35.02    3.09
   5   3   0   36.31    3.25
  -5  -3   1   28.76    2.72
   5   3  -1   25.23    2.93
  -5  -3   2   31.81    2.54
   5   3  -2   31.31    3.12
  -5  -3   3   39.44    3.27
   5   3  -3   38.10    3.15
  -5  -3   4   10.77    1.70
   5   3  -4    9.25    2.22
  -5  -3   5    0.38    1.45
   5   3  -5    1.23    2.01
  -5  -3   6   47.99    2.87
   5   3  -6   42.85    2.96
   5   3  -7   39.54    2.84
   5   3  -8   66.30    3.36
   5   3  -9    7.02    1.52
   5   3 -10   12.70    2.24
   5   3 -11   42.53    2.82
   5   3 -12   39.25    3.12
   5   3 -13    6.45    2.06
   5   3 -14    5.41    2.42
   5   3 -15    4.27    2.00
   5   3 -16    4.46    2.59
   5   3 -16    7.38    2.63
   5   3 -17    1.13    2.63
   5   3 -17   41.48    8.96
   5   3 -18   16.82    3.77
   5   3 -18    1.84    1.97
   5   3 -19   -1.76    2.70
   5   3 -19   -0.01    1.55
   5   3 -20    8.57    3.40
   5   3 -20   15.66    3.11
   5   3 -21    6.63    3.74
   5   3 -22    1.88    1.45
  -4  -3 -23    2.75    3.72
   4   3  23   -0.95    3.09
  -4  -3 -22    3.95    5.51
   4   3  22    5.48    3.82
  -4  -3 -21    6.24    4.62
   4   3  21    5.54    3.75
  -4  -3 -20   14.41    9.67
   4   3  20    8.59    5.41
  -4  -3 -19   23.94    5.49
   4   3  19   -1.04    4.68
  -4  -3 -18    5.60    5.76
   4   3  18    4.72    4.49
  -4  -3 -17   -9.95    4.43
   4   3  17    9.87    6.47
  -4  -3 -16   12.40    3.80
   4   3  16    2.71    3.91
  -4  -3 -15   43.27    6.08
   4   3  15   36.54    5.37
  -4  -3 -14   -1.81    5.89
   4   3  14   -5.68    4.04
  -4  -3 -13   41.69    5.04
   4   3  13   20.50    6.32
  -4  -3 -12   18.57    4.10
   4   3  12   21.54    4.49
  -4  -3 -11   10.80    6.48
   4   3  11   15.04    3.95
  -4  -3 -10    9.63    3.51
   4   3  10   10.58    3.84
   4   3   9    2.62    3.67
  -4  -3  -8    0.68    3.35
   4   3   8   -1.30    2.91
  -4  -3  -7   89.37    5.93
   4   3   7   90.55    7.03
  -4  -3  -6    0.94    2.58
   4   3   6    7.22    3.12
  -4  -3  -5  126.74    6.69
   4   3   5  103.32    6.01
  -4  -3  -4   -3.88    2.78
   4   3   4    0.77    2.73
  -4  -3  -3   74.21    5.66
   4   3   3   82.02    6.18
  -4  -3  -2   24.68    3.37
   4   3   2   25.47    2.76
  -4  -3  -1    9.41    2.30
   4   3   1   10.38    4.03
  -4  -3   0    3.83    2.51
   4   3   0   -0.84    1.88
  -4  -3   1    5.47    1.66
   4   3  -1    3.31    2.06
  -4  -3   2   28.64    2.73
   4   3  -2   36.20    3.22
  -4  -3   3   81.84    4.01
   4   3  -3   75.56    4.91
  -4  -3   4    4.28    1.74
   4   3  -4    5.97    1.89
  -4  -3   5  108.61    5.06
   4   3  -5  102.96    5.88
  -4  -3   6    3.47    2.42
   4   3  -6    3.13    2.33
   4   3  -7   83.77    4.88
   4   3  -7   93.12    4.43
   4   3  -8    1.82    1.51
   4   3  -8    2.03    1.80
   4   3  -9    6.69    2.42
   4   3  -9    7.75    2.42
   4   3 -10   14.69    3.38
   4   3 -10    8.36    3.45
   4   3 -11    3.80    2.03
   4   3 -11    4.86    2.14
   4   3 -12   23.47    2.46
   4   3 -12   18.11    2.83
   4   3 -13   34.02    3.31
   4   3 -13   34.88    3.27
   4   3 -14    4.37    2.19
   4   3 -14    7.83    3.60
   4   3 -15   28.14    3.28
   4   3 -15   28.98    3.67
   4   3 -16    7.01    2.16
   4   3 -16    7.20    4.34
   4   3 -17    4.94    3.44
   4   3 -17   -0.62    2.10
   4   3 -18    2.51    2.74
   4   3 -18    8.93    2.94
   4   3 -19   24.81    5.25
   4   3 -19   16.39    4.61
   4   3 -20    3.38    3.16
   4   3 -20    2.20    3.69
   4   3 -21    3.69    2.77
   4   3 -21    4.37    2.53
   4   3 -22    0.15    2.14
   4   3 -23   -2.16    2.27
  -3  -3 -24   -0.44    3.97
  -3  -3 -23    2.79    4.20
   3   3  23    7.61    4.51
  -3  -3 -22   -8.95    4.11
   3   3  22    2.76    5.01
  -3  -3 -21   -0.09    4.34
   3   3  21   -0.62    4.54
  -3  -3 -20    3.16    4.46
   3   3  20   -8.25    5.63
  -3  -3 -19   21.41    6.69
   3   3  19   11.22    4.50
  -3  -3 -18   42.77   15.15
   3   3  18   15.71    4.25
  -3  -3 -17   28.04    5.77
   3   3  17   19.60    4.75
  -3  -3 -16   13.38    3.60
   3   3  16   20.10    4.03
  -3  -3 -15   -3.84    3.64
   3   3  15    5.02    4.30
  -3  -3 -14    6.70    4.29
   3   3  14   13.24    4.03
  -3  -3 -13    5.76    4.20
   3   3  13   10.51    4.93
  -3  -3 -12    9.45    3.19
   3   3  12    8.40    3.23
  -3  -3 -11    0.77    3.21
   3   3  11    3.38    3.25
  -3  -3 -10   68.05    5.08
   3   3  10   60.01    5.05
  -3  -3  -9   -2.33    3.27
   3   3   9    0.77    3.01
  -3  -3  -8   52.20    5.20
   3   3   8   37.32    3.92
  -3  -3  -7   29.17    3.54
   3   3   7   32.97    3.96
  -3  -3  -6   -6.64    2.34
   3   3   6    4.30    3.46
  -3  -3  -5  213.36   10.16
   3   3   5  217.59   10.36
  -3  -3  -4   82.85    5.63
   3   3   4   77.92    5.54
  -3  -3  -3   61.30    5.23
   3   3   3   48.25    3.61
  -3  -3  -2  167.31    7.92
   3   3   2  149.53    8.64
  -3  -3  -1   40.59    3.24
   3   3   1   47.48    3.80
  -3  -3   0  508.23   19.28
   3   3   0  509.14   18.92
  -3  -3   1   42.01    2.84
   3   3  -1   39.60    3.03
  -3  -3   2  156.47    7.17
   3   3  -2  159.93    7.59
  -3  -3   3   33.48    2.50
   3   3  -3   34.16    3.01
  -3  -3   4   75.82    4.38
   3   3  -4   75.46    4.10
  -3  -3   5  203.21    9.02
   3   3  -5  214.86    9.32
  -3  -3   6    0.86    1.78
   3   3  -6    3.33    1.84
   3   3  -7   25.84    2.66
   3   3  -7   31.32    2.99
   3   3  -8   40.70    3.68
   3   3  -8   42.70    3.59
   3   3  -9    5.61    2.67
   3   3  -9    2.51    2.25
   3   3 -10   58.80    3.37
   3   3 -10   52.29    3.92
   3   3 -11    2.27    2.05
   3   3 -11    0.05    1.84
   3   3 -12    9.34    2.45
   3   3 -12    5.38    2.55
   3   3 -13   10.09    3.05
   3   3 -13   11.18    2.12
   3   3 -14   11.35    4.79
   3   3 -14    8.39    2.73
   3   3 -15    4.36    2.59
   3   3 -15    2.78    2.37
   3   3 -16   14.72    2.96
   3   3 -16   17.90    3.33
   3   3 -17   16.22    4.76
   3   3 -17   14.95    2.75
   3   3 -18   17.32    3.32
   3   3 -18   12.10    3.49
   3   3 -19    4.02    3.64
   3   3 -19    9.38    3.45
   3   3 -20   -1.41    3.42
   3   3 -20   -0.42    1.86
   3   3 -21    8.30    4.35
   3   3 -21   -1.16    1.99
   3   3 -22    3.12    3.39
   3   3 -22    1.92    4.59
   3   3 -23   -3.24    2.31
   3   3 -24   99.34   13.35
  -2  -3 -24   14.34    6.99
   2   3  24   -6.79    3.51
  -2  -3 -23   -3.12    3.88
   2   3  23   -3.50    5.17
  -2  -3 -22    4.75    4.61
   2   3  22    8.42    7.04
  -2  -3 -21    7.33    5.37
   2   3  21   -3.29    4.24
  -2  -3 -20   27.01    8.04
   2   3  20   -0.95    4.27
  -2  -3 -19    1.07    5.02
   2   3  19   -0.35    4.42
  -2  -3 -18   10.81    4.49
   2   3  18   23.83    8.68
  -2  -3 -17   -0.38    4.50
   2   3  17    7.95    3.48
  -2  -3 -16   10.04    4.45
   2   3  16    9.16    4.51
  -2  -3 -15    8.18    2.77
   2   3  15   13.52    4.31
  -2  -3 -14   -1.56    3.47
   2   3  14    9.29    3.79
  -2  -3 -13   -0.80    3.57
   2   3  13   -1.30    3.51
  -2  -3 -12   -1.00    3.13
   2   3  12    2.13    3.11
  -2  -3 -11    5.55    3.60
   2   3  11    1.72    3.29
  -2  -3 -10   11.57    4.08
   2   3  10    5.80    3.30
  -2  -3  -9   24.70    3.80
   2   3   9   11.45    3.12
  -2  -3  -8    8.11    4.34
   2   3   8   12.12    3.11
  -2  -3  -7   23.69    3.76
   2   3   7   27.83    3.58
  -2  -3  -6   -1.66    2.62
   2   3   6    1.38    2.49
  -2  -3  -5   26.01    3.23
   2   3   5   30.67    3.58
  -2  -3  -4   20.02    2.84
   2   3   4   12.28    2.72
  -2  -3  -3    9.52    2.44
   2   3   3   12.62    3.11
  -2  -3  -2   54.98    3.53
   2   3   2   62.35    4.36
  -2  -3  -1   67.19    4.59
   2   3   1   79.17    5.20
  -2  -3   0    1.60    2.38
   2   3   0   -1.20    1.66
  -2  -3   1   87.54    5.29
   2   3  -1   78.67    5.19
  -2  -3   2   65.12    3.90
   2   3  -2   66.72    4.47
  -2  -3   3    7.54    2.10
   2   3  -3   12.46    2.30
  -2  -3   4   17.39    2.91
   2   3  -4    8.90    2.00
  -2  -3   5   24.38    2.67
   2   3  -5   24.40    3.03
  -2  -3   6    0.26    2.04
   2   3  -6    5.49    2.17
   2   3  -6   -1.66    2.20
   2   3  -7   28.57    2.66
   2   3  -7   26.07    2.77
   2   3  -8   13.76    2.94
   2   3  -8   10.69    2.61
   2   3  -9   13.44    2.63
   2   3  -9   20.14    2.56
   2   3 -10    6.31    2.77
   2   3 -10    5.47    1.89
   2   3 -11   -2.40    2.35
   2   3 -11    2.08    2.71
   2   3 -12    1.73    2.59
   2   3 -12    3.19    2.19
   2   3 -13    2.33    2.88
   2   3 -13   -1.02    2.62
   2   3 -14   -4.49    2.62
   2   3 -14    1.27    2.16
   2   3 -15   21.74    3.56
   2   3 -15   12.12    4.02
   2   3 -16   45.02    9.32
   2   3 -16    7.40    2.51
   2   3 -17    5.60    5.05
   2   3 -17    9.83    5.61
   2   3 -18   29.29    9.82
   2   3 -18   -3.56    2.95
   2   3 -19    1.14    2.80
   2   3 -19   13.79    6.81
   2   3 -20    2.69    3.20
   2   3 -20    5.27    3.61
   2   3 -21   20.01    4.92
   2   3 -21   17.01    5.34
   2   3 -22   10.42    3.97
   2   3 -22   -7.11    3.05
  -2  -3  23   -2.64    3.44
   2   3 -23   24.07    8.17
   2   3 -23    3.47    3.88
   2   3 -24   -2.11    2.35
  -1  -3 -24    0.30    4.13
   1   3  24   -4.97    4.28
  -1  -3 -23    7.09    4.94
   1   3  23    1.94    4.13
  -1  -3 -22   13.89    6.11
   1   3  22   -2.52    4.27
  -1  -3 -21    0.24    6.84
   1   3  21    8.78    4.37
  -1  -3 -20    4.95    4.35
   1   3  20    2.32    4.12
  -1  -3 -19   85.75   18.01
   1   3  19    8.24    4.33
  -1  -3 -18    4.74    5.42
   1   3  18   12.24    5.37
  -1  -3 -17    1.12    3.41
   1   3  17    9.71    4.16
  -1  -3 -16   16.49    4.85
   1   3  16    8.69    4.30
  -1  -3 -15    0.12    3.67
   1   3  15    5.48    3.61
  -1  -3 -14    7.82    3.74
   1   3  14   16.10    4.50
  -1  -3 -13   -4.96    3.20
   1   3  13    5.77    3.07
  -1  -3 -12   -5.51    3.13
   1   3  12    1.34    3.61
  -1  -3 -11    7.90    2.98
   1   3  11    8.24    3.29
  -1  -3 -10   19.77    3.41
   1   3  10   17.62    3.45
  -1  -3  -9   14.37    2.83
   1   3   9   13.93    5.44
  -1  -3  -8   66.44    5.02
   1   3   8   72.32    5.62
  -1  -3  -7   -5.48    2.61
   1   3   7   -0.22    2.51
  -1  -3  -6   36.84    2.83
   1   3   6   34.89    3.54
  -1  -3  -5   95.37    5.36
   1   3   5   94.57    5.86
  -1  -3  -4   24.75    2.92
   1   3   4   26.95    3.42
  -1  -3  -3   93.36    4.92
   1   3   3   92.77    4.77
  -1  -3  -2   71.44    4.22
   1   3   2   71.64    4.30
  -1  -3  -1   19.51    2.40
   1   3   1   18.37    3.23
  -1  -3   0  549.11   22.33
   1   3   0  544.35   21.26
  -1  -3   1   20.97    2.53
   1   3  -1   24.65    2.28
  -1  -3   2   71.84    4.42
   1   3  -2   67.93    3.77
  -1  -3   3   98.63    6.59
   1   3  -3   93.45    6.27
  -1  -3   4   22.40    2.92
   1   3  -4   30.18    3.08
  -1  -3   5   90.18    6.56
   1   3  -5   95.49    6.07
   1   3  -6   35.44    3.03
   1   3  -6   41.56    3.27
   1   3  -7   16.90    4.11
   1   3  -7   -1.72    1.77
   1   3  -8   77.22    5.97
   1   3  -8   67.14    4.84
   1   3  -9   13.63    2.72
   1   3  -9   12.75    3.60
   1   3 -10   18.66    2.94
   1   3 -10   21.41    3.09
   1   3 -11   14.70    3.44
   1   3 -11   17.98    3.11
   1   3 -12    5.35    2.76
   1   3 -12   -1.42    3.77
   1   3 -13    0.76    2.56
   1   3 -13   10.37    3.40
   1   3 -14    8.19    2.59
   1   3 -14   13.34    2.32
   1   3 -15   -3.57    3.28
   1   3 -15   -1.82    2.96
   1   3 -16   31.28    5.90
   1   3 -16   16.34    3.98
   1   3 -17   12.01    3.90
   1   3 -17    4.20    2.48
   1   3 -18   10.22    4.26
   1   3 -18   11.84    3.12
  -1  -3  19    4.43    5.03
   1   3 -19    7.34    4.28
   1   3 -19   10.20    5.53
  -1  -3  20   -0.03    4.00
   1   3 -20    0.09    3.69
   1   3 -20    0.69    3.17
  -1  -3  21    1.58    3.51
   1   3 -21    2.90    2.90
   1   3 -21    0.39    3.11
  -1  -3  22   11.06    6.14
   1   3 -22    7.42    3.22
   1   3 -22    8.29    4.63
  -1  -3  23    4.80    3.75
   1   3 -23   -2.56    4.15
  -1  -3  24    4.48    3.66
   1   3 -24    1.42    3.51
   0  -3 -24    1.97    4.35
   0   3  24   26.23    9.64
   0  -3 -23    3.90    4.90
   0   3  23    7.17    4.51
   0  -3 -22   -2.59    4.23
   0   3  22    6.30    4.08
   0  -3 -21   53.44    7.17
   0   3  21   54.01    6.18
   0  -3 -20    4.00    5.11
   0   3  20   -4.43    4.71
   0  -3 -19    4.87    4.68
   0   3  19   11.78    5.06
   0  -3 -18   23.79    4.81
   0   3  18   36.12    5.17
   0  -3 -17   16.76    5.32
   0   3  17   19.42    5.94
   0  -3 -16    8.47    3.26
   0   3  16   14.55    4.34
   0  -3 -15    0.26    3.85
   0   3  15    2.11    2.93
   0  -3 -14    6.91    2.83
   0   3  14    5.55    3.68
   0  -3 -13  106.89    8.48
   0   3  13  120.39    7.90
   0  -3 -12   27.10    4.27
   0   3  12   19.26    3.61
   0  -3 -11   25.28    4.57
   0   3  11   19.75    3.40
   0  -3 -10    0.03    2.81
   0   3  10    2.62    3.46
   0  -3  -9   11.52    3.45
   0   3   9    7.38    2.85
   0  -3  -8   28.90    3.52
   0   3   8   36.38    4.36
   0  -3  -7  438.47   20.48
   0   3   7  422.80   21.74
   0  -3  -6   -0.45    2.69
   0   3   6    2.75    2.59
   0  -3  -5   16.05    3.01
   0   3   5    7.76    2.79
   0  -3  -4   91.97    6.06
   0   3   4   95.42    5.16
   0  -3  -3  156.89    7.95
   0   3   3  139.00    6.67
   0  -3  -2  166.47    8.43
   0   3   2  142.89    7.39
   0  -3  -1  271.72   12.54
   0   3   1  257.38   11.39
   0   3   0   -3.11    2.18
   0  -3   1  249.75   10.80
   0   3  -1  238.24   11.38
   0  -3   2  157.93    7.86
   0   3  -2  142.11    7.44
   0  -3   3  145.53    8.36
   0   3  -3  141.86    6.35
   0  -3   4   91.07    5.36
   0   3  -4   86.73    5.52
   0  -3   5   16.30    2.22
   0   3  -5   18.26    2.62
   0   3  -6   -4.88    3.67
   0   3  -6   -2.41    2.36
   0   3  -7  385.51   18.09
   0   3  -7  385.81   15.72
   0   3  -8   34.29    3.11
   0   3  -8   38.79    3.70
   0   3  -9    7.07    2.49
   0   3  -9    8.35    4.51
   0   3 -10   26.32    7.50
   0   3 -10    2.25    2.01
   0   3 -11    8.68    2.70
   0   3 -11   12.58    2.79
   0   3 -12   13.28    3.34
   0   3 -12   19.27    3.00
   0   3 -13  112.99    7.62
   0   3 -13  116.33    7.41
   0   3 -14    9.82    3.54
   0   3 -14   17.93    4.43
   0   3 -15    0.91    2.57
   0   3 -15    4.19    3.41
   0   3 -16   15.00    3.16
   0   3 -16   10.91    3.77
   0  -3  17   15.10    3.89
   0   3 -17   35.66    7.47
   0   3 -17   21.98    3.90
   0  -3  18   15.84    4.24
   0   3 -18   35.15    6.37
   0   3 -18   30.43    3.80
   0  -3  19    5.75    5.61
   0   3 -19    3.16    3.78
   0   3 -19   26.11    6.34
   0  -3  20   13.45    4.24
   0   3 -20    3.41    3.08
   0  -3  21   66.67    6.65
   0   3 -21   62.28    7.49
   0  -3  22    3.55    5.38
   0   3 -22    5.39    5.81
   0  -3  23   21.18    7.48
   0   3 -23   -1.46    3.43
   0  -3  24   -4.90    4.53
   0   3 -24    6.84    6.26
   1  -3 -24   -0.39    2.79
  -1   3  24   -1.52    4.77
   1  -3 -23   -3.00    3.62
  -1   3  23    0.40    4.07
   1  -3 -22   -6.02    4.72
  -1   3  22   10.10    4.66
   1  -3 -21   -6.99    4.61
  -1   3  21    0.62    4.53
   1  -3 -20    0.91    4.10
  -1   3  20   17.58    6.88
   1  -3 -19    0.09    3.85
  -1   3  19   14.83    6.49
   1  -3 -18   16.56    5.56
  -1   3  18   11.26    4.43
   1  -3 -17    1.06    3.56
  -1   3  17   10.98    3.99
   1  -3 -16   12.54    4.43
  -1   3  16   12.57    3.05
   1  -3 -15    1.81    2.95
  -1   3  15    0.89    3.47
   1  -3 -14    3.99    3.80
  -1   3  14    9.28    3.21
   1  -3 -13   11.60    2.32
  -1   3  13   18.17    4.99
   1  -3 -12    1.28    2.92
  -1   3  12    3.40    2.66
   1  -3 -11    8.50    3.28
  -1   3  11   17.49    3.21
   1  -3 -10   17.93    4.78
  -1   3  10   29.98    9.98
   1  -3  -9   21.75    4.11
  -1   3   9   22.31    3.66
   1  -3  -8   77.13    5.42
  -1   3   8   78.69    5.47
   1  -3  -7    0.71    2.74
  -1   3   7    0.75    2.16
   1  -3  -6   39.99    3.99
  -1   3   6   45.37    3.81
   1  -3  -5   93.13    5.70
  -1   3   5  109.50    9.46
   1  -3  -4   23.76    3.67
  -1   3   4   35.58    3.51
   1  -3  -3  109.98    7.25
  -1   3   3   83.28    4.64
   1  -3  -2   67.47    4.68
  -1   3   2   62.76    5.04
   1  -3  -1   27.04    3.12
  -1   3   1   24.44    3.03
   1  -3   0  472.08   17.09
  -1   3   0  501.69   22.55
   1  -3   1   17.67    2.61
  -1   3  -1   23.79    2.57
   1  -3   2   69.64    4.73
  -1   3  -2   70.48    4.53
   1  -3   3   87.85    6.12
  -1   3  -3  108.61    5.98
   1  -3   4   27.25    2.72
  -1   3  -4   25.59    2.81
   1  -3   5   82.13    5.89
  -1   3  -5   88.89    5.14
  -1   3  -5   88.35    4.66
  -1   3  -6   30.82    3.04
  -1   3  -6   43.72    3.52
  -1   3  -7   10.10    3.49
  -1   3  -7    1.80    2.74
  -1   3  -8   67.54    5.90
  -1   3  -8   72.88    5.05
  -1   3  -9   17.04    3.84
  -1   3  -9   16.13    2.99
  -1   3 -10   19.48    3.57
  -1   3 -10   18.86    3.31
  -1   3 -11   14.30    4.16
  -1   3 -11    7.63    2.76
  -1   3 -12    1.76    2.65
  -1   3 -12    8.38    3.31
  -1   3 -13    6.59    3.10
  -1   3 -14    9.63    4.59
  -1   3 -14   12.11    3.78
  -1   3 -15   -3.24    4.42
  -1   3 -15   -0.97    3.08
   1  -3  16    7.02    3.88
  -1   3 -16   16.32    4.41
  -1   3 -16   14.67    4.37
   1  -3  17   16.79    3.87
  -1   3 -17    7.70    3.57
  -1   3 -17   26.79    5.46
   1  -3  18   12.35    3.68
  -1   3 -18   37.79   10.77
   1  -3  19    1.39    4.75
  -1   3 -19    3.68    4.26
   1  -3  20   12.27    6.23
  -1   3 -20    7.15    4.68
   1  -3  21   18.58    8.40
  -1   3 -21    0.67    4.33
   1  -3  22    3.65    3.98
  -1   3 -22    1.03    4.00
   1  -3  23   -4.95    4.05
  -1   3 -23    9.20    5.21
   1  -3  24    6.55    5.36
  -1   3 -24    5.98    6.54
   2  -3 -24    4.80    4.22
  -2   3  24   -0.53    4.16
   2  -3 -23    3.75    6.56
  -2   3  23    3.00    3.72
   2  -3 -22   11.71    7.02
  -2   3  22    4.19    5.08
   2  -3 -21    6.63    5.27
  -2   3  21    8.30    4.37
   2  -3 -20   10.40    4.56
  -2   3  20    4.84    4.90
   2  -3 -19    0.31    4.33
  -2   3  19    6.36    4.14
   2  -3 -18    4.25    4.71
  -2   3  18    5.83    3.79
   2  -3 -17   -3.19    3.82
  -2   3  17    5.81    2.22
   2  -3 -16   18.30    3.96
  -2   3  16    3.73    5.03
   2  -3 -15   21.43    9.85
  -2   3  15   12.04    3.97
   2  -3 -14    6.17    3.43
  -2   3  14    3.93    2.99
   2  -3 -13   -4.45    2.96
  -2   3  13   -2.08    2.99
   2  -3 -12    3.00    3.76
  -2   3  12    3.47    4.00
   2  -3 -11   -2.46    3.73
  -2   3  11    4.35    2.48
   2  -3 -10    4.38    3.32
  -2   3  10   10.45    3.77
   2  -3  -9   12.43    3.50
  -2   3   9   11.39    3.27
   2  -3  -8    6.66    2.32
  -2   3   8   15.81    3.70
   2  -3  -7   22.86    2.45
  -2   3   7   26.46    3.18
   2  -3  -6   -0.35    2.55
  -2   3   6    1.56    3.74
   2  -3  -5   29.17    3.52
  -2   3   5   28.20    2.48
   2  -3  -4   13.22    2.56
  -2   3   4   15.36    2.72
   2  -3  -3    6.54    2.32
  -2   3   3   10.85    2.31
   2  -3  -2   59.17    4.67
  -2   3   2   61.16    4.72
   2  -3  -1   71.94    4.35
  -2   3   1   75.14    4.75
   2  -3   0   -4.33    2.02
  -2   3   0    1.82    2.44
   2  -3   1   67.05    4.27
  -2   3  -1   67.87    4.55
   2  -3   2   60.14    4.50
  -2   3  -2   56.67    3.74
   2  -3   3    9.33    2.19
  -2   3  -3   10.80    2.41
   2  -3   4   15.22    3.27
  -2   3  -4   14.96    2.93
  -2   3  -4   16.77    2.67
  -2   3  -5   24.32    3.04
  -2   3  -5   20.82    3.36
  -2   3  -6   -1.53    2.69
  -2   3  -6   -1.56    2.61
  -2   3  -7   26.87    3.25
  -2   3  -7   22.09    3.99
  -2   3  -8   14.35    3.02
  -2   3  -8   10.27    2.78
  -2   3  -9   15.75    3.19
  -2   3  -9   16.08    3.12
  -2   3 -10    5.47    4.37
  -2   3 -10    5.56    3.02
  -2   3 -11    5.88    5.23
  -2   3 -11    1.55    2.37
  -2   3 -12    1.46    2.66
  -2   3 -12   11.14    3.85
  -2   3 -13    5.71    3.44
  -2   3 -13    0.12    2.93
  -2   3 -14    5.90    4.04
  -2   3 -14   -0.66    3.30
   2  -3  15   12.19    3.52
  -2   3 -15    0.99    3.98
  -2   3 -15   12.92    4.35
   2  -3  16   11.74    3.16
  -2   3 -16    6.74    4.83
  -2   3 -16   23.91    5.22
  -2   3 -17    7.40    3.67
  -2   3 -17   19.33    9.14
   2  -3  18    0.23    5.64
  -2   3 -18    2.52    4.14
   2  -3  19   -2.83    4.45
  -2   3 -19    5.29    3.81
   2  -3  20   18.62    4.69
  -2   3 -20   11.13    4.65
   2  -3  21   28.18    4.62
  -2   3 -21    8.66    5.88
   2  -3  22    8.94    5.48
  -2   3 -22    2.68    4.87
   2  -3  23    3.93    4.08
  -2   3 -23   -2.26    3.51
   2  -3  24   13.60    7.01
  -2   3 -24   -1.17    4.87
  -3   3  24   -1.39    4.15
   3  -3 -23    1.06    4.92
  -3   3  23   -5.46    4.81
   3  -3 -22    4.74    5.24
  -3   3  22   15.22    6.33
   3  -3 -21   10.83    6.94
  -3   3  21    2.35    3.98
   3  -3 -20    2.28    4.62
  -3   3  20    6.26    4.22
   3  -3 -19    9.76    4.07
  -3   3  19   16.25    4.90
   3  -3 -18   17.76    4.10
  -3   3  18   25.37    5.00
   3  -3 -17   16.15    3.94
  -3   3  17   23.02    3.64
   3  -3 -16   18.00    4.16
  -3   3  16   29.19    4.27
   3  -3 -15    6.99    3.97
  -3   3  15   -6.97    3.17
   3  -3 -14   12.03    4.42
  -3   3  14   -0.99    3.10
   3  -3 -13   -1.01    2.94
  -3   3  13    9.71    3.72
   3  -3 -12    2.81    3.35
  -3   3  12   10.98    3.49
   3  -3 -11    2.70    2.67
  -3   3  11    1.10    2.80
   3  -3 -10   44.91    3.59
  -3   3  10   47.55    4.06
   3  -3  -9   -3.63    2.84
  -3   3   9    1.46    2.63
   3  -3  -8   42.63    4.31
  -3   3   8   47.85    7.31
   3  -3  -7   30.35    3.64
  -3   3   7   38.72    3.39
   3  -3  -6   -4.72    2.80
  -3   3   6    3.06    2.46
   3  -3  -5  185.75    9.51
  -3   3   5  227.27   12.18
   3  -3  -4   75.39    5.37
  -3   3   4   80.19    4.92
   3  -3  -3   36.47    3.15
  -3   3   3   40.85    3.64
   3  -3  -2  163.18    7.21
  -3   3   2  145.76    7.93
   3  -3  -1   36.54    3.22
  -3   3   1   41.78    3.52
   3  -3   0  481.90   21.73
  -3   3   0  484.09   19.72
   3  -3   1   38.27    3.86
  -3   3  -1   40.07    3.62
   3  -3   2  154.70    9.59
  -3   3  -2  143.39    6.80
   3  -3   3   42.46    5.47
  -3   3  -3   38.67    3.31
  -3   3  -4   70.92    5.44
  -3   3  -4   68.86    4.56
  -3   3  -5  195.47    8.96
  -3   3  -5  193.97    8.54
  -3   3  -6    5.39    3.81
  -3   3  -6    2.26    2.53
  -3   3  -7   32.27    4.70
  -3   3  -7   39.46    4.20
  -3   3  -8   41.75    4.50
  -3   3  -8   52.64    5.77
  -3   3  -9    4.30    3.00
  -3   3  -9    1.43    3.31
  -3   3 -10   59.54    4.38
  -3   3 -10   41.13    4.44
  -3   3 -11    8.76    2.96
  -3   3 -11    3.32    3.57
  -3   3 -12    5.13    3.32
  -3   3 -12    8.06    3.24
  -3   3 -13    3.07    4.47
  -3   3 -13   12.91    3.62
  -3   3 -14   22.74    4.14
  -3   3 -14   14.32    3.44
   3  -3  15   -5.77    3.37
  -3   3 -15   -1.84    3.46
  -3   3 -15   -3.26    3.33
   3  -3  16   23.45    4.76
  -3   3 -16   15.84    3.88
  -3   3 -16   26.12    3.96
   3  -3  17   14.40    3.95
  -3   3 -17   23.62    4.70
   3  -3  18   27.28    4.71
  -3   3 -18   23.86    5.10
   3  -3  19    6.65    7.02
  -3   3 -19   10.50    4.21
   3  -3  20   -7.72    4.98
  -3   3 -20   20.75    8.04
   3  -3  21    9.21    5.49
  -3   3 -21   -4.96    3.85
   3  -3  22    6.27    5.00
  -3   3 -22   -7.96    5.59
   3  -3  23   21.40    8.46
  -3   3 -23    9.80    5.11
   3  -3  24   -2.55    4.37
  -3   3 -24   14.59    6.04
   4  -3 -23    1.59    3.91
  -4   3  23    6.89    4.11
   4  -3 -22    1.05    4.29
  -4   3  22    0.07    3.77
   4  -3 -21    4.59    4.25
  -4   3  21    0.68    2.59
   4  -3 -20    9.17    4.60
  -4   3  20   -0.64    2.74
   4  -3 -19   19.59    3.92
  -4   3  19    9.26    4.16
   4  -3 -18    3.96    4.15
  -4   3  18    0.17    3.71
   4  -3 -17    8.81    5.61
  -4   3  17   19.58    7.50
   4  -3 -16    3.16    3.51
  -4   3  16    2.73    3.66
   4  -3 -15   36.34    4.89
  -4   3  15   24.57    4.48
   4  -3 -14   11.13    3.38
  -4   3  14   -0.41    3.30
   4  -3 -13   19.00    3.76
  -4   3  13   28.07    3.67
   4  -3 -12   19.80    5.61
  -4   3  12   39.71    4.24
   4  -3 -11   13.31    8.35
  -4   3  11    7.46    2.65
   4  -3 -10    8.74    3.68
  -4   3  10    7.56    2.91
   4  -3  -9    1.79    2.70
  -4   3   9    8.66    2.96
   4  -3  -8   -6.23    2.38
  -4   3   8    5.95    3.95
   4  -3  -7   75.68    5.68
  -4   3   7   88.67    6.61
   4  -3  -6   -0.42    2.84
  -4   3   6    1.08    2.73
   4  -3  -5   96.80    7.18
  -4   3   5  117.33    6.52
   4  -3  -4    4.76    2.61
  -4   3   4    2.08    2.53
   4  -3  -3   64.46    4.82
  -4   3   3   79.15    4.85
   4  -3  -2   29.34    3.89
  -4   3   2   30.37    3.92
   4  -3  -1    1.20    2.49
  -4   3   1   10.25    2.99
   4  -3   0   -1.92    2.45
  -4   3   0    4.61    2.45
   4  -3   1    3.75    3.36
  -4   3  -1    5.40    2.80
   4  -3   2   23.29    3.41
  -4   3  -2   21.51    3.02
  -4   3  -3   66.40    4.58
  -4   3  -3   80.04    4.89
  -4   3  -4    7.54    3.30
  -4   3  -4    3.62    2.79
  -4   3  -5  118.19    6.71
  -4   3  -5  107.63    6.66
  -4   3  -6   -0.97    3.06
  -4   3  -6   -3.31    2.20
  -4   3  -7   85.57    5.78
  -4   3  -7   80.80    6.21
  -4   3  -8    7.47    3.26
  -4   3  -8   -3.24    2.80
  -4   3  -9    3.76    3.12
  -4   3  -9   16.67    5.10
  -4   3 -10   14.05    4.40
  -4   3 -10    6.58    3.18
  -4   3 -11    5.28    3.29
  -4   3 -11    5.44    2.96
  -4   3 -12   30.37    5.67
  -4   3 -12   19.53    3.85
  -4   3 -13   28.60    4.21
  -4   3 -13   38.01    5.33
  -4   3 -14    5.21    4.40
  -4   3 -14    5.11    3.56
   4  -3  15   23.98    4.34
  -4   3 -15   20.04    4.93
  -4   3 -15   25.05    4.19
   4  -3  16    5.63    4.74
  -4   3 -16    9.20    3.92
  -4   3 -16    4.88    3.84
   4  -3  17    6.92    4.63
  -4   3 -17    2.97    4.20
   4  -3  18    1.86    4.86
  -4   3 -18   -0.25    4.66
   4  -3  19    4.69    5.33
  -4   3 -19   17.40    5.83
   4  -3  20   -9.83    4.65
  -4   3 -20    0.69    5.75
   4  -3  21    3.11    5.42
  -4   3 -21   14.84    5.45
   4  -3  22   -8.80    5.64
  -4   3 -22   -3.44    4.40
   4  -3  23   -2.50    5.44
  -4   3 -23   -8.42    4.41
   5  -3 -22   -0.61    3.41
  -5   3  22   -0.48    1.31
   5  -3 -21   -1.56    3.90
  -5   3  21    3.01    3.32
   5  -3 -20   -0.62    4.00
  -5   3  20   -2.10    2.40
   5  -3 -19   -0.80    4.42
  -5   3  19   -3.58    3.60
   5  -3 -18    3.74    4.08
  -5   3  18   16.56    6.97
   5  -3 -17   -6.32    3.21
  -5   3  17    4.16    5.56
   5  -3 -16   10.85    5.60
  -5   3  16    1.35    3.49
   5  -3 -15   11.07    6.62
  -5   3  15    3.34    3.52
   5  -3 -14    4.16    4.92
  -5   3  14    0.61    3.07
   5  -3 -13    4.61    2.91
  -5   3  13    0.86    2.82
   5  -3 -12   37.40    4.58
  -5   3  12   38.51    4.32
   5  -3 -11   37.00    4.73
  -5   3  11   32.83    3.79
   5  -3 -10    7.02    2.68
  -5   3  10    4.41    2.82
   5  -3  -9   -3.88    2.69
  -5   3   9    1.20    2.46
   5  -3  -8   60.22    5.34
  -5   3   8   72.66    5.14
   5  -3  -7   38.85    5.14
  -5   3   7   32.41    3.44
   5  -3  -6   51.08    4.62
  -5   3   6   49.18    3.95
   5  -3  -5   -2.65    2.37
  -5   3   5   21.02    5.51
   5  -3  -4    6.71    3.15
  -5   3   4    8.70    2.90
   5  -3  -3   37.36    3.99
  -5   3   3   44.38    3.57
   5  -3  -2   31.69    3.90
  -5   3   2   25.68    3.13
   5  -3  -1   25.91    4.10
  -5   3   1   36.78    7.30
   5  -3   0   33.20    3.88
  -5   3   0   23.96    2.99
   5  -3   1   22.00    4.07
  -5   3  -1   26.22    3.47
  -5   3  -1   27.00    3.14
  -5   3  -2   24.14    6.84
  -5   3  -2   25.43    4.86
  -5   3  -3   33.86    6.10
  -5   3  -3   28.85    3.80
  -5   3  -4   17.75    4.33
  -5   3  -4    9.62    3.03
  -5   3  -5   -2.66    2.79
  -5   3  -5   -1.21    2.64
  -5   3  -6   46.82    5.31
  -5   3  -6   58.58   11.80
  -5   3  -7   23.04    3.53
  -5   3  -7   40.07    4.03
  -5   3  -8   59.98    5.36
  -5   3  -8   57.10    5.58
  -5   3  -9    3.33    2.94
  -5   3  -9    4.14    3.13
  -5   3 -10    6.45    3.33
  -5   3 -10    0.80    2.67
  -5   3 -11   26.11    3.65
  -5   3 -11   38.54    4.69
  -5   3 -12   32.75    4.74
  -5   3 -12   40.49    5.31
  -5   3 -13    1.00    3.47
  -5   3 -13    2.45    6.85
  -5   3 -14    5.98    4.22
  -5   3 -14    0.47    3.78
   5  -3  15   10.17    6.22
  -5   3 -15   15.08    4.24
  -5   3 -15   -4.27    3.57
   5  -3  16   -3.41    3.88
  -5   3 -16   -0.26    4.79
  -5   3 -16    5.80    3.95
   5  -3  17   -0.31    3.89
  -5   3 -17    1.83    2.78
  -5   3 -17   -5.56    3.89
   5  -3  18   13.30    5.19
  -5   3 -18   14.16    5.73
   5  -3  19    7.39    4.77
   5  -3  20   -1.98    4.72
  -5   3 -20   21.42    5.11
   5  -3  21    4.52    4.87
  -5   3 -21    4.12    4.93
   5  -3  22    2.84    5.48
  -5   3 -22   30.86    8.23
   6  -3 -21    3.93    7.29
  -6   3  21    1.93    2.69
   6  -3 -20   -3.62    3.63
  -6   3  20    1.90    4.84
   6  -3 -19    4.34    3.41
  -6   3  19    8.11    4.11
   6  -3 -18   18.14    8.75
  -6   3  18   -1.22    3.21
   6  -3 -17    6.70    3.77
  -6   3  17    7.25    4.73
   6  -3 -16   25.83    5.69
  -6   3  16   25.76    4.87
   6  -3 -15   -4.28    3.61
  -6   3  15    5.60    3.14
   6  -3 -14   -2.64    3.01
  -6   3  14    8.58    3.38
   6  -3 -13   10.27    5.03
  -6   3  13    6.22    3.57
   6  -3 -12    8.31    5.38
  -6   3  12   -2.52    2.56
   6  -3 -11    1.89    2.68
  -6   3  11    4.34    2.52
   6  -3 -10   -0.73    2.78
  -6   3  10    2.44    2.75
   6  -3  -9   15.31    3.77
  -6   3   9   15.33    2.92
   6  -3  -8   10.76    3.04
  -6   3   8   -1.11    2.37
   6  -3  -7   27.31    5.14
  -6   3   7   19.44    3.16
   6  -3  -6   10.31    4.50
  -6   3   6    3.84    2.23
   6  -3  -5   -1.40    2.46
  -6   3   5   -1.13    2.33
   6  -3  -4    9.02    3.12
  -6   3   4    8.14    2.44
   6  -3  -3   52.02    4.35
  -6   3   3   55.13    4.22
   6  -3  -2   96.40    7.33
  -6   3   2  126.32    6.80
   6  -3  -1    4.76    3.61
  -6   3   1   14.81    3.08
   6  -3   0    1.52    2.89
  -6   3   0   -2.93    2.94
  -6   3   0   10.24    3.73
  -6   3  -1   11.37    2.89
  -6   3  -1   11.85    3.30
  -6   3  -2  121.56    6.59
  -6   3  -2   97.07    6.49
  -6   3  -3   55.23    4.39
  -6   3  -3   52.82    4.69
  -6   3  -4    0.25    2.95
  -6   3  -4   13.56    3.39
  -6   3  -5    5.65    3.74
  -6   3  -5    6.11    6.13
  -6   3  -6   13.55    3.25
  -6   3  -6    9.52    4.65
  -6   3  -7   22.01    3.97
  -6   3  -7   21.80    4.59
  -6   3  -8   14.40    4.67
  -6   3  -8    4.42    3.32
  -6   3  -9   10.58    4.10
  -6   3  -9    7.35    3.37
  -6   3 -10   11.18    3.76
  -6   3 -10    3.93    3.35
  -6   3 -11   14.02    4.75
  -6   3 -11   14.34    4.21
  -6   3 -12   11.39    4.43
  -6   3 -12    3.69    3.41
  -6   3 -13    6.37    4.44
  -6   3 -13   -2.88    3.66
  -6   3 -14    4.99    4.21
  -6   3 -14    1.13    3.83
  -6   3 -15   -3.35    3.87
   6  -3  16   22.53    8.78
  -6   3 -16    4.19    3.97
  -6   3 -16    6.22    3.77
   6  -3  17    1.24    4.78
  -6   3 -17    5.81    4.28
  -6   3 -17   -0.86    4.01
   6  -3  18   10.68    5.99
  -6   3 -18    1.32    6.84
   6  -3  19   28.01    8.33
  -6   3 -19   14.30    6.39
   6  -3  20   11.60    7.57
  -6   3 -20    9.79    6.87
   6  -3  21   -0.59    4.81
  -6   3 -21   11.94    6.25
   7  -3 -20    5.41    4.10
  -7   3  20    1.64    4.16
   7  -3 -19    0.56    2.49
  -7   3  19    2.68    3.74
   7  -3 -18    3.61    3.44
  -7   3  18    7.45    4.40
   7  -3 -17    5.62    5.06
  -7   3  17   -4.82    3.27
   7  -3 -16    3.91    3.29
  -7   3  16    9.11    3.04
   7  -3 -15    0.93    3.31
  -7   3  15    3.41    3.46
   7  -3 -14   24.06    5.81
  -7   3  14   14.69    4.21
   7  -3 -13    7.03    4.00
  -7   3  13    9.81    3.77
   7  -3 -12   14.99    4.48
  -7   3  12   14.05    4.30
   7  -3 -11    2.03    2.95
  -7   3  11   -0.26    3.10
   7  -3 -10   30.22    4.75
  -7   3  10   38.94    3.62
   7  -3  -9   14.53    6.08
  -7   3   9    6.46    2.71
   7  -3  -8   67.91    6.51
  -7   3   8   82.50    6.34
   7  -3  -7  -12.08    3.77
  -7   3   7   -3.58    2.22
   7  -3  -6    2.52    2.90
  -7   3   6    7.49    2.95
   7  -3  -5   24.45    4.11
  -7   3   5   42.81    4.30
   7  -3  -4   17.72    3.81
  -7   3   4   24.19    3.23
   7  -3  -3    8.87    3.82
  -7   3   3    8.99    2.68
   7  -3  -2    8.56    3.93
  -7   3   2    5.45    2.55
  -7   3   1    8.96    4.54
  -7   3   1    7.99    3.00
  -7   3   0  180.93   10.05
  -7   3   0  180.25   10.08
  -7   3  -1   -2.67    2.19
  -7   3  -1    6.43    3.86
  -7   3  -2    1.89    2.66
  -7   3  -2    2.36    2.64
  -7   3  -3   10.26    2.76
  -7   3  -3    6.32    3.45
  -7   3  -4   19.15    3.55
  -7   3  -4   20.52    3.31
  -7   3  -5   37.27    5.67
  -7   3  -5   29.36    4.81
  -7   3  -6    4.56    2.78
  -7   3  -6    8.69    3.21
  -7   3  -7   -6.00    2.85
  -7   3  -7    5.09    5.03
  -7   3  -8   64.36    6.14
  -7   3  -8   66.94    5.45
  -7   3  -9    3.68    3.93
  -7   3  -9    8.00    6.11
  -7   3 -10   34.01    4.24
  -7   3 -10   29.21    5.37
  -7   3 -11    5.77    3.70
  -7   3 -11   16.27    5.72
  -7   3 -12    4.56    3.69
  -7   3 -12   11.23    4.76
  -7   3 -13   10.58    8.68
  -7   3 -13    1.10    3.40
  -7   3 -14   14.03    3.88
  -7   3 -14   12.19    4.02
  -7   3 -15    4.25    4.35
  -7   3 -15   13.45    5.50
   7  -3  16    3.85    4.75
  -7   3 -16   24.27   10.61
  -7   3 -16   -3.60    4.07
   7  -3  17   -3.18    4.82
  -7   3 -17    5.39    3.90
  -7   3 -17   -5.38    4.40
   7  -3  18   20.76    8.36
  -7   3 -18    5.45    4.58
  -7   3 -18   -2.85    6.50
   7  -3  19   29.41   10.10
  -7   3 -19    4.27    5.00
  -7   3 -19   10.11    6.26
   7  -3  20    5.15    4.11
  -7   3 -20   -5.16    5.40
   8  -3 -18    2.92    3.01
  -8   3  18   -3.95    3.23
   8  -3 -17   -1.56    2.74
  -8   3  17    0.45    3.13
   8  -3 -16   14.53    7.17
  -8   3  16    6.12    4.05
   8  -3 -15   33.10    5.69
  -8   3  15   25.05    5.14
   8  -3 -14    7.74    5.82
  -8   3  14   -2.83    2.92
   8  -3 -13   28.43    4.45
  -8   3  13   19.46    3.72
   8  -3 -12   -1.10    2.75
  -8   3  12   -1.55    3.06
   8  -3 -11   -4.63    3.85
  -8   3  11    1.78    2.63
   8  -3 -10   12.98    4.84
  -8   3  10   15.85    3.23
   8  -3  -9    8.12    4.33
  -8   3   9   14.39    3.42
   8  -3  -8    6.84    3.80
  -8   3   8   16.35    2.77
   8  -3  -7    8.91    4.99
  -8   3   7    3.01    2.43
   8  -3  -6    0.00    5.40
  -8   3   6    4.98    2.82
   8  -3  -5   66.16    5.92
  -8   3   5   79.93    5.16
   8  -3  -4   14.99    3.09
  -8   3   4    9.97    2.74
   8  -3  -3    6.72    4.04
  -8   3   3    0.47    2.42
  -8   3   3    3.12    2.88
  -8   3   2    2.82    2.28
  -8   3   2    2.44    3.66
  -8   3   1    4.70    2.68
  -8   3   1   -1.01    3.03
  -8   3   0   -1.30    3.16
  -8   3   0   -3.65    3.37
  -8   3  -1   -0.03    3.13
  -8   3  -1    0.85    2.64
  -8   3  -2   -5.95    3.57
  -8   3  -2   -4.30    3.78
  -8   3  -3   -3.21    3.33
  -8   3  -3    2.54    3.40
  -8   3  -4    8.85    3.46
  -8   3  -4   31.40    4.43
  -8   3  -5   71.62    6.70
  -8   3  -5   74.83    6.75
  -8   3  -6   -1.00    3.74
  -8   3  -6    2.42    3.05
  -8   3  -7    2.70    4.55
  -8   3  -7    9.26    5.79
  -8   3  -8   16.95    3.40
  -8   3  -8   22.75    4.64
  -8   3  -9   11.64    3.86
  -8   3  -9    8.41    4.40
  -8   3 -10   19.38    4.22
  -8   3 -10   31.37    4.50
  -8   3 -11    2.36    3.73
  -8   3 -11   -1.18    3.60
  -8   3 -12   11.39    5.17
  -8   3 -12   -1.67    5.09
  -8   3 -13   52.13   10.76
  -8   3 -13   18.20    4.48
  -8   3 -14    2.80    4.00
  -8   3 -14    1.21    4.78
  -8   3 -15   21.49    4.98
  -8   3 -15   31.89    7.65
  -8   3 -16    2.78    4.59
  -8   3 -16   -8.58    4.56
  -8   3 -17   -5.67    3.95
  -8   3 -17    5.91    6.71
   8  -3  18   18.40    8.36
  -8   3 -18   -1.17    4.57
  -8   3 -18   12.27    6.68
   8  -3  19   -0.47    4.31
  -8   3 -19    8.24    4.22
  -8   3 -19   -0.03    4.49
   9  -3 -16  191.56   19.44
  -9   3  16    1.06    2.82
   9  -3 -15   15.93    5.03
  -9   3  15    2.25    2.82
   9  -3 -14    0.56    2.91
  -9   3  14    3.37    3.30
   9  -3 -13   -1.71    2.70
  -9   3  13    2.64    3.52
   9  -3 -12    4.82    3.99
  -9   3  12    1.94    3.40
   9  -3 -11    1.72    2.80
  -9   3  11    9.48    2.92
   9  -3 -10    7.55    3.08
  -9   3  10    7.68    2.61
   9  -3  -9   -4.32    3.28
  -9   3   9    1.36    2.68
   9  -3  -8   12.67    4.27
  -9   3   8   10.72    2.95
   9  -3  -7   14.84    5.28
  -9   3   7    4.27    3.83
   9  -3  -6   19.73    6.54
  -9   3   6   21.93    3.12
   9  -3  -5   16.28    6.20
  -9   3   5   -1.63    3.94
  -9   3   4   -2.65    2.62
  -9   3   4   -1.85    3.79
  -9   3   3    8.50    2.99
  -9   3   3   -0.49    2.84
  -9   3   2   19.87    5.90
  -9   3   2   11.26    3.74
  -9   3   1    9.06    3.06
  -9   3   1   16.97    4.74
  -9   3   0   16.48    3.28
  -9   3   0   12.34    3.83
  -9   3  -1    7.22    2.87
  -9   3  -1    7.64    3.95
  -9   3  -2   11.42    2.94
  -9   3  -2   14.48    4.11
  -9   3  -3   -4.65    2.49
  -9   3  -3    2.97    4.37
  -9   3  -4   -4.12    3.12
  -9   3  -4    2.06    4.46
  -9   3  -5    4.42    4.44
  -9   3  -5   14.98    4.53
  -9   3  -6   13.60    3.10
  -9   3  -6   29.74   10.80
  -9   3  -7   17.07    5.89
  -9   3  -7    3.24    4.09
  -9   3  -8    4.31    3.70
  -9   3  -8   13.14    4.84
  -9   3  -9    1.86    4.03
  -9   3  -9   -0.48    4.24
  -9   3 -10    9.52    4.64
  -9   3 -10    5.04    5.51
  -9   3 -11    8.50    4.42
  -9   3 -11    6.13    5.04
  -9   3 -12    5.02    3.70
  -9   3 -12   -4.28    3.86
  -9   3 -13   -0.61    4.05
  -9   3 -13    1.23    4.44
  -9   3 -14    8.24    4.15
  -9   3 -14   -5.32    4.15
  -9   3 -15   13.37    6.08
  -9   3 -15   12.57    5.05
  -9   3 -16    5.03    3.85
  -9   3 -16    6.62    4.77
  -9   3 -17   -6.47    3.80
  -9   3 -17    7.86    5.27
  10  -3 -13    3.25    3.37
 -10   3  13   -5.41    2.17
  10  -3 -12    2.54    3.48
 -10   3  12    2.24    1.91
  10  -3 -11   -1.58    2.54
 -10   3  11    4.76    2.56
  10  -3 -10    2.69    2.69
 -10   3  10    4.84    2.69
  10  -3  -9    8.79    4.39
 -10   3   9    5.95    4.45
  10  -3  -8    8.13    3.77
 -10   3   8    4.78    2.52
 -10   3   8    3.31    3.60
 -10   3   7   -3.05    3.12
 -10   3   7    5.90    4.28
 -10   3   6    3.37    2.89
 -10   3   6   -1.40    3.34
 -10   3   5    9.14    3.09
 -10   3   5    9.01    3.64
 -10   3   4    3.35    2.80
 -10   3   4    5.31    3.67
 -10   3   3    4.79    3.66
 -10   3   3    2.98    4.60
 -10   3   2    6.79    3.44
 -10   3   2    6.52    4.11
 -10   3   1   18.65    5.01
 -10   3   1   10.63    5.14
 -10   3   0    1.01    3.10
 -10   3   0    8.54    3.87
 -10   3  -1   12.82    4.86
 -10   3  -1    8.66    3.83
 -10   3  -2   10.43    3.09
 -10   3  -2   -5.24    3.60
 -10   3  -3    4.05    3.32
 -10   3  -3    4.31    3.33
 -10   3  -4    4.37    2.98
 -10   3  -4   -3.18    3.61
 -10   3  -5   12.17    4.89
 -10   3  -5   14.88    4.81
 -10   3  -6   -9.38    3.92
 -10   3  -6    1.24    3.62
 -10   3  -7    8.85    4.81
 -10   3  -7   10.77    5.65
 -10   3  -8   -2.15    3.48
 -10   3  -8   -7.07    3.65
 -10   3  -9   -6.60    3.60
 -10   3  -9   16.36    5.84
 -10   3 -10    4.87    3.66
 -10   3 -10   -5.12    5.25
 -10   3 -11    5.14    4.01
 -10   3 -11    6.49    7.09
 -10   3 -12   -1.72    3.44
 -10   3 -12   -0.60    4.51
 -10   3 -13    3.17    5.25
 -10   3 -14    3.84    4.33
 -10   3 -14   -1.51    3.74
 -11   3  11    7.44    3.38
 -11   3   9    4.22    2.03
 -11   3   9   -0.81    3.76
 -11   3   8   12.12    2.73
 -11   3   8   12.79    4.52
 -11   3   7   -1.07    2.60
 -11   3   7    0.46    3.94
 -11   3   6   17.71    4.51
 -11   3   6    3.64    4.17
 -11   3   5   14.10    5.57
 -11   3   5   50.59   11.00
 -11   3   4   -0.79    2.97
 -11   3   4    1.06    5.37
 -11   3   3    0.31    2.93
 -11   3   3    4.96    3.66
 -11   3   2   11.00    3.08
 -11   3   2    8.27    4.75
 -11   3   1    9.45    3.18
 -11   3   1   11.63    3.99
 -11   3   0    6.89    4.42
 -11   3   0    1.85    3.54
 -11   3  -1   11.43    3.66
 -11   3  -1    8.50    4.43
 -11   3  -2    6.77    4.49
 -11   3  -2   -1.45    4.83
 -11   3  -3    3.15    3.04
 -11   3  -3    2.76    3.52
 -11   3  -4    1.55    3.85
 -11   3  -4   20.66    7.48
 -11   3  -5   -4.32    3.23
 -11   3  -5   -2.17    6.41
 -11   3  -6   11.32    4.14
 -11   3  -6   14.22    4.85
 -11   3  -7   -2.77    3.82
 -11   3  -7   13.27    5.70
 -11   3  -8    9.37    3.18
 -11   3  -8   -1.47    5.11
 -11   3  -9   -0.09    3.74
 -11   3  -9    5.72    5.42
 -11   3 -10    0.15    3.56
 -11   3 -10    2.94    5.54
 -11   3 -11    4.42    4.01
 -11   3 -11    3.58    3.98
 -12   3   6   -3.97    4.74
 -12   3   5    4.61    2.63
 -12   3   5    0.89    3.88
 -12   3   4   -0.16    2.74
 -12   3   4   -1.47    4.01
 -12   3   3   17.65    3.83
 -12   3   3    5.85    4.58
 -12   3   2   -1.11    3.42
 -12   3   2    5.58    5.69
 -12   3   1   10.74    4.24
 -12   3   1    1.95    3.60
 -12   3   0   -7.08    2.81
 -12   3   0    8.86    5.74
 -12   3  -1    3.97    3.95
 -12   3  -1    1.84    4.59
 -12   3  -2    6.56    3.75
 -12   3  -2    3.99    3.70
 -12   3  -3    9.03    4.16
 -12   3  -3   -0.34    3.69
 -12   3  -4   -5.98    3.18
 -12   3  -4   19.74    6.55
 -12   3  -5    6.73    3.15
 -12   3  -5   -3.45    3.56
 -12   3  -6   -3.89    4.12
 -12   3  -6    4.63    3.73
 -12   3  -7   12.37    5.46
 -12   3  -7   -6.09    3.48
 -11  -4  -4    3.20    1.93
  11   4   4    1.50    1.53
 -11  -4  -3    6.92    2.58
  11   4   3    0.17    1.38
 -11  -4  -2    0.02    2.26
  11   4   2   -0.17    1.35
 -11  -4  -1    0.68    1.59
  11   4   1    0.94    1.18
 -11  -4   0    0.17    1.16
  11   4   0   -1.33    1.27
 -11  -4   1    7.43    1.95
  11   4  -1    1.85    1.89
 -11  -4   2    0.51    1.37
  11   4  -2    0.62    1.67
 -11  -4   3    4.82    1.39
  11   4  -3    7.39    1.72
  10   4  10    5.80    4.14
 -10  -4  -9   11.79    3.22
  10   4   9   -0.66    1.89
 -10  -4  -8    2.66    3.64
  10   4   8   -0.35    1.64
 -10  -4  -7    0.83    3.01
  10   4   7    0.46    1.71
 -10  -4  -6   -0.80    3.64
  10   4   6    3.28    2.32
 -10  -4  -5    2.26    2.41
  10   4   5   -0.11    1.88
 -10  -4  -4    2.30    2.88
  10   4   4  627.72   47.67
 -10  -4  -3    4.43    2.62
  10   4   3    0.27    1.41
 -10  -4  -2    0.23    2.34
  10   4   2   -1.40    1.37
 -10  -4  -1    0.44    1.82
  10   4   1    1.46    1.52
 -10  -4   0    0.96    1.47
  10   4   0    3.75    1.67
 -10  -4   1    2.97    1.58
  10   4  -1    1.14    1.27
 -10  -4   2    3.85    2.35
  10   4  -2   -0.87    1.17
 -10  -4   3    4.54    2.03
  10   4  -3    4.54    1.98
 -10  -4   4   -1.04    1.26
  10   4  -4   -1.43    1.51
  10   4  -5    1.24    1.19
  10   4  -5    0.73    0.93
  -9  -4 -13    5.53    5.74
   9   4  13    3.84    5.08
  -9  -4 -12    5.66    4.68
   9   4  12   39.80   11.42
  -9  -4 -11    0.36    3.91
   9   4  11   -0.68    3.91
  -9  -4 -10    7.33    5.49
   9   4  10    2.25    2.86
  -9  -4  -9    2.83    3.53
   9   4   9    1.23    2.51
  -9  -4  -8   -0.62    3.74
   9   4   8    4.32    2.57
  -9  -4  -7    1.57    3.00
   9   4   7    2.93    2.46
  -9  -4  -6   -1.83    2.97
   9   4   6    1.42    2.27
  -9  -4  -5    8.45    4.92
   9   4   5    2.88    3.69
  -9  -4  -4    2.20    2.23
   9   4   4    3.45    4.10
  -9  -4  -3    7.95    3.13
   9   4   3    3.13    3.06
  -9  -4  -2   -3.92    1.88
   9   4   2   -3.83    2.20
  -9  -4  -1    4.64    2.14
   9   4   1    3.27    3.05
  -9  -4   0    0.57    1.56
   9   4   0    6.43    3.87
  -9  -4   1    7.16    1.89
   9   4  -1    7.53    3.25
  -9  -4   2    2.14    2.00
   9   4  -2    0.44    1.91
  -9  -4   3    1.91    1.52
   9   4  -3    4.28    2.23
   9   4  -4    0.58    1.79
  -9  -4   5    6.27    1.78
   9   4  -5   -4.01    1.85
   9   4  -6    3.67    2.05
   9   4  -6    2.01    1.31
   9   4  -7    4.19    1.21
   9   4  -7    1.60    0.84
  -8  -4 -15    9.13    5.52
   8   4  15   25.18   10.42
  -8  -4 -14   14.06    5.82
   8   4  14    0.39    3.71
  -8  -4 -13   -6.86    3.83
   8   4  13    8.23    6.02
  -8  -4 -12    3.14    4.47
   8   4  12   16.80    5.71
  -8  -4 -11    3.52    4.06
   8   4  11    6.57    4.49
  -8  -4 -10   -5.87    3.33
   8   4  10    0.81    4.78
  -8  -4  -9    7.20    3.41
   8   4   9    4.56    3.23
  -8  -4  -8   -1.24    3.40
   8   4   8    1.34    2.05
  -8  -4  -7    4.35    3.02
   8   4   7   -5.92    3.60
  -8  -4  -6    3.15    2.75
   8   4   6    1.84    3.86
  -8  -4  -5    2.99    2.20
   8   4   5    9.77    5.16
  -8  -4  -4    4.75    3.37
   8   4   4    4.22    3.56
  -8  -4  -3    2.14    2.40
   8   4   3   -2.81    2.81
  -8  -4  -2    2.11    1.82
   8   4   2    9.13    3.34
  -8  -4  -1   11.86    3.66
   8   4   1    9.38    2.99
  -8  -4   0  112.42   14.28
   8   4   0   48.44    6.02
  -8  -4   1    7.54    2.19
   8   4  -1    8.70    3.52
  -8  -4   2    4.93    1.96
   8   4  -2    1.46    2.72
  -8  -4   3   -0.53    1.96
   8   4  -3    6.24    3.07
  -8  -4   4   17.26    2.77
   8   4  -4   11.04    2.79
  -8  -4   5    2.73    1.58
   8   4  -5    8.78    2.34
   8   4  -6    7.03    3.33
   8   4  -6   11.80    2.19
   8   4  -7    3.97    1.88
   8   4  -7    9.07    1.77
   8   4  -8   12.55    3.24
   8   4  -8   -0.69    1.34
   8   4  -9    8.28    1.99
   8   4  -9    6.32    1.86
   8   4 -10    4.17    1.31
   8   4 -10    1.09    0.85
   7   4  17    4.35    3.94
  -7  -4 -16   -4.65    4.12
   7   4  16   -2.96    4.43
  -7  -4 -15    5.49    5.23
   7   4  15   -0.11    3.83
  -7  -4 -14   25.10    5.81
   7   4  14   16.43    7.61
  -7  -4 -13    1.91    5.89
   7   4  13   -0.46    3.98
  -7  -4 -12    7.19    4.68
   7   4  12    2.00    6.92
  -7  -4 -11   41.12   11.92
   7   4  11    2.30    5.16
  -7  -4 -10    1.58    4.35
   7   4  10    7.56    3.85
  -7  -4  -9    6.66    3.66
   7   4   9   30.36   10.81
  -7  -4  -8    7.67    4.12
   7   4   8   10.11    4.62
  -7  -4  -7    6.07    3.05
   7   4   7   -3.14    3.76
  -7  -4  -6   36.39    8.48
   7   4   6   10.77    3.89
  -7  -4  -5    6.37    2.73
   7   4   5    7.05    3.17
  -7  -4  -4    2.97    2.85
   7   4   4    1.90    3.45
  -7  -4  -3    9.82    2.56
   7   4   3   37.73   12.13
  -7  -4  -2   12.79    3.21
   7   4   2   11.99    3.55
  -7  -4  -1    1.86    2.37
   7   4   1    6.79    3.28
  -7  -4   0    1.05    2.16
   7   4   0    2.85    2.72
   7   4  -1    0.98    1.91
  -7  -4   2   15.44    3.21
   7   4  -2   11.33    3.27
  -7  -4   3    9.53    2.33
   7   4  -3   24.22    4.34
  -7  -4   4    2.78    2.35
   7   4  -4    2.21    2.29
  -7  -4   5    0.19    1.69
   7   4  -5    6.18    3.02
  -7  -4   6   27.87    2.77
   7   4  -6   23.60    3.42
   7   4  -7    5.70    1.85
   7   4  -8    3.68    2.02
   7   4  -9    8.40    2.93
   7   4  -9   11.68    1.96
   7   4 -10    4.37    1.95
   7   4 -10    2.74    1.55
   7   4 -11    0.32    1.48
   7   4 -11    7.11    1.98
   7   4 -12    3.30    1.63
   7   4 -12    1.46    1.52
   7   4 -13    2.84    2.19
   7   4 -13    0.91    1.14
   7   4 -14   15.42    2.40
   7   4 -14   20.11    2.97
   7   4 -16    1.40    1.94
   7   4 -17   12.32    2.53
  -6  -4 -18    8.80    5.59
   6   4  18   10.39    4.53
   6   4  17    3.31    4.64
  -6  -4 -16    5.13    5.41
  -6  -4 -15   15.50    5.52
   6   4  15   11.90    4.55
  -6  -4 -14   -1.18    3.49
   6   4  14    7.69    4.35
  -6  -4 -13   -0.36    3.98
   6   4  13   -2.52    4.08
  -6  -4 -12   23.49    4.62
   6   4  12   18.36    4.94
  -6  -4 -11   -3.91    4.06
   6   4  11   -2.58    3.54
  -6  -4 -10    4.10    3.52
   6   4  10   -2.78    3.70
  -6  -4  -9   21.74    4.61
   6   4   9   10.83    3.96
  -6  -4  -8    3.52    3.34
   6   4   8    9.55    3.84
  -6  -4  -7    1.26    3.02
   6   4   7    2.27    3.37
  -6  -4  -6   28.46    4.18
   6   4   6   13.43    3.70
  -6  -4  -5    3.99    3.84
   6   4   5    5.70    5.04
  -6  -4  -4    1.48    2.39
   6   4   4   13.67    3.84
  -6  -4  -3   -3.65    3.11
   6   4   3    1.69    2.38
  -6  -4  -2   13.37    2.49
   6   4   2   15.90    4.25
  -6  -4  -1    4.43    4.02
   6   4   1    2.74    5.16
  -6  -4   0   14.77    2.73
   6   4   0   19.66    4.15
  -6  -4   1   -0.80    2.40
   6   4  -1    4.99    2.15
  -6  -4   2   19.21    3.41
   6   4  -2   24.90    4.26
  -6  -4   3    2.98    2.02
   6   4  -3    0.35    2.27
  -6  -4   4    4.05    2.42
   6   4  -4    7.23    3.88
  -6  -4   5    2.31    2.06
   6   4  -5   -4.66    2.09
  -6  -4   6   64.25   11.23
   6   4  -6   16.58    2.55
   6   4  -7    1.23    2.05
   6   4  -7    1.05    2.02
   6   4  -8   15.73    3.10
   6   4  -8    9.23    2.19
   6   4  -9   16.25    2.61
   6   4  -9   19.41    2.32
   6   4 -10   -0.48    1.79
   6   4 -11    1.60    2.36
   6   4 -12   18.68    2.84
   6   4 -13   12.23    4.06
   6   4 -14    2.35    1.72
   6   4 -16    0.85    1.79
   6   4 -17    5.93    2.53
   6   4 -18   15.64    4.10
  -5  -4 -19   13.06    6.01
   5   4  19   -1.92    5.51
  -5  -4 -18   -0.05    2.73
   5   4  18    4.64    5.39
  -5  -4 -17    8.10    5.43
   5   4  17   -3.84    4.47
  -5  -4 -16   -7.91    4.78
   5   4  16   -8.74    4.80
  -5  -4 -15   12.89    6.88
   5   4  15    5.09    6.92
  -5  -4 -14   28.04    9.14
   5   4  14   10.55    4.94
  -5  -4 -13   12.76    4.98
   5   4  13    3.65    3.89
  -5  -4 -12   -1.80    3.87
   5   4  12   -1.60    4.22
  -5  -4 -11    9.80    4.63
   5   4  11   10.03    3.73
  -5  -4 -10   21.91    5.90
   5   4  10    0.02    3.86
  -5  -4  -9   -4.13    3.16
   5   4   9    1.86    3.58
  -5  -4  -8   13.70    4.13
   5   4   8    0.52    3.31
  -5  -4  -7   15.41    3.28
   5   4   7   10.28    3.61
  -5  -4  -6   13.30    3.92
   5   4   6    7.72    3.21
  -5  -4  -5    0.01    2.45
   5   4   5    6.87    4.37
  -5  -4  -4    0.19    2.62
   5   4   4    2.47    3.26
  -5  -4  -3   63.63    4.98
   5   4   3   45.40    5.05
  -5  -4  -2    5.97    2.26
   5   4   2    6.18    2.70
  -5  -4  -1   14.88    2.93
   5   4   1   13.54    2.98
  -5  -4   0    4.65    2.33
   5   4   0    0.64    2.44
  -5  -4   1   16.45    2.92
   5   4  -1   22.93    5.38
  -5  -4   2   15.23    3.04
   5   4  -2    6.22    2.66
  -5  -4   3   64.09    4.89
   5   4  -3   67.70    4.91
  -5  -4   4    3.82    1.95
   5   4  -4    4.67    2.34
  -5  -4   5    1.27    1.96
   5   4  -5    0.27    2.25
  -5  -4   6    8.94    2.26
   5   4  -6    9.96    2.80
   5   4  -7    2.98    2.17
   5   4  -7   13.90    3.20
   5   4  -8   -1.97    1.94
   5   4  -8   -1.75    1.94
   5   4  -9    0.00    2.58
   5   4  -9    2.84    1.95
   5   4 -10   28.28    4.97
   5   4 -10   18.36    3.16
   5   4 -11   15.83    3.42
   5   4 -11   12.13    2.78
   5   4 -12    3.33    2.22
   5   4 -12   42.26   11.27
   5   4 -13   -4.12    2.25
   5   4 -13    1.67    2.23
   5   4 -14   15.37    3.03
   5   4 -14    7.15    2.69
   5   4 -15    1.09    2.26
   5   4 -15    0.50    1.51
   5   4 -16    7.41    3.00
   5   4 -16    0.15    1.62
   5   4 -18    4.77    2.66
   5   4 -19   -1.59    2.26
  -4  -4 -20    7.00    4.66
   4   4  20   -7.78    4.47
  -4  -4 -19   12.68    5.41
   4   4  19    5.45    5.14
  -4  -4 -18    6.31    6.81
   4   4  18    5.66    5.58
  -4  -4 -17   -6.26    4.05
   4   4  17   -0.49    5.24
  -4  -4 -16   16.84    9.07
   4   4  16   12.80    5.46
  -4  -4 -15   11.31    4.62
   4   4  15    4.02    4.60
  -4  -4 -14   15.54    6.54
   4   4  14    6.16    4.17
  -4  -4 -13    5.91    4.55
   4   4  13    1.89    4.19
  -4  -4 -12   13.98    4.23
   4   4  12   17.56    4.45
  -4  -4 -11   11.41    3.86
   4   4  11    1.89    3.58
  -4  -4 -10   -7.24    2.86
   4   4  10   -8.32    3.02
  -4  -4  -9   29.07    4.56
   4   4   9   34.11    5.42
  -4  -4  -8   30.12    4.00
   4   4   8   29.68    3.67
  -4  -4  -7   65.52    6.63
   4   4   7   51.82    5.82
  -4  -4  -6   12.30    3.77
   4   4   6    2.68    2.97
  -4  -4  -5   13.59    3.10
   4   4   5   11.46    3.26
  -4  -4  -4    5.45    2.62
   4   4   4   12.15    6.09
  -4  -4  -3    2.89    2.38
   4   4   3   -2.02    2.67
  -4  -4  -2   -1.36    2.34
   4   4   2   -4.06    2.83
  -4  -4  -1   86.30    5.68
   4   4   1   79.33    6.58
  -4  -4   0   45.23    4.21
   4   4   0   35.56    3.60
  -4  -4   1   85.81    5.88
   4   4  -1   92.31    6.28
  -4  -4   2    4.50    2.57
   4   4  -2    1.85    2.54
  -4  -4   3    7.54    2.56
   4   4  -3    6.17    3.03
  -4  -4   4    8.20    2.28
   4   4  -4    7.91    2.95
  -4  -4   5   12.84    2.43
   4   4  -5    7.88    2.40
  -4  -4   6   15.27    2.56
   4   4  -6   13.34    2.51
   4   4  -7   56.15    3.55
   4   4  -7   56.83    5.04
   4   4  -8   25.91    3.19
   4   4  -8   38.16    3.58
   4   4  -9   39.19    5.43
   4   4  -9   34.96    3.07
   4   4 -10    2.34    2.45
   4   4 -10   10.10    4.00
   4   4 -11   -0.09    2.38
   4   4 -11   13.44    3.43
   4   4 -12   20.26    2.41
   4   4 -12   16.78    3.13
   4   4 -13    8.74    2.72
   4   4 -13    5.92    2.73
   4   4 -14    6.17    4.48
   4   4 -14    0.36    2.69
   4   4 -15    2.81    2.90
   4   4 -15    5.18    3.73
   4   4 -16    8.93    3.29
   4   4 -16   12.04    3.54
   4   4 -17   -0.29    3.21
   4   4 -17    1.25    2.80
   4   4 -18    5.36    3.55
   4   4 -18   23.78    8.22
   4   4 -19    6.80    4.35
   4   4 -20   16.59    3.89
  -3  -4 -21   -2.98    4.05
   3   4  21    1.24    4.14
  -3  -4 -20   21.31    8.94
   3   4  20   13.39    4.58
  -3  -4 -19    3.21    5.14
   3   4  19   10.78    5.32
  -3  -4 -18    9.62    4.25
   3   4  18    2.59    5.27
  -3  -4 -17    4.21    6.69
   3   4  17   -5.00    3.89
  -3  -4 -16    3.04    4.69
   3   4  16    3.65    4.58
  -3  -4 -15   17.69    5.50
   3   4  15   18.89    5.65
  -3  -4 -14   19.52    5.31
   3   4  14   14.09    4.31
  -3  -4 -13   31.12    5.67
   3   4  13   31.32    5.65
  -3  -4 -12   15.76    4.48
   3   4  12   25.60    4.90
  -3  -4 -11   31.59    3.99
   3   4  11   15.92    3.73
  -3  -4 -10    4.92    3.37
   3   4  10   -3.95    3.33
  -3  -4  -9   92.92    7.07
   3   4   9   87.27    6.41
  -3  -4  -8   16.18    3.41
   3   4   8   24.27    4.23
  -3  -4  -7   -1.78    3.11
   3   4   7   12.70    3.95
  -3  -4  -6   13.61    3.71
   3   4   6   20.91    3.52
  -3  -4  -5   57.77    5.38
   3   4   5   47.51    5.24
  -3  -4  -4   10.75    3.34
   3   4   4   14.92    3.55
  -3  -4  -3   21.65    5.77
   3   4   3   25.75    3.66
  -3  -4  -2   12.95    3.29
   3   4   2   23.58    3.80
  -3  -4  -1   -0.80    2.48
   3   4   1   -0.99    2.69
  -3  -4   0    5.03    3.20
   3   4   0   11.37    4.00
  -3  -4   1   -0.46    1.95
   3   4  -1   -0.47    2.30
  -3  -4   2   23.08    3.87
   3   4  -2   17.08    3.30
  -3  -4   3   18.82    3.07
   3   4  -3   22.48    3.42
  -3  -4   4   19.43    2.50
   3   4  -4   20.51    3.17
  -3  -4   5   54.58    4.77
   3   4  -5   61.29    4.69
  -3  -4   6   13.16    3.25
   3   4  -6   11.61    3.01
   3   4  -7    5.72    3.10
   3   4  -7    3.25    3.03
   3   4  -8   14.60    2.80
   3   4  -8   23.84    3.21
   3   4  -9   92.40    5.65
   3   4  -9   93.18    5.80
   3   4 -10    0.32    2.17
   3   4 -10    4.13    2.20
   3   4 -11   15.77    3.30
   3   4 -11   14.56    3.09
   3   4 -12   16.33    4.55
   3   4 -12    8.95    2.92
   3   4 -13   37.66    3.90
   3   4 -13   74.73   11.15
   3   4 -15   19.22    3.79
   3   4 -15   29.03    4.96
   3   4 -16   -1.68    2.72
   3   4 -16   12.17    4.47
   3   4 -17    1.23    3.40
   3   4 -18    4.56    3.62
   3   4 -18   -1.48    1.86
   3   4 -19   15.14    4.16
   3   4 -19    7.99    3.77
   3   4 -20    0.22    3.45
   3   4 -21    9.35    4.48
  -2  -4 -21   -2.58    3.41
   2   4  21    8.02    4.65
  -2  -4 -20    0.48    4.73
   2   4  20    8.91    5.76
  -2  -4 -19   -3.87    4.26
   2   4  19    5.93    4.09
  -2  -4 -18   -0.06    6.13
   2   4  18   10.24    6.90
  -2  -4 -17    0.38    4.88
   2   4  17    3.25    4.58
  -2  -4 -16   -4.22    4.57
   2   4  16    9.63    4.44
  -2  -4 -15    9.54    4.23
   2   4  15    1.18    4.79
  -2  -4 -14   15.96    4.73
   2   4  14   19.66    4.33
  -2  -4 -13   11.94    5.82
   2   4  13   10.15    4.92
  -2  -4 -12   10.89    4.90
   2   4  12    4.91    3.81
  -2  -4 -11    5.97    3.48
   2   4  11   11.60    3.70
  -2  -4 -10   -0.26    2.23
   2   4  10    8.79    3.59
  -2  -4  -9   -2.06    3.19
   2   4   9   10.66    4.42
  -2  -4  -8    8.16    3.15
   2   4   8   10.77    3.94
  -2  -4  -7   19.29    4.04
   2   4   7   16.51    3.76
  -2  -4  -6   38.89    4.27
   2   4   6   46.14    4.30
  -2  -4  -5    7.69    2.52
   2   4   5    3.43    2.81
  -2  -4  -4   -1.45    2.87
   2   4   4    0.04    2.40
  -2  -4  -3    7.39    2.44
   2   4   3   12.46    3.11
  -2  -4  -2    5.03    3.63
   2   4   2    5.02    2.35
  -2  -4  -1   -1.54    2.61
   2   4   1    1.54    3.30
  -2  -4   0   36.47    4.03
   2   4   0   24.58    3.48
  -2  -4   1    2.87    2.62
   2   4  -1   -2.43    2.61
  -2  -4   2    6.49    2.77
   2   4  -2   -1.00    2.26
  -2  -4   3   13.88    3.12
   2   4  -3   18.46    3.76
  -2  -4   4    5.57    3.18
   2   4  -4    0.47    2.27
  -2  -4   5    8.14    2.10
   2   4  -5    6.02    2.51
  -2  -4   6   34.20    3.68
   2   4  -6   37.21    3.76
   2   4  -7   11.52    2.62
   2   4  -7   11.81    2.84
   2   4  -8    3.31    1.94
   2   4  -8   11.88    2.33
   2   4  -9    1.07    2.29
   2   4  -9    0.42    3.01
   2   4 -10   -3.73    2.62
   2   4 -10    2.03    2.96
   2   4 -11    9.60    3.52
   2   4 -11    5.69    3.01
   2   4 -12    7.44    2.74
   2   4 -12    3.35    2.83
   2   4 -13    7.67    3.34
   2   4 -13    5.25    2.61
   2   4 -14   11.55    3.59
   2   4 -14   17.83    3.47
   2   4 -15    5.54    2.85
   2   4 -15    1.20    3.24
   2   4 -16   12.55    5.27
   2   4 -16    7.02    2.59
   2   4 -17    5.67    4.63
   2   4 -17    0.85    2.47
   2   4 -18    6.93    4.16
   2   4 -18   -0.82    2.67
   2   4 -19   -0.03    3.34
   2   4 -20    7.90    6.65
   2   4 -20   -1.83    2.53
   2   4 -21    3.04    2.75
   2   4 -21    2.38    2.36
  -1  -4 -22   -3.26    1.92
  -1  -4 -21   -3.15    3.90
   1   4  21    3.83    4.70
  -1  -4 -20    6.41    4.32
   1   4  20    7.38    5.26
  -1  -4 -19    9.42    4.32
   1   4  19   13.13    5.85
  -1  -4 -18   14.79    4.81
   1   4  18   21.45    7.24
  -1  -4 -17   -2.23    3.93
   1   4  17    5.46    3.85
  -1  -4 -16    7.71    4.99
   1   4  16    4.23    4.32
  -1  -4 -15    6.43    4.28
   1   4  15    5.13    2.54
  -1  -4 -14   17.87    5.20
   1   4  14   11.78    5.10
  -1  -4 -13    5.04    3.78
   1   4  13   14.67    3.86
  -1  -4 -12    7.64    3.53
   1   4  12   -5.58    3.20
  -1  -4 -11   21.18    5.95
   1   4  11    2.52    4.23
  -1  -4 -10    0.35    3.57
   1   4  10   -7.98    3.14
  -1  -4  -9   34.32    3.91
   1   4   9   41.85    6.46
  -1  -4  -8    8.13    2.99
   1   4   8    8.14    2.80
  -1  -4  -7    5.24    4.46
   1   4   7    1.95    3.45
  -1  -4  -6   10.81    4.51
   1   4   6   10.62    3.35
  -1  -4  -5   37.76    3.81
   1   4   5   40.85    4.49
  -1  -4  -4    4.92    2.95
   1   4   4    6.60    3.24
  -1  -4  -3    1.17    2.12
   1   4   3    9.60    3.20
  -1  -4  -2   -0.97    2.64
   1   4   2    1.11    2.54
  -1  -4  -1    6.06    2.44
   1   4   1    7.95    2.84
  -1  -4   0    3.94    2.87
   1   4   0    6.44    2.81
  -1  -4   1   11.84    2.36
   1   4  -1   12.07    3.70
  -1  -4   2    2.83    2.24
   1   4  -2    3.35    3.60
  -1  -4   3    1.45    2.61
   1   4  -3    0.40    2.26
  -1  -4   4    0.42    2.75
   1   4  -4    7.13    2.19
  -1  -4   5   40.00    3.66
   1   4  -5   29.74    3.66
  -1  -4   6   10.47    2.45
   1   4  -6    2.77    3.25
   1   4  -7    8.97    3.92
   1   4  -7    4.95    3.38
   1   4  -8    6.53    2.56
   1   4  -8   20.90    3.99
   1   4  -9   40.91    4.19
   1   4  -9   37.64    3.76
   1   4 -10    2.48    4.47
   1   4 -10    1.34    4.21
   1   4 -11   11.48    2.74
   1   4 -11    9.55    3.47
   1   4 -12    5.06    3.19
   1   4 -12    3.42    4.18
   1   4 -13    6.84    2.84
   1   4 -13   12.30    2.86
   1   4 -14   13.57    4.21
   1   4 -14   25.60    6.47
   1   4 -15    8.94    3.77
   1   4 -15    7.06    2.70
   1   4 -16    6.64    3.49
   1   4 -16    8.25    3.65
   1   4 -17   -3.04    4.14
   1   4 -17    2.35    3.29
   1   4 -18   54.22   12.38
   1   4 -18   -2.08    3.56
   1   4 -19    0.01    5.63
   1   4 -19    8.79    4.53
   1   4 -20    0.57    4.06
   1   4 -20   -3.45    2.62
   1   4 -21   -0.93    2.50
   1   4 -21   -5.19    2.53
   1   4 -22   11.24    5.47
   1   4 -22    8.70    4.62
   0  -4 -22   -6.61    3.67
   0   4  22   41.72    8.94
   0  -4 -21   -8.65    3.84
   0   4  21    3.30    5.95
   0  -4 -20    2.75    4.43
   0   4  20   -1.61    3.94
   0  -4 -19    4.75    5.11
   0   4  19   -3.53    4.42
   0  -4 -18   10.47    5.53
   0   4  18    1.81    4.60
   0  -4 -17   -4.59    4.06
   0   4  17    8.14    5.66
   0  -4 -16   39.02    6.28
   0   4  16   43.92    5.78
   0  -4 -15   14.54    4.38
   0   4  15   24.75    7.43
   0  -4 -14    5.84    3.72
   0   4  14   -1.31    5.24
   0  -4 -13    5.21    3.87
   0   4  13   -1.18    2.89
   0  -4 -12   93.20    6.95
   0   4  12  110.92    7.06
   0  -4 -11    0.29    3.10
   0   4  11    4.61    3.05
   0  -4 -10   20.73    5.12
   0   4  10   14.29    3.87
   0  -4  -9    0.81    3.70
   0   4   9    0.72    3.27
   0  -4  -8  124.01    9.05
   0   4   8  108.01    6.44
   0  -4  -7  193.06   10.57
   0   4   7  194.38   12.23
   0  -4  -6   96.79    6.50
   0   4   6   85.44    6.49
   0  -4  -5   -2.05    3.19
   0   4   5    3.22    1.83
   0  -4  -4   16.79    5.70
   0   4   4    8.44    2.90
   0  -4  -3    3.08    2.89
   0   4   3    3.79    2.55
   0  -4  -2   13.93    4.05
   0   4   2    8.19    2.94
   0  -4  -1   93.93    6.42
   0   4   1   97.69    5.83
   0  -4   0    0.00    2.58
   0   4   0    2.28    2.35
   0  -4   1  101.55    6.24
   0   4  -1  108.21    6.27
   0  -4   2   12.94    2.69
   0   4  -2   11.05    2.80
   0  -4   3    1.38    2.45
   0   4  -3   -2.97    2.67
   0  -4   4    8.36    2.99
   0   4  -4    9.97    2.79
   0  -4   5   -0.91    2.41
   0   4  -5    3.89    2.66
   0  -4   6   82.76    5.66
   0   4  -6   77.58    6.07
   0   4  -6   97.06    6.37
   0   4  -7  199.20   10.12
   0   4  -7  190.06    8.89
   0   4  -8  107.05    6.34
   0   4  -8  116.29    6.81
   0   4  -9    3.78    2.68
   0   4  -9    1.84    2.52
   0   4 -10    8.51    2.80
   0   4 -10    9.95    3.80
   0   4 -11    2.44    4.28
   0   4 -11    1.91    3.44
   0   4 -12   89.33    6.23
   0   4 -12   96.46    8.19
   0   4 -13   -0.26    2.67
   0   4 -13   -2.48    3.51
   0   4 -14   -1.77    3.99
   0   4 -14   12.79    3.65
   0   4 -15   15.13    3.86
   0   4 -15    9.89    3.59
   0   4 -16   28.35    5.41
   0   4 -16   45.96    5.96
   0   4 -17    1.97    4.84
   0   4 -17   -5.30    3.24
   0   4 -18    7.11    3.88
   0   4 -18    8.57    4.62
   0   4 -19   34.46   10.44
   0   4 -19    2.97    4.88
   0   4 -20   -2.93    4.03
   0   4 -20    1.67    3.78
   0   4 -21    4.71    3.00
   0   4 -21    3.64    4.23
   0   4 -22   -3.68    3.42
   0   4 -22    2.35    5.68
   1  -4 -21   -4.64    3.55
  -1   4  21   11.14    4.71
   1  -4 -20    0.06    3.34
  -1   4  20   12.80    5.01
   1  -4 -19    1.28    4.78
  -1   4  19    7.30    4.40
   1  -4 -18   -1.84    3.90
  -1   4  18    2.65    4.11
   1  -4 -17   11.44    3.91
  -1   4  17    1.15    3.73
   1  -4 -16    3.23    3.99
  -1   4  16    0.79    4.05
   1  -4 -15   59.24   18.54
  -1   4  15   17.45    5.37
   1  -4 -14   12.90    5.27
  -1   4  14   11.95    5.16
   1  -4 -13   10.08    4.05
  -1   4  13    3.63    3.61
   1  -4 -12    5.67    3.97
  -1   4  12    1.05    3.06
   1  -4 -11   10.32    3.88
  -1   4  11    8.42    3.43
   1  -4 -10    1.44    3.59
  -1   4  10    4.02    3.37
   1  -4  -9   44.56    4.61
  -1   4   9   49.54    6.07
   1  -4  -8   11.62    3.41
  -1   4   8    6.90    3.14
   1  -4  -7   -0.69    3.74
  -1   4   7    0.42    2.97
   1  -4  -6   19.05    8.91
  -1   4   6    6.63    4.10
   1  -4  -5   36.79    4.73
  -1   4   5   28.45    3.33
   1  -4  -4    8.04    4.42
  -1   4   4    4.51    2.93
   1  -4  -3    2.05    2.90
  -1   4   3    0.18    3.10
   1  -4  -2    4.54    3.19
  -1   4   2    3.81    3.11
   1  -4  -1   13.75    3.18
  -1   4   1    5.11    2.83
   1  -4   0    3.23    2.65
  -1   4   0   -3.90    2.31
   1  -4   1    9.35    3.85
  -1   4  -1    5.00    2.30
   1  -4   2    8.65    4.22
  -1   4  -2    3.65    2.65
   1  -4   3   -4.55    2.17
  -1   4  -3   -0.90    2.61
   1  -4   4    4.55    2.22
  -1   4  -4   -1.03    2.88
   1  -4   5   30.17    3.60
  -1   4  -5   31.77    3.76
  -1   4  -6    7.57    3.04
  -1   4  -6   13.99    3.78
  -1   4  -7    1.05    2.64
  -1   4  -7   30.70   10.29
  -1   4  -8   12.31    3.77
  -1   4  -8   25.40    5.53
  -1   4  -9   37.31    3.64
  -1   4  -9   57.99    6.35
  -1   4 -10   -0.61    3.30
  -1   4 -10    5.19    2.95
  -1   4 -11    7.72    3.34
  -1   4 -11   26.10    7.07
  -1   4 -12    6.61    3.24
  -1   4 -12    3.12    3.65
  -1   4 -13   12.61    3.59
  -1   4 -13   11.36    3.18
  -1   4 -14   19.16    5.01
  -1   4 -14   16.99    4.39
  -1   4 -15   -5.99    3.27
  -1   4 -15    7.74    2.81
  -1   4 -16   10.20    5.79
  -1   4 -16   -3.14    3.84
  -1   4 -17   -6.22    4.83
  -1   4 -17   11.09    3.68
  -1   4 -18    0.33    4.38
  -1   4 -18   -3.08    3.68
  -1   4 -19   -1.17    3.78
  -1   4 -19    1.79    4.28
  -1   4 -20    6.93    4.50
  -1   4 -20   11.45    4.51
  -1   4 -21   -4.65    4.55
  -1   4 -21   17.59    6.01
  -1   4 -22   14.22    4.39
  -1   4 -22    3.54    4.69
   2  -4 -21   11.01    6.52
  -2   4  21    3.26    4.29
   2  -4 -20    5.18    2.46
  -2   4  20    5.69    4.27
   2  -4 -19   10.16    4.93
  -2   4  19    7.08    7.67
   2  -4 -18   16.19    9.70
  -2   4  18    1.61    3.96
   2  -4 -17   -3.08    3.50
  -2   4  17    8.54    3.77
   2  -4 -16    1.69    4.55
  -2   4  16   -3.02    4.05
   2  -4 -15   -7.90    3.70
  -2   4  15    2.12    4.17
   2  -4 -14   13.65    3.49
  -2   4  14   18.54    3.84
   2  -4 -13    5.71    4.06
  -2   4  13    1.12    3.13
   2  -4 -12    7.25    3.90
  -2   4  12   10.20    4.03
   2  -4 -11    4.86    3.46
  -2   4  11    7.16    3.10
   2  -4 -10    6.11    3.33
  -2   4  10    1.52    3.68
   2  -4  -9    4.10    3.84
  -2   4   9    1.58    3.20
   2  -4  -8   14.82    4.30
  -2   4   8    9.55    3.30
   2  -4  -7   10.99    3.03
  -2   4   7    8.58    2.59
   2  -4  -6   29.76    3.60
  -2   4   6   39.37    4.02
   2  -4  -5    4.58    3.17
  -2   4   5    0.34    2.74
   2  -4  -4    1.96    3.16
  -2   4   4    3.37    3.31
   2  -4  -3   20.45    3.24
  -2   4   3    5.80    2.92
   2  -4  -2   -1.25    3.24
  -2   4   2    0.45    2.55
   2  -4  -1    2.99    2.85
  -2   4   1    0.74    3.04
   2  -4   0   41.98    4.37
  -2   4   0   29.34    3.48
   2  -4   1    5.76    3.53
  -2   4  -1    1.62    3.20
   2  -4   2   -0.78    2.48
  -2   4  -2   -1.44    2.35
   2  -4   3   22.38    6.59
  -2   4  -3   17.14    3.00
   2  -4   4    7.22    4.30
  -2   4  -4    1.42    2.84
   2  -4   5    6.65    3.34
  -2   4  -5    5.12    2.96
  -2   4  -5   10.54    3.08
  -2   4  -6   40.09    4.31
  -2   4  -6   42.23    4.09
  -2   4  -7   17.88    3.75
  -2   4  -7   18.01    3.77
  -2   4  -8    9.91    3.11
  -2   4  -8    4.39    3.04
  -2   4  -9    6.71    4.16
  -2   4  -9    0.48    4.01
  -2   4 -10    1.33    3.09
  -2   4 -10    1.48    2.72
  -2   4 -11   17.02    4.22
  -2   4 -11   13.60    3.42
  -2   4 -12    6.67    3.79
  -2   4 -12    4.46    3.03
  -2   4 -13    3.30    3.87
  -2   4 -13    0.36    3.47
  -2   4 -14   11.68    3.18
  -2   4 -14    4.50    3.50
  -2   4 -15    9.19    5.55
  -2   4 -15    2.68    4.60
  -2   4 -16    0.85    3.89
  -2   4 -16   68.62   16.36
  -2   4 -17   16.90    8.08
  -2   4 -17    0.50    3.92
  -2   4 -18   28.79    7.78
  -2   4 -18   11.14    5.81
  -2   4 -19   11.70    5.54
  -2   4 -19   -5.60    4.61
  -2   4 -20    9.68    4.82
  -2   4 -20   19.81    8.70
  -2   4 -21    0.50    5.16
  -2   4 -21    6.56    4.29
   3  -4 -21    2.72    4.48
  -3   4  21    4.35    3.90
   3  -4 -20    1.12    3.76
  -3   4  20   -4.59    4.15
   3  -4 -19    2.58    2.91
  -3   4  19   11.54    4.25
   3  -4 -18    6.22    6.36
  -3   4  18    0.19    3.87
   3  -4 -17   -9.33    3.80
  -3   4  17    0.28    4.07
   3  -4 -16   -1.10    3.31
  -3   4  16   16.53    4.27
   3  -4 -15   35.14    4.76
  -3   4  15   23.50    4.68
   3  -4 -14   11.36    4.97
  -3   4  14   21.77    4.15
   3  -4 -13   25.29    3.18
  -3   4  13   26.31    4.74
   3  -4 -12   11.88    4.20
  -3   4  12   10.85    3.44
   3  -4 -11   13.86    3.82
  -3   4  11    9.09    3.35
   3  -4 -10    3.44    3.37
  -3   4  10    7.74    3.88
   3  -4  -9   80.60    5.82
  -3   4   9   94.39    8.23
   3  -4  -8   18.48    4.06
  -3   4   8   19.53    6.22
   3  -4  -7   -1.45    2.76
  -3   4   7    3.86    5.02
   3  -4  -6   31.48    7.48
  -3   4   6   15.16    3.25
   3  -4  -5   43.37    5.41
  -3   4   5   56.85    4.93
   3  -4  -4   21.98    4.52
  -3   4   4   11.05    3.04
   3  -4  -3   13.66    3.81
  -3   4   3   18.89    3.65
   3  -4  -2   18.04    3.27
  -3   4   2   14.03    3.04
   3  -4  -1   -1.64    3.91
  -3   4   1   10.64    3.67
   3  -4   0    1.92    3.09
  -3   4   0    0.91    3.24
   3  -4   1    9.38    8.14
  -3   4  -1    4.48    2.36
   3  -4   2   27.29    4.41
  -3   4  -2   16.54    3.37
   3  -4   3   17.51    4.27
  -3   4  -3   31.07    3.99
   3  -4   4   13.11    4.48
  -3   4  -4   14.53    2.95
  -3   4  -4   17.89    5.34
  -3   4  -5   50.63    5.22
  -3   4  -5   53.86    4.64
  -3   4  -6   12.12    3.20
  -3   4  -6   15.01    3.33
  -3   4  -7    2.48    3.65
  -3   4  -7    2.66    2.73
  -3   4  -8   24.07    3.88
  -3   4  -8   15.20    2.84
  -3   4  -9   75.19    6.77
  -3   4  -9   89.02    5.89
  -3   4 -10   -0.46    3.29
  -3   4 -10    2.43    3.50
  -3   4 -11   16.78    4.48
  -3   4 -11   24.48    4.29
  -3   4 -12   19.19    4.38
  -3   4 -12   15.60    3.58
  -3   4 -13   32.98    4.32
  -3   4 -13   33.00    5.06
  -3   4 -14   23.03    4.39
  -3   4 -14   18.78    4.97
  -3   4 -15   34.56   10.29
  -3   4 -15   20.37    4.05
  -3   4 -16   58.02   12.84
  -3   4 -16   10.53    4.14
  -3   4 -17   23.98    6.55
  -3   4 -17   -1.30    5.11
  -3   4 -18   -5.72    5.00
  -3   4 -18    0.14    3.85
  -3   4 -19   -1.12    4.42
  -3   4 -19   19.72    5.81
  -3   4 -20    4.10    5.20
  -3   4 -20    0.29    3.66
  -3   4 -21   -2.82    4.71
   4  -4 -20   -4.46    2.76
  -4   4  20    8.01    3.36
  -4   4  19    0.41    3.91
   4  -4 -18    0.52    4.83
  -4   4  18    2.88    4.67
   4  -4 -17   -8.80    3.69
  -4   4  17    4.91    3.93
   4  -4 -16   14.07    5.42
  -4   4  16    2.94    3.84
   4  -4 -15   -6.52    3.33
  -4   4  15    4.30    4.49
   4  -4 -14   -1.46    3.49
  -4   4  14   12.45    9.26
   4  -4 -13    5.67    3.46
  -4   4  13    7.95    3.88
   4  -4 -12   12.40    4.04
  -4   4  12   10.45    3.51
   4  -4 -11   -0.38    3.41
  -4   4  11    6.73    5.42
   4  -4 -10    3.71    4.57
  -4   4  10   -0.19    3.20
   4  -4  -9   31.42    4.97
  -4   4   9   32.59    4.61
   4  -4  -8   36.13    4.33
  -4   4   8   28.43    2.95
   4  -4  -7   91.05   14.13
  -4   4   7   43.90    4.98
   4  -4  -6   14.68    3.20
  -4   4   6   13.61    3.71
   4  -4  -5    5.69    2.89
  -4   4   5   18.82    3.49
   4  -4  -4    8.27    3.27
  -4   4   4    3.77    4.05
   4  -4  -3    2.28    3.17
  -4   4   3   -3.23    2.75
   4  -4  -2    0.42    5.52
  -4   4   2    1.17    3.01
   4  -4  -1   80.02    6.66
  -4   4   1   80.80    6.83
   4  -4   0   41.45    4.38
  -4   4   0   47.82    4.11
   4  -4   1   69.18    5.09
  -4   4  -1   83.00    5.89
   4  -4   2   -1.24    2.55
  -4   4  -2    0.92    3.70
   4  -4   3    5.11    3.02
  -4   4  -3    2.52    2.83
  -4   4  -3   -0.75    2.94
  -4   4  -4    4.61    3.10
  -4   4  -4    3.82    3.08
  -4   4  -5   30.28    3.70
  -4   4  -5   21.10    5.65
  -4   4  -6   14.43    3.43
  -4   4  -6   11.12    3.63
  -4   4  -7   61.83    5.88
  -4   4  -7   59.71    5.63
  -4   4  -8   32.76    3.92
  -4   4  -8   31.38    4.34
  -4   4  -9   27.67    4.46
  -4   4  -9   37.60    4.48
  -4   4 -10    3.57    3.52
  -4   4 -10   -0.51    4.81
  -4   4 -11    5.41    4.39
  -4   4 -11    3.47    4.50
  -4   4 -12   11.19    4.77
  -4   4 -12   12.36    3.82
  -4   4 -13   11.04    4.37
  -4   4 -13    4.19    4.01
  -4   4 -14    6.77    4.05
  -4   4 -14   -0.24    3.68
  -4   4 -15   -0.24    4.50
  -4   4 -15   12.57    4.37
  -4   4 -16   -1.47    3.91
  -4   4 -16   16.79    4.35
  -4   4 -17   -5.32    3.63
  -4   4 -17   -5.64    5.10
  -4   4 -18   -3.23    3.79
  -4   4 -18    0.27    4.85
  -4   4 -19    1.58    4.33
  -4   4 -19    0.01    4.37
  -4   4 -20    4.76    4.05
  -4   4 -20    3.64    4.25
   5  -4 -19    5.74    6.06
  -5   4  19    8.20    4.21
   5  -4 -18    7.25    4.14
  -5   4  18    8.16    4.44
   5  -4 -17    3.37    4.45
  -5   4  17    8.88    5.63
   5  -4 -16    7.54    3.95
  -5   4  16    1.09    3.01
   5  -4 -15    4.11    4.64
  -5   4  15   -3.88    3.71
   5  -4 -14   24.90    6.25
  -5   4  14   11.37    3.58
   5  -4 -13   17.57    6.38
  -5   4  13    8.99    3.38
   5  -4 -12   -2.40    3.37
  -5   4  12    2.51    3.40
   5  -4 -11    8.99    3.50
  -5   4  11   16.69    4.18
   5  -4 -10    7.86    3.74
  -5   4  10   10.23    4.30
   5  -4  -9   13.07    3.69
  -5   4   9    6.15    4.05
   5  -4  -8    5.72    4.28
  -5   4   8   -1.67    3.46
   5  -4  -7    5.37    3.00
  -5   4   7   13.84    3.54
   5  -4  -6    5.76    3.60
  -5   4   6   11.71    2.98
   5  -4  -5    1.83    2.75
  -5   4   5    9.87    3.38
   5  -4  -4    7.47    8.98
  -5   4   4    2.19    3.13
   5  -4  -3   48.13    4.67
  -5   4   3   50.64    4.90
   5  -4  -2   13.56    3.77
  -5   4   2   10.23    2.97
   5  -4  -1   23.63    4.58
  -5   4   1   28.75    6.54
   5  -4   0   -1.92    3.63
  -5   4   0    1.68    2.52
   5  -4   1   18.22    3.81
  -5   4  -1   17.99    3.92
   5  -4   2    5.21    3.61
  -5   4  -2    5.07    3.12
  -5   4  -2   11.51    3.24
  -5   4  -3   67.42    5.84
  -5   4  -3   66.16    6.44
  -5   4  -4    4.34    3.50
  -5   4  -4    4.19    3.55
  -5   4  -5   -6.93    3.11
  -5   4  -5   10.71    5.59
  -5   4  -6   12.07    3.24
  -5   4  -6    2.66    3.55
  -5   4  -7    7.19    3.37
  -5   4  -7    0.04    3.79
  -5   4  -8    5.66    4.53
  -5   4  -8    3.77    4.72
  -5   4  -9    1.27    3.70
  -5   4  -9   -2.25    2.99
  -5   4 -10    7.19    4.59
  -5   4 -10    6.50    3.93
  -5   4 -11   -0.13    4.82
  -5   4 -11   16.59    4.31
  -5   4 -12   10.69    4.88
  -5   4 -13    6.39    4.16
  -5   4 -13   -1.53    3.82
  -5   4 -14   18.36    6.93
  -5   4 -14    4.22    4.09
  -5   4 -15   -0.54    5.65
  -5   4 -15   10.79    3.90
  -5   4 -16   -2.89    5.31
  -5   4 -16    3.72    5.65
  -5   4 -17   14.36    6.10
  -5   4 -17   10.20    4.80
  -5   4 -18    0.53    4.03
  -5   4 -18   -5.52    3.90
  -5   4 -19   -0.25    3.67
  -5   4 -19    9.49    5.68
   6  -4 -18    0.25    2.87
  -6   4  18   11.07    4.04
   6  -4 -17   -2.73    3.05
  -6   4  17    7.80    3.99
   6  -4 -16    0.51    2.52
  -6   4  16    8.33    3.86
   6  -4 -15   -5.87    4.00
  -6   4  15   -5.41    3.19
   6  -4 -14   12.07    6.18
  -6   4  14   11.32    3.77
   6  -4 -13   -3.42    4.16
  -6   4  13   12.21    6.51
   6  -4 -12   17.34    5.09
  -6   4  12   16.81    4.83
   6  -4 -11    1.88    4.01
  -6   4  11   -0.13    3.46
   6  -4 -10    2.20    3.81
  -6   4  10    0.06    3.37
   6  -4  -9   14.87    4.06
  -6   4   9    8.12    3.68
   6  -4  -8    5.04    3.99
  -6   4   8    3.26    2.74
   6  -4  -7    0.61    3.21
  -6   4   7    4.25    4.06
   6  -4  -6   25.75    3.80
  -6   4   6   22.36    2.90
   6  -4  -5    2.91    4.77
  -6   4   5    6.75    3.52
   6  -4  -4   -1.32    3.79
  -6   4   4    0.94    2.92
   6  -4  -3   15.10    4.21
  -6   4   3    7.52    3.34
   6  -4  -2   14.70    4.01
  -6   4   2   11.87    3.54
   6  -4  -1   10.47    5.24
  -6   4   1    4.26    3.24
   6  -4   0    8.17    3.73
  -6   4   0   17.04    3.76
   6  -4   1   -3.41    3.32
  -6   4  -1    2.67    2.64
  -6   4  -1    2.24    3.40
  -6   4  -2   28.80    7.46
  -6   4  -2   13.80    6.20
  -6   4  -3   12.35    3.37
  -6   4  -3    4.07    3.23
  -6   4  -4   -1.02    3.04
  -6   4  -4   -0.04    3.32
  -6   4  -5    2.66    3.96
  -6   4  -5   -2.26    3.09
  -6   4  -6   22.39    5.97
  -6   4  -6   19.51    4.42
  -6   4  -7    3.49    4.36
  -6   4  -7   12.44    5.17
  -6   4  -8    5.77    3.35
  -6   4  -8    0.35    3.48
  -6   4  -9    6.09    3.40
  -6   4  -9   13.84    4.13
  -6   4 -10   -1.73    3.74
  -6   4 -10    2.24    3.91
  -6   4 -11  -11.29    3.81
  -6   4 -11    3.46    3.25
  -6   4 -12   11.11    4.27
  -6   4 -12   18.98    4.39
  -6   4 -13   -4.30    4.36
  -6   4 -13   13.79    7.07
  -6   4 -14    8.46    4.72
  -6   4 -14    6.47    4.59
  -6   4 -15    9.75    4.82
  -6   4 -15   23.64    6.90
  -6   4 -16    3.98    4.27
  -6   4 -16   10.68    4.29
  -6   4 -17    7.87    4.37
  -6   4 -17    4.88    5.86
  -6   4 -18    1.18    3.72
  -6   4 -18   12.89    6.84
   7  -4 -17    6.73    4.20
  -7   4  17    3.10    3.95
   7  -4 -16    1.79    2.66
  -7   4  16   -4.93    3.46
   7  -4 -15    3.08    3.42
  -7   4  15   -2.69    2.94
   7  -4 -14   13.14    3.83
  -7   4  14   12.43    3.88
   7  -4 -13    8.71    6.81
  -7   4  13    4.64    4.79
   7  -4 -12    2.88    3.20
  -7   4  12    7.51    4.47
   7  -4 -11    6.49    3.14
  -7   4  11   -4.67    3.09
   7  -4 -10   -5.10    3.99
  -7   4  10    4.97    3.92
   7  -4  -9   26.20   11.82
  -7   4   9   15.34    4.18
   7  -4  -8   22.33    7.48
  -7   4   8    7.56    3.17
   7  -4  -7    2.20    4.49
  -7   4   7    6.55    2.95
   7  -4  -6   30.07    4.21
  -7   4   6   23.33    3.32
   7  -4  -5    0.34    4.57
  -7   4   5   11.63    3.86
   7  -4  -4    5.45    4.24
  -7   4   4   -1.29    3.34
   7  -4  -3   11.58    3.52
  -7   4   3    5.56    3.73
   7  -4  -2    5.54    3.83
  -7   4   2    4.72    3.06
   7  -4  -1   27.87    9.74
  -7   4   1    3.24    3.36
  -7   4   1    0.69    3.09
  -7   4   0    7.46    3.93
  -7   4   0    4.89    4.05
  -7   4  -1   -3.31    2.96
  -7   4  -1    8.18    4.82
  -7   4  -2   11.00    3.26
  -7   4  -2    4.50    3.82
  -7   4  -3   18.86    3.44
  -7   4  -3   11.47    3.61
  -7   4  -4    5.03    2.82
  -7   4  -4   13.62    5.91
  -7   4  -5    6.94    4.18
  -7   4  -5   11.38    4.77
  -7   4  -6   32.00    4.83
  -7   4  -6   27.31    4.85
  -7   4  -7    0.60    3.66
  -7   4  -7    9.60    5.07
  -7   4  -8   -3.94    3.16
  -7   4  -8   12.11    7.09
  -7   4  -9    5.79    4.07
  -7   4  -9   14.07    4.48
  -7   4 -10    1.73    3.91
  -7   4 -10    5.60    4.22
  -7   4 -11    6.93    5.13
  -7   4 -11   36.23   12.83
  -7   4 -12    4.14    3.94
  -7   4 -12    3.59    6.64
  -7   4 -13   -3.01    4.29
  -7   4 -13    2.37    4.68
  -7   4 -14   20.78    4.52
  -7   4 -14    9.78    4.92
  -7   4 -15    0.42    4.28
  -7   4 -15   -3.71    3.43
  -7   4 -16    2.79    4.22
  -7   4 -16   -6.10    4.49
  -7   4 -17   10.58    5.78
  -7   4 -17   -4.68    3.27
   8  -4 -15    4.47    3.82
  -8   4  15    3.83    3.74
   8  -4 -14    0.17    2.18
  -8   4  14    9.90    3.41
   8  -4 -13   -0.75    3.41
  -8   4  13    5.86    3.51
   8  -4 -12    6.99    4.79
  -8   4  12    4.35    2.88
   8  -4 -11    4.56    4.17
  -8   4  11   -3.96    2.84
   8  -4 -10    8.13    4.84
  -8   4  10   -1.79    3.21
   8  -4  -9    7.82    3.23
  -8   4   9    5.66    3.13
   8  -4  -8    5.76    3.84
  -8   4   8    6.68    2.91
   8  -4  -7   21.36    5.10
  -8   4   7   13.85    3.65
   8  -4  -6    7.31    3.71
  -8   4   6    7.74    3.33
   8  -4  -5   45.24   10.82
  -8   4   5   -0.19    2.92
   8  -4  -4    9.30    4.42
  -8   4   4    6.99    3.48
   8  -4  -3    3.48    3.89
  -8   4   3    0.34    2.97
  -8   4   3    0.06    4.09
  -8   4   2    1.27    3.13
  -8   4   2    3.56    3.55
  -8   4   1   11.67    3.30
  -8   4   1    2.49    4.15
  -8   4   0   64.85    6.19
  -8   4   0   38.50    4.94
  -8   4  -1   13.86    5.85
  -8   4  -1   27.65    8.09
  -8   4  -2   15.97    7.27
  -8   4  -2    4.56    3.52
  -8   4  -3   -7.20    3.52
  -8   4  -3    7.16    4.54
  -8   4  -4   10.49    4.93
  -8   4  -4   10.72    3.94
  -8   4  -5    4.06    3.30
  -8   4  -5    3.69    3.49
  -8   4  -6   -0.37    3.18
  -8   4  -6   -0.61    3.95
  -8   4  -7    4.95    3.63
  -8   4  -7   20.37    6.58
  -8   4  -8   -9.63    4.04
  -8   4  -8    5.28    4.41
  -8   4  -9    9.06    3.76
  -8   4  -9    0.83    4.47
  -8   4 -10    3.65    4.53
  -8   4 -10    8.49    4.62
  -8   4 -11    1.40    3.65
  -8   4 -11    5.43    4.61
  -8   4 -12   11.24    4.52
  -8   4 -12    1.16    4.49
  -8   4 -13   15.61    8.65
  -8   4 -13    7.75    3.93
  -8   4 -14    3.24    4.03
  -8   4 -14    0.80    3.90
  -8   4 -15   -1.12    4.41
  -8   4 -15   -0.51    3.59
   9  -4 -13   -0.22    2.81
  -9   4  13    1.47    2.43
   9  -4 -12   12.13    6.14
  -9   4  12    1.46    2.25
   9  -4 -11   -2.29    2.94
  -9   4  11   54.63   10.28
   9  -4 -10   -4.20    3.55
  -9   4  10   -1.57    2.47
  -9   4   9    0.77    2.82
   9  -4  -8   -3.38    4.44
  -9   4   8    7.35    3.49
   9  -4  -7    3.74    4.72
  -9   4   7    4.28    3.36
   9  -4  -6    9.18    4.73
  -9   4   6   10.70    5.41
   9  -4  -5    3.81    3.72
  -9   4   5   -3.74    4.63
  -9   4   5    5.91    4.59
  -9   4   4    2.95    3.60
  -9   4   4    7.02    3.99
  -9   4   3    6.61    2.43
  -9   4   3    1.18    4.40
  -9   4   2    5.55    3.95
  -9   4   2   26.28    6.01
  -9   4   1    6.65    3.54
  -9   4   1   -1.58    4.80
  -9   4   0    6.20    3.60
  -9   4   0    5.87    6.93
  -9   4  -1   11.88    3.79
  -9   4  -1   12.62    4.96
  -9   4  -2   -6.48    3.29
  -9   4  -2   14.57    7.69
  -9   4  -3    0.97    3.09
  -9   4  -3    1.90    4.85
  -9   4  -4    4.49    4.09
  -9   4  -4   14.49    8.15
  -9   4  -5    0.69    3.46
  -9   4  -6   -0.88    3.83
  -9   4  -6   -1.07    3.80
  -9   4  -7  -10.10    3.62
  -9   4  -8   -7.19    3.76
  -9   4  -8    4.40    4.15
  -9   4  -9    4.36    4.78
  -9   4  -9   29.49   14.45
  -9   4 -10    4.69    5.63
  -9   4 -10    2.66    5.72
  -9   4 -11    9.15    5.98
  -9   4 -11   -1.64    3.86
  -9   4 -12    8.40    5.03
  -9   4 -12    8.53    3.66
  -9   4 -13   -1.69    4.12
  -9   4 -13    6.35    3.77
  10  -4 -10   -3.06    3.22
 -10   4  10    0.60    2.00
  10  -4  -9   15.44    6.37
 -10   4   9    5.89    2.86
  10  -4  -8   18.21    5.27
 -10   4   8    4.45    2.86
  10  -4  -7    0.22    3.17
 -10   4   7   13.34    5.41
 -10   4   7   -0.76    3.42
 -10   4   6    0.83    3.27
 -10   4   6   17.72    5.41
 -10   4   5   -1.10    3.03
 -10   4   5   -3.47    3.27
 -10   4   4   -6.39    3.24
 -10   4   4    6.11    4.68
 -10   4   3   12.55    3.51
 -10   4   3   11.71    4.21
 -10   4   2    4.57    4.11
 -10   4   2   -1.62    4.10
 -10   4   1    3.23    3.19
 -10   4   1   11.48    4.14
 -10   4   0    0.75    2.89
 -10   4   0   -2.52    3.73
 -10   4  -1    4.55    3.05
 -10   4  -1   -5.75    3.67
 -10   4  -2    5.50    5.25
 -10   4  -2    1.11    4.13
 -10   4  -3   -3.33    3.63
 -10   4  -3   -4.27    4.10
 -10   4  -4   -1.70    4.15
 -10   4  -4   -4.09    3.70
 -10   4  -5   -3.31    3.70
 -10   4  -5    3.67    6.37
 -10   4  -6    6.99    3.45
 -10   4  -6    2.75    5.73
 -10   4  -7   -3.25    3.68
 -10   4  -7   -0.47    3.79
 -10   4  -8   16.53    8.47
 -10   4  -8    7.87    5.58
 -10   4  -9    6.40    4.04
 -10   4  -9   20.15    5.80
 -10   4 -10   -2.69    4.07
 -11   4   4   -2.96    2.76
 -11   4   4   10.58    4.84
 -11   4   3    5.32    4.46
 -11   4   3    8.89    4.12
 -11   4   2   -0.90    3.23
 -11   4   2   11.40    5.76
 -11   4   1    3.39    4.13
 -11   4   1   12.67    6.69
 -11   4   0   -1.51    3.50
 -11   4   0    5.95    4.69
 -11   4  -1    0.27    3.49
 -11   4  -1    1.46    4.06
 -11   4  -2   -1.88    3.16
 -11   4  -3   -6.19    4.00
 -11   4  -3    1.84    3.01
 -11   4  -4   -4.59    3.19
  -9  -5  -3    2.62    2.25
   9   5   3   -4.80    3.13
  -9  -5  -2    0.65    1.72
   9   5   2   -0.06    1.76
  -9  -5  -1   -0.05    1.40
   9   5   1    0.81    1.47
  -9  -5   0    1.40    1.50
   9   5   0    2.35    3.42
  -9  -5   1   -0.86    1.52
   9   5  -1   -2.49    1.97
  -9  -5   2    3.02    2.03
   9   5  -2    3.74    3.09
  -9  -5   3    3.08    2.57
   9   5  -3   -0.16    1.07
  -8  -5  -8    3.11    5.52
   8   5   8    7.76    3.97
  -8  -5  -7   -6.96    2.60
   8   5   7   -0.60    1.29
  -8  -5  -6    4.17    2.98
   8   5   6    0.90    2.03
  -8  -5  -5   -0.25    2.34
   8   5   5   -1.06    1.92
  -8  -5  -4    0.12    2.66
   8   5   4    8.73    4.71
  -8  -5  -3    0.97    2.16
   8   5   3    0.74    3.28
  -8  -5  -2    1.68    2.25
   8   5   2    9.17    6.43
  -8  -5  -1    1.97    2.25
   8   5   1    1.04    1.82
  -8  -5   0    0.34    1.62
   8   5   0  329.81   28.08
  -8  -5   1    0.37    1.45
   8   5  -1    9.55    4.58
  -8  -5   2    8.95    3.47
   8   5  -2   -1.50    2.20
  -8  -5   3    1.39    2.23
   8   5  -3   10.15    6.77
  -8  -5   4   -0.23    2.73
   8   5  -4    8.14    4.47
  -8  -5   5    2.46    2.23
   8   5  -5    5.20    2.38
   8   5  -6    0.11    2.83
   8   5  -7   10.84    3.84
   8   5  -8   18.22    4.80
   8   5  -9   20.01    4.01
  -7  -5 -11    9.99    4.67
   7   5  11    2.78    4.17
  -7  -5 -10    2.69    3.98
   7   5  10    0.02    5.12
  -7  -5  -9    4.35    3.46
   7   5   9   35.15    9.21
  -7  -5  -8    3.91    3.28
  -7  -5  -7    2.66    3.28
   7   5   7    2.32    4.54
  -7  -5  -6    3.73    3.53
   7   5   6    2.35    2.50
  -7  -5  -5   47.24   10.61
   7   5   5    2.79    2.62
  -7  -5  -4   11.98    3.74
   7   5   4   10.66    4.27
  -7  -5  -3    2.77    2.88
   7   5   3   -1.03    3.22
  -7  -5  -2    0.57    2.70
   7   5   2    7.45    4.86
  -7  -5  -1    5.35    3.02
   7   5   1    1.42    2.78
  -7  -5   0    0.10    2.02
   7   5   0    5.34    2.77
  -7  -5   1    2.89    2.34
   7   5  -1    7.30    5.19
  -7  -5   2    1.69    2.53
   7   5  -2    6.09    2.69
  -7  -5   3   10.88    3.14
   7   5  -3    1.91    4.09
  -7  -5   4   17.57    3.15
   7   5  -4   19.23    4.01
  -7  -5   5    0.39    2.10
   7   5  -5    8.40    5.54
  -7  -5   6    0.40    2.25
   7   5  -6    5.07    2.64
   7   5  -6    1.72    2.03
   7   5  -7    1.68    2.45
   7   5  -8   -7.24    3.19
   7   5  -9    0.09    3.27
   7   5 -10    2.15    3.16
   7   5 -11    7.51    2.45
  -6  -5 -13   -4.25    2.57
   6   5  13    1.27    3.58
  -6  -5 -12    9.81    3.88
   6   5  12   -2.63    4.13
  -6  -5 -11   -9.52    4.19
   6   5  11    8.18    5.51
  -6  -5 -10   12.90    4.26
   6   5  10    0.37    7.78
  -6  -5  -9    1.50    3.64
   6   5   9    9.57    3.78
  -6  -5  -8   -0.62    3.36
   6   5   8   15.75    5.29
  -6  -5  -7   10.16    3.72
   6   5   7    4.76    4.15
  -6  -5  -6   11.48    4.37
   6   5   6   59.78   15.12
  -6  -5  -5    2.81    3.11
   6   5   5   11.60    4.00
  -6  -5  -4    6.60    3.37
   6   5   4   10.17    3.83
  -6  -5  -3    3.33    2.83
   6   5   3   11.08    3.62
  -6  -5  -2    5.70    2.69
   6   5   2   -2.19    3.17
  -6  -5  -1    9.28    2.82
   6   5   1    0.52    3.60
  -6  -5   0   -5.09    3.06
   6   5   0    3.24    3.21
  -6  -5   1    0.76    2.65
   6   5  -1    8.19    2.87
  -6  -5   2    0.69    3.20
   6   5  -2   -1.75    3.34
  -6  -5   3    9.01    4.19
   6   5  -3    5.60    4.00
  -6  -5   4   15.53    4.42
   6   5  -4    4.44    2.60
  -6  -5   5    7.30    2.67
   6   5  -5   -0.92    2.43
  -6  -5   6    1.96    2.61
   6   5  -6    6.67    3.36
   6   5  -7   10.53    3.45
   6   5  -7   -0.08    2.15
   6   5  -8    5.22    2.48
   6   5  -8    1.39    2.00
   6   5  -9   18.72    5.16
   6   5  -9    9.44    2.46
   6   5 -10   18.85    4.80
   6   5 -11   13.40    4.16
   6   5 -12    3.76    2.18
   6   5 -13    4.70    2.47
  -5  -5 -14    5.62    4.20
   5   5  14   -3.53    3.97
  -5  -5 -13   10.09    5.66
   5   5  13    4.58    5.84
  -5  -5 -12   -0.27    4.04
   5   5  12    4.93    4.69
  -5  -5 -11    7.97    4.40
   5   5  11    5.58    5.35
  -5  -5 -10   -0.03    4.11
   5   5  10   -3.79    4.37
  -5  -5  -9    5.40    3.88
   5   5   9    2.48    5.97
  -5  -5  -8    1.30    3.62
   5   5   8    7.57    5.75
  -5  -5  -7   23.52    7.67
   5   5   7    8.87    4.52
   5   5   6    1.35    4.22
  -5  -5  -5   -2.39    3.32
   5   5   5   11.96    4.54
  -5  -5  -4   16.71    4.49
   5   5   4   12.66    5.46
  -5  -5  -3   -0.88    2.73
   5   5   3   11.28    5.04
  -5  -5  -2   -0.01    2.46
   5   5   2    4.12    2.39
  -5  -5  -1   16.05    3.67
   5   5   1    2.40    2.79
  -5  -5   0   12.59    2.50
   5   5   0    4.30    3.22
  -5  -5   1    6.20    2.84
   5   5  -1    8.45    3.42
  -5  -5   2    6.16    3.25
   5   5  -2    6.64    4.41
   5   5  -3    5.69    3.70
  -5  -5   4   17.89    3.25
   5   5  -4    2.31    3.32
  -5  -5   5    3.34    2.58
   5   5  -5    7.14    3.69
  -5  -5   6    2.01    3.07
   5   5  -6    8.70    2.68
   5   5  -7   -4.18    3.10
   5   5  -7    1.43    3.09
   5   5  -8  -10.06    2.92
   5   5  -8   15.72    5.54
   5   5  -9    6.14    2.84
   5   5  -9   11.14    5.56
   5   5 -10    9.18    3.57
   5   5 -10    3.57    2.68
   5   5 -11    9.34    3.62
   5   5 -11    0.79    2.87
   5   5 -12    2.70    3.05
   5   5 -12   27.51    7.21
   5   5 -13    3.57    3.26
   5   5 -14   -3.20    2.38
   5   5 -15    1.39    1.67
  -4  -5 -16    5.59    4.26
   4   5  16    4.27   10.18
  -4  -5 -15    6.79    4.14
   4   5  15    6.01    5.70
  -4  -5 -14    3.86    4.52
   4   5  14   -3.81    4.79
  -4  -5 -13   -3.60    4.54
   4   5  13   -4.11    4.24
  -4  -5 -12    5.17    4.44
   4   5  12   -0.06    4.40
  -4  -5 -11   -0.56    4.07
   4   5  11    7.48    4.09
  -4  -5 -10   16.79    5.63
   4   5  10   12.13    4.79
   4   5   9   13.08    4.66
  -4  -5  -8   -0.22    3.77
   4   5   8    4.37    4.43
  -4  -5  -7   -4.53    3.49
   4   5   7    3.17    3.75
  -4  -5  -6   12.21    3.65
   4   5   6    0.13    3.70
  -4  -5  -5    0.65    2.91
   4   5   5    0.91    4.16
  -4  -5  -4    1.36    3.21
   4   5   4   -1.61    3.23
  -4  -5  -3   19.63    3.30
   4   5   3   12.67    3.88
  -4  -5  -2    7.39    2.73
   4   5   2    2.27    2.70
  -4  -5  -1   18.09    3.76
   4   5   1   24.34    4.40
  -4  -5   0    9.67    3.33
   4   5   0    9.81    4.20
  -4  -5   1   27.77    3.82
   4   5  -1    9.61    3.84
  -4  -5   2    4.89    6.34
   4   5  -2   19.72    5.20
  -4  -5   3   18.71    4.21
   4   5  -3   14.19    4.16
  -4  -5   4    0.49    2.70
   4   5  -4   -5.28    2.51
  -4  -5   5   -2.15    2.50
   4   5  -5    5.88    2.38
  -4  -5   6    4.83    3.38
   4   5  -6    1.75    3.24
   4   5  -7    2.26    3.40
   4   5  -7   -5.48    2.86
   4   5  -8    2.76    3.34
   4   5  -8    7.29    2.77
   4   5  -9   10.23    2.75
   4   5  -9   10.97    3.34
   4   5 -10   10.18    6.48
   4   5 -10    1.36    2.80
   4   5 -11   10.59    3.53
   4   5 -11    6.75    2.48
   4   5 -12   16.06    5.16
   4   5 -12    3.28    2.07
   4   5 -13   -3.10    2.90
   4   5 -13   -0.39    2.09
   4   5 -14    7.43    3.57
   4   5 -14    7.10    3.32
   4   5 -15    8.26    3.29
   4   5 -16    1.26    2.19
  -3  -5 -17    6.31    4.58
  -3  -5 -16    6.74    3.68
   3   5  16   -1.67    6.31
  -3  -5 -15    5.08    4.37
   3   5  15    2.49    4.45
  -3  -5 -14    5.21    4.66
   3   5  14    0.75    3.83
  -3  -5 -13    7.43    4.69
   3   5  13    2.21    2.98
  -3  -5 -12    5.93    4.08
   3   5  12   -2.27    3.98
  -3  -5 -11   22.97    5.95
   3   5  11   12.85    7.96
  -3  -5 -10    7.29    5.67
   3   5  10    1.93    4.55
  -3  -5  -9    4.88    3.79
   3   5   9    0.61    3.35
  -3  -5  -8    6.29    3.90
   3   5   8    4.36    4.08
  -3  -5  -7   27.08    4.53
   3   5   7   20.96    4.95
  -3  -5  -6   36.12    4.99
   3   5   6   38.54    4.77
  -3  -5  -5  -11.45    3.95
   3   5   5   -3.34    3.15
  -3  -5  -4   52.85    6.06
   3   5   4   49.48    5.21
  -3  -5  -3    4.79    3.56
   3   5   3   -2.91    3.74
  -3  -5  -2    4.27    3.05
   3   5   2   -1.07    3.80
  -3  -5  -1    5.32    2.88
   3   5   1   -3.42    3.98
  -3  -5   0   20.10    3.65
   3   5   0   24.21    3.65
  -3  -5   1    1.66    3.00
   3   5  -1    0.21    3.48
  -3  -5   2    6.90    2.91
   3   5  -2    7.31    2.83
  -3  -5   3   15.63    4.82
   3   5  -3    2.11    3.97
  -3  -5   4   42.36    4.10
   3   5  -4   34.94    4.11
  -3  -5   5   11.16    6.59
   3   5  -5    3.20    3.94
  -3  -5   6   46.02    4.59
   3   5  -6   40.20    5.05
   3   5  -7   25.39    4.10
   3   5  -7   26.90    4.12
   3   5  -8   -5.25    3.13
   3   5  -8    5.95    3.59
   3   5  -9   -0.28    3.50
   3   5  -9    1.27    3.03
   3   5 -10   -0.80    3.78
   3   5 -10   -1.44    2.22
   3   5 -11   10.97    4.22
   3   5 -11    9.50    3.07
   3   5 -12    2.47    3.20
   3   5 -12    5.18    3.47
   3   5 -13   11.52    4.87
   3   5 -13    6.82    2.71
   3   5 -14    0.61    2.85
   3   5 -14   -1.00    3.84
   3   5 -15    0.57    4.25
   3   5 -15   11.15    4.36
   3   5 -16    3.87    3.29
   3   5 -17    3.43    3.87
  -2  -5 -17   -0.83    3.46
   2   5  17    2.70    3.50
  -2  -5 -16    2.23    4.06
   2   5  16    5.48    6.43
  -2  -5 -15   -0.37    4.48
   2   5  15   -8.18    3.93
  -2  -5 -14    3.31    2.98
   2   5  14   10.68    6.91
  -2  -5 -13   -1.87    4.17
   2   5  13   58.40   11.94
  -2  -5 -12   -4.21    3.63
   2   5  12   -3.37    3.37
  -2  -5 -11   -3.08    4.44
   2   5  11   -2.15    4.56
  -2  -5 -10   24.42    5.04
   2   5  10   13.43    3.67
  -2  -5  -9   19.32    5.43
   2   5   9   10.45    4.00
  -2  -5  -8   -3.00    3.24
   2   5   8    4.15    4.30
  -2  -5  -7    4.08    3.84
   2   5   7   -3.61    3.28
  -2  -5  -6   13.23    3.41
   2   5   6    1.43    3.80
  -2  -5  -5    3.52    4.15
   2   5   5    4.63    3.58
  -2  -5  -4    2.97    3.31
   2   5   4    6.07    3.65
  -2  -5  -3    7.90    3.68
   2   5   3   11.41    3.87
  -2  -5  -2    5.72    3.26
   2   5   2   -6.78    3.73
  -2  -5  -1   -3.19    3.79
   2   5   1   -0.52    2.43
  -2  -5   0    3.98    2.87
   2   5   0    4.95    2.99
  -2  -5   1    2.36    2.74
   2   5  -1    7.48    3.04
  -2  -5   2    0.75    3.85
   2   5  -2    1.00    3.02
  -2  -5   3   16.97    3.24
   2   5  -3   18.95    3.40
  -2  -5   4    6.10    2.37
   2   5  -4    0.78    3.15
  -2  -5   5    5.86    3.95
   2   5  -5   -0.76    2.72
  -2  -5   6    0.93    3.88
   2   5  -6   -1.31    2.74
   2   5  -7   -2.37    3.03
   2   5  -7    1.43    3.05
   2   5  -8    8.13    3.10
   2   5  -8    1.87    3.87
   2   5  -9    4.31    3.79
   2   5  -9    8.06    4.02
   2   5 -10   15.67    3.92
   2   5 -10    9.84    2.97
   2   5 -11    4.32    3.25
   2   5 -11    5.24    3.43
   2   5 -12    0.95    3.46
   2   5 -12    7.90    4.76
   2   5 -13   -1.67    3.53
   2   5 -13   -4.35    2.62
   2   5 -14    5.53    3.92
   2   5 -14   -8.20    3.15
   2   5 -15   12.47    5.26
   2   5 -15   -1.39    3.07
   2   5 -16    5.32    4.26
   2   5 -16    7.28    3.72
   2   5 -17    7.28    4.05
   2   5 -17   17.83    4.07
  -1  -5 -18    0.07    5.64
   1   5  18    5.97    3.53
  -1  -5 -17    0.56    3.70
   1   5  17   -2.86    4.30
  -1  -5 -16    2.17    4.06
   1   5  16   -2.31    3.76
  -1  -5 -15   -0.04    6.38
   1   5  15    5.05    4.40
  -1  -5 -14    4.59    4.65
   1   5  14    4.96    5.27
  -1  -5 -13    6.99    4.47
   1   5  13    7.44    4.24
  -1  -5 -12    3.83    4.93
   1   5  12    3.22    4.56
  -1  -5 -11   21.75    5.36
   1   5  11   11.79    3.85
  -1  -5 -10    2.88    5.76
   1   5  10    3.69    3.84
  -1  -5  -9    6.20    3.46
   1   5   9   -0.81    3.22
  -1  -5  -8   -1.95    3.60
   1   5   8   -8.73    3.64
  -1  -5  -7   22.34    3.62
   1   5   7   19.77    3.44
  -1  -5  -6   20.68    3.75
   1   5   6   17.03    3.33
  -1  -5  -5    0.14    3.46
   1   5   5    3.12    3.23
  -1  -5  -4   37.01    6.31
   1   5   4   29.60    4.21
  -1  -5  -3   -5.70    2.97
   1   5   3    4.57    3.08
  -1  -5  -2    1.82    2.86
   1   5   2   -1.13    3.12
  -1  -5  -1    4.63    3.57
   1   5   1    1.49    3.07
  -1  -5   0    9.04    3.39
   1   5   0    1.64    3.24
  -1  -5   1    6.73    3.91
   1   5  -1    5.95    3.29
  -1  -5   2   -0.82    2.56
   1   5  -2    6.49    3.15
  -1  -5   3   10.43    4.25
   1   5  -3    5.84    3.34
  -1  -5   4   29.26    3.91
   1   5  -4   31.26    4.50
  -1  -5   5    7.99    3.74
   1   5  -5   -0.27    3.44
  -1  -5   6   18.87    4.47
   1   5  -6    9.60    3.20
   1   5  -6   15.10    3.43
   1   5  -7   15.34    4.40
   1   5  -7    9.88    3.47
   1   5  -8    4.31    3.76
   1   5  -8    2.32    3.14
   1   5  -9    2.15    4.46
   1   5  -9    1.42    3.31
   1   5 -10    1.44    4.94
   1   5 -11    7.58    2.96
   1   5 -11   13.26    3.61
   1   5 -12    4.68    3.30
   1   5 -12    5.61    3.80
   1   5 -13   -0.71    4.47
   1   5 -13   -0.26    3.21
   1   5 -14   -2.70    2.92
   1   5 -14    1.64    4.57
   1   5 -15    4.90    5.41
   1   5 -15   -4.23    2.92
   1   5 -16   -0.69    3.05
   1   5 -16   -2.22    3.07
   1   5 -17    4.24    3.70
   1   5 -17   -2.53    2.69
   1   5 -18    7.44    3.14
   1   5 -18   14.81    7.66
   0  -5 -18    3.21    3.34
   0   5  18   -1.03    3.08
   0  -5 -17   16.60    5.22
   0   5  17    7.03    4.15
   0  -5 -16    1.65    5.10
   0   5  16   -5.87    2.76
   0  -5 -15    2.40    4.13
   0   5  15    8.23    3.35
   0  -5 -14    4.25    3.63
   0   5  14   15.13    4.32
   0  -5 -13   -1.71    3.87
   0   5  13   -0.08    4.23
   0  -5 -12   16.56    7.68
   0   5  12   -6.05    3.96
   0  -5 -11    4.56    4.22
   0   5  11    5.03    3.84
   0  -5 -10   24.61    4.94
   0   5  10   33.01    4.93
   0  -5  -9   13.04    4.10
   0   5   9    8.19    4.29
   0  -5  -8    5.14    4.86
   0   5   8    4.09    3.54
   0  -5  -7   14.07    3.98
   0   5   7   20.07    6.03
   0  -5  -6   -2.31    3.57
   0  -5  -5    2.89    3.61
   0   5   5   -3.33    3.39
   0  -5  -4   39.25    4.37
   0   5   4   45.01    7.50
   0  -5  -3   84.91    6.88
   0   5   3   87.30    7.92
   0  -5  -2   -2.28    3.07
   0   5   2    4.29    2.38
   0  -5  -1   20.96    4.41
   0   5   1   24.01    4.60
   0  -5   0    5.03    3.55
   0   5   0   -4.05    3.19
   0  -5   1   37.08    4.48
   0   5  -1   23.07    3.76
   0  -5   2    9.93    3.46
   0   5  -2   -1.47    3.25
   0  -5   3   90.16    6.51
   0   5  -3   92.90    5.90
   0  -5   4   28.14    4.04
   0   5  -4   29.82    3.64
   0  -5   5    7.18    3.35
   0   5  -5   -2.92    3.33
   0  -5   6   -0.16    3.19
   0   5  -6    2.81    3.24
   0   5  -6    4.99    3.11
   0   5  -7    4.74    3.13
   0   5  -7    1.76    3.10
   0   5  -8   -1.31    3.03
   0   5  -8    7.02    3.24
   0   5  -9    2.02    3.21
   0   5  -9    1.33    2.76
   0   5 -10   32.68    5.07
   0   5 -10   36.09    5.02
   0   5 -11   -1.45    4.11
   0   5 -11    4.98    4.03
   0   5 -12    4.10    3.64
   0   5 -12    4.80    4.36
   0   5 -13    4.71    5.44
   0   5 -13   -1.05    3.09
   0   5 -14    7.75    3.75
   0   5 -14   12.21    4.90
   0   5 -15  -10.05    4.31
   0   5 -15   15.79    4.60
   0   5 -16   11.71    4.33
   0   5 -16    3.12    4.15
   0   5 -17   11.57    6.05
   0   5 -17   15.03    4.01
   0   5 -18   -1.01    3.16
   0   5 -18   12.44    4.13
   1  -5 -18   -3.58    3.35
  -1   5  18   -6.01    4.06
   1  -5 -17   -9.16    3.82
  -1   5  17   -7.87    4.15
   1  -5 -16   10.77    5.12
  -1   5  16   -5.14    3.66
   1  -5 -15   12.27    7.09
  -1   5  15    4.36    4.69
   1  -5 -14    9.04    7.63
   1  -5 -13   95.63   19.00
  -1   5  13    8.02    5.17
   1  -5 -12    5.89    4.54
  -1   5  12   10.87    3.87
   1  -5 -11    5.32    5.32
  -1   5  11    5.02    2.73
   1  -5 -10    8.45    4.39
  -1   5  10    7.49    5.12
   1  -5  -9   -4.49    3.98
  -1   5   9    0.36    3.96
   1  -5  -8    7.13    3.75
  -1   5   8    5.06    3.40
   1  -5  -7   18.86    4.80
  -1   5   7   22.41    4.87
   1  -5  -6   21.23    4.08
  -1   5   6   12.08    4.47
   1  -5  -5    4.68    3.09
  -1   5   5   -0.08    3.55
   1  -5  -4   41.71    4.54
  -1   5   4   24.05    4.26
   1  -5  -3    9.39    3.51
  -1   5   3    1.06    3.16
   1  -5  -2    2.03    3.06
  -1   5   2    2.18    4.05
   1  -5  -1   -5.67    3.09
  -1   5   1    8.86    3.96
   1  -5   0    7.74    3.04
  -1   5   0   12.95    3.82
   1  -5   1    3.15    4.30
  -1   5  -1   -4.46    3.19
   1  -5   2    3.93    3.13
  -1   5  -2    9.61    3.80
   1  -5   3   10.52    5.47
  -1   5  -3    6.72    3.22
   1  -5   4   27.43    4.45
  -1   5  -4   24.11    2.95
   1  -5   5    9.46    3.16
  -1   5  -5    5.51    3.51
  -1   5  -5   -1.00    3.02
  -1   5  -6   13.15    3.41
  -1   5  -6   13.91    3.50
  -1   5  -7   20.15    3.67
  -1   5  -7   23.31    4.31
  -1   5  -8   13.06    3.94
  -1   5  -8    2.89    3.19
  -1   5  -9    1.51    4.14
  -1   5  -9    1.85    4.55
  -1   5 -10    0.12    3.69
  -1   5 -10   -0.75    3.23
  -1   5 -11   13.49    4.07
  -1   5 -11    4.21    3.36
  -1   5 -12   39.09   13.30
  -1   5 -12    4.39    3.45
  -1   5 -13   10.82    5.57
  -1   5 -13    3.22    3.25
  -1   5 -14   -8.25    3.62
  -1   5 -14   11.69    7.63
  -1   5 -15    3.71    3.66
  -1   5 -15    6.66    3.48
  -1   5 -16    0.48    4.40
  -1   5 -16   14.17    5.13
  -1   5 -17   -0.62    3.91
  -1   5 -17    0.99    4.35
  -1   5 -18    5.55    3.78
  -1   5 -18   -5.96    4.20
   2  -5 -17   -2.12    4.62
  -2   5  17    0.31    4.41
   2  -5 -16   -0.40    3.79
  -2   5  16   13.04    5.61
   2  -5 -15   -5.07    4.21
  -2   5  15   11.22    5.33
   2  -5 -14   15.38    7.26
  -2   5  14    7.49    4.53
   2  -5 -13    4.64    3.64
  -2   5  13    5.46    3.35
   2  -5 -12    4.55    4.35
  -2   5  12    5.46    5.51
   2  -5 -11    4.83    4.48
  -2   5  11   -3.99    4.06
   2  -5 -10   19.71    4.93
  -2   5  10   19.28    5.10
   2  -5  -9    1.70    4.14
  -2   5   9    8.49    4.48
   2  -5  -8   -3.14    3.70
  -2   5   8   10.82    5.39
   2  -5  -7    3.96    3.60
  -2   5   7   -0.04    3.35
   2  -5  -6    0.53    3.71
  -2   5   6   -1.75    3.03
   2  -5  -5   10.26    4.01
  -2   5   5   -7.33    3.11
   2  -5  -4   21.12    7.54
  -2   5   4    7.55    2.75
   2  -5  -3   14.87    3.88
  -2   5   3   18.12    4.14
   2  -5  -2   -1.58    3.97
  -2   5   2    4.75    3.48
   2  -5  -1   -9.49    3.56
  -2   5   1    1.54    3.04
   2  -5   0   -2.34    3.41
  -2   5   0    6.48    3.31
   2  -5   1   -0.83    3.55
  -2   5  -1    3.36    5.25
   2  -5   2    5.77    3.57
  -2   5  -2    8.92    3.33
   2  -5   3   13.30    3.32
  -2   5  -3   27.54    6.24
   2  -5   4    0.64    4.44
  -2   5  -4    5.57    3.75
   2  -5   5    5.35    3.64
  -2   5  -5    0.83    3.80
  -2   5  -5   -6.26    2.79
  -2   5  -6    5.00    3.14
  -2   5  -6   -9.48    3.55
  -2   5  -7    1.14    3.58
  -2   5  -7   10.63    3.55
  -2   5  -8   -6.50    2.77
  -2   5  -8   18.57    7.59
  -2   5  -9   20.08    9.71
  -2   5  -9    5.02    3.54
  -2   5 -10   22.40    5.24
  -2   5 -10   18.45    3.89
  -2   5 -11   -4.47    3.23
  -2   5 -11    6.87    4.56
  -2   5 -12   10.93    5.14
  -2   5 -12    3.94    5.95
  -2   5 -13   -4.92    3.64
  -2   5 -13   -1.72    3.64
  -2   5 -14   -1.53    4.70
  -2   5 -14    8.01    4.78
  -2   5 -15    2.80    6.19
  -2   5 -15    6.39    4.49
  -2   5 -16   -7.25    4.97
  -2   5 -16   13.58    4.03
  -2   5 -17   18.47    6.62
  -2   5 -17   18.39    5.55
   3  -5 -17   -1.34    3.56
  -3   5  17   -9.04    3.65
   3  -5 -16    5.94    7.39
  -3   5  16   -1.37    4.84
   3  -5 -15    9.69    4.62
  -3   5  15   -7.48    4.33
   3  -5 -14    6.64    4.16
  -3   5  14    3.30    4.30
   3  -5 -13   -5.15    3.80
  -3   5  13    5.16    4.50
   3  -5 -12   -4.36    4.89
  -3   5  12   -6.54    3.58
   3  -5 -11    8.34    4.35
  -3   5  11   11.96    4.32
   3  -5 -10   -4.74    3.38
  -3   5  10    4.81    3.70
   3  -5  -9    6.29    3.97
  -3   5   9   14.85    6.75
   3  -5  -8   12.48    4.10
  -3   5   8    4.55    3.95
   3  -5  -7   41.88    4.79
  -3   5   7   27.33    4.15
   3  -5  -6   33.66    4.52
  -3   5   6   41.77    5.62
   3  -5  -5   -0.82    3.31
  -3   5   5   -6.98    3.44
   3  -5  -4   38.63    4.95
  -3   5   4   53.14    6.66
   3  -5  -3    7.53    4.07
  -3   5   3   -0.11    3.82
   3  -5  -2   11.01    4.49
  -3   5   2    5.66    2.52
   3  -5  -1    7.16    3.65
  -3   5   1    3.01    2.68
   3  -5   0   29.70    6.10
  -3   5   0   14.47    4.74
   3  -5   1    2.80    3.66
  -3   5  -1    6.36    2.76
   3  -5   2    1.40    4.05
  -3   5  -2    2.96    3.92
   3  -5   3    6.79    3.93
  -3   5  -3    4.33    3.26
   3  -5   4   38.99    4.42
  -3   5  -4   52.22    6.56
  -3   5  -4   33.38    4.72
  -3   5  -5   15.20    4.15
  -3   5  -5    4.92    3.45
  -3   5  -6   22.14    4.60
  -3   5  -6   35.52    4.73
  -3   5  -7   25.84    4.37
  -3   5  -8   12.17    4.47
  -3   5  -8    1.41    3.42
  -3   5  -9   -3.48    3.46
  -3   5  -9   -3.29    3.81
  -3   5 -10    4.00    4.11
  -3   5 -10    1.53    3.13
  -3   5 -11   16.27    4.66
  -3   5 -11   11.97    4.42
  -3   5 -12   -5.30    4.23
  -3   5 -12   -1.20    5.28
  -3   5 -13   11.81    4.65
  -3   5 -13   11.58    4.10
  -3   5 -14    0.97    3.58
  -3   5 -14   -5.15    3.65
  -3   5 -15   -1.62    5.50
  -3   5 -15    4.79    4.08
  -3   5 -16    1.52    4.27
  -3   5 -16    3.01    3.65
  -3   5 -17   15.93    5.41
   4  -5 -16    5.39    4.20
  -4   5  16   -1.01    3.82
   4  -5 -15   21.05    5.59
  -4   5  15    4.34    4.15
   4  -5 -14   -1.48    3.57
  -4   5  14   15.97    5.05
   4  -5 -13    5.47    4.71
  -4   5  13   -1.99    3.28
   4  -5 -12    5.97    5.80
  -4   5  12    0.84    4.00
   4  -5 -11   13.08    4.98
  -4   5  11   -2.83    3.46
   4  -5 -10    9.93    6.48
  -4   5  10   11.14    4.98
   4  -5  -9    5.84    4.80
  -4   5   9   17.01    4.09
   4  -5  -8   10.37    4.18
  -4   5   8    1.71    3.45
   4  -5  -7    1.07    3.16
  -4   5   7    7.74    4.27
   4  -5  -6    6.13    3.48
  -4   5   6   10.73    5.19
   4  -5  -5    1.18    4.09
  -4   5   5   -3.52    3.23
  -4   5   4   17.46    6.65
   4  -5  -3   13.64    4.21
  -4   5   3   14.72    6.35
   4  -5  -2   -0.39    3.72
  -4   5   2   -6.70    3.51
   4  -5  -1   20.74    4.23
  -4   5   1   17.77    4.21
   4  -5   0   -6.45    3.50
  -4   5   0   -1.16    3.22
   4  -5   1   48.80   11.02
  -4   5  -1   29.54    4.45
   4  -5   2    3.23    3.35
  -4   5  -2    6.15    3.43
   4  -5   3   16.20    4.91
  -4   5  -3    9.81    2.72
  -4   5  -3   13.35    5.33
  -4   5  -4   -2.85    3.27
  -4   5  -4    3.56    3.36
  -4   5  -5    0.30    5.13
  -4   5  -5   43.57   16.07
  -4   5  -6   16.52    5.67
  -4   5  -6    6.97    3.66
  -4   5  -7    9.00    3.68
  -4   5  -7    5.60    4.12
  -4   5  -8   -5.37    3.17
  -4   5  -8   11.22    4.06
  -4   5  -9   12.38    4.26
  -4   5  -9    9.46    3.82
  -4   5 -10    7.98    5.38
  -4   5 -10    7.47    5.02
  -4   5 -11   19.43    5.92
  -4   5 -11    4.98    3.95
  -4   5 -12    5.86    4.96
  -4   5 -12   -5.42    3.35
  -4   5 -13   -2.58    4.34
  -4   5 -13    9.56    3.93
  -4   5 -14   14.65    6.40
  -4   5 -14   13.57    5.03
  -4   5 -15   -2.33    4.19
  -4   5 -15    1.92    6.00
  -4   5 -16   17.10    6.89
  -4   5 -16   16.39    7.49
   5  -5 -15   -8.79    3.95
  -5   5  15    4.27    3.67
   5  -5 -14   -3.57    6.23
  -5   5  14    4.68    3.06
   5  -5 -13    5.38    6.24
  -5   5  13    3.81    2.70
   5  -5 -12   12.23    5.07
  -5   5  12   11.10    4.45
   5  -5 -11   -1.19    3.45
  -5   5  11   15.45    5.89
   5  -5 -10    3.96    3.56
  -5   5  10    0.39    3.29
   5  -5  -9   -4.63    4.88
  -5   5   9   -0.30    3.72
   5  -5  -8    1.34    4.10
  -5   5   8    7.07    4.81
   5  -5  -7    5.05    3.44
  -5   5   7    0.64    3.56
   5  -5  -6   -3.22    3.67
  -5   5   6    4.85    3.31
   5  -5  -5    5.28    4.21
  -5   5   5   -4.77    3.25
   5  -5  -4    8.93    3.70
  -5   5   4   20.90    4.98
   5  -5  -3    5.47    4.20
  -5   5   3    4.08    2.67
   5  -5  -2   -4.58    3.69
  -5   5   2    8.12    3.51
   5  -5  -1    5.64    3.19
  -5   5   1   13.73    3.78
   5  -5   0   26.63    4.44
  -5   5   0   11.77    3.90
   5  -5   1    5.59    4.81
  -5   5  -1    7.77    3.89
   5  -5   2    6.89    4.40
  -5   5  -2    0.70    3.91
  -5   5  -2    1.89    3.87
  -5   5  -3    6.31    4.88
  -5   5  -3    3.29    4.36
  -5   5  -4   22.25    5.24
  -5   5  -4   21.86    4.44
  -5   5  -5   12.55    4.10
  -5   5  -5   -2.22    4.55
  -5   5  -6    5.01    4.50
  -5   5  -6    4.26    4.81
  -5   5  -7    4.12    3.59
  -5   5  -7   -2.44    4.89
  -5   5  -8   33.64   10.35
  -5   5  -8    8.78    6.12
  -5   5  -9    3.05    3.59
  -5   5  -9    6.01    3.49
  -5   5 -10    9.18    8.03
  -5   5 -10    3.72    6.98
  -5   5 -11   -0.66    4.52
  -5   5 -11   13.77    4.78
  -5   5 -12    4.32    4.16
  -5   5 -12    6.31    3.77
  -5   5 -13    4.32    4.53
  -5   5 -13    9.88    3.91
  -5   5 -14   -7.89    3.78
  -5   5 -14   13.77    7.50
  -5   5 -15   -2.62    4.35
  -5   5 -15   12.48    7.71
   6  -5 -13    1.37    3.82
  -6   5  13   -1.70    2.06
   6  -5 -12   -5.12    3.99
  -6   5  12    0.68    2.13
   6  -5 -11   -5.30    4.08
  -6   5  11    1.46    1.70
   6  -5 -10    7.20    4.49
  -6   5  10    2.09    3.48
   6  -5  -9    9.71    7.36
  -6   5   9    5.31    3.14
   6  -5  -8    8.90    6.54
  -6   5   8    1.15    3.75
   6  -5  -7    4.85    6.86
  -6   5   7    7.50    3.40
   6  -5  -6   -5.74    4.36
  -6   5   6   -3.20    3.60
   6  -5  -5    0.38    4.16
  -6   5   5    6.38    4.60
   6  -5  -4   -1.26    3.66
  -6   5   4    9.56    4.06
   6  -5  -3    7.14    5.20
  -6   5   3   20.42    5.51
   6  -5  -2   -4.60    3.89
  -6   5   2   -6.62    3.54
   6  -5  -1    3.67    4.21
  -6   5   1    0.79    3.49
   6  -5   0   -1.54    3.59
  -6   5   0   13.85    5.89
   6  -5   1   -0.32    3.79
  -6   5  -1    0.17    2.51
  -6   5  -1    1.51    5.55
  -6   5  -2    6.26    4.30
  -6   5  -2   -5.03    3.87
  -6   5  -3    3.53    3.29
  -6   5  -3   25.94    7.39
  -6   5  -4   11.52    3.85
  -6   5  -4   12.59    4.57
  -6   5  -5    4.30    4.50
  -6   5  -5   -3.14    4.43
  -6   5  -6    5.33    3.81
  -6   5  -6    6.64    5.28
  -6   5  -7   12.06    6.73
  -6   5  -7   14.58    4.48
  -6   5  -8   -2.42    3.68
  -6   5  -8    6.34    5.20
  -6   5  -9   -5.35    4.15
  -6   5  -9   11.09    4.60
  -6   5 -10    3.93    4.01
  -6   5 -10    8.36    4.46
  -6   5 -11   -5.55    3.46
  -6   5 -11   -0.23    3.49
  -6   5 -12   -1.78    3.38
  -6   5 -12    2.43    4.96
  -6   5 -13   15.57    8.27
  -6   5 -13    1.85    3.43
   7  -5 -11    2.61    3.14
  -7   5  11    1.59    2.53
   7  -5 -10    9.10    3.93
  -7   5  10   -0.12    2.55
   7  -5  -9    0.80    3.44
  -7   5   9    5.69    3.69
   7  -5  -8    1.58    3.07
  -7   5   8    5.11    4.40
   7  -5  -7   -0.83    3.64
  -7   5   7    3.31    3.19
   7  -5  -6    3.15    4.65
  -7   5   6    0.39    3.14
   7  -5  -5   26.61    7.68
  -7   5   5    0.65    3.89
   7  -5  -4   16.08    4.52
  -7   5   4   25.70    5.26
   7  -5  -3   -2.87    3.57
  -7   5   3   -0.63    2.37
   7  -5  -2    5.02    4.61
  -7   5   2    0.65    3.29
   7  -5  -1   -1.68    3.68
  -7   5   1    2.81    4.46
  -7   5   1    4.33    4.07
  -7   5   0    0.92    3.63
  -7   5   0    6.13    4.08
  -7   5  -1   -3.99    4.35
  -7   5  -1   -0.30    4.09
  -7   5  -2   -2.78    3.42
  -7   5  -2   -2.59    3.88
  -7   5  -3    3.16    3.62
  -7   5  -3   -1.25    4.19
  -7   5  -4    6.26    5.14
  -7   5  -4   27.26    4.61
  -7   5  -5    2.70    3.76
  -7   5  -6    3.42    3.61
  -7   5  -6   -3.87    4.69
  -7   5  -7   -4.49    3.56
  -7   5  -7    8.37    8.70
  -7   5  -8   -3.08    3.00
  -7   5  -8   39.47   10.20
  -7   5  -9   -4.62    3.36
  -7   5  -9   16.74    5.27
  -7   5 -10    5.68    5.90
  -7   5 -10    1.60    4.03
  -7   5 -11   -1.23    3.15
  -7   5 -11    4.59    3.74
   8  -5  -9    7.01    4.16
  -8   5   9    2.71    2.44
   8  -5  -8   -0.11    4.15
  -8   5   8   -0.02    2.31
   8  -5  -7    4.03    3.93
  -8   5   7   -3.18    2.98
   8  -5  -6    2.05    4.13
  -8   5   6   -3.17    3.62
   8  -5  -5    1.47    3.34
  -8   5   5    7.67    3.91
   8  -5  -4    3.58    3.68
  -8   5   4   -1.54    4.01
   8  -5  -3   -1.58    3.75
  -8   5   3    2.14    5.25
  -8   5   3   -2.46    3.29
   8  -5  -2    5.51    2.62
  -8   5   2   10.26    3.99
  -8   5   2    0.21    3.32
  -8   5   1   -0.01    3.83
  -8   5   1    4.91    3.96
  -8   5   0   -0.78    2.69
  -8   5   0    8.37    3.83
  -8   5  -1   -4.66    2.46
  -8   5  -1    4.59    5.80
  -8   5  -2   10.45    4.32
  -8   5  -2   14.28    4.31
  -8   5  -3    5.36    7.13
  -8   5  -3    2.73    4.20
  -8   5  -4   -1.75    3.45
  -8   5  -4    1.44    5.19
  -8   5  -5    5.15    4.10
  -8   5  -5   -2.51    4.52
  -8   5  -6   -6.20    4.21
  -8   5  -6   -2.71    4.10
  -8   5  -7    0.67    4.34
  -8   5  -7   -0.01    3.78
  -8   5  -8   -2.90    3.14
  -8   5  -8   14.31    6.35
  -8   5  -9    1.86    2.70
  -8   5  -9    6.86    3.80
  -9   5   3   -0.23    3.71
  -9   5   2    6.68    3.76
  -9   5   1   -0.75    3.20
  -9   5   0   -6.15    3.93
  -9   5  -1   -1.21    3.85
  -9   5  -1   -0.49    3.10
  -9   5  -2    5.90    4.03
  -9   5  -2   -0.95    6.23
  -9   5  -3    6.37    5.51
  -9   5  -4   -4.81    3.49
  -5  -6  -6   11.13    3.27
   5   6   6   -2.30    2.45
  -5  -6  -5   -0.97    3.13
   5   6   5    6.52    3.51
  -5  -6  -4   -1.91    3.94
   5   6   4    1.92    3.33
  -5  -6  -3   10.29    4.99
   5   6   3    2.19    3.09
  -5  -6  -2    5.53    4.07
   5   6   2    6.51    2.89
  -5  -6  -1    7.26    2.96
   5   6   1   -0.78    2.43
  -5  -6   0    2.35    3.86
   5   6   0    0.73    2.58
  -5  -6   1    4.61    3.41
   5   6  -1    6.23    3.70
  -5  -6   2   -5.11    3.29
   5   6  -2    0.50    3.52
  -5  -6   3    8.44    4.05
   5   6  -3    1.46    3.67
  -5  -6   4   -2.27    3.44
   5   6  -4    3.46    3.07
  -5  -6   5   -2.59    2.48
   5   6  -5   -0.95    2.33
  -5  -6   6   -0.14    3.78
   5   6  -6    0.14    2.67
  -4  -6  -8    5.62    4.05
   4   6   8    1.54    2.84
  -4  -6  -7    6.20    4.97
   4   6   7    0.97    4.54
  -4  -6  -6    6.50    3.60
   4   6   6    2.84    3.63
  -4  -6  -5   21.11    5.67
   4   6   5   -3.71    3.00
  -4  -6  -4    5.81    4.49
   4   6   4    0.47    3.47
  -4  -6  -3   11.67    4.43
   4   6   3   18.00    5.98
  -4  -6  -2   -4.24    3.88
   4   6   2   -7.16    3.56
  -4  -6  -1   -0.11    2.86
   4   6   1    8.01    4.69
  -4  -6   0    5.54    4.83
   4   6   0    3.56    3.39
  -4  -6   1    8.08    3.51
   4   6  -1   -4.37    3.80
   4   6  -2    5.35    4.18
  -4  -6   3   18.45    4.71
   4   6  -3    1.43    3.20
  -4  -6   4    6.50    3.89
   4   6  -4   -0.90    4.34
  -4  -6   5    6.29    3.02
   4   6  -5    7.52    4.16
  -4  -6   6    4.69    2.86
   4   6  -7   -4.21    2.75
   4   6  -8    2.39    2.92
  -3  -6  -9    1.11    3.57
   3   6   9   10.92    6.35
  -3  -6  -8    7.00    4.35
   3   6   8    6.09    3.83
  -3  -6  -7    6.78    4.32
   3   6   7    0.08    4.01
  -3  -6  -6   12.04    3.50
   3   6   6    0.57    5.07
  -3  -6  -5   -1.80    4.16
   3   6   5    1.43    3.87
  -3  -6  -4   12.81    3.53
   3   6   4    0.94    3.75
  -3  -6  -3    3.54    3.23
   3   6   3   -0.98    4.28
  -3  -6  -2   29.12    4.04
   3   6   2   25.23    4.80
  -3  -6  -1    6.28    3.22
   3   6   1   18.78    7.53
  -3  -6   0    3.20    4.09
   3   6   0   13.73    4.76
  -3  -6   1    0.56    3.20
   3   6  -1   15.10    5.85
  -3  -6   2   16.34    4.07
   3   6  -2   31.40    4.92
  -3  -6   3    0.94    2.77
   3   6  -3    8.85    4.03
  -3  -6   4   23.99    6.41
   3   6  -4   10.21    4.60
  -3  -6   5   21.17    4.57
   3   6  -5    3.39    4.93
  -3  -6   6   14.84    4.36
   3   6  -6   -1.51    3.35
   3   6  -6    2.82    2.28
   3   6  -7    7.39    3.90
   3   6  -7   -1.76    2.55
   3   6  -8   -6.87    3.60
   3   6  -8    2.03    2.46
   3   6  -9    2.23    3.31
   3   6  -9    4.95    3.45
   3   6 -10    8.20    4.31
  -2  -6 -10    1.83    4.59
   2   6  10    4.65    4.80
  -2  -6  -9    6.05    3.88
   2   6   9    2.59    4.99
  -2  -6  -8   15.92    4.21
   2   6   8    2.91    2.43
  -2  -6  -7    4.31    4.20
   2   6   7    0.82    3.29
  -2  -6  -6    8.61    4.15
   2   6   6   12.30    4.69
  -2  -6  -5    9.74    3.80
   2   6   5    9.34    5.05
  -2  -6  -4   -1.59    3.69
   2   6   4   -3.68    3.52
  -2  -6  -3    8.24    5.11
   2   6   3    0.98    3.88
  -2  -6  -2    1.67    3.46
   2   6   2    1.58    3.24
  -2  -6  -1    1.30    3.40
   2   6   1    2.03    4.05
  -2  -6   0    6.22    6.13
   2   6   0    7.18    4.46
  -2  -6   1   11.98    3.85
   2   6  -1  -10.56    3.88
   2   6  -2    4.86    3.98
  -2  -6   3    4.46    4.64
   2   6  -3   -2.72    3.81
  -2  -6   4   -2.53    3.31
   2   6  -4   10.97    4.78
  -2  -6   5    6.87    3.26
   2   6  -5   14.54    5.43
  -2  -6   6   -3.24    3.71
   2   6  -6    9.07    4.39
   2   6  -6   -1.78    2.74
   2   6  -7   -6.07    3.57
   2   6  -7   -2.65    2.56
   2   6  -8   10.35    5.84
   2   6  -8    4.77    2.62
   2   6  -9   -1.14    3.59
   2   6  -9    1.19    2.72
   2   6 -10   -0.59    4.39
   2   6 -10    4.98    6.38
   2   6 -11    4.65    3.13
  -1  -6 -11    5.55    6.00
   1   6  11   -0.54    6.09
  -1  -6 -10   -5.00    3.81
   1   6  10    2.56    4.50
  -1  -6  -9   13.62    4.75
   1   6   9   -2.68    4.07
  -1  -6  -8    1.50    4.20
   1   6   8   -1.33    3.81
  -1  -6  -7   10.19    3.52
   1   6   7    9.74    4.11
  -1  -6  -6   -0.60    4.10
   1   6   6   -4.20    3.79
  -1  -6  -5    4.91    4.08
   1   6   5    0.56    4.20
  -1  -6  -4    8.79    3.69
   1   6   4    8.07    4.50
  -1  -6  -3   -1.15    6.42
   1   6   3   19.96    5.56
  -1  -6  -2    0.34    3.50
   1   6   2   13.39    3.99
  -1  -6  -1    2.33    5.47
   1   6   1    4.79    4.07
  -1  -6   0    6.40    3.56
   1   6   0    2.92    3.85
  -1  -6   1   -1.40    3.80
   1   6  -1   -2.27    3.30
  -1  -6   2    7.44    4.78
   1   6  -2    2.79    3.28
  -1  -6   3    9.00    6.18
   1   6  -3   -8.10    3.82
  -1  -6   4   12.18    4.87
   1   6  -4   26.27    7.21
  -1  -6   5    1.22    4.23
   1   6  -5   11.47    3.97
  -1  -6   6   -3.10    3.10
   1   6  -6   -4.15    4.20
   1   6  -6   -0.38    2.77
   1   6  -7    6.31    4.73
   1   6  -7   -0.94    2.85
   1   6  -8   -3.39    3.51
   1   6  -8   -2.96    2.36
   1   6  -9   -0.71    4.23
   1   6  -9   -0.38    1.74
   1   6 -10   25.03    8.05
   1   6 -10    5.85    5.08
   1   6 -11   -8.37    3.32
   1   6 -11    1.34    2.69
   0  -6 -11   -3.31    4.01
   0   6  11    0.21    4.62
   0  -6 -10   -5.02    3.95
   0   6  10   -4.49    2.98
   0  -6  -9    1.81    5.56
   0   6   9   -2.35    2.47
   0  -6  -8   12.91    4.21
   0   6   8    4.86    4.20
   0  -6  -7   10.77    4.11
   0   6   7    8.32    4.96
   0  -6  -6   -7.07    3.83
   0   6   6    3.43    4.14
   0  -6  -5   24.07    4.67
   0   6   5   40.73    8.72
   0  -6  -4    2.01    4.89
   0   6   4    3.07    3.68
   0  -6  -3   17.88    5.12
   0   6   3   11.28    4.26
   0  -6  -2   -5.60    3.72
   0   6   2    7.47    5.14
   0  -6  -1    6.95    4.28
   0   6   1   13.20    6.50
   0  -6   0   24.34    7.18
   0   6   0    0.90    4.03
   0  -6   1   16.92    4.59
   0   6  -1    4.00    3.40
   0  -6   2    8.92    3.47
   0   6  -2   18.64    7.76
   0   6  -3   15.90    4.59
   0  -6   4   -0.95    3.77
   0   6  -4    5.43    4.14
   0  -6   5   26.25    4.54
   0   6  -5   27.62    5.14
   0   6  -5   33.78    6.39
   0   6  -6   -7.82    3.95
   0   6  -6    2.14    3.48
   0   6  -7   -1.96    3.66
   0   6  -7    6.58    3.63
   0   6  -8    6.20    3.76
   0   6  -8    3.17    3.93
   0   6  -9    2.12    3.62
   0   6  -9    2.62    3.03
   0   6 -10    0.86    3.37
   0   6 -10    0.57    2.53
   0   6 -11   -2.73    3.48
   0   6 -11   12.05    3.58
   1  -6 -11    1.34    4.40
  -1   6  11    1.69    4.17
   1  -6 -10   13.15    5.23
  -1   6  10   -0.29    2.68
   1  -6  -9   -4.39    3.77
  -1   6   9    7.39    3.83
   1  -6  -8    2.26    4.74
  -1   6   8    4.25    3.04
   1  -6  -7   -1.75    4.07
  -1   6   7    3.52    3.41
   1  -6  -6    2.84    3.84
  -1   6   6    1.30    3.64
   1  -6  -5   -4.12    3.98
  -1   6   5    8.56    5.09
   1  -6  -4    6.18    4.21
  -1   6   4   -0.26    3.66
   1  -6  -3    4.04    4.08
  -1   6   3    2.84    3.99
   1  -6  -2    1.65    3.74
  -1   6   2    6.58    3.72
   1  -6  -1    2.26    3.42
  -1   6   1   -1.49    3.32
   1  -6   0    4.96    3.93
  -1   6   0    1.07    4.16
   1  -6   1   10.09    4.62
  -1   6  -1    5.56    4.80
   1  -6   2   14.23    4.16
  -1   6  -2   14.07    4.82
   1  -6   3   -0.50    3.86
  -1   6  -3    7.46    3.74
   1  -6   4    8.13    5.57
  -1   6  -4   11.59    5.36
   1  -6   5    2.72    3.66
  -1   6  -5   -4.76    4.48
  -1   6  -5   12.20    4.72
  -1   6  -6    2.14    5.11
  -1   6  -6    0.83    4.35
  -1   6  -7    2.45    4.03
  -1   6  -7    5.19    3.96
  -1   6  -8   -3.40    4.95
  -1   6  -8   45.31   11.15
  -1   6  -9   10.93    3.89
  -1   6  -9    5.37    3.40
  -1   6 -10   -3.42    3.89
  -1   6 -10   13.52    4.56
  -1   6 -11   30.64    8.63
  -1   6 -11   -2.93    3.37
   2  -6 -11    5.64    4.52
  -2   6  11    0.00    2.51
   2  -6 -10   -6.57    5.29
  -2   6  10    0.36    3.23
   2  -6  -9    0.33    5.38
  -2   6   9   -1.74    3.04
   2  -6  -8    2.69    7.40
  -2   6   8    3.90    3.18
   2  -6  -7    2.25    4.30
  -2   6   7   -2.82    2.41
   2  -6  -6   -9.29    4.46
  -2   6   6    3.65    3.22
   2  -6  -5   35.88   10.21
  -2   6   5    2.08    3.78
   2  -6  -4   -2.68    4.39
  -2   6   4    5.41    4.90
   2  -6  -3   -7.09    3.97
  -2   6   3    5.56    4.55
   2  -6  -2    0.99    3.91
  -2   6   2    1.03    3.82
   2  -6  -1    7.76    3.72
  -2   6   1   12.60    7.44
   2  -6   0   17.08    5.20
  -2   6   0    8.08    4.43
   2  -6   1   -1.67    3.54
  -2   6  -1    7.80    5.06
  -2   6  -2   18.18    9.59
   2  -6   3   -5.26    4.01
  -2   6  -3    7.00    3.09
   2  -6   4   14.61    6.52
  -2   6  -4   12.81    4.32
  -2   6  -4    5.42    6.22
  -2   6  -5    2.47    4.90
  -2   6  -5    4.62    5.11
  -2   6  -6   18.53    5.72
  -2   6  -6    3.76    4.46
  -2   6  -7    1.10    5.94
  -2   6  -7    3.83    3.85
  -2   6  -8    1.21    4.10
  -2   6  -8    3.77    4.62
  -2   6  -9   -6.09    3.86
  -2   6  -9   -0.84    3.65
  -2   6 -10    6.58    3.98
  -2   6 -10   -4.61    4.57
   3  -6 -10    8.60    4.15
  -3   6  10   -0.84    2.26
   3  -6  -9   -5.50    5.27
  -3   6   9    2.60    3.02
   3  -6  -8   11.92    5.40
  -3   6   8    1.87    2.86
   3  -6  -7   -2.76    3.76
  -3   6   7   93.96   16.79
   3  -6  -6   15.84    8.83
  -3   6   6   -0.21    3.31
   3  -6  -5    4.12    3.71
  -3   6   5    6.73    3.01
   3  -6  -4   -6.19    4.09
  -3   6   4    6.65    3.63
   3  -6  -3    2.35    5.88
  -3   6   3    0.77    3.77
   3  -6  -2   21.30    6.34
  -3   6   2   29.96    5.10
   3  -6  -1   41.96   10.46
  -3   6   1   15.39    5.60
   3  -6   0   -2.35    3.85
  -3   6   0    3.74    4.78
   3  -6   1    3.45    3.73
  -3   6  -1    6.59    3.94
   3  -6   2   25.83    6.56
  -3   6  -2   16.38    4.75
   3  -6   3    1.59    3.58
  -3   6  -3    3.41    3.46
  -3   6  -3    1.43    3.81
  -3   6  -4    7.82    2.87
  -3   6  -4   -2.74    3.57
  -3   6  -5    9.21    4.52
  -3   6  -5  -10.93    4.08
  -3   6  -6   18.43    7.38
  -3   6  -7    4.31    3.54
  -3   6  -7    2.45    3.74
  -3   6  -8    7.95    4.44
  -3   6  -8   15.21    6.50
  -3   6  -9   -3.11    3.36
  -3   6  -9   -2.88    3.38
  -3   6 -10    0.27    4.03
   4  -6  -8    4.07    4.95
  -4   6   8    5.39    3.28
   4  -6  -7   10.45    4.18
  -4   6   7    0.69    2.17
   4  -6  -6    3.84    4.12
  -4   6   6    1.06    2.62
   4  -6  -5    9.07    7.20
  -4   6   5    3.02    4.37
   4  -6  -4   -0.05    3.79
  -4   6   4   79.59   15.89
   4  -6  -3   12.56    7.21
  -4   6   3   10.95    3.93
   4  -6  -2   10.22    4.60
  -4   6   2    8.76    4.06
   4  -6  -1    2.75    4.00
  -4   6   1   -2.12    3.91
   4  -6   0   14.60    4.42
  -4   6   0   -0.78    3.71
   4  -6   1   11.80    8.74
  -4   6  -1    3.26    3.90
   4  -6   2    1.30    4.24
  -4   6  -2   -0.01    2.64
  -4   6  -2   16.77    7.89
  -4   6  -3   13.43    4.79
  -4   6  -3    6.46    4.51
  -4   6  -4    2.71    4.21
  -4   6  -4    9.88    3.90
  -4   6  -5   -5.33    4.44
  -4   6  -5    1.19    3.40
  -4   6  -6   13.85    5.22
  -4   6  -6   -0.19    3.67
  -4   6  -7    4.85    6.11
  -4   6  -7   -1.32    3.43
  -4   6  -8   34.42    9.24
   5  -6  -6   11.64    5.29
  -5   6   6    4.18    3.38
   5  -6  -5   -2.29    4.29
  -5   6   5   -0.26    4.07
   5  -6  -4   -2.95    3.97
  -5   6   4    8.05    3.88
   5  -6  -3   -0.30    3.71
  -5   6   3    7.52    4.75
   5  -6  -2    3.43    3.74
  -5   6   2    5.74    4.94
   5  -6  -1   12.03    5.21
  -5   6   1   15.18    4.70
   5  -6   0    0.06    4.32
  -5   6   0    3.89    4.58
   5  -6   1   -2.62    5.24
  -5   6  -1   11.41    5.90
  -5   6  -1    5.83    3.34
  -5   6  -2   19.29    5.57
  -5   6  -2    4.46    4.46
  -5   6  -3   -2.53    2.80
  -5   6  -3    8.91    4.26
  -5   6  -4    7.78    6.10
  -5   6  -4    3.67    3.89
  -5   6  -5   -5.78    3.89
  -5   6  -5    2.76    4.06
  -5   6  -6    3.03    4.40
  -5   6  -6   -0.58    3.63
   0   0   0    0.00    0.00
;
_shelx_hkl_checksum              87687
loop_
_space_group_symop_operation_xyz
'x, y, z'
'-x+1/2, y+1/2, -z+1/2'
'-x, -y, -z'
'x-1/2, -y-1/2, z-1/2'
loop_
_atom_site_label
_atom_site_type_symbol
_atom_site_fract_x
_atom_site_fract_y
_atom_site_fract_z
_atom_site_U_iso_or_equiv
_atom_site_adp_type
_atom_site_occupancy
_atom_site_site_symmetry_order
_atom_site_calc_flag
_atom_site_refinement_flags_posn
_atom_site_refinement_flags_adp
_atom_site_refinement_flags_occupancy
_atom_site_disorder_assembly
_atom_site_disorder_group
Se1 Se 0.3649(3) 0.8055(7) 0.23862(15) 0.0786(11) Uani 1 1 d . . . . .
Se2 Se 0.6355(3) 0.8064(7) 0.23893(14) 0.0769(10) Uani 1 1 d . . . . .
Se3 Se 0.3215(3) 0.8748(6) 0.33388(15) 0.0760(10) Uani 1 1 d . . . . .
Se4 Se 0.6784(3) 0.8752(6) 0.33375(15) 0.0749(10) Uani 1 1 d . . . . .
Se5 Se 0.3677(3) 0.5220(6) 0.37892(18) 0.0929(13) Uani 1 1 d . . . . .
Se6 Se 0.6327(4) 0.5226(6) 0.37949(18) 0.0936(13) Uani 1 1 d . . . . .
N1 N 0.499(2) 0.925(5) 0.2220(9) 0.076(5) Uani 1 1 d D . . . .
N2 N 0.500(2) 0.573(5) 0.4183(8) 0.076(5) Uani 1 1 d D . . . .
C1 C 0.501(3) 1.173(5) 0.2337(11) 0.076(5) Uani 1 1 d D . . . .
H1A H 0.5698 1.2389 0.2201 0.114 Uiso 1 1 calc R U . . .
H1B H 0.4955 1.1977 0.2738 0.114 Uiso 1 1 calc R U . . .
H1C H 0.4396 1.2488 0.2150 0.114 Uiso 1 1 calc R U . . .
C2 C 0.500(2) 0.773(5) 0.4565(10) 0.076(5) Uani 1 1 d D . . . .
H2A H 0.4317 0.7744 0.4775 0.114 Uiso 1 1 calc R U . . .
H2B H 0.5069 0.9171 0.4353 0.114 Uiso 1 1 calc R U . . .
H2C H 0.5618 0.7590 0.4823 0.114 Uiso 1 1 calc R U . . .
Se1A Se 0.0895(7) 0.0731(17) 0.3970(3) 0.086(3) Uani 0.5 1 d D . P A 1
Se2A Se 0.2086(5) 0.1676(12) 0.4717(3) 0.0617(15) Uani 0.5 1 d . . P A 1
Se3A Se 0.2082(5) -0.1648(12) 0.5285(2) 0.0613(15) Uani 0.5 1 d . . P A 1
Se4A Se 0.0888(6) -0.0714(17) 0.6030(3) 0.082(2) Uani 0.5 1 d D . P A 1
Se1B Se 0.0698(13) 0.300(4) 0.4213(7) 0.261(13) Uani 0.5 1 d . . P B 2
Se2B Se 0.1590(7) -0.025(2) 0.4500(4) 0.123(4) Uani 0.5 1 d . . P B 2
Se3B Se 0.1590(7) 0.026(2) 0.5489(5) 0.123(4) Uani 0.5 1 d . . P B 2
Se4B Se 0.0681(12) -0.303(4) 0.5771(7) 0.238(11) Uani 0.5 1 d . . P B 2
loop_
_atom_site_aniso_label
_atom_site_aniso_U_11
_atom_site_aniso_U_22
_atom_site_aniso_U_33
_atom_site_aniso_U_23
_atom_site_aniso_U_13
_atom_site_aniso_U_12
Se1 0.0625(19) 0.097(3) 0.076(2) -0.0097(19) -0.0110(16) -0.0112(18)
Se2 0.0610(19) 0.100(3) 0.070(2) -0.0090(19) 0.0113(15) 0.0100(18)
Se3 0.076(2) 0.068(2) 0.084(2) -0.0059(17) 0.0222(17) 0.0072(16)
Se4 0.078(2) 0.065(2) 0.082(2) -0.0059(17) -0.0199(17) -0.0052(16)
Se5 0.110(3) 0.058(2) 0.111(3) 0.006(2) 0.038(2) -0.015(2)
Se6 0.113(3) 0.058(2) 0.109(3) 0.009(2) -0.033(2) 0.017(2)
N1 0.064(8) 0.133(13) 0.030(6) 0.015(7) 0.004(6) 0.016(9)
N2 0.064(8) 0.133(13) 0.030(6) 0.015(7) 0.004(6) 0.016(9)
C1 0.064(8) 0.133(13) 0.030(6) 0.015(7) 0.004(6) 0.016(9)
C2 0.064(8) 0.133(13) 0.030(6) 0.015(7) 0.004(6) 0.016(9)
Se1A 0.076(5) 0.135(7) 0.045(4) -0.004(4) 0.001(3) 0.026(4)
Se2A 0.056(3) 0.077(4) 0.052(3) 0.014(3) -0.005(3) 0.005(3)
Se3A 0.058(3) 0.072(4) 0.054(3) 0.009(3) 0.007(3) -0.005(3)
Se4A 0.070(4) 0.135(7) 0.041(3) -0.001(4) 0.004(3) -0.024(4)
Se1B 0.134(12) 0.47(4) 0.179(16) 0.13(2) -0.006(11) -0.067(19)
Se2B 0.063(5) 0.188(11) 0.118(7) 0.017(8) 0.017(5) 0.028(6)
Se3B 0.064(5) 0.178(11) 0.128(8) 0.024(8) -0.022(5) -0.027(6)
Se4B 0.121(11) 0.42(3) 0.176(15) 0.103(19) 0.011(10) 0.036(16)
loop_
_atom_type_symbol
_atom_type_description
_atom_type_scat_dispersion_real
_atom_type_scat_dispersion_imag
_atom_type_scat_source
C C 0.0033 0.0016 'International Tables Vol C Tables 4.2.6.8 and 6.1.1.4'
H H 0.0000 0.0000 'International Tables Vol C Tables 4.2.6.8 and 6.1.1.4'
N N 0.0061 0.0033 'International Tables Vol C Tables 4.2.6.8 and 6.1.1.4'
Se Se -0.0929 2.2259 'International Tables Vol C Tables 4.2.6.8 and 6.1.1.4'
loop_
_geom_angle_atom_site_label_1
_geom_angle_atom_site_label_2
_geom_angle_atom_site_label_3
_geom_angle
_geom_angle_site_symmetry_1
N1 Se1 Se3 110.4(7) .
N1 Se2 Se4 110.4(7) .
Se5 Se3 Se1 104.14(18) .
Se6 Se4 Se2 104.62(19) .
N2 Se5 Se3 107.4(8) .
N2 Se6 Se4 107.5(8) .
C1 N1 Se1 110(2) .
C1 N1 Se2 107(2) .
Se1 N1 Se2 128.7(15) .
C2 N2 Se5 115.5(19) .
C2 N2 Se6 115.5(19) .
Se5 N2 Se6 117.4(11) .
N1 C1 H1A 109.5 .
N1 C1 H1B 109.5 .
H1A C1 H1B 109.5 .
N1 C1 H1C 109.5 .
H1A C1 H1C 109.5 .
H1B C1 H1C 109.5 .
N2 C2 H2A 109.5 .
N2 C2 H2B 109.5 .
H2A C2 H2B 109.5 .
N2 C2 H2C 109.5 .
H2A C2 H2C 109.5 .
H2B C2 H2C 109.5 .
Se4A Se1A Se2A 127.9(4) 3_556
Se3A Se2A Se1A 104.7(4) .
Se2A Se3A Se4A 105.0(4) .
Se1A Se4A Se3A 127.8(4) 3_556
Se4B Se1B Se2B 118.7(11) 3_556
Se1B Se2B Se3B 101.5(7) .
Se4B Se3B Se2B 101.1(7) .
Se1B Se4B Se3B 118.9(12) 3_556
loop_
_geom_bond_atom_site_label_1
_geom_bond_atom_site_label_2
_geom_bond_distance
_geom_bond_site_symmetry_2
Se1 N1 1.79(2) .
Se1 Se3 2.344(5) .
Se2 N1 1.82(2) .
Se2 Se4 2.331(5) .
Se3 Se5 2.322(5) .
Se4 Se6 2.328(5) .
Se5 N2 1.87(2) .
Se6 N2 1.86(2) .
N1 C1 1.422(10) .
N2 C2 1.443(10) .
C1 H1A 0.9600 .
C1 H1B 0.9600 .
C1 H1C 0.9600 .
C2 H2A 0.9600 .
C2 H2B 0.9600 .
C2 H2C 0.9600 .
Se1A Se4A 2.139(11) 3_556
Se1A Se2A 2.331(10) .
Se2A Se3A 2.304(9) .
Se3A Se4A 2.332(9) .
Se4A Se1A 2.139(11) 3_556
Se1B Se4B 1.66(2) 3_556
Se1B Se2B 2.23(3) .
Se2B Se3B 2.353(15) .
Se3B Se4B 2.25(3) .
Se4B Se1B 1.66(2) 3_556
loop_
_geom_torsion_atom_site_label_1
_geom_torsion_atom_site_label_2
_geom_torsion_atom_site_label_3
_geom_torsion_atom_site_label_4
_geom_torsion
Se3 Se1 N1 C1 -58.0(19)
Se3 Se1 N1 Se2 76.9(17)
Se4 Se2 N1 C1 59.1(18)
Se4 Se2 N1 Se1 -76.7(18)
Se3 Se5 N2 C2 53.7(19)
Se3 Se5 N2 Se6 -88.0(14)
Se4 Se6 N2 C2 -54.2(19)
Se4 Se6 N2 Se5 87.5(14)
loop_
_publcif_info_datablock.id
_publcif_info_datablock.publ_exptl
_publcif_info_datablock.publ_geom
_publcif_info_datablock.structure
{b8fcc229-79e3-42cd-9423-15048af5dff3} y y y
loop_
_publcif_info_cif.paper_type
E
