#------------------------------------------------------------------------------
#$Date: 2016-02-16 22:30:59 +0200 (Tue, 16 Feb 2016) $
#$Revision: 176467 $
#$URL: svn://www.crystallography.net/cod/cif/4/34/20/4342081.cif $
#------------------------------------------------------------------------------
#
# This file is available in the Crystallography Open Database (COD),
# http://www.crystallography.net/
#
# All data on this site have been placed in the public domain by the
# contributors.
#
data_4342081
loop_
_publ_author_name
'Hayes, Thomas R.'
'Lyon, Patrice A.'
'Barnes, Charles L.'
'Trabue, Steven'
'Benny, Paul D.'
_publ_section_title
;
 Influence of Functionalized Pyridine Ligands on the Radio/Chemical
 Behavior of [M(I)(CO)3](+) (M = Re and (99m)Tc) 2 + 1 Complexes.
;
_journal_issue                   4
_journal_name_full               'Inorganic chemistry'
_journal_page_first              1528
_journal_page_last               1534
_journal_paper_doi               10.1021/ic502520x
_journal_volume                  54
_journal_year                    2015
_chemical_formula_moiety         'C14 H9 N2 O6 Re, 0.5(C H4 O)'
_chemical_formula_sum            'C14.5 H11 N2 O6.5 Re'
_chemical_formula_weight         503.45
_space_group_crystal_system      triclinic
_space_group_IT_number           2
_space_group_name_Hall           '-P 1'
_space_group_name_H-M_alt        'P -1'
_symmetry_cell_setting           triclinic
_symmetry_Int_Tables_number      2
_symmetry_space_group_name_Hall  '-P 1'
_symmetry_space_group_name_H-M   'P -1'
_atom_sites_solution_hydrogens   mixed
_audit_creation_method           SHELXL-2013
_cell_angle_alpha                97.7310(10)
_cell_angle_beta                 97.2630(10)
_cell_angle_gamma                92.3350(10)
_cell_formula_units_Z            2
_cell_length_a                   7.5221(8)
_cell_length_b                   7.8492(9)
_cell_length_c                   13.7338(15)
_cell_measurement_reflns_used    8076
_cell_measurement_temperature    100(2)
_cell_measurement_theta_max      27.5
_cell_measurement_theta_min      2.6
_cell_volume                     795.68(15)
_computing_cell_refinement       'APEX2 (Bruker AXS, 2008)'
_computing_data_collection       'APEX2 (Bruker AXS, 2008)'
_computing_data_reduction        'APEX2 (Bruker AXS, 2008)'
_computing_molecular_graphics    'X-SEED, Barbour, 2001'
_computing_publication_material  'CIFTAB (Sheldrick, 2013)'
_computing_structure_refinement  'SHELXL-2013 (Sheldrick, 2013)'
_computing_structure_solution    'SHELXS-2013 (Sheldrick, 2013)'
_diffrn_ambient_temperature      100(2)
_diffrn_measured_fraction_theta_full 0.998
_diffrn_measured_fraction_theta_max 0.980
_diffrn_measurement_device_type  'Bruker APEXII CCD area detector'
_diffrn_measurement_method       'omega scans'
_diffrn_radiation_type           MoK\a
_diffrn_radiation_wavelength     0.71073
_diffrn_reflns_av_R_equivalents  0.0184
_diffrn_reflns_av_unetI/netI     0.0204
_diffrn_reflns_Laue_measured_fraction_full 0.998
_diffrn_reflns_Laue_measured_fraction_max 0.980
_diffrn_reflns_limit_h_max       9
_diffrn_reflns_limit_h_min       -9
_diffrn_reflns_limit_k_max       10
_diffrn_reflns_limit_k_min       -10
_diffrn_reflns_limit_l_max       17
_diffrn_reflns_limit_l_min       -17
_diffrn_reflns_number            9296
_diffrn_reflns_point_group_measured_fraction_full 0.998
_diffrn_reflns_point_group_measured_fraction_max 0.980
_diffrn_reflns_theta_full        25.242
_diffrn_reflns_theta_max         27.523
_diffrn_reflns_theta_min         2.623
_diffrn_standards_decay_%        0.0
_exptl_absorpt_coefficient_mu    7.672
_exptl_absorpt_correction_T_max  .21
_exptl_absorpt_correction_T_min  .15
_exptl_absorpt_correction_type   multi-scan
_exptl_absorpt_process_details
;
 Data were corrected for decay and absorption using the program SADABS 
 (Sheldrick, G. M. (2003). SADABS. Version 2.10. University of
 G\"ottingen, Germany).
;
_exptl_crystal_colour            Yellow
_exptl_crystal_density_diffrn    2.101
_exptl_crystal_description       Block
_exptl_crystal_F_000             478
_exptl_crystal_size_max          0.500
_exptl_crystal_size_mid          0.350
_exptl_crystal_size_min          0.300
_refine_diff_density_max         0.869
_refine_diff_density_min         -1.638
_refine_diff_density_rms         0.144
_refine_ls_extinction_method     none
_refine_ls_goodness_of_fit_ref   1.174
_refine_ls_hydrogen_treatment    mixed
_refine_ls_matrix_type           full
_refine_ls_number_parameters     222
_refine_ls_number_reflns         3591
_refine_ls_number_restraints     0
_refine_ls_restrained_S_all      1.174
_refine_ls_R_factor_all          0.0177
_refine_ls_R_factor_gt           0.0172
_refine_ls_shift/su_max          0.001
_refine_ls_shift/su_mean         0.000
_refine_ls_structure_factor_coef Fsqd
_refine_ls_weighting_details
'w=1/[\s^2^(Fo^2^)+(0.0208P)^2^+1.0849P] where P=(Fo^2^+2Fc^2^)/3'
_refine_ls_weighting_scheme      calc
_refine_ls_wR_factor_gt          0.0443
_refine_ls_wR_factor_ref         0.0445
_reflns_Friedel_coverage         0.000
_reflns_number_gt                3526
_reflns_number_total             3591
_reflns_threshold_expression     'I > 2\s(I)'
_cod_data_source_file            ic502520x_si_002.cif
_cod_data_source_block           Re(CO)3(pic)(4-OH-Py)
_cod_depositor_comments
'Adding full bibliography for 4342080--4342084.cif.'
_cod_original_formula_sum        'C14.50 H11 N2 O6.50 Re'
_cod_database_code               4342081
#BEGIN Tags that were not found in dictionaries:
_shelx_space_group_comment
;
The symmetry employed for this shelxl refinement is uniquely defined
by the following loop, which should always be used as a source of
symmetry information in preference to the above space-group names.
They are only intended as comments.
;
_shelx_estimated_absorpt_t_min   0.114
_shelx_estimated_absorpt_t_max   0.207
_shelxl_version_number           2013-4
_shelx_res_file
;
REM  ReCO3pic4OH in P-1
REM R1 =  0.0204 for    3526 Fo > 4sig(Fo)  and  0.0209 for all    3591 data
REM    221 parameters refined using      0 restraints
REM Highest difference peak  2.799,  deepest hole -2.042,  1-sigma level  0.160
REM  ReCO3pic4OH in P-1
REM R1 =  0.0173 for    3526 Fo > 4sig(Fo)  and  0.0177 for all    3591 data
REM    222 parameters refined using      0 restraints
REM Highest difference peak  0.831,  deepest hole -1.644,  1-sigma level  0.144
REM  ReCO3pic4OH in P-1
REM R1 =  0.0172 for    3526 Fo > 4sig(Fo)  and  0.0177 for all    3591 data
REM    222 parameters refined using      0 restraints
REM Highest difference peak  0.865,  deepest hole -1.638,  1-sigma level  0.144
TITL ReCO3pic4OH in P-1
CELL 0.71073 7.5221 7.8492 13.7338 97.731 97.263 92.335
ZERR 2.0000 0.0008 0.0009 0.0015 0.001 0.001 0.001
LATT 1
SFAC C H N O RE
UNIT 29 22 4 13 2
MERG 2
FMAP 2
GRID
PLAN 20
TEMP -173
SIZE 0.3 0.35 0.5
BOND $H
CONF
EQIV $1 1-X, 1-Y, 1-Z
HTAB O7 O2_$1
HTAB O8 O1
OMIT 0 0 1
L.S. 10
ACTA
WGHT    0.020800    1.084900
FVAR       0.13974
RE1   5    0.415702    0.246493    0.154936    11.00000    0.00798    0.00965 =
         0.00776    0.00130    0.00076    0.00120
O1    4    0.534499    0.488775    0.234104    11.00000    0.01215    0.01553 =
         0.01230    0.00203    0.00061   -0.00210
O2    4    0.480542    0.760316    0.290776    11.00000    0.02124    0.01542 =
         0.01410   -0.00233    0.00098   -0.00391
O3    4    0.193967   -0.079341    0.052918    11.00000    0.02186    0.01680 =
         0.02609   -0.00372   -0.00045   -0.00311
O4    4    0.486154    0.304344   -0.054003    11.00000    0.02202    0.02082 =
         0.01065    0.00360    0.00454    0.00440
O5    4    0.756009    0.042717    0.179038    11.00000    0.01550    0.02322 =
         0.03361    0.00849    0.00079    0.00732
O7    4    0.239917    0.130467    0.581654    11.00000    0.01914    0.04534 =
         0.01296    0.00864    0.00135   -0.00914
H1O7  2    0.330237    0.170262    0.630692    11.00000    0.06678
C15   1    0.973110    0.525148    0.425847    10.50000    0.07306
AFIX 137
H15A  2    0.966663    0.645241    0.413996    10.50000   -1.50000
H15B  2    1.099092    0.496622    0.436349    10.50000   -1.50000
H15C  2    0.916596    0.509470    0.484777    10.50000   -1.50000
AFIX   0
O8    4    0.879993    0.413021    0.340769    10.50000    0.04929
AFIX 147
H8    2    0.789972    0.460889    0.316813    10.50000   -1.20000
AFIX   0
N1    3    0.196102    0.417101    0.155253    11.00000    0.01045    0.01283 =
         0.00986    0.00100    0.00262    0.00018
N2    3    0.352536    0.212136    0.303582    11.00000    0.01389    0.01745 =
         0.00793    0.00352    0.00187   -0.00084
C1    1    0.432874    0.613429    0.247293    11.00000    0.01518    0.01596 =
         0.00818    0.00186    0.00402   -0.00209
C2    1    0.237066    0.576100    0.205641    11.00000    0.01446    0.01299 =
         0.01163    0.00205    0.00336   -0.00176
C3    1    0.110536    0.695866    0.219031    11.00000    0.02084    0.01297 =
         0.03716   -0.00294    0.00767    0.00080
AFIX  43
H3    2    0.143447    0.806091    0.256233    11.00000   -1.20000
AFIX   0
C4    1   -0.065676    0.652806    0.177289    11.00000    0.01560    0.02092 =
         0.06279    0.00027    0.00842    0.00739
AFIX  43
H4    2   -0.156067    0.732413    0.186107    11.00000   -1.20000
AFIX   0
C5    1   -0.107482    0.492573    0.122791    11.00000    0.01072    0.02059 =
         0.04480    0.00577    0.00181    0.00141
AFIX  43
H5    2   -0.226895    0.461645    0.092087    11.00000   -1.20000
AFIX   0
C6    1    0.025040    0.376876    0.112935    11.00000    0.01157    0.01353 =
         0.02030    0.00288    0.00036   -0.00220
AFIX  43
H6    2   -0.005035    0.266392    0.075471    11.00000   -1.20000
AFIX   0
C7    1    0.281352    0.042214    0.092055    11.00000    0.01335    0.01674 =
         0.01360    0.00167    0.00376    0.00455
C8    1    0.462100    0.284741    0.024920    11.00000    0.01192    0.01306 =
         0.01539   -0.00041   -0.00198    0.00223
C9    1    0.627446    0.117338    0.169648    11.00000    0.01619    0.01449 =
         0.01518    0.00285    0.00153   -0.00070
C10   1    0.189071    0.154433    0.319549    11.00000    0.01140    0.01605 =
         0.01175    0.00117   -0.00109   -0.00053
AFIX  43
H10   2    0.096766    0.133302    0.264660    11.00000   -1.20000
AFIX   0
C11   1    0.148204    0.124369    0.410805    11.00000    0.01251    0.02208 =
         0.01462    0.00411    0.00259   -0.00365
AFIX  43
H11   2    0.031001    0.082495    0.418045    11.00000   -1.20000
AFIX   0
C12   1    0.281079    0.156190    0.492419    11.00000    0.01604    0.02461 =
         0.01573    0.00669    0.00230   -0.00414
C13   1    0.451837    0.214946    0.476885    11.00000    0.01358    0.04194 =
         0.01269    0.00737   -0.00251   -0.00588
AFIX  43
H13   2    0.546206    0.237306    0.530657    11.00000   -1.20000
AFIX   0
C14   1    0.481712    0.239995    0.383083    11.00000    0.01193    0.03578 =
         0.01394    0.00623   -0.00024   -0.00618
AFIX  43
H14   2    0.598699    0.278756    0.373501    11.00000   -1.20000
AFIX   0
HKLF 4

REM  ReCO3pic4OH in P-1
REM R1 =  0.0172 for    3526 Fo > 4sig(Fo)  and  0.0177 for all    3591 data
REM    222 parameters refined using      0 restraints

END

WGHT      0.0207      1.0946

REM Highest difference peak  0.869,  deepest hole -1.638,  1-sigma level  0.144
Q1    1   0.9071  0.4931  0.4340  11.00000  0.05    0.87
Q2    1   0.3700  0.3117  0.2059  11.00000  0.05    0.83
Q3    1  -0.0794  0.7661  0.2325  11.00000  0.05    0.70
Q4    1   0.4783  0.1824  0.1103  11.00000  0.05    0.65
Q5    1   1.0377  0.5546  0.4180  11.00000  0.05    0.56
Q6    1   0.7328  0.2176  0.3917  11.00000  0.05    0.43
Q7    1   0.3506  0.1551  0.1623  11.00000  0.05    0.43
Q8    1   0.1377  0.2989 -0.0156  11.00000  0.05    0.40
Q9    1  -0.0378 -0.1941  0.0638  11.00000  0.05    0.39
Q10   1   0.4679  0.3434  0.1437  11.00000  0.05    0.38
Q11   1  -0.1312  0.6857  0.2779  11.00000  0.05    0.37
Q12   1  -0.0813  0.5614  0.1626  11.00000  0.05    0.37
Q13   1   0.0052  0.6590  0.2181  11.00000  0.05    0.36
Q14   1   0.1686  0.1559  0.1627  11.00000  0.05    0.36
Q15   1   0.3479  0.2684  0.2617  11.00000  0.05    0.35
Q16   1   0.8534  0.7144  0.4182  11.00000  0.05    0.35
Q17   1   0.4727  0.4593  0.1025  11.00000  0.05    0.35
Q18   1   0.4742  0.3452  0.0823  11.00000  0.05    0.35
Q19   1  -0.2213  0.7135  0.2189  11.00000  0.05    0.35
Q20   1   0.3592  0.1463  0.0186  11.00000  0.05    0.34
;
_shelx_res_checksum              80303
_shelx_hkl_file
;
  -1   0   0  319.75    7.74
  -1   0   0  338.65    7.55
   1   0   0  310.24    7.16
   1   0   0  345.79    7.18
  -2   0   0  106.62    2.70
   2   0   0  113.53    2.50
   2   0   0  112.01    2.53
  -3   0   0   67.65    1.82
  -3   0   0   72.30    1.82
   3   0   0   71.28    1.73
   3   0   0   69.62    1.68
  -4   0   0    9.27    0.44
  -4   0   0    9.69    0.40
   4   0   0    8.43    0.36
   4   0   0    9.63    0.42
  -5   0   0  130.28    3.23
  -5   0   0  126.67    3.29
   5   0   0  127.75    3.11
   5   0   0  121.68    2.99
  -6   0   0  144.78    3.81
   6   0   0  144.78    3.60
   6   0   0  145.90    3.45
  -7   0   0   62.09    2.00
   7   0   0   62.71    1.86
  -8   0   0   12.97    0.81
   8   0   0   13.49    0.75
  -9   0   0    0.18    0.28
   9   0   0   -0.13    0.21
   9  -1   0   84.85    2.53
  -9   1   0   88.19    2.89
   8  -1   0   84.16    2.40
  -8   1   0   82.78    2.68
   7  -1   0   13.12    0.67
  -7   1   0   13.41    0.78
   6  -1   0    0.18    0.14
   6  -1   0    0.01    0.13
  -6   1   0    0.28    0.18
   5  -1   0   88.74    2.23
   5  -1   0   85.52    2.25
  -5   1   0   87.71    2.46
  -5   1   0   93.15    2.35
   4  -1   0  157.99    3.70
   4  -1   0  160.57    3.70
  -4   1   0  158.81    3.98
  -4   1   0  158.27    3.92
   3  -1   0  319.92    7.13
   3  -1   0  321.46    7.10
  -3   1   0  315.07    7.56
  -3   1   0  322.96    7.64
   2  -1   0  534.93   11.89
   2  -1   0  551.27   11.84
  -2   1   0  566.75   12.83
  -2   1   0  520.23   12.58
   1  -1   0  153.15    3.19
   1  -1   0  146.41    3.24
  -1   1   0  141.22    3.44
  -1   1   0  140.14    3.51
   0   1   0    1.60    0.10
   0   1   0    1.77    0.12
   0   1   0    1.89    0.08
  -1  -1   0  240.94    5.60
   1   1   0  234.07    5.47
   1   1   0  228.15    5.18
   1   1   0  238.61    5.13
  -2  -1   0   63.68    1.63
   2   1   0   66.03    1.64
   2   1   0   65.04    1.57
   2   1   0   63.49    1.47
  -3  -1   0  213.02    5.02
  -3  -1   0  194.76    4.92
   3   1   0  211.02    4.58
   3   1   0  207.06    4.71
  -4  -1   0  168.67    4.26
  -4  -1   0  167.38    4.18
   4   1   0  171.81    3.85
   4   1   0  173.41    4.01
  -5  -1   0   36.76    1.22
  -5  -1   0   38.53    1.21
   5   1   0   39.15    1.21
   5   1   0   40.46    1.05
  -6  -1   0    0.47    0.18
   6   1   0    0.38    0.18
  -7  -1   0   17.37    0.85
   7   1   0   18.71    0.84
  -8  -1   0   64.10    2.14
   8   1   0   65.00    2.02
  -9  -1   0   40.53    1.67
   9   1   0   42.56    1.57
   9  -2   0    0.33    0.24
  -9   2   0    0.58    0.34
   8  -2   0   25.62    1.04
  -8   2   0   25.88    1.25
   7  -2   0  101.66    2.62
   7  -2   0   97.87    2.62
  -7   2   0   96.42    2.95
   6  -2   0   62.77    1.73
   6  -2   0   58.32    1.68
  -6   2   0   60.48    1.96
   5  -2   0  102.82    2.53
   5  -2   0  101.81    2.57
  -5   2   0  102.17    2.68
  -5   2   0  100.80    2.83
   4  -2   0   55.19    1.51
   4  -2   0   54.85    1.44
  -4   2   0   55.59    1.56
  -4   2   0   58.49    1.69
   3  -2   0    0.64    0.14
   3  -2   0    0.30    0.10
  -3   2   0    0.75    0.14
  -3   2   0    1.03    0.20
   2  -2   0  257.85    5.56
  -2   2   0  242.11    6.01
  -2   2   0  258.81    6.13
   1  -2   0  578.75   12.44
  -1   2   0  572.19   13.14
  -1   2   0  556.55   13.48
   0  -2   0  367.57    8.19
   0   2   0  371.94    8.67
   0   2   0  381.50    8.92
   0   2   0  376.35    8.14
  -1  -2   0  315.19    6.86
  -1  -2   0  333.60    7.53
   1   2   0  309.84    7.31
   1   2   0  297.56    6.90
  -2  -2   0  195.07    4.82
   2   2   0  191.32    4.47
   2   2   0  199.21    4.72
   2   2   0  205.59    4.35
  -3  -2   0    1.69    0.17
   3   2   0    2.18    0.20
   3   2   0    1.69    0.19
   3   2   0    2.05    0.12
  -4  -2   0   68.41    1.90
  -4  -2   0   66.53    1.88
   4   2   0   72.56    1.65
   4   2   0   70.20    1.85
  -5  -2   0  101.87    2.75
  -5  -2   0  102.05    2.76
   5   2   0  104.88    2.66
  -6  -2   0  139.15    3.71
   6   2   0  144.18    3.59
  -7  -2   0   43.47    1.53
   7   2   0   45.21    1.51
  -8  -2   0   11.04    0.72
   8   2   0   11.87    0.72
  -9  -2   0    0.94    0.36
   9   2   0    1.38    0.37
  -9   3   0   54.87    2.07
   8  -3   0   47.38    1.56
  -8   3   0   45.98    1.78
   7  -3   0   29.08    1.08
  -7   3   0   27.93    1.23
   6  -3   0    0.99    0.21
   6  -3   0    0.19    0.18
  -6   3   0    0.48    0.21
   5  -3   0   64.89    1.71
   5  -3   0   65.25    1.83
  -5   3   0   65.51    1.87
  -5   3   0   68.22    2.03
   4  -3   0  246.05    5.61
   4  -3   0  247.00    5.76
  -4   3   0  251.82    6.15
  -4   3   0  251.82    6.16
   3  -3   0  230.11    5.07
   3  -3   0  229.09    5.24
  -3   3   0  219.54    5.57
  -3   3   0  232.25    5.63
   2  -3   0  315.42    6.97
   2  -3   0  326.97    7.16
  -2   3   0  314.04    7.75
  -2   3   0  322.14    7.59
   1  -3   0   70.64    1.70
  -1   3   0   68.37    1.82
  -1   3   0   69.86    1.90
   0  -3   0   17.86    0.53
   0   3   0   17.71    0.46
   0   3   0   17.10    0.63
   0   3   0   17.39    0.59
  -1  -3   0  157.75    3.96
  -1  -3   0  155.13    3.53
   1   3   0  151.60    3.56
   1   3   0  164.51    3.94
   1   3   0  160.39    3.83
  -2  -3   0  233.66    5.66
  -2  -3   0  231.59    5.08
   2   3   0  224.61    5.20
  -3  -3   0  285.58    6.96
   3   3   0  299.07    6.25
   3   3   0  276.06    6.80
   3   3   0  277.04    6.46
  -4  -3   0  142.36    3.69
   4   3   0  142.18    3.50
   4   3   0  146.94    3.67
  -5  -3   0   29.01    1.05
  -5  -3   0   29.45    1.03
   5   3   0   29.19    1.04
  -6  -3   0    0.75    0.22
   6   3   0    0.46    0.20
  -7  -3   0   32.73    1.27
   7   3   0   33.06    1.26
  -8  -3   0   43.33    1.62
   8   3   0   40.82    1.54
  -9   4   0    2.52    0.50
   8  -4   0   15.66    0.84
  -8   4   0   15.84    0.95
   7  -4   0   79.43    2.30
  -7   4   0   78.58    2.51
   6  -4   0  153.91    3.90
  -6   4   0  155.61    4.22
   5  -4   0   72.49    2.08
  -5   4   0   77.86    2.30
  -5   4   0   76.01    2.16
   4  -4   0   14.84    0.64
  -4   4   0   15.19    0.65
  -4   4   0   13.25    0.69
   3  -4   0    1.46    0.22
  -3   4   0    1.51    0.25
  -3   4   0    1.23    0.22
   2  -4   0  138.11    3.24
  -2   4   0  132.47    3.53
  -2   4   0  134.99    3.46
   1  -4   0  434.75    9.61
  -1   4   0  426.55   10.17
  -1   4   0  437.24   10.48
   0  -4   0  232.24    5.43
   0   4   0  255.12    5.32
   0   4   0  236.56    5.79
   0   4   0  242.41    6.00
  -1  -4   0  197.75    4.54
   1   4   0  207.45    4.54
   1   4   0  199.67    5.05
   1   4   0  202.56    4.89
  -2  -4   0  124.30    3.29
  -2  -4   0  123.41    2.86
   2   4   0  123.59    2.97
   2   4   0  129.74    3.19
  -3  -4   0    4.15    0.33
   3   4   0    3.54    0.32
   3   4   0    4.20    0.30
  -4  -4   0   53.11    1.63
   4   4   0   53.47    1.63
   4   4   0   52.23    1.54
  -5  -4   0   40.77    1.35
   5   4   0   38.98    1.37
   5   4   0   40.74    1.34
  -6  -4   0   68.87    2.10
   6   4   0   68.11    2.05
  -7  -4   0   48.17    1.71
   7   4   0   48.87    1.67
  -8  -4   0    8.37    0.67
   8   4   0    7.40    0.64
   8  -5   0   45.02    1.63
  -8   5   0   46.31    1.82
   7  -5   0   13.11    0.78
  -7   5   0   15.17    0.90
   6  -5   0    2.69    0.39
  -6   5   0    2.83    0.45
   5  -5   0   40.85    1.38
  -5   5   0   42.06    1.41
  -5   5   0   42.46    1.55
   4  -5   0  109.91    2.83
  -4   5   0  105.71    3.04
  -4   5   0  108.79    2.99
   3  -5   0  261.08    5.96
  -3   5   0  253.56    6.43
  -3   5   0  250.13    6.33
   2  -5   0  216.76    4.99
  -2   5   0  210.15    5.29
  -2   5   0  213.10    5.46
   1  -5   0    9.83    0.46
  -1   5   0    9.36    0.54
  -1   5   0   10.48    0.52
   0   5   0    0.17    0.12
   0   5   0   -0.05    0.11
  -1  -5   0   28.28    1.07
  -1  -5   0   29.49    0.86
   1   5   0   30.59    0.82
   1   5   0   29.67    0.99
   1   5   0   28.16    1.04
  -2  -5   0  166.51    4.43
  -2  -5   0  165.12    3.88
   2   5   0  175.48    3.96
   2   5   0  172.66    4.28
  -3  -5   0  141.60    3.78
   3   5   0  141.14    3.66
   3   5   0  140.59    3.43
  -4  -5   0   84.31    2.50
   4   5   0   87.38    2.34
   4   5   0   88.69    2.48
  -5  -5   0    2.76    0.37
   5   5   0    2.57    0.38
   5   5   0    2.92    0.38
  -6  -5   0    1.56    0.32
   6   5   0    1.23    0.30
  -7  -5   0   29.63    1.27
   7   5   0   30.96    1.26
   8   5   0   63.51    2.13
   8  -6   0   22.32    1.12
  -8   6   0   23.22    1.24
   7  -6   0   65.79    2.11
  -7   6   0   63.85    2.29
   6  -6   0   97.00    2.77
  -6   6   0   97.11    3.01
   5  -6   0  112.77    3.04
  -5   6   0  113.97    3.18
  -5   6   0  108.63    3.26
   4  -6   0   34.90    1.24
  -4   6   0   34.59    1.36
  -4   6   0   34.59    1.30
   3  -6   0   13.87    0.68
  -3   6   0   13.61    0.73
  -3   6   0   13.34    0.71
   2  -6   0   52.55    1.55
  -2   6   0   51.18    1.72
  -2   6   0   53.10    1.66
   1  -6   0  139.93    3.47
  -1   6   0  142.66    3.87
  -1   6   0  144.83    3.71
   0  -6   0  168.32    4.07
   0   6   0  171.09    4.37
   0   6   0  178.43    4.58
  -1  -6   0  115.54    2.84
  -1  -6   0  117.25    3.31
   1   6   0  119.48    3.12
  -2  -6   0    9.78    0.61
   2   6   0   11.12    0.58
  -3  -6   0    4.45    0.43
   3   6   0    4.69    0.40
   3   6   0    4.82    0.36
  -4  -6   0   16.35    0.84
   4   6   0   18.14    0.78
   4   6   0   16.58    0.82
  -5  -6   0   93.51    2.76
   5   6   0   90.53    2.55
   5   6   0   90.66    2.70
   6   6   0   57.53    1.98
   6   6   0   59.86    1.91
  -7  -6   0   30.78    1.33
   7   6   0   29.24    1.29
   7  -7   0   13.85    0.87
  -7   7   0   13.96    0.95
   6  -7   0    1.25    0.35
  -6   7   0    1.02    0.36
  -5   7   0   30.62    1.25
  -5   7   0   29.26    1.34
   4  -7   0   90.01    2.56
  -4   7   0   91.65    2.73
  -4   7   0   87.90    2.73
   3  -7   0  117.15    3.12
  -3   7   0  120.46    3.40
  -3   7   0  116.04    3.32
   2  -7   0   32.24    1.15
  -2   7   0   32.38    1.29
  -2   7   0   31.54    1.21
   1  -7   0   14.16    0.66
  -1   7   0   14.11    0.79
  -1   7   0   14.08    0.72
   0  -7   0    4.03    0.35
   0   7   0    3.93    0.42
   0   7   0    3.73    0.37
  -1  -7   0   52.66    1.86
   1   7   0   53.20    1.69
  -2  -7   0  101.38    3.06
   2   7   0  104.59    2.89
  -3  -7   0   77.86    2.47
   3   7   0   79.32    2.35
  -4  -7   0   48.20    1.75
   4   7   0   47.60    1.66
  -5  -7   0   10.87    0.73
   5   7   0   10.26    0.70
   6   7   0    1.73    0.39
   6  -8   0   67.79    2.24
  -6   8   0   65.61    2.40
   5  -8   0   44.51    1.65
  -5   8   0   45.29    1.68
  -5   8   0   43.73    1.76
   4  -8   0   22.81    1.06
  -4   8   0   23.71    1.11
  -4   8   0   22.72    1.12
   3  -8   0    4.42    0.45
  -3   8   0    3.78    0.49
  -3   8   0    4.09    0.53
   2  -8   0   62.91    1.93
  -2   8   0   62.16    2.14
  -2   8   0   63.32    2.05
   1  -8   0   81.05    2.28
  -1   8   0   79.42    2.56
  -1   8   0   80.10    2.42
   0  -8   0  102.96    2.77
   0  -8   0  106.95    3.27
   0   8   0  105.28    3.00
  -1  -8   0   70.21    2.39
   1   8   0   71.61    2.20
  -2  -8   0   20.52    1.06
   2   8   0   19.19    0.92
  -3  -8   0    6.58    0.62
   3   8   0    6.35    0.55
  -4  -8   0   22.18    1.13
   4   8   0   21.60    1.04
  -5  -8   0   51.21    1.96
   5   8   0   53.49    1.90
   4  -9   0   61.67    2.05
  -4   9   0   56.60    2.10
  -4   9   0   58.39    2.11
   3  -9   0   66.13    2.15
  -3   9   0   66.58    2.25
  -3   9   0   67.44    2.32
   2  -9   0   29.24    1.21
  -2   9   0   28.90    1.27
  -2   9   0   28.49    1.33
   1  -9   0   12.65    0.73
   1  -9   0   10.47    0.84
  -1   9   0   11.50    0.74
  -1   9   0   12.48    0.83
   0  -9   0    0.73    0.34
   0   9   0    1.56    0.35
  -1  -9   0   41.76    1.75
   1   9   0   42.61    1.58
  -2  -9   0   43.06    1.77
   2   9   0   42.92    1.60
  -3  -9   0   45.02    1.81
   3   9   0   42.70    1.64
  -1  10   0   53.25    1.96
   0  10   0   46.83    1.77
   1  10  -1    2.94    0.48
   0  10  -1    4.66    0.56
   0 -10   1    3.70    0.61
  -1  10  -1   31.12    1.32
  -1  10  -1   27.94    1.40
   1 -10   1   27.62    1.49
  -2  10  -1   56.74    2.02
   2 -10   1   58.41    1.98
   4   9  -1    3.03    0.47
  -4  -9   1    3.27    0.54
   3   9  -1    8.06    0.64
  -3  -9   1    8.28    0.70
   2   9  -1   33.60    1.34
  -2  -9   1   33.97    1.52
   1   9  -1   64.58    2.08
  -1  -9   1   63.59    2.33
   0   9  -1   60.80    2.01
   0   9  -1   63.51    2.22
   0  -9   1   60.82    2.29
  -1   9  -1   25.41    1.11
  -1   9  -1   23.99    1.22
   1  -9   1   25.80    1.08
  -2   9  -1    0.21    0.23
  -2   9  -1   -0.03    0.23
   2  -9   1    0.11    0.24
  -3   9  -1   16.89    0.92
  -3   9  -1   15.15    0.95
   3  -9   1   15.17    0.87
  -4   9  -1   37.40    1.57
  -4   9  -1   37.26    1.54
   4  -9   1   37.76    1.51
   5   8  -1   49.62    1.82
  -5  -8   1   53.23    1.92
   4   8  -1   63.50    2.11
  -4  -8   1   66.67    2.25
   3   8  -1   74.62    2.32
  -3  -8   1   76.90    2.48
   2   8  -1   32.70    1.24
  -2  -8   1   31.39    1.36
   1   8  -1    2.23    0.35
  -1  -8   1    1.54    0.36
   0   8  -1   11.79    0.75
   0   8  -1   10.46    0.64
   0  -8   1   10.58    0.60
  -1   8  -1   26.92    1.12
  -1   8  -1   29.34    1.28
   1  -8   1   28.55    1.09
  -2   8  -1   92.36    2.89
  -2   8  -1   94.10    2.73
   2  -8   1   93.01    2.61
  -3   8  -1   53.48    1.82
  -3   8  -1   53.07    1.90
   3  -8   1   51.44    1.74
  -4   8  -1   20.43    1.03
  -4   8  -1   21.34    1.07
   4  -8   1   20.76    1.00
  -5   8  -1    0.29    0.27
  -5   8  -1    0.26    0.24
   5  -8   1    0.80    0.32
   6  -8   1   17.00    0.99
   6   7  -1   51.07    1.84
   5   7  -1   23.77    1.08
  -5  -7   1   25.25    1.14
   4   7  -1    4.45    0.46
  -4  -7   1    5.09    0.51
   3   7  -1    9.87    0.60
  -3  -7   1    9.47    0.65
   2   7  -1   33.75    1.21
  -2  -7   1   33.35    1.34
   1   7  -1   69.04    2.06
   1   7  -1   70.14    2.21
  -1  -7   1   71.35    2.29
  -1  -7   1   70.95    1.91
   0   7  -1   98.31    2.69
   0   7  -1   96.18    2.86
   0  -7   1   94.72    2.50
  -1   7  -1    7.13    0.48
  -1   7  -1    7.02    0.56
   1  -7   1    6.79    0.46
  -2   7  -1    3.24    0.39
  -2   7  -1    3.94    0.43
   2  -7   1    4.03    0.39
  -3   7  -1   31.61    1.28
  -3   7  -1   31.93    1.23
   3  -7   1   31.01    1.17
  -4   7  -1  101.47    3.00
  -4   7  -1  105.74    3.05
   4  -7   1  100.19    2.83
  -5   7  -1  108.04    3.26
  -5   7  -1  111.78    3.23
   5  -7   1  109.22    3.06
  -6   7  -1   58.64    2.12
   6  -7   1   58.53    1.96
  -7   7  -1   20.41    1.15
   7  -7   1   21.06    1.09
   7   6  -1    0.09    0.24
  -7  -6   1    1.30    0.36
   6   6  -1   12.21    0.74
   6   6  -1   12.23    0.75
  -6  -6   1   12.17    0.74
   5   6  -1  114.20    3.29
   5   6  -1  119.63    3.14
  -5  -6   1  121.74    3.38
   4   6  -1  120.84    3.29
   4   6  -1  121.64    3.10
  -4  -6   1  120.44    3.40
   3   6  -1   86.08    2.23
   3   6  -1   83.43    2.41
  -3  -6   1   88.20    2.56
   2   6  -1   49.05    1.50
  -2  -6   1   48.20    1.63
  -2  -6   1   46.77    1.30
   1   6  -1    9.20    0.50
   1   6  -1    8.92    0.55
  -1  -6   1    8.82    0.43
   0   6  -1   33.46    1.11
   0   6  -1   32.75    1.22
   0  -6   1   31.96    1.02
  -1   6  -1  157.90    3.99
  -1   6  -1  154.08    4.20
   1  -6   1  157.05    3.78
  -2   6  -1  110.51    3.19
  -2   6  -1  115.66    3.04
   2  -6   1  112.71    2.88
  -3   6  -1  121.42    3.29
  -3   6  -1  121.83    3.39
   3  -6   1  118.93    3.10
  -4   6  -1   25.90    1.10
  -4   6  -1   25.05    1.05
   4  -6   1   24.41    0.99
  -5   6  -1    0.38    0.22
  -5   6  -1    0.71    0.28
   5  -6   1    0.53    0.24
  -6   6  -1   20.02    1.05
   6  -6   1   19.92    0.96
  -7   6  -1   63.21    2.22
   7  -6   1   61.73    2.03
  -8   6  -1  106.25    3.30
   8  -6   1  101.35    3.02
   8   5  -1   62.51    2.11
  -8  -5   1   64.39    2.19
   7   5  -1  110.99    3.12
  -7  -5   1  111.01    3.22
   6   5  -1   84.69    2.43
  -6  -5   1   82.37    2.48
   5   5  -1   58.58    1.85
   5   5  -1   57.94    1.78
  -5  -5   1   59.57    1.85
   4   5  -1    2.53    0.31
   4   5  -1    1.94    0.29
  -4  -5   1    1.93    0.29
   3   5  -1    5.27    0.38
   3   5  -1    5.07    0.35
  -3  -5   1    4.77    0.38
   2   5  -1   57.90    1.49
   2   5  -1   54.88    1.62
  -2  -5   1   56.32    1.44
  -2  -5   1   54.66    1.73
   1   5  -1  116.43    3.15
   1   5  -1  121.26    2.72
   1   5  -1  115.97    3.00
  -1  -5   1  113.71    2.77
   0   5  -1  129.50    3.29
   0   5  -1  130.60    3.48
   0  -5   1  131.36    3.11
  -1   5  -1   34.03    1.23
  -1   5  -1   35.73    1.13
   1  -5   1   36.71    1.07
  -2   5  -1    1.39    0.25
  -2   5  -1    0.78    0.18
   2  -5   1    0.51    0.17
  -3   5  -1   48.20    1.55
  -3   5  -1   47.13    1.52
   3  -5   1   46.74    1.41
  -4   5  -1   74.59    2.31
  -4   5  -1   82.31    2.32
  -5   5  -1  107.52    3.11
  -5   5  -1  109.38    3.04
   5  -5   1  109.71    2.90
  -6   5  -1  148.70    4.05
   6  -5   1  141.03    3.73
  -7   5  -1   19.11    1.01
   7  -5   1   17.57    0.89
  -8   5  -1    1.88    0.43
   8  -5   1    1.14    0.34
   8   4  -1   30.58    1.28
  -8  -4   1   29.32    1.28
   7   4  -1    0.04    0.20
  -7  -4   1    0.12    0.19
   6   4  -1   26.17    1.04
  -6  -4   1   24.91    1.03
   5   4  -1   52.99    1.63
   5   4  -1   52.84    1.68
  -5  -4   1   53.27    1.66
  -5  -4   1   55.45    1.66
   4   4  -1   96.85    2.52
   4   4  -1   98.26    2.63
  -4  -4   1   96.54    2.65
   3   4  -1  147.04    3.58
   3   4  -1  162.75    3.42
   3   4  -1  149.14    3.78
  -3  -4   1  140.55    3.85
   2   4  -1  121.87    2.87
   2   4  -1  119.47    3.04
  -2  -4   1  120.69    2.78
  -2  -4   1  119.28    3.17
   1   4  -1    2.06    0.17
   1   4  -1    2.41    0.24
   1   4  -1    2.82    0.23
  -1  -4   1    2.56    0.19
   0   4  -1   45.28    1.06
   0   4  -1   43.49    1.25
   0  -4   1   43.66    1.16
  -1   4  -1  157.69    3.85
  -1   4  -1  150.81    4.02
   1  -4   1  161.45    3.65
  -2   4  -1  115.47    3.02
  -2   4  -1  116.55    3.14
   2  -4   1  118.01    2.60
   2  -4   1  120.74    2.85
  -3   4  -1  115.04    3.15
  -3   4  -1  122.71    3.22
   3  -4   1  121.28    2.73
   3  -4   1  124.05    2.97
  -4   4  -1   53.82    1.64
  -4   4  -1   51.64    1.67
   4  -4   1   54.93    1.56
  -5   4  -1    1.89    0.32
  -5   4  -1    2.20    0.30
   5  -4   1    1.88    0.28
  -6   4  -1   90.90    2.63
  -6   4  -1   96.64    2.78
   6  -4   1   91.28    2.53
  -7   4  -1  137.49    3.87
   7  -4   1  135.84    3.55
  -8   4  -1   60.75    2.14
   8  -4   1   60.11    1.92
  -9   4  -1   50.96    1.98
   8   3  -1   59.99    1.94
  -8  -3   1   56.40    1.97
   7   3  -1  106.12    2.92
  -7  -3   1  106.36    3.02
   6   3  -1  100.28    2.70
  -6  -3   1   97.90    2.75
   5   3  -1   49.00    1.49
  -5  -3   1   49.51    1.47
  -5  -3   1   47.44    1.50
   4   3  -1    2.31    0.27
   4   3  -1    2.59    0.17
   4   3  -1    2.89    0.27
  -4  -3   1    2.24    0.23
   3   3  -1   27.27    0.89
   3   3  -1   25.47    0.85
   3   3  -1   28.32    0.72
  -3  -3   1   25.40    0.87
   2   3  -1  192.58    4.63
   2   3  -1  185.40    4.39
   2   3  -1  198.83    4.29
  -2  -3   1  192.76    4.77
   1   3  -1  337.11    7.90
   1   3  -1  343.21    7.45
   1   3  -1  334.54    8.14
  -1  -3   1  335.70    7.44
   0   3  -1   24.72    0.61
   0   3  -1   24.13    0.73
   0  -3   1   23.83    0.67
  -1   3  -1   43.05    1.30
  -1   3  -1   44.17    1.22
   1  -3   1   44.80    1.00
   1  -3   1   45.13    1.15
  -2   3  -1    0.98    0.17
  -2   3  -1    0.59    0.15
   2  -3   1    1.05    0.15
   2  -3   1    0.76    0.08
  -3   3  -1  122.01    3.31
  -3   3  -1  131.62    3.37
   3  -3   1  132.49    2.96
   3  -3   1  134.22    3.11
  -4   3  -1  281.15    7.09
  -4   3  -1  290.71    7.04
   4  -3   1  292.75    6.61
   4  -3   1  290.03    6.46
  -5   3  -1  234.47    5.76
  -5   3  -1  224.74    5.72
   5  -3   1  223.75    5.22
   5  -3   1  229.82    5.36
  -6   3  -1  140.76    3.75
  -6   3  -1  143.15    3.88
   6  -3   1  144.38    3.56
   6  -3   1  141.68    3.47
  -7   3  -1   16.98    0.91
   7  -3   1   16.43    0.74
   7  -3   1   16.99    0.79
  -8   3  -1    0.41    0.28
  -9   3  -1    9.71    0.81
   9   2  -1   42.25    1.58
  -9  -2   1   41.09    1.66
   8   2  -1   10.26    0.67
  -8  -2   1   12.01    0.74
   7   2  -1    0.55    0.22
  -7  -2   1    0.38    0.21
   6   2  -1   46.16    1.47
  -6  -2   1   45.63    1.49
   5   2  -1  126.61    3.17
  -5  -2   1  123.28    3.26
  -5  -2   1  127.53    3.26
   4   2  -1  168.80    3.75
   4   2  -1  165.64    3.93
  -4  -2   1  156.92    4.05
  -4  -2   1  165.77    4.08
   3   2  -1  299.00    6.59
   3   2  -1  287.14    6.73
  -3  -2   1  308.70    7.17
   2   2  -1   63.73    1.40
   2   2  -1   59.82    1.56
   2   2  -1   57.20    1.50
  -2  -2   1   58.05    1.57
   1   2  -1    6.87    0.29
   1   2  -1    6.96    0.28
   1   2  -1    7.35    0.31
   1   2  -1    7.16    0.25
   0   2  -1    1.61    0.14
   0   2  -1    1.44    0.11
   0  -2   1    1.64    0.11
  -1   2  -1   94.93    2.38
  -1   2  -1   95.37    2.49
   1  -2   1  101.80    2.16
   1  -2   1   99.23    2.26
  -2   2  -1  456.69   11.16
  -2   2  -1  467.15   11.45
   2  -2   1  505.46   10.46
   2  -2   1  490.59   10.56
  -3   2  -1  275.82    6.55
  -3   2  -1  269.22    6.63
   3  -2   1  272.01    6.13
   3  -2   1  272.12    6.04
  -4   2  -1   40.91    1.33
  -4   2  -1   41.38    1.25
   4  -2   1   40.37    1.12
   4  -2   1   43.88    1.20
  -5   2  -1    2.23    0.32
  -5   2  -1    2.42    0.25
   5  -2   1    2.37    0.27
   5  -2   1    3.72    0.28
  -6   2  -1   11.01    0.68
  -6   2  -1   12.44    0.59
   6  -2   1   11.79    0.57
   6  -2   1   11.95    0.58
  -7   2  -1  111.58    3.31
   7  -2   1  120.16    2.96
   7  -2   1  109.59    2.94
  -8   2  -1   68.61    2.34
   8  -2   1   67.36    2.03
  -9   2  -1   43.38    1.79
   9  -2   1   40.85    1.51
   9   1  -1   12.40    0.77
  -9  -1   1   12.17    0.84
   8   1  -1   76.69    2.25
  -8  -1   1   73.09    2.38
   7   1  -1  126.82    3.31
   6   1  -1  119.49    3.04
  -6  -1   1  115.78    3.15
   5   1  -1   53.88    1.57
   5   1  -1   55.78    1.43
  -5  -1   1   52.58    1.61
  -5  -1   1   57.48    1.56
   4   1  -1    4.08    0.30
   4   1  -1    3.77    0.22
  -4  -1   1    4.89    0.27
  -4  -1   1    3.46    0.27
   3   1  -1   18.37    0.63
   3   1  -1   18.79    0.54
  -3  -1   1   19.58    0.58
   2   1  -1  187.82    4.19
   2   1  -1  184.30    4.10
  -2  -1   1  186.50    4.36
  -2  -1   1  180.65    4.41
   1   1  -1  272.82    6.44
   1   1  -1  282.68    6.30
   1   1  -1  250.19    5.99
   1   1  -1  282.44    5.96
   0   1  -1  194.29    4.12
   0   1  -1  190.32    4.32
   0   1  -1  178.14    4.48
   0  -1   1  187.56    4.10
  -1   1  -1  144.00    3.50
  -1   1  -1  130.43    3.38
   1  -1   1  145.64    3.20
   1  -1   1  155.49    3.17
  -2   1  -1   50.42    1.34
  -2   1  -1   50.24    1.35
   2  -1   1   51.03    1.24
   2  -1   1   51.25    1.22
  -3   1  -1  135.16    3.37
  -3   1  -1  135.41    3.35
   3  -1   1  137.25    3.11
   3  -1   1  133.71    3.12
  -4   1  -1  244.53    5.99
  -4   1  -1  243.74    5.94
   4  -1   1  244.69    5.56
   4  -1   1  248.54    5.56
  -5   1  -1  298.46    7.25
  -5   1  -1  293.44    7.21
   5  -1   1  302.83    6.73
   5  -1   1  292.46    6.75
  -6   1  -1   56.27    1.65
  -6   1  -1   57.44    1.80
   6  -1   1   56.36    1.56
   6  -1   1   54.58    1.61
  -7   1  -1   16.12    0.86
   7  -1   1   16.33    0.76
  -8   1  -1    1.11    0.33
   8  -1   1    1.57    0.31
  -9   1  -1   30.71    1.47
   9  -1   1   30.49    1.25
   9   0  -1   60.15    1.97
  -9   0   1   61.14    2.21
   8   0  -1   22.74    0.98
  -8   0   1   21.64    1.08
   7   0  -1    1.24    0.26
  -7   0   1    1.33    0.30
   6   0  -1   37.37    1.12
   6   0  -1   38.33    1.23
  -6   0   1   36.86    1.30
   5   0  -1  130.66    3.21
   5   0  -1  137.56    3.33
  -5   0   1  139.22    3.40
  -5   0   1  137.79    3.52
   4   0  -1  274.61    6.08
   4   0  -1  262.41    5.99
  -4   0   1  252.10    6.38
  -4   0   1  276.49    6.40
   3   0  -1  177.29    3.99
   3   0  -1  171.83    3.92
  -3   0   1  172.05    4.18
  -3   0   1  172.00    4.16
   2   0  -1   51.93    1.24
   2   0  -1   51.39    1.28
  -2   0   1   53.04    1.27
  -2   0   1   49.84    1.32
   1   0  -1   13.34    0.36
  -1   0  -1  343.45    8.08
  -1   0  -1  340.14    7.83
   1   0   1  351.77    7.43
   1   0   1  327.91    7.44
  -2   0  -1  319.14    7.69
  -2   0  -1  313.52    7.46
   2   0   1  324.24    7.04
   2   0   1  327.64    7.08
  -3   0  -1  197.35    4.97
  -3   0  -1  196.85    4.84
   3   0   1  206.12    4.54
   3   0   1  213.13    4.61
  -4   0  -1   90.26    2.37
  -4   0  -1   91.50    2.40
   4   0   1   92.56    2.25
   4   0   1   89.57    2.16
  -5   0  -1   10.26    0.51
  -5   0  -1    9.92    0.47
   5   0   1    9.38    0.41
   5   0   1    9.71    0.48
  -6   0  -1   56.04    1.74
  -6   0  -1   56.85    1.66
   6   0   1   53.98    1.62
  -7   0  -1   56.04    1.84
   7   0   1   54.85    1.70
  -8   0  -1  100.45    3.00
   8   0   1   97.89    2.76
  -9   0  -1   56.32    2.06
   9   0   1   52.97    1.84
   9  -1  -1   27.95    1.17
  -9   1   1   26.18    1.35
   8  -1  -1   64.79    2.00
  -8   1   1   69.20    2.31
   7  -1  -1   80.47    2.25
   7  -1  -1   81.13    2.18
  -7   1   1   82.16    2.51
   6  -1  -1   48.35    1.41
   6  -1  -1   47.80    1.44
  -6   1   1   49.17    1.63
   5  -1  -1   62.05    1.68
   5  -1  -1   60.45    1.65
  -5   1   1   63.27    1.66
  -5   1   1   60.35    1.84
   4  -1  -1    1.93    0.22
   4  -1  -1    1.53    0.20
  -4   1   1    1.24    0.15
  -4   1   1    1.26    0.22
   3  -1  -1  199.43    4.53
   3  -1  -1  196.58    4.51
  -3   1   1  202.71    4.79
  -3   1   1  196.32    4.84
   2  -1  -1  187.54    4.27
   2  -1  -1  185.29    4.23
  -2   1   1  192.87    4.53
  -2   1   1  191.22    4.55
   1  -1  -1  178.26    3.79
  -1   1   1  170.22    4.08
  -1   1   1  169.85    4.13
   0  -1  -1  315.84    6.75
   0   1   1  302.86    7.13
  -1  -1  -1  174.31    4.09
   1   1   1  164.72    3.99
   1   1   1  170.68    3.77
   2   1   1    1.77    0.09
   2   1   1    2.30    0.17
   2   1   1    1.75    0.15
  -3  -1  -1  232.43    5.89
  -3  -1  -1  257.16    6.06
   3   1   1  247.14    5.61
   3   1   1  258.93    5.47
  -4  -1  -1  174.36    4.49
  -4  -1  -1  171.16    4.36
   4   1   1  183.82    3.99
   4   1   1  183.40    4.17
  -5  -1  -1  190.67    4.82
  -5  -1  -1  184.49    4.71
   5   1   1  194.58    4.51
  -6  -1  -1  102.47    2.80
  -6  -1  -1   99.58    2.78
   6   1   1  102.40    2.67
  -7  -1  -1   31.75    1.23
   7   1   1   32.39    1.19
  -8  -1  -1    2.17    0.41
   8   1   1    2.09    0.36
  -9  -1  -1   29.68    1.38
   9   1   1   31.06    1.30
  -9   2   1   33.41    1.53
   8  -2  -1    8.19    0.56
   8  -2  -1    8.20    0.56
  -8   2   1    8.37    0.68
   7  -2  -1    3.12    0.37
   7  -2  -1    2.47    0.33
  -7   2   1    2.43    0.40
   6  -2  -1   69.12    1.88
   6  -2  -1   68.41    1.90
  -6   2   1   67.81    2.13
   5  -2  -1  174.26    4.11
   5  -2  -1  172.40    4.05
  -5   2   1  170.74    4.27
  -5   2   1  170.04    4.44
   4  -2  -1  338.19    7.75
   4  -2  -1  347.55    7.68
  -4   2   1  345.58    8.27
  -4   2   1  340.86    8.24
   3  -2  -1  261.45    6.01
   3  -2  -1  265.66    5.92
  -3   2   1  268.69    6.41
  -3   2   1  264.96    6.40
   2  -2  -1    7.62    0.27
   2  -2  -1    8.66    0.35
  -2   2   1    7.86    0.38
  -2   2   1    7.87    0.34
   1  -2  -1   51.02    1.26
  -1   2   1   49.96    1.13
  -1   2   1   49.51    1.35
  -1   2   1   51.64    1.35
   0  -2  -1  125.68    2.92
   0   2   1  129.73    3.13
   0   2   1  132.32    3.21
   0   2   1  132.93    2.87
  -1  -2  -1  520.96   11.80
   1   2   1  562.97   11.84
   1   2   1  544.79   12.55
  -2  -2  -1  338.17    7.47
  -2  -2  -1  368.79    8.27
   2   2   1  338.65    7.62
   2   2   1  330.92    8.06
  -3  -2  -1  178.28    4.51
   3   2   1  177.43    4.20
   3   2   1  189.00    3.98
   3   2   1  183.78    4.44
  -4  -2  -1   38.51    1.18
  -4  -2  -1   37.66    1.17
   4   2   1   37.05    1.13
  -5  -2  -1   -0.01    0.11
  -5  -2  -1    0.98    0.20
   5   2   1    0.42    0.16
  -6  -2  -1   42.96    1.45
  -6  -2  -1   43.83    1.48
   6   2   1   43.65    1.41
  -7  -2  -1   68.98    2.15
   7   2   1   69.56    2.08
  -8  -2  -1   52.37    1.84
   8   2   1   50.52    1.74
  -9  -2  -1   16.32    1.00
   9   2   1   17.09    0.96
  -9   3   1   20.95    1.15
   8  -3  -1   83.48    2.37
  -8   3   1   80.39    2.63
   7  -3  -1  113.82    3.00
  -7   3   1  112.85    3.29
   6  -3  -1  139.59    3.47
   6  -3  -1  134.75    3.35
  -6   3   1  138.22    3.77
   5  -3  -1   32.52    1.00
   5  -3  -1   36.97    1.15
  -5   3   1   33.31    1.24
  -5   3   1   32.91    1.07
   4  -3  -1   31.02    0.90
   4  -3  -1   31.55    1.02
  -4   3   1   29.96    0.99
  -4   3   1   33.75    1.15
   3  -3  -1   29.67    0.93
   3  -3  -1   30.00    0.80
  -3   3   1   30.83    0.97
  -3   3   1   29.40    1.03
   2  -3  -1  170.99    3.66
   2  -3  -1  164.04    3.87
  -2   3   1  170.26    4.13
  -2   3   1  161.59    4.17
   1  -3  -1  413.85    9.20
  -1   3   1  416.48    9.98
  -1   3   1  417.44    9.75
   0  -3  -1  282.66    6.37
   0   3   1  291.21    6.78
   0   3   1  288.71    6.28
   0   3   1  286.00    6.96
  -1  -3  -1   32.36    1.03
  -1  -3  -1   34.06    0.84
   1   3   1   33.87    0.88
   1   3   1   33.85    1.00
  -2  -3  -1    3.15    0.25
  -2  -3  -1    3.07    0.14
   2   3   1    3.39    0.25
   2   3   1    2.97    0.22
  -3  -3  -1   52.95    1.22
  -3  -3  -1   53.20    1.56
   3   3   1   55.86    1.56
   3   3   1   53.46    1.45
  -4  -3  -1  122.92    3.39
   4   3   1  136.50    3.40
   4   3   1  132.36    3.21
  -5  -3  -1  133.49    3.47
  -5  -3  -1  129.18    3.51
   5   3   1  133.23    3.33
  -6  -3  -1   54.63    1.78
  -6  -3  -1   55.14    1.77
   6   3   1   56.59    1.73
  -7  -3  -1   12.15    0.74
   7   3   1   12.69    0.72
  -8  -3  -1    1.65    0.38
   8   3   1    1.38    0.34
   9  -4  -1   30.71    1.28
  -9   4   1   29.09    1.42
   8  -4  -1    8.97    0.63
  -8   4   1    9.44    0.74
   7  -4  -1    2.50    0.38
  -7   4   1    1.78    0.37
   6  -4  -1   56.60    1.74
  -6   4   1   57.77    1.93
   5  -4  -1  113.39    2.96
  -5   4   1  117.69    3.23
  -5   4   1  112.33    3.05
   4  -4  -1  157.17    3.77
  -4   4   1  151.67    4.05
  -4   4   1  152.20    3.96
  -3   4   1   99.13    2.73
  -3   4   1  100.74    2.71
   2  -4  -1  101.50    2.49
  -2   4   1   97.53    2.70
  -2   4   1  102.23    2.69
   1  -4  -1    3.42    0.24
  -1   4   1    3.16    0.27
  -1   4   1    2.85    0.27
   0  -4  -1  147.85    3.48
   0   4   1  150.71    3.86
   0   4   1  155.53    3.36
   0   4   1  148.43    3.74
  -1  -4  -1  134.71    3.20
  -1  -4  -1  141.83    3.65
   1   4   1  140.11    3.22
   1   4   1  144.44    3.53
  -2  -4  -1  257.08    5.91
  -2  -4  -1  268.02    6.63
   2   4   1  276.55    6.46
   2   4   1  267.71    6.04
  -3  -4  -1  161.77    4.29
   3   4   1  165.78    3.95
   3   4   1  172.72    4.22
  -4  -4  -1    0.81    0.20
   4   4   1    1.08    0.23
   4   4   1    0.96    0.21
  -5  -4  -1    0.90    0.23
   5   4   1    0.80    0.23
   5   4   1    0.79    0.22
  -6  -4  -1   27.93    1.14
  -6  -4  -1   29.00    1.16
   6   4   1   29.81    1.14
  -7  -4  -1   86.60    2.61
   7   4   1   83.27    2.50
  -8  -4  -1   58.59    2.05
   8   4   1   58.94    2.00
   8  -5  -1   62.39    2.05
  -8   5   1   64.18    2.27
   7  -5  -1   69.59    2.17
  -7   5   1   73.27    2.42
   6  -5  -1   72.06    2.18
  -6   5   1   76.29    2.42
   5  -5  -1    3.52    0.42
  -5   5   1    3.02    0.43
  -5   5   1    3.53    0.35
   4  -5  -1    9.85    0.55
  -4   5   1    9.27    0.62
  -4   5   1   10.32    0.57
   3  -5  -1   82.82    2.21
  -3   5   1   82.33    2.37
  -3   5   1   82.00    2.40
   2  -5  -1  253.80    5.80
  -2   5   1  248.30    6.16
  -2   5   1  247.95    6.30
   1  -5  -1  335.42    7.62
  -1   5   1  345.64    8.34
  -1   5   1  329.88    8.09
   0  -5  -1  179.68    4.22
   0   5   1  184.45    4.69
   0   5   1  181.78    4.54
  -1  -5  -1   15.85    0.73
  -1  -5  -1   15.77    0.55
   1   5   1   16.25    0.53
   1   5   1   15.34    0.67
  -2  -5  -1   11.98    0.63
   2   5   1   12.71    0.61
   2   5   1   13.51    0.52
  -3  -5  -1   49.90    1.64
   3   5   1   51.66    1.46
   3   5   1   50.18    1.58
  -4  -5  -1  129.70    3.58
   4   5   1  128.68    3.29
   4   5   1  133.17    3.52
  -5  -5  -1   92.56    2.68
   5   5   1   92.02    2.52
   5   5   1   87.52    2.64
  -6  -5  -1   63.93    2.11
  -6  -5  -1   64.07    2.09
   6   5   1   66.34    2.03
   6   5   1   65.18    2.12
  -7  -5  -1    5.93    0.58
   7   5   1    5.37    0.59
   8  -6  -1    1.73    0.43
  -8   6   1    2.49    0.50
   7  -6  -1    6.51    0.59
  -7   6   1    8.28    0.74
   6  -6  -1   48.91    1.70
  -6   6   1   51.49    1.90
   5  -6  -1  159.39    4.04
  -5   6   1  156.68    4.21
  -5   6   1  154.17    4.35
  -4   6   1  129.43    3.68
  -4   6   1  132.19    3.60
   3  -6  -1  118.10    3.05
  -3   6   1  116.54    3.28
  -3   6   1  118.28    3.29
   2  -6  -1   71.61    1.96
  -2   6   1   69.48    2.15
  -2   6   1   69.53    2.10
   1  -6  -1    1.35    0.23
  -1   6   1    1.14    0.23
  -1   6   1    1.22    0.26
   0  -6  -1   82.20    2.19
   0  -6  -1   87.96    2.59
   0   6   1   86.64    2.51
   0   6   1   86.49    2.41
  -1  -6  -1  100.10    2.54
  -1  -6  -1  103.78    2.97
   1   6   1  105.61    2.82
  -2  -6  -1   81.45    2.51
   2   6   1   88.08    2.43
  -3  -6  -1   66.22    2.13
   3   6   1   67.73    2.06
   3   6   1   69.40    1.87
  -4  -6  -1   34.96    1.36
   4   6   1   36.68    1.35
   4   6   1   37.60    1.25
  -5  -6  -1    2.09    0.38
   5   6   1    1.75    0.33
   5   6   1    1.81    0.34
  -6  -6  -1   30.74    1.29
   6   6   1   29.07    1.28
   6   6   1   29.65    1.21
  -7  -6  -1   37.77    1.54
   7   6   1   37.31    1.48
   7  -7  -1   50.64    1.85
  -7   7   1   53.14    2.07
   6  -7  -1   38.99    1.51
  -6   7   1   39.84    1.69
   5  -7  -1   12.58    0.76
  -5   7   1   11.04    0.70
  -5   7   1   11.56    0.81
   4  -7  -1    0.69    0.26
  -4   7   1    1.33    0.33
  -4   7   1    0.63    0.25
   3  -7  -1   45.83    1.52
  -3   7   1   44.60    1.63
  -3   7   1   46.63    1.64
   2  -7  -1  175.93    4.31
  -2   7   1  176.68    4.73
  -2   7   1  170.62    4.59
   1  -7  -1  102.22    2.67
  -1   7   1   98.91    2.97
  -1   7   1  102.26    2.88
   0  -7  -1   53.25    1.83
   0  -7  -1   47.66    1.47
   0   7   1   49.47    1.64
  -1  -7  -1   21.70    1.04
   1   7   1   22.24    0.95
  -2  -7  -1    3.49    0.45
   2   7   1    3.57    0.39
  -3  -7  -1   54.90    1.90
   3   7   1   53.35    1.80
  -4  -7  -1   79.55    2.56
   4   7   1   82.05    2.49
  -5  -7  -1   62.06    2.12
   5   7   1   58.08    2.03
   6   7   1   18.95    1.04
   6  -8  -1   38.00    1.54
  -6   8   1   38.03    1.70
   5  -8  -1   71.78    2.27
  -5   8   1   69.85    2.29
  -5   8   1   68.67    2.43
   4  -8  -1  123.63    3.40
  -4   8   1  121.50    3.63
  -4   8   1  124.51    3.59
   3  -8  -1   78.45    2.36
  -3   8   1   82.31    2.56
  -3   8   1   77.42    2.51
   2  -8  -1    5.17    0.48
  -2   8   1    4.57    0.48
  -2   8   1    4.55    0.50
   1  -8  -1   10.85    0.63
   1  -8  -1   10.14    0.76
  -1   8   1    9.82    0.65
  -1   8   1   10.99    0.73
   0  -8  -1   28.89    1.34
   0   8   1   29.06    1.21
  -1  -8  -1   79.42    2.66
   1   8   1   83.51    2.49
  -2  -8  -1  106.81    3.30
   2   8   1  110.26    3.14
  -3  -8  -1   26.20    1.23
   3   8   1   24.90    1.13
  -4  -8  -1    2.96    0.48
   4   8   1    2.81    0.44
  -5  -8  -1    3.09    0.52
   5   8   1    2.93    0.48
   4  -9  -1    6.01    0.59
  -4   9   1    6.06    0.62
  -4   9   1    4.86    0.64
   3  -9  -1   39.71    1.51
  -3   9   1   39.26    1.61
  -3   9   1   39.37    1.62
   2  -9  -1   64.44    2.41
   2  -9  -1   65.62    2.09
  -2   9   1   66.03    2.24
  -2   9   1   67.62    2.32
   1  -9  -1   61.17    2.34
  -1   9   1   66.61    2.18
   0  -9  -1   56.97    2.19
   0   9   1   60.04    2.02
  -1  -9  -1    4.42    0.61
   1   9   1    4.27    0.53
  -2  -9  -1    4.55    0.62
   2   9   1    4.42    0.54
  -3  -9  -1   22.79    1.21
   3   9   1   21.19    1.08
  -1  10   1    6.28    0.65
   1  10  -2   55.67    1.92
   0  10  -2   16.49    1.04
   0  10  -2   17.81    0.93
   0 -10   2   14.77    1.05
  -1  10  -2    0.49    0.33
   1 -10   2    0.40    0.30
   2 -10   2   17.24    0.96
   4   9  -2   42.10    1.58
  -4  -9   2   40.82    1.71
   3   9  -2   15.68    0.86
  -3  -9   2   14.49    0.94
   2   9  -2    0.77    0.28
  -2  -9   2    0.16    0.26
   1   9  -2   22.24    1.00
  -1  -9   2   20.73    1.16
   0   9  -2   65.90    2.11
   0   9  -2   70.82    2.38
   0  -9   2   66.54    2.04
  -1   9  -2   69.73    2.44
  -1   9  -2   73.64    2.25
   1  -9   2   69.92    2.16
  -2   9  -2   46.23    1.65
  -2   9  -2   46.60    1.85
   2  -9   2   49.04    1.68
  -3   9  -2   21.50    1.14
   3  -9   2   21.64    1.06
  -4   9  -2    0.95    0.35
   4  -9   2    1.41    0.38
   5   8  -2    0.19    0.26
   4   8  -2   15.86    0.85
  -4  -8   2   15.81    0.92
   3   8  -2   67.06    2.12
  -3  -8   2   70.27    2.32
   2   8  -2  135.94    3.59
  -2  -8   2  130.33    3.87
   1   8  -2   70.08    2.13
   1   8  -2   72.25    2.33
   0   8  -2   24.98    1.02
   0   8  -2   26.38    1.20
   0  -8   2   27.99    1.03
  -1   8  -2   16.39    0.92
  -1   8  -2   16.81    0.78
   1  -8   2   15.13    0.76
  -2   8  -2    9.19    0.59
  -2   8  -2    9.73    0.72
   2  -8   2    9.64    0.61
  -3   8  -2   49.51    1.70
  -3   8  -2   51.24    1.86
   3  -8   2   49.31    1.67
  -4   8  -2   83.11    2.63
  -4   8  -2   79.79    2.49
   4  -8   2   80.55    2.44
  -5   8  -2   51.99    1.91
   5  -8   2   52.47    1.83
   6  -8   2    6.21    0.62
   6   7  -2   45.11    1.71
  -6  -7   2   49.55    1.75
   5   7  -2  101.08    2.95
  -5  -7   2  102.72    3.04
   4   7  -2   75.02    2.27
  -4  -7   2   76.10    2.39
   3   7  -2   18.51    0.84
  -3  -7   2   18.64    0.93
   2   7  -2    0.22    0.17
  -2  -7   2    0.15    0.19
   1   7  -2   19.18    0.80
   1   7  -2   19.18    0.91
  -1  -7   2   18.38    0.74
   0   7  -2   85.77    2.38
   0   7  -2   86.18    2.59
   0  -7   2   82.09    2.24
  -1   7  -2   82.10    2.30
  -1   7  -2   80.71    2.53
   1  -7   2   81.38    2.22
  -2   7  -2   75.82    2.20
  -2   7  -2   74.08    2.39
   2  -7   2   76.13    2.13
  -3   7  -2   17.33    0.82
  -3   7  -2   17.37    0.90
   3  -7   2   16.59    0.80
  -4   7  -2    1.74    0.34
  -4   7  -2    1.98    0.36
   4  -7   2    1.48    0.31
  -5   7  -2   47.09    1.72
  -5   7  -2   45.26    1.68
   5  -7   2   46.76    1.62
  -6   7  -2   58.23    1.97
   6  -7   2   54.38    1.89
   7  -7   2   49.44    1.81
   7   6  -2   65.12    2.13
  -7  -6   2   65.77    2.18
   6   6  -2   27.28    1.14
  -6  -6   2   29.10    1.20
   5   6  -2    1.28    0.29
   5   6  -2    1.12    0.27
  -5  -6   2    2.15    0.34
   4   6  -2   62.53    1.76
   4   6  -2   58.72    1.84
  -4  -6   2   58.79    1.92
   3   6  -2   82.08    2.34
   3   6  -2   85.95    2.18
  -3  -6   2   81.38    2.45
   2   6  -2   92.39    2.54
   2   6  -2   94.01    2.69
  -2  -6   2   96.58    2.36
  -2  -6   2   94.49    2.75
   1   6  -2  136.14    3.50
   1   6  -2  138.31    3.73
  -1  -6   2  137.34    3.30
   0   6  -2   49.19    1.48
   0   6  -2   50.94    1.66
   0  -6   2   49.79    1.41
  -1   6  -2    1.77    0.25
  -1   6  -2    1.81    0.32
   1  -6   2    2.55    0.29
  -2   6  -2   30.90    1.21
  -2   6  -2   31.23    1.08
   2  -6   2   31.44    1.06
  -3   6  -2   87.83    2.48
  -3   6  -2   85.29    2.59
   3  -6   2   88.55    2.38
  -4   6  -2  106.28    3.04
  -4   6  -2  108.01    3.11
   4  -6   2  108.86    2.88
  -5   6  -2   72.45    2.27
  -5   6  -2   74.19    2.30
   5  -6   2   71.37    2.15
  -6   6  -2   15.98    0.84
  -6   6  -2   14.77    0.88
   6  -6   2   15.42    0.84
   7  -6   2    0.37    0.29
   8  -6   2   34.56    1.42
   8   5  -2    0.92    0.35
  -8  -5   2    0.78    0.31
   7   5  -2   25.07    1.10
  -7  -5   2   23.33    1.08
   6   5  -2   71.94    2.14
  -6  -5   2   70.57    2.17
   5   5  -2   61.33    1.93
   5   5  -2   63.74    1.88
  -5  -5   2   64.55    1.94
   4   5  -2  103.20    2.67
   4   5  -2  103.82    2.80
  -4  -5   2  101.65    2.86
   3   5  -2   44.26    1.37
   3   5  -2   44.64    1.30
  -3  -5   2   43.29    1.43
  -3  -5   2   44.48    1.20
   2   5  -2    2.87    0.27
   2   5  -2    3.02    0.24
   2   5  -2    2.86    0.30
  -2  -5   2    2.92    0.23
   1   5  -2   29.48    0.97
   1   5  -2   31.33    1.09
   1   5  -2   31.85    0.86
  -1  -5   2   29.83    0.90
   0   5  -2  129.66    3.29
   0   5  -2  133.73    3.53
   0  -5   2  132.20    3.14
   0  -5   2  130.96    2.98
  -1   5  -2  183.49    4.41
  -1   5  -2  170.11    4.65
   1  -5   2  183.97    4.21
  -2   5  -2  113.50    3.16
  -2   5  -2  115.06    2.97
   2  -5   2  115.02    2.84
  -3   5  -2   37.71    1.27
  -3   5  -2   36.97    1.32
   3  -5   2   39.73    1.21
  -4   5  -2    2.84    0.36
  -4   5  -2    3.29    0.35
   4  -5   2    3.78    0.34
  -5   5  -2   46.06    1.60
  -5   5  -2   45.13    1.55
   5  -5   2   46.22    1.48
  -6   5  -2  111.80    3.16
  -6   5  -2  105.15    3.04
   6  -5   2  104.65    2.90
  -7   5  -2  114.59    3.32
   7  -5   2  108.83    3.06
  -8   5  -2   77.22    2.52
   8  -5   2   72.72    2.30
   8   4  -2   91.83    2.71
  -8  -4   2   90.10    2.78
   7   4  -2   54.83    1.79
  -7  -4   2   52.00    1.78
   6   4  -2   14.98    0.78
  -6  -4   2   16.06    0.78
   5   4  -2    0.22    0.16
  -5  -4   2    0.32    0.17
  -5  -4   2    0.23    0.15
   4   4  -2   60.68    1.73
   4   4  -2   61.12    1.78
  -4  -4   2   61.17    1.78
   3   4  -2  202.03    4.84
   3   4  -2  206.01    5.08
   3   4  -2  225.32    4.71
  -3  -4   2  198.34    5.20
   2   4  -2  258.63    5.61
   2   4  -2  242.69    6.16
   2   4  -2  249.15    5.99
   2   4  -2  249.52    5.67
   1   4  -2  126.68    3.17
   1   4  -2  127.74    3.33
   1   4  -2  132.12    2.97
  -1  -4   2  127.54    2.99
   0   4  -2   65.75    1.92
   0   4  -2   66.55    1.76
   0  -4   2   68.63    1.59
   0  -4   2   68.94    1.69
  -1   4  -2    0.10    0.12
  -1   4  -2    0.19    0.10
   1  -4   2    0.24    0.11
  -2   4  -2   59.50    1.80
  -2   4  -2   60.76    1.69
   2  -4   2   60.96    1.60
   2  -4   2   61.11    1.40
  -3   4  -2  119.41    3.20
  -3   4  -2  110.25    3.07
   3  -4   2  122.55    2.71
   3  -4   2  121.43    2.92
  -4   4  -2  136.31    3.67
  -4   4  -2  141.31    3.73
   4  -4   2  142.86    3.45
  -5   4  -2   74.84    2.26
  -5   4  -2   76.57    2.23
   5  -4   2   75.09    2.08
  -6   4  -2   10.14    0.60
  -6   4  -2   10.27    0.67
   6  -4   2    9.88    0.59
  -7   4  -2    3.21    0.46
   7  -4   2    2.76    0.41
  -8   4  -2   47.59    1.83
   8  -4   2   50.88    1.68
   9   3  -2    9.31    0.70
  -9  -3   2   11.49    0.80
   8   3  -2    0.18    0.23
  -8  -3   2    0.27    0.24
   7   3  -2   23.48    1.02
  -7  -3   2   22.92    1.00
   6   3  -2  109.20    2.91
  -6  -3   2  109.06    2.99
   5   3  -2  183.44    4.50
  -5  -3   2  184.10    4.66
  -5  -3   2  189.75    4.67
   4   3  -2  129.62    3.32
   4   3  -2  139.85    3.13
  -4  -3   2  132.42    3.42
  -4  -3   2  139.17    3.45
   3   3  -2   13.86    0.44
   3   3  -2   13.41    0.54
   3   3  -2   13.37    0.55
  -3  -3   2   12.63    0.52
   2   3  -2    7.81    0.31
   2   3  -2    8.12    0.37
   2   3  -2    7.64    0.37
   2   3  -2    7.89    0.36
   1   3  -2   20.39    0.60
   1   3  -2   20.32    0.64
   1   3  -2   21.20    0.60
   1   3  -2   20.36    0.70
   0   3  -2  132.12    3.41
   0   3  -2  136.14    3.22
   0  -3   2  132.78    3.07
   0  -3   2  134.81    3.01
  -1   3  -2  136.24    3.23
  -1   3  -2  130.01    3.42
   1  -3   2  135.16    3.08
   1  -3   2  131.45    2.96
  -2   3  -2  171.87    4.35
  -2   3  -2  164.42    4.16
   2  -3   2  178.74    3.82
  -3   3  -2    8.72    0.45
  -3   3  -2    9.21    0.47
   3  -3   2    8.61    0.41
   3  -3   2    9.27    0.33
  -4   3  -2   27.84    1.01
  -4   3  -2   29.92    1.05
   4  -3   2   28.62    0.83
   4  -3   2   28.12    0.92
  -5   3  -2   40.32    1.37
  -5   3  -2   37.83    1.29
   5  -3   2   39.09    1.21
   5  -3   2   38.38    1.12
  -6   3  -2  188.28    4.88
  -6   3  -2  186.43    4.92
   6  -3   2  191.81    4.55
   6  -3   2  185.40    4.45
  -7   3  -2  195.55    5.21
   7  -3   2  195.24    4.73
   7  -3   2  196.89    4.78
  -8   3  -2   73.29    2.45
  -9   3  -2    9.70    0.81
   9   2  -2   44.20    1.62
  -9  -2   2   43.86    1.73
   8   2  -2   81.53    2.40
  -8  -2   2   79.08    2.50
   7   2  -2   99.70    2.68
  -7  -2   2   92.34    2.74
   6   2  -2   43.54    1.41
  -6  -2   2   42.51    1.42
   5   2  -2    7.84    0.38
   5   2  -2    8.19    0.47
  -5  -2   2    8.42    0.46
  -5  -2   2    7.46    0.38
   4   2  -2   12.38    0.46
   4   2  -2   11.63    0.54
  -4  -2   2   11.21    0.51
  -4  -2   2   12.26    0.45
   3   2  -2   92.84    2.35
   3   2  -2   98.31    2.24
  -3  -2   2   93.96    2.40
  -3  -2   2   94.06    2.39
   2   2  -2  215.14    4.68
   2   2  -2  197.52    4.75
   2   2  -2  211.81    5.07
   2   2  -2  213.94    4.97
   1   2  -2  141.60    3.31
   1   2  -2  140.08    3.44
   1   2  -2  138.85    3.17
   1   2  -2  138.66    3.15
   0   2  -2   34.44    1.03
   0   2  -2   35.05    0.90
   0   2  -2   38.30    0.92
   0  -2   2   35.94    0.88
  -1   2  -2    5.15    0.30
  -1   2  -2    6.28    0.25
   1  -2   2    5.63    0.20
   1  -2   2    6.52    0.25
  -2   2  -2  144.40    3.63
  -2   2  -2  131.91    3.49
   2  -2   2  154.40    3.24
   2  -2   2  146.18    3.30
  -3   2  -2  255.31    6.42
  -3   2  -2  261.61    6.30
   3  -2   2  266.32    5.91
   3  -2   2  265.59    5.84
  -4   2  -2  189.89    4.92
  -4   2  -2  197.53    4.92
   4  -2   2  197.94    4.55
   4  -2   2  202.73    4.51
  -5   2  -2   85.20    2.37
  -5   2  -2   86.99    2.46
   5  -2   2   86.32    2.18
   5  -2   2   85.45    2.20
  -6   2  -2   39.94    1.32
  -6   2  -2   39.75    1.45
   6  -2   2   40.22    1.24
   6  -2   2   38.18    1.22
  -7   2  -2   23.42    1.10
   7  -2   2   22.32    0.91
  -8   2  -2   62.72    2.24
   8  -2   2   65.47    1.97
  -9   2  -2   67.54    2.40
   9  -2   2   65.16    2.09
   9   1  -2   24.39    1.10
  -9  -1   2   24.49    1.23
   8   1  -2    0.88    0.29
  -8  -1   2    1.33    0.34
   7   1  -2   47.22    1.54
   6   1  -2  116.44    3.01
   6   1  -2  118.41    2.85
  -6  -1   2  114.58    3.14
   5   1  -2  154.85    3.61
   5   1  -2  152.93    3.76
  -5  -1   2  155.61    3.92
   4   1  -2   47.46    1.30
   4   1  -2   44.07    1.16
  -4  -1   2   44.35    1.29
  -4  -1   2   41.37    1.19
   3   1  -2   26.90    0.74
  -3  -1   2   27.12    0.81
  -3  -1   2   25.47    0.72
   2   1  -2    1.41    0.13
   2   1  -2    1.93    0.16
  -2  -1   2    1.83    0.11
   1   1  -2  260.66    5.79
   1   1  -2  265.42    5.78
   1   1  -2  258.15    6.22
  -1  -1   2  266.36    6.07
   0   1  -2  409.35    9.13
   0   1  -2  415.69    8.70
   0   1  -2  376.64    9.43
   0  -1   2  392.18    8.69
  -1   1  -2  208.32    4.98
  -1   1  -2  215.03    5.17
   1  -1   2  218.59    4.71
   1  -1   2  214.11    4.72
  -2   1  -2  117.44    3.04
  -2   1  -2  120.42    2.93
   2  -1   2  121.91    2.75
   2  -1   2  125.92    2.76
  -3   1  -2   22.16    0.73
  -3   1  -2   22.78    0.76
   3  -1   2   22.88    0.66
   3  -1   2   22.55    0.67
  -4   1  -2    7.00    0.39
  -4   1  -2    7.85    0.42
   4  -1   2    6.96    0.34
   4  -1   2    8.04    0.37
  -5   1  -2  141.64    3.68
  -5   1  -2  142.14    3.69
   5  -1   2  142.43    3.43
   5  -1   2  144.24    3.38
  -6   1  -2  216.01    5.30
  -6   1  -2  205.89    5.29
   6  -1   2  203.27    4.93
   6  -1   2  206.69    4.85
  -7   1  -2  145.00    3.96
   7  -1   2  143.83    3.65
  -8   1  -2   66.12    2.23
   8  -1   2   64.71    2.01
  -9   1  -2   28.71    1.40
   9  -1   2   28.19    1.21
   9   0  -2   89.97    2.64
  -9   0   2   90.70    2.94
   8   0  -2  107.75    2.95
  -8   0   2  107.14    3.20
   7   0  -2   62.05    1.75
   7   0  -2   62.16    1.86
  -7   0   2   63.03    2.02
   6   0  -2   43.94    1.29
   6   0  -2   45.11    1.40
  -6   0   2   44.92    1.50
   5   0  -2    4.80    0.31
   5   0  -2    4.97    0.35
  -5   0   2    5.43    0.38
   4   0  -2   50.92    1.37
   4   0  -2   52.12    1.45
  -4   0   2   51.76    1.50
  -4   0   2   54.92    1.34
   3   0  -2  136.94    3.15
   3   0  -2  133.46    3.21
  -3   0   2  141.91    3.25
  -3   0   2  132.71    3.35
   2   0  -2  271.83    5.99
   2   0  -2  260.15    6.02
  -2   0   2  279.37    6.35
   1   0  -2  244.63    5.26
   1   0  -2  233.32    5.62
   1   0  -2  244.38    5.26
  -1   0   2  234.53    5.57
   0   0  -2  118.67    2.89
   0   0  -2  121.70    2.65
   0   0   2  116.39    2.76
  -1   0  -2    9.13    0.36
  -1   0  -2    9.12    0.25
   1   0   2    9.49    0.29
   1   0   2    9.00    0.29
  -2   0  -2   83.06    2.25
  -2   0  -2   87.13    2.13
   2   0   2   88.46    2.03
   2   0   2   90.07    1.97
  -3   0  -2  126.47    3.08
  -3   0  -2  120.85    3.20
   3   0   2  125.89    2.85
   3   0   2  128.88    2.94
  -4   0  -2  260.10    6.56
  -4   0  -2  265.70    6.38
   4   0   2  274.96    6.06
   4   0   2  265.66    5.95
  -5   0  -2  126.83    3.33
  -5   0  -2  129.61    3.39
   5   0   2  127.62    3.02
   5   0   2  131.79    3.17
  -6   0  -2   12.43    0.66
  -6   0  -2   13.82    0.65
   6   0   2   12.25    0.61
  -7   0  -2   12.83    0.73
   7   0   2   12.95    0.68
  -8   0  -2   58.71    2.03
   8   0   2   59.42    1.89
  -9   0  -2   66.39    2.32
   9   0   2   64.60    2.11
   9  -1  -2   16.30    0.87
  -9   1   2   17.18    1.05
   8  -1  -2    0.40    0.23
  -8   1   2    1.12    0.35
   7  -1  -2   50.74    1.54
   7  -1  -2   46.17    1.45
  -7   1   2   48.43    1.73
   6  -1  -2   56.03    1.61
   6  -1  -2   56.60    1.64
  -6   1   2   58.28    1.85
   5  -1  -2  125.62    3.11
   5  -1  -2  130.43    3.15
  -5   1   2  128.11    3.40
   4  -1  -2  116.45    2.81
   4  -1  -2  116.39    2.81
  -4   1   2  114.88    2.84
   3  -1  -2   86.58    2.10
   3  -1  -2   86.14    2.08
  -3   1   2   86.81    2.29
  -3   1   2   83.55    2.11
   2  -1  -2   20.45    0.59
   2  -1  -2   20.36    0.62
  -2   1   2   20.13    0.69
  -2   1   2   20.58    0.57
   1  -1  -2  140.14    3.17
   1  -1  -2  138.32    3.37
  -1   1   2  141.57    3.35
  -1   1   2  141.59    3.11
   0  -1  -2  116.95    2.50
   0  -1  -2  111.78    2.73
   0   1   2  110.60    2.49
   0   1   2  107.75    2.66
  -1  -1  -2  266.59    6.11
  -1  -1  -2  257.86    5.53
   1   1   2  245.26    5.94
   1   1   2  248.00    5.61
  -2  -1  -2  117.06    2.97
   2   1   2  119.86    2.88
   2   1   2  117.62    2.72
  -3  -1  -2    0.90    0.16
   3   1   2    1.62    0.17
   3   1   2    1.50    0.09
   3   1   2    1.14    0.16
  -4  -1  -2    8.68    0.43
  -4  -1  -2    9.14    0.49
   4   1   2    8.55    0.29
   4   1   2    8.68    0.42
  -5  -1  -2  170.32    4.38
  -5  -1  -2  179.37    4.53
   5   1   2  175.15    4.18
  -6  -1  -2  229.12    5.70
  -6  -1  -2  219.35    5.79
   6   1   2  235.43    5.43
  -7  -1  -2   93.92    2.78
   7   1   2   99.46    2.67
  -8  -1  -2   45.01    1.67
   8   1   2   43.82    1.56
  -9  -1  -2    8.75    0.74
   9   1   2    8.98    0.68
  -9   2   2   63.21    2.29
   8  -2  -2  100.14    2.75
   8  -2  -2  103.69    2.76
  -8   2   2  100.08    3.10
   7  -2  -2   90.07    2.41
   7  -2  -2   89.39    2.42
  -7   2   2   87.61    2.71
   6  -2  -2    2.10    0.29
   6  -2  -2    1.76    0.26
  -6   2   2    1.93    0.32
   5  -2  -2    1.52    0.24
   5  -2  -2    0.41    0.14
  -5   2   2    0.62    0.20
   4  -2  -2   50.33    1.38
   4  -2  -2   45.88    1.29
  -4   2   2   48.69    1.51
  -4   2   2   47.86    1.32
   3  -2  -2  248.75    5.68
   3  -2  -2  258.74    5.79
  -3   2   2  260.07    6.17
  -3   2   2  248.93    6.12
   2  -2  -2  212.00    4.55
  -2   2   2  202.86    4.95
  -2   2   2  199.86    4.97
   1  -2  -2   28.04    0.80
  -1   2   2   29.13    0.87
  -1   2   2   30.28    0.84
  -1   2   2   29.15    0.71
   0  -2  -2   15.34    0.54
   0  -2  -2   15.61    0.47
   0   2   2   15.81    0.42
   0   2   2   17.81    0.55
  -1  -2  -2   71.53    1.63
   1   2   2   71.78    1.68
  -2  -2  -2  118.02    3.00
   2   2   2  120.93    2.95
   2   2   2  115.29    2.74
  -3  -2  -2  272.70    6.77
   3   2   2  278.65    6.62
   3   2   2  280.29    6.27
  -4  -2  -2  300.27    7.40
   4   2   2  298.44    7.22
   4   2   2  303.55    6.86
  -5  -2  -2  118.22    3.28
  -5  -2  -2  122.05    3.19
   5   2   2  123.04    3.05
  -6  -2  -2    1.81    0.31
  -6  -2  -2    0.56    0.21
   6   2   2    1.05    0.24
  -7  -2  -2    8.82    0.60
   7   2   2    9.14    0.61
  -8  -2  -2   21.34    1.06
   8   2   2   21.82    1.02
  -9  -2  -2   73.45    2.51
  -9   3   2    6.51    0.66
   8  -3  -2    1.68    0.34
  -8   3   2    1.43    0.37
   7  -3  -2   28.98    1.10
  -7   3   2   28.43    1.24
   6  -3  -2   85.76    2.31
   6  -3  -2   82.29    2.18
  -6   3   2   82.80    2.51
   5  -3  -2  120.37    3.03
   5  -3  -2  116.60    2.88
  -5   3   2  120.63    3.28
   4  -3  -2  101.43    2.42
  -4   3   2   99.85    2.64
  -4   3   2  102.15    2.80
   3  -3  -2    8.21    0.41
   3  -3  -2    7.56    0.30
  -3   3   2    7.32    0.45
  -3   3   2    7.51    0.39
   2  -3  -2   23.54    0.77
  -2   3   2   24.04    0.84
  -2   3   2   24.32    0.60
  -2   3   2   23.38    0.79
   1  -3  -2  106.79    2.60
  -1   3   2  112.33    2.41
  -1   3   2  109.47    2.82
   0  -3  -2  170.15    4.22
   0  -3  -2  164.43    3.83
   0   3   2  171.50    3.74
  -1  -3  -2  411.33    9.41
  -1  -3  -2  377.05    8.55
   1   3   2  386.52    8.57
   1   3   2  383.72    9.15
  -2  -3  -2  229.34    5.62
  -2  -3  -2  220.14    4.98
   2   3   2  226.21    5.13
   2   3   2  232.89    5.49
  -3  -3  -2   53.77    1.61
   3   3   2   53.75    1.47
   3   3   2   56.33    1.61
  -4  -3  -2   25.32    0.95
   4   3   2   26.53    0.90
   4   3   2   26.96    0.97
  -5  -3  -2   92.95    2.60
  -5  -3  -2   95.95    2.66
   5   3   2   92.11    2.61
   5   3   2   92.58    2.47
  -6  -3  -2   74.65    2.22
  -6  -3  -2   71.80    2.27
   6   3   2   74.82    2.14
  -7  -3  -2  101.44    2.93
   7   3   2   97.64    2.80
  -8  -3  -2   60.24    2.06
   8   3   2   56.57    1.93
   9  -4  -2   66.34    2.11
  -9   4   2   64.89    2.35
   8  -4  -2   66.45    2.08
  -8   4   2   66.09    2.29
   7  -4  -2   68.31    2.09
  -7   4   2   72.02    2.33
   6  -4  -2   13.79    0.71
  -6   4   2   15.35    0.84
  -5   4   2    2.53    0.38
   4  -4  -2   81.74    2.18
  -4   4   2   80.22    2.37
  -4   4   2   79.37    2.23
   3  -4  -2  179.22    4.22
  -3   4   2  178.06    4.52
  -3   4   2  172.57    4.49
   2  -4  -2  154.99    3.73
  -2   4   2  161.65    4.01
  -2   4   2  154.18    4.02
   1  -4  -2  124.01    3.02
  -1   4   2  128.43    3.26
  -1   4   2  127.90    3.31
   0  -4  -2   27.65    0.98
   0  -4  -2   28.54    0.83
   0   4   2   28.38    0.72
   0   4   2   26.04    0.92
  -1  -4  -2    0.89    0.19
  -1  -4  -2    1.84    0.16
   1   4   2    1.43    0.16
   1   4   2    1.46    0.21
  -2  -4  -2  141.65    3.79
  -2  -4  -2  141.77    3.30
   2   4   2  148.81    3.42
   2   4   2  151.16    3.72
  -3  -4  -2  192.92    5.11
   3   4   2  206.63    4.71
   3   4   2  203.15    5.02
  -4  -4  -2   90.49    2.63
   4   4   2   95.15    2.44
   4   4   2   94.04    2.61
  -5  -4  -2   20.50    0.92
   5   4   2   21.21    0.94
   5   4   2   22.34    0.89
  -6  -4  -2    4.97    0.47
  -6  -4  -2    5.13    0.48
   6   4   2    5.73    0.49
  -7  -4  -2    6.69    0.57
   7   4   2    6.26    0.56
  -8  -4  -2   70.06    2.33
   8   4   2   65.21    2.20
   8  -5  -2    4.53    0.55
  -8   5   2    4.20    0.60
   7  -5  -2   34.51    1.34
  -7   5   2   37.43    1.54
   6  -5  -2   85.60    2.49
  -6   5   2   89.62    2.76
   5  -5  -2   99.51    2.73
  -5   5   2  101.93    3.00
  -5   5   2  100.45    2.79
   4  -5  -2   55.32    1.65
  -4   5   2   52.46    1.80
  -4   5   2   54.32    1.69
   3  -5  -2    1.26    0.24
  -3   5   2    1.14    0.23
  -3   5   2    1.75    0.30
   2  -5  -2    1.23    0.22
  -2   5   2    1.41    0.25
  -2   5   2    1.27    0.24
   1  -5  -2   95.95    2.43
  -1   5   2   96.76    2.63
  -1   5   2   96.79    2.69
   0  -5  -2  260.26    6.41
   0  -5  -2  249.01    5.76
   0   5   2  248.39    6.17
  -1  -5  -2  149.31    4.04
  -1  -5  -2  147.30    3.56
   1   5   2  159.62    3.53
   1   5   2  153.95    3.91
  -2  -5  -2   75.31    2.24
   2   5   2   75.66    2.16
   2   5   2   75.48    1.93
  -3  -5  -2   12.72    0.66
   3   5   2   11.80    0.63
  -4  -5  -2    7.21    0.53
   4   5   2    8.12    0.54
   4   5   2    7.27    0.49
  -5  -5  -2   74.01    2.30
   5   5   2   74.28    2.13
   5   5   2   71.03    2.25
  -6  -5  -2   90.87    2.75
   6   5   2   87.23    2.55
   6   5   2   88.34    2.71
  -7  -5  -2   72.09    2.36
   7   5   2   69.91    2.24
   8  -6  -2   39.24    1.55
  -8   6   2   40.06    1.74
   7  -6  -2   29.63    1.27
  -7   6   2   32.97    1.48
   6  -6  -2   10.65    0.69
  -6   6   2   11.88    0.83
   5  -6  -2    4.83    0.46
  -5   6   2    4.26    0.54
   4  -6  -2   54.27    1.72
  -4   6   2   54.51    1.90
  -4   6   2   55.90    1.78
   3  -6  -2  109.76    2.90
  -3   6   2  109.59    3.12
  -3   6   2  113.15    3.16
   2  -6  -2   99.42    2.55
  -2   6   2   93.60    2.76
  -2   6   2   95.36    2.73
   1  -6  -2  145.05    3.95
   1  -6  -2  142.09    3.50
  -1   6   2  139.11    3.76
  -1   6   2  142.96    3.86
   0  -6  -2    6.34    0.52
   0  -6  -2    8.22    0.45
   0   6   2    7.56    0.50
  -1  -6  -2   15.15    0.79
   1   6   2   15.91    0.74
  -2  -6  -2   47.45    1.66
   2   6   2   49.57    1.60
  -3  -6  -2  133.69    3.75
   3   6   2  134.85    3.63
  -4  -6  -2   97.36    2.95
   4   6   2   99.82    2.89
   4   6   2  102.12    2.68
  -5  -6  -2   31.03    1.31
   5   6   2   32.04    1.21
   5   6   2   30.88    1.29
  -6  -6  -2    4.55    0.56
   6   6   2    4.09    0.54
   6   6   2    3.19    0.46
   7   6   2   12.21    0.81
   7  -7  -2   18.93    1.02
  -7   7   2   20.37    1.20
   6  -7  -2   72.97    2.29
  -6   7   2   71.27    2.54
   5  -7  -2   83.52    2.49
  -5   7   2   83.23    2.74
   4  -7  -2   37.42    1.35
  -4   7   2   34.09    1.45
  -4   7   2   34.62    1.35
   3  -7  -2    5.96    0.48
  -3   7   2    7.92    0.60
  -3   7   2    5.53    0.49
   2  -7  -2   34.11    1.20
  -2   7   2   32.57    1.29
  -2   7   2   33.21    1.32
   1  -7  -2   73.88    2.41
   1  -7  -2   74.47    2.07
  -1   7   2   72.83    2.26
   0  -7  -2  121.12    3.11
   0  -7  -2  126.69    3.60
   0   7   2  122.41    3.39
  -1  -7  -2  152.66    4.29
   1   7   2  153.50    4.09
  -2  -7  -2   70.95    2.30
   2   7   2   67.31    2.14
  -3  -7  -2    1.34    0.33
   3   7   2    2.10    0.38
  -4  -7  -2    9.11    0.68
   4   7   2    8.98    0.65
  -5  -7  -2   26.51    1.27
   5   7   2   28.82    1.26
  -6  -7  -2   45.38    1.80
  -6   8   2    2.68    0.54
   5  -8  -2   13.50    0.83
  -5   8   2   12.74    0.91
   4  -8  -2   43.17    1.59
  -4   8   2   46.57    1.78
  -4   8   2   42.85    1.63
   3  -8  -2   77.08    2.31
  -3   8   2   76.40    2.49
  -3   8   2   76.00    2.46
   2  -8  -2  101.60    3.22
   2  -8  -2  103.55    2.84
  -2   8   2  102.71    3.06
   1  -8  -2   64.94    1.94
   1  -8  -2   64.57    2.29
  -1   8   2   64.49    2.12
   0  -8  -2   10.30    0.76
   0   8   2   11.35    0.73
  -1  -8  -2    2.56    0.43
   1   8   2    2.16    0.38
  -2  -8  -2   42.49    1.71
   2   8   2   43.26    1.61
  -3  -8  -2   56.15    2.06
   3   8   2   55.21    1.94
  -4  -8  -2   33.54    1.49
   4   8   2   32.57    1.40
  -5  -8  -2   33.83    1.52
   4  -9  -2   15.36    0.91
   4  -9  -2   16.25    1.01
  -4   9   2   15.56    0.92
  -4   9   2   16.09    1.01
   3  -9  -2   13.12    0.80
   3  -9  -2   12.09    0.87
  -3   9   2   11.99    0.85
   2  -9  -2    7.06    0.69
   2  -9  -2    7.85    0.62
  -2   9   2    7.13    0.64
   1  -9  -2   40.58    1.76
  -1   9   2   43.27    1.66
   0  -9  -2   89.25    3.00
   0   9   2   87.46    2.76
  -1  -9  -2   59.37    2.25
   1   9   2   61.36    2.10
  -2  -9  -2   24.11    1.28
   2   9   2   24.56    1.17
  -3  -9  -2    1.85    0.44
   3   9   2    1.56    0.39
   0  10  -3   65.73    2.42
  -1  10  -3   35.76    1.63
   1 -10   3   36.07    1.44
   2 -10   3    7.90    0.66
   4   9  -3   31.70    1.31
  -4  -9   3   32.77    1.44
   3   9  -3   85.02    2.53
  -3  -9   3   81.04    2.73
   2   9  -3   52.22    1.72
  -2  -9   3   47.83    1.92
   1   9  -3   13.01    0.85
   1   9  -3   12.27    0.71
   0   9  -3    0.69    0.26
   0   9  -3    0.62    0.31
   0  -9   3    0.51    0.26
  -1   9  -3   17.11    1.01
   1  -9   3   17.76    0.89
  -2   9  -3   59.25    2.20
   2  -9   3   62.27    1.99
  -3   9  -3   88.58    2.91
   3  -9   3   88.55    2.66
  -4   9  -3   43.34    1.76
   4  -9   3   42.59    1.64
   5   8  -3   65.77    2.14
   4   8  -3   33.90    1.30
  -4  -8   3   32.94    1.38
   3   8  -3    0.27    0.21
  -3  -8   3    0.47    0.26
   2   8  -3   39.82    1.38
  -2  -8   3   39.21    1.57
   1   8  -3   68.88    2.06
   1   8  -3   70.40    2.30
  -1  -8   3   69.49    1.98
   0   8  -3   80.90    2.63
   0   8  -3   82.16    2.36
   0  -8   3   84.56    2.31
  -1   8  -3   74.99    2.16
  -1   8  -3   71.00    2.41
   1  -8   3   73.61    2.13
  -2   8  -3   27.64    1.29
  -2   8  -3   28.60    1.11
   2  -8   3   29.82    1.14
  -3   8  -3    2.51    0.45
   3  -8   3    1.86    0.34
  -4   8  -3   25.19    1.21
   4  -8   3   25.35    1.12
  -5   8  -3   38.60    1.56
   5  -8   3   37.08    1.48
  -6   8  -3   56.00    2.04
   6   7  -3    1.08    0.32
  -6  -7   3    1.40    0.35
   5   7  -3   46.24    1.61
   4   7  -3   83.20    2.43
  -4  -7   3   82.48    2.54
   3   7  -3   79.71    2.30
  -3  -7   3   79.66    2.47
   2   7  -3   59.27    1.80
   2   7  -3   60.89    1.95
  -2  -7   3   60.36    1.68
   1   7  -3   24.38    0.93
   1   7  -3   24.04    1.06
  -1  -7   3   25.40    0.90
   0   7  -3    4.57    0.37
   0   7  -3    3.44    0.44
   0  -7   3    5.04    0.39
  -1   7  -3   79.13    2.55
  -1   7  -3   85.36    2.30
   1  -7   3   81.90    2.24
  -2   7  -3   81.95    2.29
  -2   7  -3   79.47    2.54
   2  -7   3   80.33    2.25
  -3   7  -3   99.09    2.97
  -3   7  -3   97.66    2.73
   3  -7   3   97.24    2.68
  -4   7  -3   99.64    2.97
   4  -7   3   95.59    2.71
  -5   7  -3   20.35    1.02
   5  -7   3   20.05    0.97
  -6   7  -3    0.28    0.26
   6  -7   3    0.16    0.26
   7  -7   3   15.42    0.91
   7   6  -3   62.22    2.07
  -7  -6   3   64.68    2.12
   6   6  -3   99.70    2.84
  -6  -6   3  103.31    2.94
   5   6  -3  127.62    3.30
   5   6  -3  124.31    3.42
   4   6  -3   10.73    0.61
   4   6  -3   11.09    0.59
  -4  -6   3   12.15    0.67
   3   6  -3    1.32    0.25
  -3  -6   3    0.98    0.25
   2   6  -3   33.10    0.98
   2   6  -3   33.13    1.19
   2   6  -3   30.18    1.06
  -2  -6   3   31.13    0.99
   1   6  -3  167.57    4.43
   1   6  -3  166.64    4.16
  -1  -6   3  166.00    3.96
   0   6  -3  171.57    4.60
   0   6  -3  171.89    4.28
   0  -6   3  174.89    4.12
  -1   6  -3  118.70    3.04
  -1   6  -3  114.29    3.32
   1  -6   3  120.42    2.96
  -2   6  -3   34.98    1.14
  -2   6  -3   34.97    1.33
   2  -6   3   34.36    1.14
  -3   6  -3    0.52    0.18
  -3   6  -3    0.48    0.23
   3  -6   3    0.49    0.19
  -4   6  -3   14.40    0.74
  -4   6  -3   15.08    0.79
   4  -6   3   13.92    0.72
  -5   6  -3   96.50    2.87
  -5   6  -3   97.23    2.81
   5  -6   3   95.00    2.67
  -6   6  -3   69.35    2.25
   6  -6   3   70.04    2.14
   7  -6   3   36.45    1.43
   8   5  -3   67.62    2.18
  -8  -5   3   64.38    2.19
   7   5  -3   22.54    1.06
  -7  -5   3   23.63    1.06
   6   5  -3    0.53    0.23
  -6  -5   3    0.73    0.24
   5   5  -3    9.29    0.57
  -5  -5   3   10.32    0.58
   4   5  -3  135.45    3.32
   4   5  -3  130.57    3.45
  -4  -5   3  130.32    3.52
   3   5  -3  188.82    4.53
   3   5  -3  188.62    4.77
   3   5  -3  205.50    4.45
  -3  -5   3  188.32    4.94
   2   5  -3   86.31    2.32
   2   5  -3   90.04    2.19
   2   5  -3   87.49    2.46
  -2  -5   3   88.22    2.19
   1   5  -3   14.02    0.66
   1   5  -3   14.81    0.51
   1   5  -3   14.09    0.56
  -1  -5   3   14.57    0.55
   0   5  -3    4.50    0.37
   0   5  -3    3.82    0.27
   0  -5   3    4.19    0.22
   0  -5   3    4.16    0.29
  -1   5  -3   69.06    2.14
  -1   5  -3   73.13    1.91
   1  -5   3   72.48    1.87
  -2   5  -3  120.10    3.02
  -2   5  -3  115.15    3.25
  -3   5  -3  149.34    3.77
  -3   5  -3  147.32    3.95
   3  -5   3  143.40    3.58
  -4   5  -3   72.21    2.12
  -4   5  -3   73.77    2.22
   4  -5   3   70.82    2.01
  -5   5  -3   21.79    0.96
  -5   5  -3   21.06    0.95
   5  -5   3   21.42    0.89
  -6   5  -3    5.44    0.51
  -6   5  -3    4.80    0.47
   6  -5   3    4.55    0.45
   7  -5   3   28.19    1.16
   8  -5   3   46.08    1.66
   8   4  -3   22.69    1.08
  -8  -4   3   22.61    1.08
   7   4  -3   76.63    2.28
  -7  -4   3   74.53    2.30
   6   4  -3  130.79    3.36
  -6  -4   3  123.59    3.41
   5   4  -3   80.58    2.26
  -5  -4   3   83.12    2.31
   4   4  -3   16.53    0.70
   4   4  -3   17.25    0.58
   4   4  -3   17.24    0.72
  -4  -4   3   15.77    0.67
   3   4  -3   15.38    0.63
   3   4  -3   16.31    0.55
   3   4  -3   15.68    0.63
  -3  -4   3   16.55    0.66
   2   4  -3   97.07    2.36
   2   4  -3   96.37    2.58
   2   4  -3   96.65    2.31
   2   4  -3   96.55    2.47
   1   4  -3  175.77    3.93
   1   4  -3  172.60    3.95
   1   4  -3  170.45    4.37
   1   4  -3  169.49    4.15
   0   4  -3  210.88    4.91
   0   4  -3  201.94    5.21
   0  -4   3  210.78    4.72
   0  -4   3  201.86    4.62
  -1   4  -3  124.66    3.45
  -1   4  -3  134.59    3.20
   1  -4   3  133.75    3.10
   1  -4   3  129.75    2.95
  -2   4  -3    4.05    0.35
  -2   4  -3    3.75    0.27
   2  -4   3    4.11    0.19
   2  -4   3    3.42    0.26
  -3   4  -3    4.51    0.33
  -3   4  -3    4.64    0.37
   3  -4   3    4.90    0.24
   3  -4   3    4.69    0.32
  -4   4  -3   61.59    1.94
  -4   4  -3   68.23    2.04
   4  -4   3   71.91    1.70
   4  -4   3   67.85    1.85
  -5   4  -3  156.46    4.31
  -5   4  -3  168.03    4.28
   5  -4   3  164.29    4.00
  -6   4  -3  116.43    3.26
  -6   4  -3  114.43    3.25
   6  -4   3  115.31    3.02
  -7   4  -3   63.90    2.08
   7  -4   3   59.28    1.87
   9   3  -3   50.03    1.80
  -9  -3   3   51.10    1.90
   8   3  -3   45.90    1.62
  -8  -3   3   44.81    1.65
   7   3  -3   33.31    1.28
  -7  -3   3   34.94    1.30
   6   3  -3    7.01    0.51
  -6  -3   3    8.08    0.51
   5   3  -3   78.60    2.17
   5   3  -3   81.86    1.98
  -5  -3   3   73.65    2.16
   4   3  -3  193.40    4.27
   4   3  -3  187.73    4.45
  -4  -3   3  179.66    4.60
  -4  -3   3  183.40    4.57
   3   3  -3  229.52    5.09
   3   3  -3  225.75    5.42
   3   3  -3  216.30    5.20
  -3  -3   3  229.36    5.53
   2   3  -3  262.82    5.75
   2   3  -3  254.60    5.80
   2   3  -3  254.64    6.24
   2   3  -3  254.35    6.06
   1   3  -3   32.93    1.02
   1   3  -3   33.28    0.92
   1   3  -3   34.28    0.91
   1   3  -3   33.51    0.91
   0   3  -3   14.38    0.45
   0   3  -3   13.23    0.46
   0   3  -3   13.28    0.56
   0  -3   3   13.65    0.43
  -1   3  -3   39.44    1.03
  -1   3  -3   36.46    1.19
   1  -3   3   39.09    0.96
   1  -3   3   37.98    1.03
  -2   3  -3  259.85    6.17
  -2   3  -3  252.49    6.45
   2  -3   3  271.14    5.77
   2  -3   3  258.35    5.87
  -3   3  -3  292.83    7.24
  -3   3  -3  269.45    6.97
   3  -3   3  301.80    6.62
   3  -3   3  305.90    6.51
  -4   3  -3  173.33    4.36
  -4   3  -3  163.24    4.43
   4  -3   3  176.77    3.97
   4  -3   3  174.64    4.07
  -5   3  -3   16.60    0.76
  -5   3  -3   17.24    0.79
   5  -3   3   16.94    0.70
   5  -3   3   17.38    0.64
  -6   3  -3    0.82    0.26
  -6   3  -3    0.72    0.23
   6  -3   3    0.48    0.21
   6  -3   3    1.67    0.25
  -7   3  -3   31.21    1.31
   7  -3   3   31.29    1.11
   7  -3   3   31.96    1.15
  -8   3  -3   76.86    2.53
   9   2  -3    0.08    0.25
  -9  -2   3    0.20    0.26
   8   2  -3   42.58    1.52
   7   2  -3  149.07    3.78
  -7  -2   3  143.54    3.92
   6   2  -3  179.18    4.37
  -6  -2   3  173.95    4.52
   5   2  -3  100.85    2.65
   5   2  -3  104.05    2.51
  -5  -2   3   98.48    2.69
   4   2  -3   81.16    2.17
   4   2  -3   80.89    2.04
  -4  -2   3   81.62    2.19
  -4  -2   3   85.73    2.10
   3   2  -3    6.69    0.32
   3   2  -3    6.26    0.36
  -3  -2   3    6.66    0.33
  -3  -2   3    6.77    0.29
   2   2  -3  114.47    2.73
   2   2  -3  113.71    2.67
   2   2  -3  119.54    2.82
   2   2  -3  118.46    2.86
  -2  -2   3  110.17    2.79
   1   2  -3  217.57    4.93
   1   2  -3  228.22    5.15
   1   2  -3  224.51    4.93
   1   2  -3  213.11    5.34
   0   2  -3   57.28    1.37
   0   2  -3   52.28    1.53
   0   2  -3   57.27    1.36
   0  -2   3   57.92    1.36
  -1   2  -3  151.48    3.42
  -1   2  -3  140.07    3.65
   1  -2   3  140.87    3.30
   1  -2   3  148.52    3.26
  -2   2  -3   95.48    2.46
  -2   2  -3   83.41    2.30
   2  -2   3   94.16    2.19
   2  -2   3   98.04    2.16
  -3   2  -3   36.43    1.15
  -3   2  -3   35.22    1.11
   3  -2   3   36.81    1.01
   3  -2   3   36.64    0.98
  -4   2  -3  131.20    3.41
  -4   2  -3  130.16    3.45
   4  -2   3  132.09    3.13
   4  -2   3  133.54    3.12
  -5   2  -3   97.25    2.66
  -5   2  -3   96.06    2.67
   5  -2   3   92.80    2.39
   5  -2   3   95.55    2.40
  -6   2  -3   72.50    2.27
  -6   2  -3   75.47    2.22
   6  -2   3   74.84    2.02
   6  -2   3   75.46    2.01
  -7   2  -3   84.82    2.62
   7  -2   3   83.53    2.32
  -8   2  -3   12.56    0.84
   8  -2   3   13.01    0.73
  -9   2  -3   11.89    0.90
   9  -2   3   12.20    0.77
   9   1  -3   84.48    2.51
  -9  -1   3   81.51    2.71
   8   1  -3   61.28    1.92
  -8  -1   3   59.63    2.05
   7   1  -3   17.87    0.83
  -7  -1   3   17.99    0.87
   6   1  -3    3.95    0.38
   6   1  -3    4.68    0.33
  -6  -1   3    3.97    0.39
   5   1  -3   88.34    2.23
   5   1  -3   90.84    2.38
  -5  -1   3   90.04    2.45
   4   1  -3  202.41    4.68
   4   1  -3  195.41    4.54
  -4  -1   3  203.62    4.84
  -4  -1   3  192.54    4.76
   3   1  -3  149.84    3.42
   3   1  -3  146.21    3.51
  -3  -1   3  149.70    3.62
  -3  -1   3  147.79    3.54
   2   1  -3   29.27    0.85
   2   1  -3   31.83    0.79
   2   1  -3   29.83    0.83
  -2  -1   3   30.31    0.84
   1   1  -3  146.62    3.36
   1   1  -3  148.51    3.60
   1   1  -3  149.66    3.36
  -1  -1   3  149.68    3.48
   0   1  -3   97.42    2.51
   0   1  -3  103.88    2.30
   0  -1   3  100.25    2.32
  -1   1  -3  139.37    3.03
  -1   1  -3  132.10    3.14
  -1   1  -3  132.14    3.35
   1  -1   3  135.29    3.04
  -2   1  -3  295.05    6.74
  -2   1  -3  284.38    7.02
   2  -1   3  287.19    6.38
   2  -1   3  290.20    6.41
  -3   1  -3  319.08    7.85
  -3   1  -3  320.60    7.58
   3  -1   3  324.53    7.15
   3  -1   3  326.59    7.18
  -4   1  -3  101.47    2.62
  -4   1  -3  100.02    2.71
   4  -1   3  100.53    2.46
   4  -1   3  100.95    2.41
  -5   1  -3   18.14    0.77
  -5   1  -3   18.35    0.75
   5  -1   3   18.31    0.69
   5  -1   3   18.49    0.64
  -6   1  -3    2.63    0.36
  -6   1  -3    1.45    0.27
   6  -1   3    2.64    0.31
  -7   1  -3   71.21    2.21
   7  -1   3   67.93    2.01
  -8   1  -3  134.63    3.84
   8  -1   3  131.85    3.51
  -9   1  -3   98.18    3.18
   9  -1   3  101.11    2.90
   9   0  -3    1.96    0.37
  -9   0   3    2.82    0.50
   8   0  -3   51.60    1.70
  -8   0   3   54.01    1.92
   7   0  -3   71.88    2.01
   7   0  -3   73.73    2.11
  -7   0   3   74.43    2.30
   6   0  -3  220.36    5.19
   6   0  -3  209.98    5.07
  -6   0   3  221.92    5.52
   5   0  -3  112.88    2.82
   5   0  -3  117.05    2.93
  -5   0   3  118.70    3.09
   4   0  -3   11.37    0.46
   4   0  -3   10.58    0.49
  -4   0   3   10.60    0.51
   3   0  -3    0.27    0.11
   3   0  -3    0.34    0.10
  -3   0   3    0.65    0.14
   2   0  -3   72.22    1.73
   2   0  -3   74.06    1.76
  -2   0   3   71.57    1.86
   1   0  -3  150.74    3.78
   1   0  -3  171.33    3.56
  -1   0   3  146.75    3.73
  -1   0   3  163.11    3.55
   0   0  -3  493.11   11.69
   0   0  -3  493.89   10.77
  -1   0  -3  105.43    2.33
  -1   0  -3  100.89    2.64
   1   0   3  104.77    2.45
   1   0   3  104.18    2.37
  -2   0  -3    4.17    0.28
  -2   0  -3    3.87    0.20
   2   0   3    4.49    0.17
   2   0   3    4.41    0.22
  -3   0  -3   34.59    1.15
  -3   0  -3   37.90    1.06
   3   0   3   36.53    1.02
   3   0   3   37.73    0.92
  -4   0  -3   98.92    2.83
  -4   0  -3  104.84    2.71
   4   0   3  112.21    2.61
   4   0   3  107.78    2.47
  -5   0  -3  180.20    4.50
  -5   0  -3  174.10    4.62
   5   0   3  184.70    4.28
  -6   0  -3  204.40    5.34
  -6   0  -3  211.52    5.24
   6   0   3  206.64    4.96
  -7   0  -3  104.00    3.00
   7   0   3  105.70    2.83
  -8   0  -3    2.07    0.41
   8   0   3    1.74    0.35
  -9   0  -3    3.25    0.54
   9   0   3    2.95    0.47
   9  -1  -3   79.96    2.37
  -9   1   3   78.54    2.69
   8  -1  -3   77.74    2.25
   8  -1  -3   76.64    2.19
  -8   1   3   76.85    2.54
   7  -1  -3    0.54    0.20
   7  -1  -3    0.52    0.21
  -7   1   3    0.66    0.27
   6  -1  -3    9.45    0.50
   6  -1  -3    9.54    0.53
  -6   1   3    8.62    0.59
   5  -1  -3   82.18    2.15
   5  -1  -3   82.19    2.13
  -5   1   3   81.18    2.35
   4  -1  -3  175.68    4.19
   4  -1  -3  178.89    4.19
  -4   1   3  180.62    4.52
  -4   1   3  180.94    4.28
   3  -1  -3  268.49    6.04
   3  -1  -3  266.51    6.06
  -3   1   3  267.27    6.34
  -3   1   3  270.07    6.46
   2  -1  -3   91.17    2.25
   2  -1  -3   98.01    2.17
  -2   1   3   88.55    2.35
   1  -1  -3    7.02    0.26
   1  -1  -3    6.62    0.27
  -1   1   3    7.06    0.26
  -1   1   3    7.19    0.31
   0  -1  -3   32.98    0.93
   0  -1  -3   34.17    0.83
   0   1   3   34.23    0.91
   0   1   3   33.06    0.84
  -1  -1  -3  139.88    3.55
  -1  -1  -3  147.46    3.17
   1   1   3  144.46    3.43
   1   1   3  143.15    3.24
  -2  -1  -3  368.40    8.69
   2   1   3  359.92    7.82
   2   1   3  362.25    7.98
   2   1   3  352.60    8.41
  -3  -1  -3  217.06    5.27
   3   1   3  212.15    5.06
   3   1   3  211.27    4.80
   3   1   3  202.17    4.61
  -4  -1  -3   94.45    2.54
  -4  -1  -3   98.89    2.71
   4   1   3  100.28    2.45
  -5  -1  -3   47.71    1.45
  -5  -1  -3   46.88    1.53
   5   1   3   46.21    1.39
  -6  -1  -3   16.01    0.75
  -6  -1  -3   16.23    0.79
   6   1   3   16.71    0.74
  -7  -1  -3   67.77    2.14
   7   1   3   68.75    2.03
  -8  -1  -3   69.54    2.25
   8   1   3   64.86    2.09
  -9  -1  -3   58.83    2.14
   9   1   3   57.81    1.99
  -9   2   3    8.61    0.74
   8  -2  -3   62.66    1.88
   8  -2  -3   61.12    1.88
  -8   2   3   61.97    2.16
   7  -2  -3  140.42    3.48
   7  -2  -3  136.96    3.50
  -7   2   3  135.16    3.83
   6  -2  -3  140.91    3.46
   6  -2  -3  140.43    3.51
  -6   2   3  140.35    3.82
   5  -2  -3  129.39    3.22
   5  -2  -3  127.62    3.15
  -5   2   3  130.66    3.48
   4  -2  -3   37.88    1.12
   4  -2  -3   35.17    1.04
  -4   2   3   36.66    1.23
  -4   2   3   35.69    1.02
   3  -2  -3    1.53    0.21
   3  -2  -3    1.64    0.16
  -3   2   3    2.12    0.16
  -3   2   3    1.34    0.22
   2  -2  -3   92.41    2.33
   2  -2  -3   90.40    2.24
  -2   2   3   94.12    2.12
  -2   2   3   92.71    2.31
  -2   2   3   90.24    2.39
   1  -2  -3   61.03    1.63
   1  -2  -3   62.31    1.54
  -1   2   3   62.20    1.46
   0  -2  -3  239.69    5.07
   0  -2  -3  229.44    5.53
   0   2   3  216.01    5.39
   0   2   3  225.21    5.03
  -1  -2  -3  128.41    2.75
  -1  -2  -3  123.22    3.12
   1   2   3  121.72    3.04
   1   2   3  120.07    2.81
  -2  -2  -3    1.45    0.20
   2   2   3    1.61    0.17
   2   2   3    1.89    0.19
  -3  -2  -3   27.61    0.97
   3   2   3   30.00    0.96
   3   2   3   29.81    0.89
  -4  -2  -3  112.85    3.12
   4   2   3  116.76    3.03
   4   2   3  118.27    2.87
  -5  -2  -3  224.22    5.67
  -5  -2  -3  232.89    5.90
   5   2   3  230.80    5.41
  -6  -2  -3  197.82    5.25
  -6  -2  -3  199.08    5.09
   6   2   3  200.70    4.85
  -7  -2  -3   43.26    1.54
   7   2   3   42.56    1.48
  -8  -2  -3    6.42    0.61
   8   2   3    7.75    0.61
   9  -3  -3   57.79    1.89
  -9   3   3   59.08    2.16
   8  -3  -3   58.59    1.86
  -8   3   3   58.46    2.07
   7  -3  -3   25.95    1.04
  -7   3   3   25.05    1.14
   6  -3  -3    1.53    0.28
  -6   3   3    2.39    0.37
   5  -3  -3   78.23    2.12
   5  -3  -3   74.72    1.96
  -5   3   3   77.27    2.29
   4  -3  -3  105.55    2.67
   4  -3  -3  103.82    2.51
  -4   3   3  104.23    2.71
  -4   3   3  104.76    2.88
   3  -3  -3   74.26    1.79
   3  -3  -3   76.67    1.98
  -3   3   3   75.44    2.02
  -3   3   3   75.12    2.14
  -2   3   3   91.90    2.07
  -2   3   3   89.62    2.41
  -2   3   3   89.43    2.36
   1  -3  -3    1.63    0.19
   1  -3  -3    1.85    0.20
  -1   3   3    1.50    0.11
  -1   3   3    1.70    0.20
   0  -3  -3   25.44    0.85
   0  -3  -3   25.87    0.75
   0   3   3   26.68    0.68
   0   3   3   26.02    0.86
  -1  -3  -3  246.95    6.08
  -1  -3  -3  254.90    5.47
   1   3   3  243.93    5.50
   1   3   3  241.42    5.93
  -2  -3  -3  292.27    6.99
  -2  -3  -3  304.14    6.19
   2   3   3  282.73    6.38
   2   3   3  255.38    6.78
  -3  -3  -3  179.76    4.63
   3   3   3  185.44    4.54
   3   3   3  180.22    4.25
  -4  -3  -3   71.67    2.13
   4   3   3   73.24    1.97
   4   3   3   74.60    2.11
  -5  -3  -3   20.06    0.90
   5   3   3   20.53    0.89
   5   3   3   20.06    0.81
  -6  -3  -3   20.58    0.93
  -6  -3  -3   19.10    0.95
   6   3   3   19.83    0.87
  -7  -3  -3   75.89    2.36
   7   3   3   73.16    2.24
  -8  -3  -3   71.66    2.35
   8   3   3   68.15    2.22
   9  -4  -3    6.42    0.59
  -9   4   3    6.93    0.70
   8  -4  -3   34.49    1.34
  -8   4   3   35.74    1.51
   7  -4  -3  126.91    3.38
  -7   4   3  126.48    3.65
   6  -4  -3   85.45    2.43
  -6   4   3   88.87    2.67
   5  -4  -3   26.03    0.99
  -5   4   3   25.98    1.11
   4  -4  -3    9.28    0.52
  -4   4   3    8.41    0.56
  -4   4   3    8.58    0.46
   3  -4  -3    5.36    0.37
  -3   4   3    5.50    0.36
  -3   4   3    5.83    0.43
   2  -4  -3  123.41    3.05
  -2   4   3  128.81    3.29
  -2   4   3  122.58    3.26
   1  -4  -3  164.40    4.18
   1  -4  -3  157.42    3.81
  -1   4   3  161.05    3.58
  -1   4   3  165.43    4.09
   0  -4  -3  125.62    3.29
   0  -4  -3  121.72    2.95
   0   4   3  125.21    2.82
   0   4   3  124.64    3.20
  -1  -4  -3   41.78    1.34
  -1  -4  -3   41.33    1.10
   1   4   3   40.85    1.29
   1   4   3   42.41    1.10
  -3  -4  -3   17.99    0.79
   3   4   3   18.11    0.78
   3   4   3   18.27    0.69
  -4  -4  -3  150.35    4.02
   4   4   3  151.33    3.95
   4   4   3  148.03    3.67
  -5  -4  -3  164.39    4.45
   5   4   3  165.68    4.38
   5   4   3  166.32    4.10
  -6  -4  -3  144.30    3.92
  -6  -4  -3  138.88    4.01
   6   4   3  145.74    3.72
  -7  -4  -3   48.72    1.77
   7   4   3   48.77    1.70
  -8  -4  -3    6.16    0.62
   8   4   3    6.30    0.62
   8  -5  -3   30.23    1.29
  -8   5   3   29.36    1.40
   7  -5  -3    0.70    0.28
  -7   5   3    0.91    0.32
   6  -5  -3    7.61    0.56
  -6   5   3    7.25    0.62
   5  -5  -3   40.81    1.39
  -5   5   3   40.46    1.55
   4  -5  -3  122.79    3.16
  -4   5   3  124.22    3.45
  -4   5   3  120.63    3.30
   3  -5  -3  111.65    2.90
  -3   5   3  115.93    3.16
  -3   5   3  111.69    3.08
   2  -5  -3   95.22    2.53
  -2   5   3  101.38    2.75
  -2   5   3   98.65    2.73
   1  -5  -3    2.32    0.31
   1  -5  -3    2.04    0.26
  -1   5   3    1.90    0.28
   0  -5  -3   31.16    0.97
   0  -5  -3   30.96    1.14
   0   5   3   30.44    1.09
  -1  -5  -3  128.46    3.11
  -1  -5  -3  128.95    3.55
   1   5   3  128.91    3.44
   1   5   3  137.04    3.07
  -2  -5  -3  142.78    3.94
   2   5   3  151.33    3.50
  -3  -5  -3  172.39    4.63
   3   5   3  179.04    4.19
   3   5   3  172.20    4.51
  -4  -5  -3  165.30    4.46
   4   5   3  161.48    4.35
   4   5   3  168.40    4.06
  -5  -5  -3    0.77    0.27
   5   5   3    1.84    0.32
   5   5   3    0.95    0.28
  -6  -5  -3   16.16    0.91
   6   5   3   14.59    0.86
   6   5   3   16.03    0.83
  -7  -5  -3   23.53    1.15
   7   5   3   22.67    1.08
  -8   6   3   35.28    1.61
   7  -6  -3   57.02    1.92
  -7   6   3   56.81    2.13
   6  -6  -3   75.13    2.29
  -6   6   3   75.82    2.56
   5  -6  -3   78.28    2.31
  -5   6   3   78.85    2.57
   4  -6  -3   11.19    0.64
  -4   6   3   11.50    0.65
  -4   6   3   11.04    0.73
   3  -6  -3   27.44    1.03
  -3   6   3   27.22    1.14
  -3   6   3   26.59    1.08
   2  -6  -3   26.74    1.12
   2  -6  -3   25.05    0.96
  -2   6   3   25.89    1.06
   1  -6  -3  117.93    3.43
   1  -6  -3  125.36    3.08
   0  -6  -3   82.37    2.47
   0  -6  -3   79.47    2.12
   0   6   3   78.25    2.32
  -1  -6  -3   26.68    1.12
   1   6   3   27.15    1.06
  -2  -6  -3    0.94    0.27
   2   6   3    1.24    0.27
  -3  -6  -3   24.84    1.11
   3   6   3   26.48    1.08
  -4  -6  -3  105.56    3.16
   4   6   3  109.34    2.84
   4   6   3  103.86    3.06
  -5  -6  -3  109.14    3.26
   5   6   3  106.31    2.95
   5   6   3  109.04    3.18
  -6  -6  -3   56.11    2.02
   6   6   3   53.45    1.82
   6   6   3   53.25    1.95
  -7   7   3    2.26    0.51
   6  -7  -3    7.78    0.65
  -6   7   3    6.98    0.73
   5  -7  -3   36.52    1.39
  -5   7   3   35.74    1.56
   4  -7  -3   75.05    2.29
  -4   7   3   81.08    2.57
  -4   7   3   78.69    2.42
   3  -7  -3   68.56    2.29
   3  -7  -3   71.64    2.08
  -3   7   3   69.19    2.26
  -3   7   3   65.97    2.18
   2  -7  -3    9.90    0.59
   2  -7  -3    7.61    0.62
  -2   7   3    8.23    0.61
   1  -7  -3    1.46    0.29
   1  -7  -3    0.40    0.23
  -1   7   3    0.28    0.19
   0  -7  -3   26.53    1.19
   0   7   3   25.66    1.09
  -1  -7  -3   78.42    2.50
   1   7   3   77.18    2.36
  -2  -7  -3  149.59    4.24
   2   7   3  150.30    4.07
  -3  -7  -3  107.89    3.22
   3   7   3  106.24    3.10
  -4  -7  -3   39.85    1.60
   4   7   3   40.36    1.55
  -5  -7  -3    0.38    0.29
   5   7   3    0.50    0.29
  -6   8   3   50.39    2.08
   5  -8  -3   21.07    1.07
  -5   8   3   22.54    1.23
   4  -8  -3    2.08    0.41
   4  -8  -3    2.18    0.41
  -4   8   3    2.32    0.47
  -4   8   3    1.90    0.38
   3  -8  -3   10.35    0.67
   3  -8  -3    9.33    0.74
  -3   8   3   11.41    0.78
   2  -8  -3   42.39    1.74
   2  -8  -3   43.67    1.51
  -2   8   3   44.95    1.67
   1  -8  -3   86.36    2.81
  -1   8   3   83.57    2.63
   0  -8  -3   91.45    2.93
   0   8   3   89.22    2.76
  -1  -8  -3   32.43    1.43
   1   8   3   29.68    1.28
  -2  -8  -3    2.58    0.46
   2   8   3    3.20    0.48
  -3  -8  -3   22.96    1.17
   3   8   3   22.17    1.10
  -4  -8  -3   54.26    2.05
   4   8   3   53.78    1.97
   4  -9  -3   45.88    1.86
   4  -9  -3   45.63    1.70
  -4   9   3   45.16    1.88
   3  -9  -3   48.98    1.98
   3  -9  -3   51.20    1.77
  -3   9   3   49.69    1.94
   2  -9  -3   24.20    1.30
  -2   9   3   25.84    1.25
   1  -9  -3    0.28    0.31
  -1   9   3    0.20    0.25
   0  -9  -3   14.72    0.99
   0   9   3   13.74    0.87
  -1  -9  -3   50.00    1.98
   1   9   3   44.07    1.76
  -2  -9  -3   83.56    2.85
   2   9   3   81.25    2.66
   0  10  -4   22.44    1.24
   1 -10   4   50.56    1.80
   4   9  -4    0.45    0.28
  -4  -9   4    0.40    0.29
   3   9  -4   34.30    1.30
  -3  -9   4   32.25    1.45
   2   9  -4   88.33    2.52
  -2  -9   4   81.26    2.79
   1   9  -4   91.66    2.94
   0   9  -4   58.69    2.14
   0  -9   4   56.63    1.83
  -1   9  -4   31.66    1.47
   1  -9   4   33.24    1.28
  -2   9  -4    2.52    0.48
   2  -9   4    2.68    0.44
  -3   9  -4   38.61    1.66
   3  -9   4   38.26    1.49
  -4   9  -4   50.44    1.96
   4  -9   4   48.98    1.80
   5   8  -4   45.19    1.62
   4   8  -4   81.04    2.45
  -4  -8   4   83.33    2.63
   3   8  -4   66.38    2.01
  -3  -8   4   63.61    2.19
   2   8  -4   14.20    0.82
   2   8  -4   14.92    0.73
   1   8  -4    0.03    0.22
   1   8  -4    0.19    0.18
  -1  -8   4    0.21    0.19
   0   8  -4   36.38    1.50
   0   8  -4   37.89    1.26
   0  -8   4   36.05    1.27
  -1   8  -4   49.25    1.85
   1  -8   4   48.83    1.59
  -2   8  -4   92.23    2.94
   2  -8   4   92.75    2.60
  -3   8  -4   34.56    1.46
   3  -8   4   32.36    1.27
  -4   8  -4    7.56    0.67
   4  -8   4    7.08    0.58
  -5   8  -4    1.61    0.38
   5  -8   4    2.07    0.42
  -6   8  -4   19.85    1.09
   6   7  -4   45.03    1.61
  -6  -7   4   47.98    1.68
   5   7  -4    4.23    0.46
   4   7  -4    1.03    0.26
  -4  -7   4    1.05    0.29
   3   7  -4   32.02    1.15
  -3  -7   4   31.57    1.27
   2   7  -4   87.47    2.65
   2   7  -4   90.95    2.47
  -2  -7   4   89.99    2.35
   1   7  -4  139.70    3.93
   1   7  -4  143.28    3.63
  -1  -7   4  141.28    3.50
   0   7  -4   93.21    2.50
   0   7  -4   92.81    2.82
   0  -7   4   92.89    2.46
  -1   7  -4    1.76    0.35
  -1   7  -4    1.88    0.26
   1  -7   4    1.51    0.27
  -2   7  -4    0.87    0.29
   2  -7   4    0.55    0.22
  -3   7  -4   53.62    1.88
   3  -7   4   51.37    1.65
  -4   7  -4  102.83    3.12
   4  -7   4  103.60    2.86
  -5   7  -4   79.33    2.57
   5  -7   4   81.25    2.41
  -6   7  -4   37.98    1.54
   6  -7   4   38.63    1.48
   7  -7   4   10.52    0.79
   7   6  -4    1.93    0.40
  -7  -6   4    2.30    0.40
   6   6  -4   11.31    0.71
  -6  -6   4   12.18    0.72
   5   6  -4   90.11    2.64
   5   6  -4   93.18    2.56
  -5  -6   4   94.65    2.65
   4   6  -4  122.00    3.32
   4   6  -4  125.70    3.17
  -4  -6   4  127.28    3.45
   3   6  -4  101.50    2.74
   3   6  -4  105.60    2.61
   3   6  -4  100.96    2.86
  -3  -6   4  101.37    2.57
  -3  -6   4  102.08    2.91
   2   6  -4   12.68    0.66
   2   6  -4   12.51    0.58
   2   6  -4   13.07    0.54
  -2  -6   4   12.66    0.56
   1   6  -4    6.54    0.39
   1   6  -4    6.04    0.48
  -1  -6   4    6.40    0.39
   0   6  -4   71.89    2.26
   0   6  -4   73.97    1.97
   0  -6   4   73.67    1.96
  -1   6  -4  181.73    4.39
  -1   6  -4  174.32    4.77
   1  -6   4  178.88    4.28
  -2   6  -4  165.77    4.01
  -2   6  -4  159.12    4.37
   2  -6   4  155.52    3.90
  -3   6  -4   67.55    2.19
  -3   6  -4   72.06    1.98
   3  -6   4   67.23    1.95
  -4   6  -4    6.93    0.54
   4  -6   4    6.54    0.48
  -5   6  -4    0.36    0.23
   5  -6   4    0.06    0.20
  -6   6  -4   25.60    1.15
   6  -6   4   24.79    1.09
   7  -6   4   60.64    2.00
   8   5  -4   69.76    2.27
  -8  -5   4   71.70    2.33
   7   5  -4   49.33    1.74
  -7  -5   4   54.16    1.79
   6   5  -4   32.02    1.24
  -6  -5   4   33.01    1.23
   5   5  -4   24.79    0.98
  -5  -5   4   24.90    0.98
   4   5  -4    9.62    0.54
   4   5  -4   10.37    0.55
   4   5  -4   10.75    0.48
  -4  -5   4    9.80    0.55
   3   5  -4  109.29    2.98
   3   5  -4  109.78    2.88
   3   5  -4  111.55    2.77
   3   5  -4  112.20    2.69
   2   5  -4  195.65    5.14
   2   5  -4  204.61    4.68
   2   5  -4  208.40    4.70
   2   5  -4  201.93    4.93
   1   5  -4  152.56    3.73
   1   5  -4  150.71    4.01
  -1  -5   4  155.36    3.56
  -1  -5   4  150.07    3.61
   0   5  -4  173.27    4.12
   0   5  -4  165.16    4.45
   0  -5   4  168.52    4.00
   0  -5   4  172.53    3.89
  -1   5  -4   21.30    0.92
  -1   5  -4   22.99    0.74
   1  -5   4   22.34    0.78
   1  -5   4   22.06    0.65
  -2   5  -4   10.11    0.45
  -2   5  -4    8.91    0.56
   2  -5   4    9.41    0.47
  -3   5  -4   33.12    1.25
  -3   5  -4   33.40    1.09
   3  -5   4   32.75    1.08
  -4   5  -4   56.65    1.85
  -4   5  -4   57.86    1.73
   4  -5   4   55.27    1.65
  -5   5  -4  109.21    3.15
   5  -5   4  109.73    2.89
  -6   5  -4   60.14    2.00
   6  -5   4   59.34    1.85
   7  -5   4    1.76    0.36
   8   4  -4    9.25    0.70
  -8  -4   4    9.72    0.70
   7   4  -4    1.93    0.35
  -7  -4   4    1.93    0.36
   6   4  -4   29.66    1.16
  -6  -4   4   29.90    1.13
   5   4  -4  144.96    3.66
  -5  -4   4  143.73    3.73
   4   4  -4  202.88    4.48
   4   4  -4  188.10    4.62
  -4  -4   4  187.53    4.77
  -4  -4   4  193.71    4.85
   3   4  -4  109.21    2.64
   3   4  -4  107.60    2.73
   3   4  -4  109.26    2.82
   3   4  -4  113.68    2.89
   2   4  -4   66.00    1.70
   2   4  -4   65.84    1.86
   2   4  -4   66.10    1.75
   2   4  -4   65.74    1.68
   1   4  -4   12.10    0.45
   1   4  -4   11.50    0.46
   1   4  -4   11.92    0.56
  -1  -4   4   12.71    0.47
   0   4  -4  116.12    2.82
   0   4  -4  110.23    3.09
   0  -4   4  118.93    2.78
   0  -4   4  117.60    2.71
  -1   4  -4  189.36    4.90
  -1   4  -4  194.14    4.53
   1  -4   4  184.62    4.29
   1  -4   4  194.57    4.42
  -2   4  -4  121.85    2.96
  -2   4  -4  117.16    3.23
   2  -4   4  121.49    2.74
   2  -4   4  114.18    2.87
  -3   4  -4   91.32    2.60
  -3   4  -4   90.72    2.39
   3  -4   4   88.08    2.29
   3  -4   4   92.64    2.16
  -4   4  -4   26.58    0.99
  -4   4  -4   27.13    1.08
   4  -4   4   29.70    0.85
   4  -4   4   27.57    0.94
  -5   4  -4    6.81    0.52
  -5   4  -4    7.03    0.49
   5  -4   4    7.53    0.47
  -6   4  -4  101.96    2.90
  -6   4  -4   99.62    2.95
   6  -4   4  100.60    2.70
   7  -4   4   70.29    2.08
   9   3  -4   27.52    1.25
  -9  -3   4   28.65    1.31
   8   3  -4   40.72    1.50
  -8  -3   4   39.17    1.52
   7   3  -4  112.04    3.03
  -7  -3   4  107.55    3.09
   6   3  -4   89.65    2.47
  -6  -3   4   85.22    2.47
   5   3  -4   18.06    0.80
   5   3  -4   19.08    0.68
  -5  -3   4   18.47    0.76
   4   3  -4    7.80    0.39
   4   3  -4    9.23    0.50
  -4  -3   4    8.87    0.39
  -4  -3   4    7.32    0.41
   3   3  -4  164.06    3.95
   3   3  -4  163.84    3.85
   3   3  -4  173.21    4.13
  -3  -3   4  164.53    4.06
   2   3  -4  319.16    7.70
   2   3  -4  306.62    7.15
   2   3  -4  331.06    7.49
   2   3  -4  318.67    7.13
   1   3  -4  221.46    5.04
   1   3  -4  207.45    5.28
   1   3  -4  210.66    4.85
  -1  -3   4  217.63    4.86
   0   3  -4  123.82    2.90
   0   3  -4  124.58    2.86
   0   3  -4  113.16    3.16
   0  -3   4  126.25    2.83
  -1   3  -4   44.54    1.09
  -1   3  -4   40.16    1.32
   1  -3   4   41.08    1.08
   1  -3   4   42.68    1.14
  -2   3  -4    5.05    0.37
  -2   3  -4    4.78    0.26
   2  -3   4    4.29    0.27
   2  -3   4    4.41    0.23
  -3   3  -4   90.14    2.46
  -3   3  -4   79.34    2.26
   3  -3   4   90.00    2.17
   3  -3   4   88.73    2.09
  -4   3  -4  145.44    3.78
  -4   3  -4  150.09    3.95
   4  -3   4  149.13    3.48
   4  -3   4  148.96    3.55
  -5   3  -4   69.69    2.15
  -5   3  -4   71.36    2.11
   5  -3   4   71.00    1.87
   5  -3   4   72.22    1.93
  -6   3  -4   72.39    2.27
  -6   3  -4   72.43    2.25
   6  -3   4   74.94    2.01
   6  -3   4   74.84    2.05
  -7   3  -4    4.53    0.54
   7  -3   4    3.88    0.39
   9   2  -4   42.43    1.58
  -9  -2   4   40.71    1.67
   8   2  -4    6.72    0.56
  -8  -2   4    7.62    0.61
   7   2  -4    0.80    0.25
  -7  -2   4    1.11    0.28
   6   2  -4   71.15    1.89
   6   2  -4   67.93    2.00
  -6  -2   4   65.17    2.01
   5   2  -4  174.12    4.13
   5   2  -4  178.76    4.28
  -5  -2   4  171.44    4.39
   4   2  -4  156.30    3.77
   4   2  -4  156.85    3.65
  -4  -2   4  155.54    3.85
  -4  -2   4  150.42    3.76
   3   2  -4   89.80    2.22
   3   2  -4   90.87    2.30
   3   2  -4   95.95    2.28
  -3  -2   4   86.75    2.31
   2   2  -4   11.90    0.41
   2   2  -4   11.17    0.44
   2   2  -4   10.68    0.42
  -2  -2   4   10.70    0.40
   1   2  -4   71.35    1.95
   1   2  -4   74.92    1.80
   1   2  -4   79.91    1.82
  -1  -2   4   73.24    1.81
  -1  -2   4   71.70    1.80
   0   2  -4   42.97    1.00
   0   2  -4   39.45    1.21
   0   2  -4   40.79    1.06
   0  -2   4   41.15    1.07
  -1   2  -4  362.11    8.05
  -1   2  -4  379.35    8.37
  -1   2  -4  353.39    8.80
   1  -2   4  360.76    8.03
  -2   2  -4  182.55    4.66
  -2   2  -4  202.63    4.94
   2  -2   4  203.89    4.44
   2  -2   4  198.35    4.45
  -3   2  -4   86.13    2.37
  -3   2  -4   84.93    2.25
   3  -2   4   85.61    2.07
   3  -2   4   86.67    2.08
  -4   2  -4   32.62    1.11
  -4   2  -4   33.55    1.16
   4  -2   4   33.85    0.99
   4  -2   4   34.29    0.99
  -5   2  -4   17.69    0.80
  -5   2  -4   18.51    0.81
   5  -2   4   19.34    0.70
   5  -2   4   18.39    0.69
  -6   2  -4   36.34    1.32
  -6   2  -4   36.42    1.34
   6  -2   4   35.41    1.14
   6  -2   4   35.32    1.17
  -7   2  -4  100.16    2.97
   7  -2   4   98.30    2.66
  -8   2  -4   90.61    2.86
   8  -2   4   90.15    2.56
   9  -2   4   25.20    1.14
   9   1  -4   25.99    1.16
  -9  -1   4   25.02    1.26
   8   1  -4   67.07    2.07
  -8  -1   4   66.31    2.22
   7   1  -4  140.25    3.44
   7   1  -4  135.34    3.55
  -7  -1   4  135.05    3.75
   6   1  -4   91.26    2.36
   6   1  -4   92.99    2.50
  -6  -1   4   88.94    2.57
   5   1  -4    3.88    0.30
   5   1  -4    3.55    0.33
  -5  -1   4    3.59    0.32
   4   1  -4   81.20    2.02
   4   1  -4   79.64    2.12
  -4  -1   4   80.40    2.16
   3   1  -4  126.64    3.05
   3   1  -4  127.15    2.99
  -3  -1   4  126.59    3.13
  -3  -1   4  126.35    3.01
   2   1  -4  277.08    6.40
   2   1  -4  264.07    6.05
  -2  -1   4  267.80    6.31
   1   1  -4 1000.00   22.98
   1   1  -4  977.55   21.44
  -1  -1   4  967.95   21.26
  -1  -1   4  962.22   22.44
   0   1  -4  192.12    4.72
   0   1  -4  198.20    4.34
   0  -1   4  190.29    4.37
  -1   1  -4   23.71    0.60
  -1   1  -4   23.77    0.78
  -1   1  -4   23.40    0.65
   1  -1   4   23.25    0.67
  -2   1  -4    2.69    0.25
  -2   1  -4    3.34    0.18
   2  -1   4    2.69    0.18
   2  -1   4    2.31    0.16
  -3   1  -4   16.29    0.56
  -3   1  -4   16.51    0.67
   3  -1   4   16.11    0.50
   3  -1   4   15.47    0.55
  -4   1  -4  195.06    4.63
  -4   1  -4  183.49    4.82
   4  -1   4  185.92    4.37
   4  -1   4  189.34    4.30
  -5   1  -4  154.80    4.05
  -5   1  -4  151.93    3.90
   5  -1   4  149.17    3.67
   5  -1   4  154.76    3.59
  -6   1  -4   30.20    1.14
  -6   1  -4   30.82    1.17
   6  -1   4   29.40    1.05
  -7   1  -4    3.19    0.45
  -7   1  -4    3.43    0.44
   7  -1   4    3.03    0.37
  -8   1  -4    7.94    0.67
   8  -1   4    7.51    0.56
  -9   1  -4   47.30    1.90
   9  -1   4   47.76    1.71
   9   0  -4   51.55    1.78
  -9   0   4   54.92    2.06
   8   0  -4   16.12    0.83
  -8   0   4   16.72    0.96
   7   0  -4    3.23    0.37
   7   0  -4    4.18    0.40
  -7   0   4    3.65    0.46
   6   0  -4   97.10    2.55
   6   0  -4  103.79    2.67
  -6   0   4   99.14    2.82
   5   0  -4  164.03    3.98
   5   0  -4  161.74    3.88
  -5   0   4  164.75    4.19
   4   0  -4  226.03    5.31
   4   0  -4  230.75    5.38
  -4   0   4  239.33    5.68
   3   0  -4  209.71    4.85
   3   0  -4  211.51    4.89
  -3   0   4  219.12    5.18
   2   0  -4   29.91    0.84
   2   0  -4   30.11    0.79
  -2   0   4   31.34    0.93
   1   0  -4   12.32    0.41
   1   0  -4   12.28    0.42
  -1   0   4   14.01    0.43
  -1   0   4   11.97    0.41
   0   0  -4  184.36    4.00
   0   0  -4  176.94    4.37
   0   0   4  173.08    4.14
  -1   0  -4   34.13    1.06
  -1   0  -4   36.06    0.88
   1   0   4   35.31    0.91
   1   0   4   33.72    0.92
  -2   0  -4  122.97    3.20
   2   0   4  122.95    2.76
   2   0   4  122.14    2.86
   2   0   4  124.06    2.97
  -3   0  -4  103.18    2.81
  -3   0  -4  102.20    2.60
   3   0   4  106.61    2.38
   3   0   4  106.01    2.52
  -4   0  -4    4.56    0.36
  -4   0  -4    4.87    0.31
   4   0   4    4.70    0.24
   4   0   4    4.51    0.30
  -5   0  -4   37.16    1.33
  -5   0  -4   40.08    1.26
   5   0   4   39.85    1.21
  -6   0  -4   44.49    1.53
  -6   0  -4   46.89    1.50
   6   0   4   43.72    1.40
  -7   0  -4  104.72    2.96
  -7   0  -4  101.36    2.98
   7   0   4  100.96    2.77
  -8   0  -4   70.19    2.26
   8   0   4   66.24    2.09
  -9   0  -4   25.81    1.29
   9   0   4   24.92    1.16
   9  -1  -4   28.74    1.19
  -9   1   4   30.10    1.43
   8  -1  -4   97.05    2.69
   8  -1  -4   95.75    2.63
  -8   1   4   97.07    3.00
   7  -1  -4   78.33    2.19
   7  -1  -4   75.56    2.15
  -7   1   4   77.57    2.44
   6  -1  -4   33.97    1.13
   6  -1  -4   34.92    1.16
  -6   1   4   32.65    1.28
   5  -1  -4    9.69    0.50
   5  -1  -4   10.38    0.51
  -5   1   4   10.25    0.58
   4  -1  -4   15.05    0.60
  -4   1   4   14.35    0.66
   3  -1  -4  333.21    7.48
   3  -1  -4  327.97    7.51
   3  -1  -4  340.56    7.88
  -3   1   4  336.21    7.99
   2  -1  -4  293.77    6.44
   2  -1  -4  294.05    6.81
  -2   1   4  270.33    6.79
  -2   1   4  289.61    6.39
   1  -1  -4  126.18    3.07
   1  -1  -4  128.07    2.88
  -1   1   4  126.76    3.05
  -1   1   4  120.32    2.87
   0  -1  -4  110.11    2.78
   0  -1  -4  113.58    2.52
   0   1   4  107.81    2.55
   0   1   4  111.87    2.69
  -1  -1  -4   79.54    1.77
  -1  -1  -4   72.68    2.03
   1   1   4   78.28    1.84
   1   1   4   77.15    1.94
  -2  -1  -4    3.44    0.27
  -2  -1  -4    3.76    0.14
   2   1   4    3.32    0.22
   2   1   4    3.48    0.22
  -3  -1  -4  175.34    4.51
   3   1   4  175.58    4.07
   3   1   4  174.51    4.28
   3   1   4  176.97    3.86
  -4  -1  -4  156.79    4.10
  -4  -1  -4  152.15    3.87
   4   1   4  156.86    3.70
  -5  -1  -4  131.58    3.55
  -5  -1  -4  128.71    3.36
   5   1   4  127.27    3.21
  -6  -1  -4   45.06    1.57
  -6  -1  -4   45.66    1.49
   6   1   4   43.85    1.43
  -7  -1  -4    6.63    0.54
  -7  -1  -4    7.05    0.56
   7   1   4    7.10    0.53
  -8  -1  -4   15.82    0.91
   8   1   4   15.60    0.85
  -9  -1  -4   43.10    1.75
   9  -2  -4   40.45    1.47
  -9   2   4   40.57    1.69
   8  -2  -4    8.89    0.61
   8  -2  -4    7.62    0.56
  -8   2   4    9.63    0.72
   7  -2  -4    6.83    0.50
   7  -2  -4    7.23    0.49
  -7   2   4    7.45    0.59
   6  -2  -4   87.28    2.34
   6  -2  -4   87.57    2.39
  -6   2   4   90.88    2.62
   5  -2  -4  248.56    5.85
   5  -2  -4  244.61    5.77
  -5   2   4  256.69    6.25
   4  -2  -4  194.85    4.50
   4  -2  -4  189.65    4.39
  -4   2   4  198.76    4.80
  -4   2   4  176.03    4.56
   3  -2  -4  122.98    2.80
   3  -2  -4  117.58    2.95
   3  -2  -4  120.87    2.91
  -3   2   4  115.61    3.10
   2  -2  -4    6.25    0.34
   2  -2  -4    8.06    0.32
  -2   2   4    6.76    0.28
  -2   2   4    6.38    0.37
   1  -2  -4    9.28    0.37
   1  -2  -4    8.13    0.36
  -1   2   4    9.05    0.41
  -1   2   4    8.81    0.33
   0  -2  -4  154.80    3.86
   0  -2  -4  160.28    3.50
   0   2   4  154.24    3.77
   0   2   4  150.79    3.50
  -1  -2  -4  268.29    6.45
  -1  -2  -4  283.16    5.82
   1   2   4  256.30    5.89
   1   2   4  248.49    6.26
  -2  -2  -4  272.90    6.56
   2   2   4  265.12    5.99
   2   2   4  261.22    6.35
  -3  -2  -4   82.70    2.32
   3   2   4   84.67    2.24
   3   2   4   82.43    2.09
  -4  -2  -4    3.16    0.33
   4   2   4    3.42    0.31
   4   2   4    3.02    0.27
  -5  -2  -4   11.67    0.60
  -5  -2  -4   11.13    0.67
   5   2   4   10.84    0.56
  -6  -2  -4   66.85    2.16
  -6  -2  -4   68.76    2.07
   6   2   4   65.19    1.95
  -7  -2  -4   94.19    2.83
  -7  -2  -4   92.36    2.73
   7   2   4   89.14    2.60
  -8  -2  -4   69.60    2.30
   8   2   4   68.22    2.18
   9  -3  -4   29.31    1.23
  -9   3   4   28.75    1.37
   8  -3  -4   94.27    2.68
  -8   3   4   95.08    2.93
   7  -3  -4  129.03    3.41
  -7   3   4  132.20    3.70
   6  -3  -4   51.97    1.63
  -6   3   4   52.11    1.77
   5  -3  -4    0.23    0.13
   5  -3  -4    0.56    0.20
  -5   3   4    0.82    0.24
   4  -3  -4   41.79    1.28
   4  -3  -4   40.66    1.13
  -4   3   4   39.45    1.18
  -4   3   4   41.00    1.39
   3  -3  -4   99.00    2.60
   3  -3  -4   98.98    2.53
  -3   3   4  102.95    2.35
  -3   3   4   97.20    2.70
   2  -3  -4  261.46    6.05
   2  -3  -4  266.33    6.46
  -2   3   4  261.25    6.41
  -2   3   4  269.18    5.89
   1  -3  -4  219.12    4.92
   1  -3  -4  208.89    5.29
  -1   3   4  220.15    5.24
  -1   3   4  211.27    4.78
   0  -3  -4   97.95    2.25
   0  -3  -4   95.06    2.51
   0   3   4   91.19    2.46
   0   3   4   94.49    2.20
  -1  -3  -4   53.18    1.55
  -1  -3  -4   54.28    1.28
   1   3   4   51.63    1.33
   1   3   4   51.55    1.51
  -2  -3  -4    4.62    0.33
   2   3   4    3.81    0.30
   2   3   4    4.33    0.27
  -3  -3  -4  119.24    3.24
   3   3   4  120.24    2.94
   3   3   4  122.98    3.17
  -4  -3  -4   47.93    1.59
   4   3   4   48.79    1.44
   4   3   4   49.88    1.56
  -5  -3  -4   72.04    2.29
   5   3   4   74.52    2.09
   5   3   4   76.68    2.23
  -6  -3  -4   55.24    1.80
  -6  -3  -4   54.80    1.92
   6   3   4   52.87    1.70
  -7  -3  -4    1.19    0.35
  -7  -3  -4    1.31    0.34
   7   3   4    0.60    0.27
  -8  -3  -4   15.86    0.94
   8   3   4   16.53    0.93
   9  -4  -4   42.49    1.59
   8  -4  -4    2.41    0.42
  -8   4   4    2.11    0.42
   7  -4  -4   15.68    0.81
  -7   4   4   14.79    0.87
   6  -4  -4   79.51    2.33
  -6   4   4   85.65    2.58
   5  -4  -4   89.54    2.48
  -5   4   4   92.56    2.73
   4  -4  -4  130.11    3.30
  -4   4   4  131.30    3.40
  -4   4   4  130.41    3.57
   3  -4  -4   99.83    2.61
   3  -4  -4  104.83    2.77
  -3   4   4   99.33    2.81
   2  -4  -4    2.17    0.24
  -2   4   4    2.68    0.28
   1  -4  -4   17.64    0.66
   1  -4  -4   17.79    0.73
  -1   4   4   18.14    0.74
  -1   4   4   17.73    0.50
   0  -4  -4   57.71    1.69
   0  -4  -4   54.11    1.46
   0   4   4   55.52    1.37
   0   4   4   56.94    1.65
  -1  -4  -4  166.62    4.36
  -1  -4  -4  174.70    3.85
   1   4   4  167.01    4.26
   1   4   4  166.82    3.87
  -2  -4  -4  137.84    3.65
   2   4   4  138.23    3.26
   2   4   4  135.12    3.55
  -3  -4  -4   40.06    1.39
   3   4   4   41.71    1.37
   3   4   4   40.02    1.21
  -4  -4  -4    1.97    0.31
   4   4   4    1.65    0.30
   4   4   4    2.04    0.28
  -5  -4  -4    9.46    0.64
   5   4   4    9.19    0.62
  -6  -4  -4   97.86    2.85
  -6  -4  -4   93.97    2.94
   6   4   4   96.89    2.87
   6   4   4   94.27    2.67
  -7  -4  -4  123.18    3.47
   7   4   4  112.34    3.24
   8  -5  -4   73.92    2.32
  -8   5   4   73.99    2.54
   7  -5  -4   61.16    1.97
  -7   5   4   60.58    2.17
   6  -5  -4   55.63    1.82
  -6   5   4   58.90    2.05
   5  -5  -4    2.61    0.37
  -5   5   4    2.46    0.41
   4  -5  -4   32.96    1.17
  -4   5   4   33.35    1.32
  -4   5   4   32.99    1.16
   3  -5  -4   83.39    2.40
   3  -5  -4   79.01    2.21
  -3   5   4   81.87    2.44
   2  -5  -4  150.57    3.96
   2  -5  -4  146.08    3.63
  -2   5   4  146.71    3.89
   1  -5  -4  167.18    4.36
   1  -5  -4  160.42    3.94
  -1   5   4  167.02    4.26
   0  -5  -4   78.89    2.35
   0  -5  -4   80.54    2.07
   0   5   4   81.40    2.29
  -1  -5  -4    0.20    0.15
   1   5   4    1.00    0.22
   1   5   4    0.24    0.11
  -2  -5  -4   35.00    1.32
   2   5   4   40.72    1.14
   2   5   4   37.09    1.30
  -3  -5  -4   47.76    1.65
   3   5   4   47.73    1.60
   3   5   4   50.04    1.44
  -4  -5  -4  123.47    3.56
   4   5   4  124.90    3.48
   4   5   4  128.91    3.22
  -5  -5  -4  108.39    3.25
   5   5   4  109.65    3.17
   5   5   4  110.24    2.94
  -6  -5  -4   31.95    1.42
   6   5   4   34.18    1.32
   6   5   4   35.68    1.43
  -7  -5  -4    0.09    0.27
   7   5   4    0.27    0.26
   7  -6  -4    8.00    0.64
  -7   6   4    9.56    0.78
   6  -6  -4   53.82    1.81
  -6   6   4   54.77    2.05
   5  -6  -4  101.00    2.82
  -5   6   4  101.57    3.13
   4  -6  -4   70.65    2.11
   4  -6  -4   75.43    2.27
  -4   6   4   69.89    2.33
  -4   6   4   70.43    2.17
   3  -6  -4   23.44    1.04
   3  -6  -4   23.11    0.94
  -3   6   4   22.65    1.04
   2  -6  -4    0.79    0.22
   2  -6  -4    0.78    0.23
  -2   6   4    0.56    0.21
   1  -6  -4   17.83    0.74
   1  -6  -4   17.03    0.86
  -1   6   4   17.76    0.85
   0  -6  -4   95.03    2.40
   0  -6  -4   91.18    2.73
   0   6   4   89.18    2.62
  -1  -6  -4  122.92    3.45
   1   6   4  118.99    3.31
  -2  -6  -4   59.47    1.97
   2   6   4   59.29    1.91
  -3  -6  -4   37.35    1.46
   3   6   4   38.65    1.41
  -4  -6  -4    6.40    0.56
   4   6   4    6.13    0.54
  -5  -6  -4   18.58    1.02
   5   6   4   18.63    0.89
   5   6   4   17.41    0.96
  -6  -6  -4   57.74    2.14
   6   6   4   55.49    2.05
   6   6   4   59.57    1.94
   6  -7  -4   15.80    0.89
  -6   7   4   16.23    1.06
   5  -7  -4    2.90    0.44
  -5   7   4    3.50    0.55
   4  -7  -4   13.97    0.83
   4  -7  -4   13.48    0.76
  -4   7   4   14.84    0.90
   3  -7  -4   77.38    2.25
   3  -7  -4   76.34    2.47
  -3   7   4   74.91    2.44
   2  -7  -4  108.12    2.91
   2  -7  -4  106.75    3.24
  -2   7   4  110.55    3.17
   1  -7  -4   76.22    2.49
   1  -7  -4   78.17    2.18
  -1   7   4   76.39    2.39
   0  -7  -4   43.65    1.65
   0   7   4   42.18    1.54
  -1  -7  -4    4.81    0.50
   1   7   4    4.76    0.48
  -2  -7  -4   23.26    1.12
   2   7   4   22.12    1.04
  -3  -7  -4   46.22    1.77
   3   7   4   47.44    1.70
  -4  -7  -4  102.04    3.19
   4   7   4  102.54    3.08
  -5  -7  -4   71.13    2.46
   5   7   4   68.69    2.35
   5  -8  -4   49.86    1.80
  -5   8   4   51.62    2.03
   4  -8  -4   63.32    2.03
   4  -8  -4   60.09    2.17
  -4   8   4   61.83    2.24
   3  -8  -4   12.16    0.82
   3  -8  -4   12.66    0.76
  -3   8   4   13.06    0.85
   2  -8  -4    0.12    0.25
   2  -8  -4    0.48    0.26
  -2   8   4    0.19    0.24
   1  -8  -4    9.84    0.77
  -1   8   4   10.46    0.73
   0  -8  -4   76.25    2.60
   0   8   4   76.68    2.47
  -1  -8  -4   69.67    2.39
   1   8   4   64.73    2.21
  -2  -8  -4   48.45    1.88
   2   8   4   47.67    1.78
  -3  -8  -4   21.35    1.15
   3   8   4   20.32    1.07
  -4  -8  -4    0.14    0.28
   3  -9  -4   34.17    1.38
   3  -9  -4   34.24    1.57
  -3   9   4   33.84    1.55
   2  -9  -4   61.87    2.33
  -2   9   4   61.49    2.23
   1  -9  -4   45.17    1.88
  -1   9   4   44.26    1.76
   0  -9  -4   14.02    1.00
   0   9   4   13.52    0.88
  -1  -9  -4    0.64    0.34
   1   9   4   -0.13    0.23
   0 -10   5    7.54    0.64
   1 -10   5    2.25    0.45
  -3  -9   5   12.72    0.87
   2   9  -5    6.70    0.62
   1   9  -5   41.79    1.71
  -1  -9   5   42.02    1.46
   0   9  -5   46.71    1.86
   0  -9   5   47.30    1.60
  -1   9  -5   98.78    3.25
   1  -9   5  104.99    2.90
  -2   9  -5   48.83    1.97
   2  -9   5   51.84    1.75
  -3   9  -5    6.32    0.66
   3  -9   5    7.07    0.63
  -4   9  -5    1.29    0.41
   5   8  -5    2.13    0.40
   4   8  -5   25.92    1.09
  -4  -8   5   27.07    1.21
   3   8  -5   68.50    2.05
  -3  -8   5   65.69    2.24
   2   8  -5   86.54    2.70
   2   8  -5   88.52    2.47
  -2  -8   5   86.60    2.39
   1   8  -5   55.75    1.98
  -1  -8   5   56.52    1.71
   0   8  -5    5.46    0.57
   0  -8   5    6.05    0.48
  -1   8  -5    0.48    0.28
   1  -8   5    0.76    0.26
  -2   8  -5   50.16    1.93
   2  -8   5   52.69    1.70
  -3   8  -5   99.26    3.08
   3  -8   5   95.02    2.74
  -4   8  -5   88.33    2.86
   4  -8   5   88.33    2.61
  -5   8  -5   35.06    1.52
   5  -8   5   34.04    1.41
   6   7  -5   96.80    2.80
  -6  -7   5   99.31    2.91
   5   7  -5   96.33    2.69
  -5  -7   5   99.44    2.83
   4   7  -5   52.50    1.68
  -4  -7   5   51.56    1.77
   3   7  -5   12.37    0.63
   3   7  -5   11.95    0.70
   2   7  -5    3.00    0.34
   2   7  -5    3.00    0.41
  -2  -7   5    2.48    0.32
   1   7  -5   59.83    1.70
   1   7  -5   57.35    1.95
  -1  -7   5   58.62    1.70
   0   7  -5  170.42    4.62
   0  -7   5  163.51    4.08
  -1   7  -5  137.58    3.99
   1  -7   5  142.54    3.54
  -2   7  -5   75.00    2.45
   2  -7   5   76.00    2.15
  -3   7  -5    9.84    0.69
   3  -7   5    7.75    0.55
  -4   7  -5    9.05    0.69
   4  -7   5    8.76    0.60
  -5   7  -5   41.12    1.61
   5  -7   5   39.44    1.46
  -6   7  -5   40.07    1.61
   6  -7   5   39.64    1.53
   7   6  -5   52.92    1.84
  -7  -6   5   53.69    1.87
   6   6  -5   11.33    0.71
  -6  -6   5   11.93    0.72
   5   6  -5    3.04    0.40
  -5  -6   5    2.57    0.37
   4   6  -5   41.75    1.33
   4   6  -5   40.19    1.36
  -4  -6   5   41.55    1.43
   3   6  -5  100.60    2.78
   3   6  -5  108.99    2.69
   3   6  -5  107.43    2.64
   3   6  -5  102.04    2.91
   2   6  -5   98.41    2.81
   2   6  -5  103.75    2.50
   2   6  -5   97.70    2.61
  -2  -6   5   96.75    2.53
   1   6  -5   91.64    2.38
   1   6  -5   92.36    2.67
  -1  -6   5   88.73    2.35
   0   6  -5   14.85    0.79
   0   6  -5   16.03    0.61
   0  -6   5   15.99    0.66
  -1   6  -5   16.56    0.86
  -1   6  -5   17.86    0.65
   1  -6   5   17.21    0.71
  -2   6  -5   87.80    2.70
   2  -6   5   90.08    2.37
  -3   6  -5   96.94    2.88
   3  -6   5   95.14    2.56
  -4   6  -5   73.32    2.33
   4  -6   5   71.61    2.08
  -5   6  -5   62.19    2.11
   5  -6   5   61.55    1.91
  -6   6  -5    6.06    0.59
   6  -6   5    5.97    0.55
  -7   6  -5    3.70    0.54
   7  -6   5    5.16    0.60
   8   5  -5    1.71    0.40
  -8  -5   5    1.66    0.38
   7   5  -5   45.29    1.62
  -7  -5   5   44.82    1.60
   6   5  -5   54.99    1.80
  -6  -5   5   57.59    1.81
   5   5  -5   67.88    1.99
  -5  -5   5   67.07    1.99
   4   5  -5   81.83    2.08
   4   5  -5   77.69    2.18
  -4  -5   5   78.89    2.22
  -4  -5   5   81.00    2.29
   3   5  -5   16.64    0.64
   3   5  -5   15.65    0.66
   3   5  -5   16.53    0.67
   3   5  -5   16.12    0.70
   2   5  -5   24.15    0.83
   2   5  -5   24.74    0.95
   2   5  -5   25.00    0.83
   2   5  -5   26.59    0.84
   1   5  -5   87.59    2.57
   1   5  -5   94.58    2.33
   1   5  -5   92.16    2.30
  -1  -5   5   89.58    2.26
   0   5  -5  278.92    6.30
   0   5  -5  255.49    6.74
   0  -5   5  267.48    6.12
   0  -5   5  263.62    6.02
  -1   5  -5  153.10    4.13
  -1   5  -5  156.76    3.71
   1  -5   5  148.18    3.53
   1  -5   5  154.41    3.67
  -2   5  -5   65.30    1.75
  -2   5  -5   67.54    2.09
   2  -5   5   66.43    1.80
  -3   5  -5   16.24    0.82
   3  -5   5   15.83    0.68
  -4   5  -5   10.09    0.64
   4  -5   5    9.04    0.54
  -5   5  -5   82.57    2.57
   5  -5   5   84.73    2.34
  -6   5  -5  104.53    3.08
   6  -5   5  100.23    2.79
  -7   5  -5   51.02    1.88
   7  -5   5   53.12    1.75
   8   4  -5   81.55    2.49
  -8  -4   5   79.75    2.52
   7   4  -5   37.94    1.44
  -7  -4   5   40.25    1.45
   6   4  -5    6.92    0.54
  -6  -4   5    7.41    0.50
   5   4  -5    4.30    0.33
   5   4  -5    3.88    0.39
  -5  -4   5    4.02    0.35
   4   4  -5   97.86    2.44
   4   4  -5   96.54    2.56
  -4  -4   5   99.97    2.62
  -4  -4   5   96.62    2.59
   3   4  -5  205.84    5.11
   3   4  -5  205.72    4.75
   3   4  -5  207.49    4.99
   3   4  -5  203.83    4.81
  -3  -4   5  203.11    4.97
   2   4  -5  265.08    6.36
   2   4  -5  268.52    6.12
   2   4  -5  264.64    6.62
   2   4  -5  276.52    6.12
   1   4  -5   74.13    2.13
   1   4  -5   77.12    1.91
   1   4  -5   75.48    1.91
  -1  -4   5   74.31    1.89
   0   4  -5    1.53    0.25
   0   4  -5    1.98    0.20
   0   4  -5    1.77    0.15
   0  -4   5    1.72    0.18
  -1   4  -5   35.57    1.27
  -1   4  -5   39.03    1.00
   1  -4   5   35.86    1.01
  -2   4  -5  138.59    3.79
  -2   4  -5  144.54    3.42
   2  -4   5  138.92    3.37
   2  -4   5  141.64    3.26
  -3   4  -5  253.24    5.90
  -3   4  -5  235.49    6.27
   3  -4   5  250.71    5.55
   3  -4   5  243.57    5.67
  -4   4  -5  141.64    3.64
  -4   4  -5  141.42    3.90
   4  -4   5  143.62    3.36
   4  -4   5  143.92    3.50
  -5   4  -5   70.83    2.23
   5  -4   5   70.15    1.86
   5  -4   5   70.17    1.97
  -6   4  -5    3.17    0.44
   6  -4   5    3.11    0.39
  -7   4  -5    2.27    0.42
   7  -4   5    2.27    0.38
  -9  -3   5    4.93    0.63
   8   3  -5    6.26    0.57
  -8  -3   5    6.17    0.58
   7   3  -5   54.94    1.78
  -7  -3   5   52.51    1.77
   6   3  -5  121.15    3.24
  -6  -3   5  123.23    3.30
   5   3  -5  142.88    3.57
   5   3  -5  138.04    3.39
  -5  -3   5  139.36    3.61
   4   3  -5  137.43    3.42
   4   3  -5  131.81    3.28
  -4  -3   5  136.46    3.47
  -4  -3   5  142.82    3.44
   3   3  -5    7.74    0.39
   3   3  -5    7.90    0.43
   3   3  -5    7.91    0.37
  -3  -3   5    7.36    0.37
   2   3  -5   33.90    1.00
   2   3  -5   34.14    0.98
   2   3  -5   33.72    1.04
  -2  -3   5   33.30    0.96
   1   3  -5  117.98    2.77
   1   3  -5  113.57    3.00
   1   3  -5  114.78    2.74
  -1  -3   5  113.60    2.73
   0   3  -5  186.52    4.20
   0   3  -5  174.29    4.63
   0   3  -5  187.14    4.26
   0  -3   5  181.71    4.18
  -1   3  -5  303.08    6.74
  -1   3  -5  316.90    6.93
  -1   3  -5  291.26    7.42
   1  -3   5  289.51    6.70
   1  -3   5  299.96    6.75
  -2   3  -5  168.30    4.45
  -2   3  -5  175.80    4.09
   2  -3   5  172.97    3.93
   2  -3   5  170.41    3.99
  -3   3  -5    1.58    0.20
  -3   3  -5    1.84    0.28
   3  -3   5    2.66    0.21
   3  -3   5    1.64    0.21
  -4   3  -5   16.49    0.77
  -4   3  -5   15.84    0.67
   4  -3   5   15.58    0.59
   4  -3   5   15.59    0.62
  -5   3  -5   11.50    0.62
  -5   3  -5   10.66    0.64
   5  -3   5   10.98    0.51
   5  -3   5   10.89    0.54
  -6   3  -5  107.07    3.10
   6  -3   5  103.99    2.72
   6  -3   5  105.99    2.74
  -7   3  -5   71.47    2.31
   7  -3   5   69.16    2.02
   9   2  -5   71.00    2.26
  -9  -2   5   69.54    2.41
   8   2  -5   81.93    2.43
  -8  -2   5   79.79    2.54
   7   2  -5   53.03    1.74
  -7  -2   5   53.87    1.79
   6   2  -5   17.38    0.74
   6   2  -5   17.65    0.83
  -6  -2   5   18.37    0.83
   5   2  -5    8.63    0.47
  -5  -2   5    8.32    0.48
   4   2  -5   55.94    1.61
   4   2  -5   56.32    1.52
  -4  -2   5   53.94    1.57
   3   2  -5  155.76    3.71
   3   2  -5  167.43    3.85
   3   2  -5  154.32    3.75
  -3  -2   5  153.41    3.84
   2   2  -5  195.35    4.44
   2   2  -5  187.80    4.42
   2   2  -5  197.13    4.70
  -2  -2   5  190.49    4.56
   1   2  -5   90.19    2.37
   1   2  -5   90.35    2.18
  -1  -2   5   91.31    2.19
  -1  -2   5   90.31    2.16
   0   2  -5    0.80    0.16
   0  -2   5    0.34    0.11
   0  -2   5    0.48    0.05
  -1   2  -5  102.19    2.37
  -1   2  -5   95.95    2.65
   1  -2   5  100.82    2.37
  -2   2  -5  189.30    4.98
  -2   2  -5  220.60    5.35
   2  -2   5  213.57    4.80
   2  -2   5  226.15    4.82
  -3   2  -5  187.75    4.77
  -3   2  -5  183.10    4.51
   3  -2   5  182.95    4.25
   3  -2   5  188.03    4.27
  -4   2  -5  158.76    4.19
  -4   2  -5  160.07    4.00
   4  -2   5  155.95    3.73
   4  -2   5  159.21    3.71
  -5   2  -5   48.27    1.63
  -5   2  -5   50.71    1.57
   5  -2   5   49.89    1.38
   5  -2   5   46.87    1.40
  -6   2  -5    3.50    0.43
  -6   2  -5    4.04    0.42
   6  -2   5    3.43    0.33
  -7   2  -5   24.11    1.10
   7  -2   5   23.93    0.97
   8  -2   5   51.50    1.70
   9   1  -5    6.59    0.58
  -9  -1   5    5.87    0.64
   8   1  -5   12.06    0.73
  -8  -1   5   11.34    0.76
   7   1  -5   39.64    1.31
   7   1  -5   39.99    1.41
  -7  -1   5   41.14    1.49
   6   1  -5  155.79    3.74
   6   1  -5  148.71    3.85
  -6  -1   5  153.48    4.03
   5   1  -5  169.11    4.12
   5   1  -5  164.30    3.98
  -5  -1   5  168.50    4.25
   4   1  -5   58.70    1.69
   4   1  -5   59.79    1.61
  -4  -1   5   63.23    1.72
   3   1  -5    6.84    0.22
   3   1  -5    5.92    0.34
   3   1  -5    7.98    0.40
  -3  -1   5    5.85    0.33
   2   1  -5   55.72    1.44
   2   1  -5   54.08    1.43
   2   1  -5   57.34    1.45
  -2  -1   5   54.12    1.45
   1   1  -5  413.09    9.60
   1   1  -5  416.14    8.91
  -1  -1   5  390.06    9.29
  -1  -1   5  388.87    8.88
   0   1  -5  499.10   10.76
   0   1  -5  498.14   11.68
   0  -1   5  471.12   10.78
   0  -1   5  486.95   11.16
  -1   1  -5  220.09    5.51
  -1   1  -5  225.29    5.12
  -1   1  -5  227.42    4.99
   1  -1   5  216.63    5.01
  -2   1  -5   67.97    1.97
  -2   1  -5   70.19    1.72
   2  -1   5   69.82    1.68
   2  -1   5   69.97    1.73
  -3   1  -5   40.26    1.36
  -3   1  -5   42.99    1.18
   3  -1   5   43.12    1.10
   3  -1   5   42.39    1.17
  -4   1  -5   16.20    0.75
  -4   1  -5   16.24    0.64
   4  -1   5   16.49    0.62
   4  -1   5   16.31    0.55
  -5   1  -5   87.26    2.55
  -5   1  -5   87.56    2.39
   5  -1   5   87.08    2.27
  -6   1  -5   82.64    2.35
  -6   1  -5   79.92    2.45
   6  -1   5   79.08    2.20
  -7   1  -5   83.56    2.56
  -7   1  -5   84.23    2.52
   7  -1   5   79.92    2.32
   8  -1   5   34.74    1.32
   9   0  -5   71.34    2.23
  -9   0   5   73.38    2.54
   8   0  -5   62.70    1.91
   8   0  -5   64.60    2.00
  -8   0   5   65.34    2.23
   7   0  -5   24.64    0.96
   7   0  -5   28.15    1.06
  -7   0   5   24.02    1.11
   6   0  -5   21.71    0.89
   6   0  -5   21.25    0.83
  -6   0   5   21.91    0.96
   5   0  -5   15.87    0.69
   5   0  -5   15.00    0.62
  -5   0   5   14.33    0.70
   4   0  -5  145.83    3.55
   4   0  -5  147.04    3.49
  -4   0   5  146.16    3.75
   3   0  -5  234.77    5.40
   3   0  -5  236.92    5.43
  -3   0   5  239.36    5.75
   2   0  -5  198.17    5.13
   2   0  -5  221.50    4.88
  -2   0   5  223.89    4.88
  -2   0   5  215.61    5.15
   1   0  -5   44.95    1.18
   1   0  -5   48.56    1.26
  -1   0   5   43.71    1.18
  -1   0   5   44.60    1.18
   0   0  -5   14.73    0.57
   0   0  -5   14.64    0.49
   0   0   5   14.73    0.51
   0   0   5   16.17    0.46
  -1   0  -5   21.27    0.78
  -1   0  -5   22.42    0.62
   1   0   5   21.86    0.62
   1   0   5   21.48    0.66
  -2   0  -5  201.88    4.51
  -2   0  -5  205.16    5.11
   2   0   5  202.61    4.62
   2   0   5  201.42    4.78
  -3   0  -5  115.05    2.90
  -3   0  -5  121.56    3.17
   3   0   5  118.34    2.67
   3   0   5  113.97    2.81
  -4   0  -5  159.31    3.87
  -4   0  -5  153.26    4.10
   4   0   5  153.79    3.70
  -5   0  -5   67.06    2.08
  -5   0  -5   70.18    1.94
   5   0   5   65.21    1.85
  -6   0  -5    4.04    0.42
  -6   0  -5    3.78    0.38
   6   0   5    4.19    0.38
  -7   0  -5   12.73    0.74
  -7   0  -5   13.44    0.78
   7   0   5   13.33    0.71
  -8   0  -5   62.70    2.12
   8   0   5   62.18    2.00
   9  -1  -5    0.24    0.26
  -9   1   5    0.65    0.32
   8  -1  -5    4.79    0.45
   8  -1  -5    4.36    0.44
  -8   1   5    4.89    0.53
   7  -1  -5   80.43    2.26
   7  -1  -5   83.36    2.30
  -7   1   5   77.59    2.49
   6  -1  -5  123.33    3.15
   6  -1  -5  127.43    3.18
  -6   1   5  120.44    3.41
   5  -1  -5  215.57    5.05
   5  -1  -5  209.07    5.04
  -5   1   5  215.83    5.40
   4  -1  -5  148.12    3.50
   4  -1  -5  139.45    3.47
  -4   1   5  146.59    3.75
   3  -1  -5    1.56    0.21
   3  -1  -5    1.80    0.12
   3  -1  -5    1.42    0.18
  -3   1   5    2.09    0.23
   2  -1  -5   45.38    1.21
   2  -1  -5   47.08    1.23
  -2   1   5   46.22    1.20
  -2   1   5   45.04    1.31
   1  -1  -5  158.87    3.57
   1  -1  -5  152.62    3.83
  -1   1   5  160.07    3.77
  -1   1   5  152.16    3.58
   0  -1  -5  463.46    9.73
   0  -1  -5  439.48   10.57
   0   1   5  423.49   10.24
  -1  -1  -5  230.18    4.91
  -1  -1  -5  222.20    5.46
   1   1   5  214.41    5.22
   1   1   5  215.20    4.97
  -2  -1  -5   63.83    1.89
  -2  -1  -5   66.18    1.52
   2   1   5   67.65    1.74
   2   1   5   66.18    1.67
  -3  -1  -5    8.20    0.50
   3   1   5    8.22    0.41
   3   1   5    8.69    0.27
   3   1   5    9.38    0.43
  -4  -1  -5    7.48    0.43
  -4  -1  -5    8.17    0.52
   4   1   5    7.99    0.43
  -5  -1  -5   96.02    2.76
  -5  -1  -5   95.15    2.58
   5   1   5   92.90    2.48
  -6  -1  -5  104.06    2.89
  -6  -1  -5  106.70    3.06
   6   1   5  103.04    2.78
  -7  -1  -5   43.34    1.62
  -7  -1  -5   42.53    1.54
   7   1   5   44.79    1.50
  -8  -1  -5    7.96    0.66
   8   1   5    9.59    0.68
   9  -2  -5   59.86    1.95
  -9   2   5   60.38    2.19
   8  -2  -5   88.43    2.46
   8  -2  -5   85.75    2.49
  -8   2   5   87.58    2.76
   7  -2  -5   90.25    2.58
   7  -2  -5   97.01    2.56
  -7   2   5   95.84    2.84
   6  -2  -5    7.14    0.46
   6  -2  -5    6.67    0.48
  -6   2   5    7.04    0.53
   5  -2  -5   38.04    1.18
   5  -2  -5   37.78    1.23
  -5   2   5   39.10    1.36
   4  -2  -5   85.94    2.20
   4  -2  -5   84.99    2.27
  -4   2   5   90.81    2.47
   3  -2  -5  193.35    4.58
   3  -2  -5  191.70    4.43
  -3   2   5  176.12    4.68
  -3   2   5  191.52    4.33
   2  -2  -5  197.09    4.75
   2  -2  -5  202.25    4.51
  -2   2   5  188.25    4.76
  -2   2   5  191.09    4.41
   1  -2  -5   59.07    1.64
   1  -2  -5   61.52    1.54
  -1   2   5   62.87    1.67
  -1   2   5   60.27    1.51
   0  -2  -5    0.26    0.12
   0  -2  -5    0.15    0.08
   0   2   5    0.10    0.09
   0   2   5    0.20    0.09
  -1  -2  -5   75.24    2.12
  -1  -2  -5   81.51    1.83
   1   2   5   76.29    2.05
   1   2   5   79.06    1.91
  -2  -2  -5   58.70    1.35
  -2  -2  -5   60.08    1.74
   2   2   5   59.19    1.65
   2   2   5   59.51    1.54
  -3  -2  -5  140.63    3.75
   3   2   5  142.55    3.59
   3   2   5  141.23    3.38
  -4  -2  -5  160.62    4.27
   4   2   5  157.60    3.84
   4   2   5  159.63    4.06
  -5  -2  -5   23.87    0.94
  -5  -2  -5   22.23    1.02
   5   2   5   22.46    0.89
  -6  -2  -5    0.30    0.19
  -6  -2  -5    0.95    0.29
   6   2   5    0.14    0.18
  -7  -2  -5   13.78    0.83
  -7  -2  -5   14.84    0.82
   7   2   5   13.23    0.74
  -8  -2  -5   52.93    1.92
   8   2   5   53.54    1.83
   9  -3  -5    2.21    0.43
  -9   3   5    2.30    0.48
   8  -3  -5    4.51    0.52
  -8   3   5    4.47    0.57
   7  -3  -5   74.21    2.20
  -7   3   5   75.36    2.39
   6  -3  -5  105.94    2.85
  -6   3   5  106.73    3.07
   5  -3  -5  101.47    2.70
   5  -3  -5  101.26    2.56
  -5   3   5  103.95    2.92
   4  -3  -5   44.62    1.40
  -4   3   5   47.95    1.27
  -4   3   5   44.56    1.52
   3  -3  -5    3.58    0.30
   3  -3  -5    3.91    0.27
  -3   3   5    4.32    0.35
  -3   3   5    3.95    0.24
   2  -3  -5   57.41    1.68
   2  -3  -5   61.72    1.64
  -2   3   5   62.73    1.53
  -2   3   5   60.72    1.76
   1  -3  -5  204.88    4.65
   1  -3  -5  202.22    5.03
  -1   3   5  206.20    4.97
  -1   3   5  197.09    4.56
   0  -3  -5  109.90    2.53
   0  -3  -5  105.22    2.83
   0   3   5  107.43    2.52
   0   3   5  105.94    2.77
  -1  -3  -5  193.79    4.15
  -1  -3  -5  187.53    4.70
   1   3   5  176.00    4.55
   1   3   5  181.88    4.23
  -2  -3  -5  130.85    3.39
   2   3   5  124.76    3.27
   2   3   5  125.66    3.03
  -3  -3  -5    0.23    0.14
   3   3   5    0.31    0.13
   3   3   5    0.77    0.19
  -4  -3  -5   23.75    1.02
   4   3   5   25.28    0.99
   4   3   5   25.42    0.91
  -5  -3  -5   49.98    1.74
   5   3   5   49.58    1.54
   5   3   5   49.49    1.65
  -6  -3  -5   77.22    2.55
  -6  -3  -5   79.84    2.40
   6   3   5   77.89    2.27
  -7  -3  -5   71.19    2.41
  -7  -3  -5   71.57    2.30
   7   3   5   68.20    2.17
  -8  -3  -5   11.54    0.82
   8   3   5   12.08    0.79
   8  -4  -5   67.56    2.14
   7  -4  -5   42.67    1.51
  -7   4   5   42.44    1.65
   6  -4  -5    0.21    0.20
  -6   4   5    0.26    0.22
   5  -4  -5   22.05    0.93
  -5   4   5   21.76    1.02
   4  -4  -5  130.15    3.32
   4  -4  -5  135.64    3.42
  -4   4   5  124.97    3.56
   3  -4  -5  210.73    5.11
   3  -4  -5  223.75    5.44
  -3   4   5  213.21    5.47
   2  -4  -5  172.12    4.42
   2  -4  -5  170.63    4.13
  -2   4   5  176.86    4.43
   1  -4  -5   66.97    1.94
   1  -4  -5   65.42    1.76
  -1   4   5   66.33    1.61
  -1   4   5   68.59    1.94
   0  -4  -5    0.53    0.16
   0  -4  -5    0.31    0.12
   0   4   5    0.94    0.13
   0   4   5    0.40    0.15
  -1  -4  -5   24.78    0.95
   1   4   5   25.10    0.94
   1   4   5   25.01    0.76
  -2  -4  -5   99.57    2.76
   2   4   5   99.90    2.43
   2   4   5   94.25    2.67
  -3  -4  -5  154.52    4.17
   3   4   5  158.89    3.76
   3   4   5  153.49    4.05
  -4  -4  -5   69.07    2.18
   4   4   5   66.76    2.09
   4   4   5   70.59    1.94
  -5  -4  -5   27.29    1.19
   5   4   5   25.98    1.12
   5   4   5   27.01    1.04
  -6  -4  -5    0.45    0.25
  -6  -4  -5    0.43    0.27
   6   4   5    0.24    0.23
   6   4   5    0.46    0.26
  -7  -4  -5   19.11    1.02
  -7  -4  -5   19.06    1.11
   7   4   5   17.63    0.95
   8  -5  -5   14.97    0.89
  -8   5   5   14.06    0.94
   7  -5  -5   63.33    2.05
  -7   5   5   65.34    2.27
   6  -5  -5  143.08    3.77
  -6   5   5  143.13    4.09
   5  -5  -5  110.30    3.01
  -5   5   5  114.25    3.33
   4  -5  -5   48.53    1.54
   4  -5  -5   45.80    1.50
  -4   5   5   45.59    1.67
   3  -5  -5    2.81    0.34
   3  -5  -5    2.78    0.35
  -3   5   5    2.95    0.39
   2  -5  -5    6.51    0.47
   2  -5  -5    6.96    0.44
  -2   5   5    6.67    0.48
   1  -5  -5  114.20    3.17
   1  -5  -5  114.67    2.87
  -1   5   5  113.01    3.10
   0  -5  -5  108.42    2.70
   0  -5  -5  108.67    3.06
   0   5   5  111.82    3.00
  -1  -5  -5   56.36    1.84
   1   5   5   60.84    1.84
  -2  -5  -5   32.09    1.27
   2   5   5   36.43    1.28
   2   5   5   37.07    1.09
  -3  -5  -5    5.00    0.45
   3   5   5    5.24    0.38
   3   5   5    4.11    0.41
  -4  -5  -5   17.18    0.89
   4   5   5   15.85    0.74
   4   5   5   15.44    0.83
  -5  -5  -5   47.97    1.79
   5   5   5   47.71    1.73
   5   5   5   49.48    1.60
  -6  -5  -5   60.23    2.18
   6   5   5   57.91    2.06
   6   5   5   61.07    1.94
  -7  -5  -5   26.96    1.39
  -7  -5  -5   26.20    1.27
   7   5   5   25.08    1.18
   7  -6  -5   26.13    1.20
  -7   6   5   26.30    1.33
   6  -6  -5    1.04    0.31
  -6   6   5    1.32    0.39
   5  -6  -5   12.70    0.73
  -5   6   5   13.20    0.87
   4  -6  -5   55.78    1.77
  -4   6   5   56.80    1.98
   3  -6  -5  126.61    3.53
   3  -6  -5  123.33    3.25
  -3   6   5  122.61    3.50
   2  -6  -5   55.34    1.86
   2  -6  -5   53.95    1.67
  -2   6   5   56.59    1.84
   1  -6  -5   15.49    0.82
   1  -6  -5   15.42    0.70
  -1   6   5   15.38    0.78
   0  -6  -5    0.32    0.21
   0   6   5    0.61    0.23
  -1  -6  -5   17.24    0.87
   1   6   5   17.42    0.85
  -2  -6  -5   91.31    2.76
   2   6   5   89.57    2.66
  -3  -6  -5  103.09    3.06
   3   6   5   98.62    2.92
  -4  -6  -5   52.56    1.89
   4   6   5   50.16    1.80
  -5  -6  -5   12.99    0.86
   5   6   5   13.37    0.75
   5   6   5   11.90    0.79
  -6  -6  -5    0.14    0.26
   6   6   5    0.25    0.30
   6   6   5    0.26    0.27
   6  -7  -5   76.05    2.41
  -6   7   5   80.07    2.75
   5  -7  -5   78.57    2.38
  -5   7   5   75.89    2.63
   4  -7  -5   33.59    1.30
  -4   7   5   34.89    1.48
   3  -7  -5    1.47    0.32
   3  -7  -5    0.86    0.29
  -3   7   5    1.30    0.33
   2  -7  -5   35.26    1.46
   2  -7  -5   36.02    1.29
  -2   7   5   35.69    1.42
   1  -7  -5   51.24    1.86
  -1   7   5   50.44    1.78
   0  -7  -5   88.25    2.76
   0   7   5   85.29    2.62
  -1  -7  -5  107.86    3.25
   1   7   5  106.26    3.11
  -2  -7  -5   15.43    0.91
   2   7   5   15.24    0.86
  -3  -7  -5    2.52    0.44
   3   7   5    2.80    0.43
  -4  -7  -5    9.04    0.73
   4   7   5    7.73    0.67
  -5  -7  -5   48.73    1.93
   5   7   5   45.18    1.80
   5  -8  -5   24.55    1.17
  -5   8   5   25.56    1.34
   4  -8  -5   44.38    1.61
  -4   8   5   42.75    1.78
   3  -8  -5   61.03    2.20
   3  -8  -5   62.48    1.99
  -3   8   5   60.69    2.18
   2  -8  -5   35.08    1.54
  -2   8   5   38.12    1.54
   1  -8  -5   33.09    1.50
  -1   8   5   32.57    1.39
   0  -8  -5    0.46    0.29
   0   8   5    0.73    0.31
  -1  -8  -5   23.82    1.23
   1   8   5   25.26    1.18
   2   8   5   41.56    1.64
   3   8   5   40.43    1.64
   3  -9  -5    3.08    0.54
   2  -9  -5   16.93    1.09
  -2   9   5   19.01    1.09
   1  -9  -5   35.12    1.67
  -1   9   5   37.41    1.59
   0  -9  -5   54.92    2.18
   0   9   5   54.08    2.03
  -3  -9   6   84.71    2.77
   2   9  -6   54.61    2.01
   1   9  -6    9.02    0.74
  -1  -9   6    8.66    0.60
   0   9  -6    0.06    0.27
   0  -9   6    0.61    0.27
  -1   9  -6   13.67    0.96
   1  -9   6   14.50    0.82
  -2   9  -6   57.93    2.21
   2  -9   6   58.55    1.94
  -3   9  -6   75.97    2.67
   3  -9   6   77.43    2.40
  -5  -8   6   34.87    1.39
   3   8  -6    1.27    0.33
   2   8  -6   40.72    1.56
  -2  -8   6   39.66    1.35
   1   8  -6   88.04    2.79
  -1  -8   6   88.41    2.46
   0   8  -6   62.47    2.23
   0  -8   6   65.55    1.94
  -1   8  -6   43.26    1.74
   1  -8   6   43.27    1.47
  -2   8  -6    5.82    0.59
   2  -8   6    5.53    0.49
  -3   8  -6   13.03    0.88
   3  -8   6   13.63    0.77
  -4   8  -6   64.85    2.31
   4  -8   6   65.09    2.09
  -5   8  -6   59.77    2.18
   5  -8   6   57.34    1.98
   6   7  -6    6.65    0.58
  -6  -7   6    6.81    0.59
   5   7  -6   92.50    2.62
  -5  -7   6   96.35    2.74
   4   7  -6   79.89    2.32
   3   7  -6  101.97    2.92
   3   7  -6  100.81    2.74
  -3  -7   6   99.44    2.65
   2   7  -6   94.35    2.79
  -2  -7   6   93.50    2.50
   1   7  -6   12.31    0.75
  -1  -7   6   10.96    0.60
   0   7  -6    9.92    0.69
   0  -7   6    9.28    0.54
  -1   7  -6   53.77    1.94
   1  -7   6   54.07    1.65
  -2   7  -6  113.56    3.41
   2  -7   6  114.10    3.01
  -3   7  -6   81.82    2.63
   3  -7   6   80.77    2.32
  -4   7  -6   45.83    1.75
   4  -7   6   45.86    1.57
  -5   7  -6    3.29    0.50
   5  -7   6    3.66    0.48
  -6   7  -6    5.19    0.58
   6  -7   6    5.55    0.57
   7   6  -6   65.78    2.16
  -7  -6   6   67.72    2.18
   6   6  -6   52.99    1.79
  -6  -6   6   55.07    1.80
   5   6  -6   58.13    1.80
  -5  -6   6   59.46    1.85
   4   6  -6   18.68    0.81
   4   6  -6   18.66    0.75
  -4  -6   6   19.21    0.81
   3   6  -6    6.13    0.41
   3   6  -6    5.79    0.41
   3   6  -6    5.85    0.45
   3   6  -6    6.45    0.43
   2   6  -6   75.71    2.05
   2   6  -6   76.26    2.27
   2   6  -6   75.93    2.03
  -2  -6   6   74.01    2.02
   1   6  -6  133.77    3.23
   1   6  -6  125.60    3.58
  -1  -6   6  127.24    3.21
  -1  -6   6  127.57    3.12
   0   6  -6  142.69    4.00
   0  -6   6  145.85    3.56
  -1   6  -6   83.87    2.62
   1  -6   6   87.32    2.30
  -2   6  -6   15.07    0.83
   2  -6   6   15.14    0.70
  -3   6  -6   13.69    0.81
   3  -6   6   14.60    0.70
  -4   6  -6   49.76    1.82
   4  -6   6   51.32    1.61
  -5   6  -6  101.00    3.12
   5  -6   6  104.17    2.84
  -6   6  -6   74.45    2.49
   6  -6   6   74.06    2.26
  -7   6  -6   24.44    1.23
   7  -6   6   23.98    1.13
   8   5  -6   18.68    1.01
  -8  -5   6   17.41    0.97
   7   5  -6    1.07    0.32
  -7  -5   6    1.23    0.31
   6   5  -6   12.66    0.72
  -6  -5   6   11.30    0.65
   5   5  -6   59.47    1.83
  -5  -5   6   59.65    1.82
   4   5  -6  202.60    4.70
   4   5  -6  195.29    4.78
  -4  -5   6  197.71    4.93
   3   5  -6  255.72    6.18
   3   5  -6  257.54    5.92
   3   5  -6  257.68    6.39
   3   5  -6  252.93    5.95
   2   5  -6   81.58    2.13
   2   5  -6   82.79    2.12
   2   5  -6   79.65    2.32
  -2  -5   6   80.25    2.13
   1   5  -6   18.30    0.63
   1   5  -6   17.27    0.68
   1   5  -6   19.47    0.83
  -1  -5   6   18.60    0.67
   0   5  -6    0.78    0.13
   0   5  -6    1.18    0.25
   0  -5   6    0.80    0.18
   0  -5   6    0.71    0.16
  -1   5  -6  104.89    3.11
   1  -5   6  110.62    2.75
   1  -5   6  111.92    2.64
  -2   5  -6  101.44    3.03
   2  -5   6  102.57    2.68
   2  -5   6  111.61    2.55
  -3   5  -6  109.84    3.21
   3  -5   6  112.75    2.85
  -4   5  -6   39.53    1.51
   4  -5   6   41.04    1.32
  -5   5  -6    0.99    0.29
   5  -5   6    0.69    0.25
  -6   5  -6   22.88    1.13
   6  -5   6   22.16    0.98
  -7   5  -6   47.76    1.84
   7  -5   6   47.05    1.63
   8   4  -6   28.68    1.26
  -8  -4   6   28.65    1.27
   7   4  -6   98.09    2.86
  -7  -4   6  102.19    2.91
   6   4  -6  112.12    3.11
  -6  -4   6  117.47    3.16
   5   4  -6   93.81    2.58
   5   4  -6   94.22    2.42
  -5  -4   6   92.93    2.57
   4   4  -6    3.29    0.32
   4   4  -6    2.33    0.27
  -4  -4   6    3.33    0.29
   3   4  -6   18.45    0.72
   3   4  -6   18.67    0.70
   3   4  -6   17.43    0.68
  -3  -4   6   18.61    0.68
   2   4  -6   80.55    2.00
   2   4  -6   76.73    1.99
   2   4  -6   75.98    2.15
  -2  -4   6   74.89    2.01
   1   4  -6  150.50    3.52
   1   4  -6  141.90    3.84
   1   4  -6  154.15    3.54
  -1  -4   6  141.56    3.48
   0   4  -6  178.23    4.13
   0   4  -6  167.90    4.57
   0   4  -6  184.54    4.15
   0  -4   6  172.07    4.10
  -1   4  -6  117.31    2.76
  -1   4  -6  113.72    3.21
   1  -4   6  114.55    2.76
   1  -4   6  116.53    2.84
  -2   4  -6    1.75    0.29
   2  -4   6    0.89    0.15
   2  -4   6    0.39    0.14
  -3   4  -6   43.59    1.54
   3  -4   6   44.04    1.30
   3  -4   6   44.28    1.22
  -4   4  -6   93.93    2.80
   4  -4   6   93.50    2.34
   4  -4   6   93.87    2.43
  -5   4  -6  148.10    4.15
   5  -4   6  148.28    3.59
   5  -4   6  149.39    3.68
  -6   4  -6  115.23    3.40
   6  -4   6  113.38    3.00
  -7   4  -6   40.98    1.64
   8   3  -6   34.61    1.40
  -8  -3   6   36.41    1.46
   7   3  -6    5.38    0.52
  -7  -3   6    5.68    0.50
   6   3  -6   29.21    1.04
   6   3  -6   31.49    1.20
  -6  -3   6   30.04    1.13
   5   3  -6   64.21    1.90
   5   3  -6   63.19    1.77
  -5  -3   6   64.68    1.88
   4   3  -6  196.46    4.60
   4   3  -6  186.30    4.48
  -4  -3   6  188.81    4.69
   3   3  -6  204.55    4.80
   3   3  -6  190.88    4.53
   3   3  -6  194.08    4.59
  -3  -3   6  187.67    4.69
   2   3  -6  120.18    2.93
   2   3  -6  125.27    3.13
  -2  -3   6  118.64    2.96
  -2  -3   6  122.08    2.96
   1   3  -6   33.81    1.12
   1   3  -6   35.48    1.02
  -1  -3   6   33.20    0.90
  -1  -3   6   34.86    1.01
   0   3  -6   10.24    0.55
   0   3  -6   11.40    0.33
   0   3  -6   10.88    0.46
   0  -3   6   11.41    0.48
  -1   3  -6  159.30    3.77
  -1   3  -6  170.05    3.75
  -1   3  -6  155.43    4.22
   1  -3   6  162.02    3.76
  -2   3  -6  254.07    6.52
  -2   3  -6  270.14    6.01
   2  -3   6  258.07    5.84
   2  -3   6  249.11    5.87
  -3   3  -6  158.28    4.17
   3  -3   6  153.27    3.68
   3  -3   6  156.83    3.66
  -4   3  -6   37.30    1.38
   4  -3   6   38.58    1.13
   4  -3   6   38.57    1.15
  -5   3  -6    4.71    0.44
   5  -3   6    3.38    0.31
   5  -3   6    3.34    0.32
  -6   3  -6   19.80    0.98
   6  -3   6   20.31    0.82
  -7   3  -6   67.61    2.23
   7  -3   6   60.85    1.88
   9   2  -6    4.77    0.57
  -9  -2   6    5.16    0.64
   8   2  -6   66.22    2.11
  -8  -2   6   64.41    2.20
   7   2  -6  137.28    3.62
   7   2  -6  135.25    3.49
  -7  -2   6  134.59    3.73
   6   2  -6  119.28    3.05
   6   2  -6  119.03    3.17
  -6  -2   6  117.48    3.23
   5   2  -6   54.79    1.58
   5   2  -6   54.34    1.67
  -5  -2   6   54.91    1.66
   4   2  -6    5.02    0.35
   4   2  -6    5.07    0.37
  -4  -2   6    4.60    0.33
   3   2  -6   32.46    1.04
   3   2  -6   32.25    1.01
   3   2  -6   35.45    0.95
  -3  -2   6   32.76    1.00
   2   2  -6  151.19    3.65
   2   2  -6  161.69    3.88
  -2  -2   6  155.30    3.68
  -2  -2   6  155.18    3.73
   1   2  -6  472.53   10.47
   1   2  -6  479.01   11.34
  -1  -2   6  470.88   10.85
  -1  -2   6  464.90   10.45
   0   2  -6  247.23    5.39
   0   2  -6  229.41    5.87
   0  -2   6  233.86    5.41
  -1   2  -6   65.01    1.62
  -1   2  -6   62.20    1.85
   1  -2   6   64.13    1.63
  -2   2  -6    3.12    0.18
  -2   2  -6    2.41    0.27
   2  -2   6    2.01    0.20
   2  -2   6    2.68    0.22
  -3   2  -6   48.21    1.38
  -3   2  -6   50.02    1.61
   3  -2   6   48.90    1.35
   3  -2   6   51.69    1.33
  -4   2  -6  149.67    4.06
  -4   2  -6  153.29    3.80
   4  -2   6  153.50    3.55
   4  -2   6  145.15    3.58
  -5   2  -6  145.95    4.00
   5  -2   6  148.88    3.49
   5  -2   6  140.69    3.53
  -6   2  -6   76.47    2.37
   6  -2   6   71.99    2.05
  -7   2  -6   31.75    1.34
   7  -2   6   30.77    1.16
   8  -2   6    8.85    0.63
   9   1  -6   73.08    2.30
  -9  -1   6   71.63    2.51
   8   1  -6   21.05    1.00
  -8  -1   6   22.16    1.12
   7   1  -6    5.91    0.46
   7   1  -6    6.53    0.53
  -7  -1   6    5.82    0.52
   6   1  -6   27.48    0.99
  -6  -1   6   28.09    1.10
   5   1  -6  127.98    3.18
   5   1  -6  128.26    3.28
  -5  -1   6  127.93    3.38
   4   1  -6  219.15    5.04
  -4  -1   6  212.94    5.29
   3   1  -6  226.08    5.19
   3   1  -6  217.16    5.04
  -3  -1   6  210.10    5.26
   2   1  -6  220.00    5.26
   2   1  -6  217.06    4.97
  -2  -1   6  211.71    4.97
  -2  -1   6  218.14    5.18
   1   1  -6   85.09    2.06
   1   1  -6   83.38    2.22
  -1  -1   6   83.63    2.05
  -1  -1   6   83.51    2.07
   0   1  -6   74.09    2.09
   0   1  -6   75.54    1.89
   0  -1   6   79.52    1.94
   0  -1   6   78.17    1.80
  -1   1  -6   90.56    2.55
  -1   1  -6   96.75    2.20
  -1   1  -6   97.06    2.25
   1  -1   6   91.18    2.28
  -2   1  -6  129.88    3.68
  -2   1  -6  146.81    3.35
  -2   1  -6  140.29    3.25
   2  -1   6  146.32    3.33
  -3   1  -6  162.10    4.44
  -3   1  -6  176.53    4.12
   3  -1   6  169.97    4.00
   3  -1   6  173.64    3.90
  -4   1  -6   35.74    1.09
  -4   1  -6   34.41    1.28
   4  -1   6   33.86    1.08
   4  -1   6   36.26    0.98
  -5   1  -6    0.70    0.19
  -5   1  -6    0.41    0.20
   5  -1   6    0.85    0.19
  -6   1  -6   16.04    0.85
  -6   1  -6   16.74    0.78
   6  -1   6   15.51    0.72
  -7   1  -6   68.43    2.24
   7  -1   6   66.07    2.00
   8  -1   6   72.93    2.23
   9   0  -6    5.65    0.54
  -9   0   6    5.61    0.70
   8   0  -6   65.14    2.02
   8   0  -6   69.19    2.11
  -8   0   6   69.01    2.33
   7   0  -6   55.97    1.77
   7   0  -6   55.19    1.69
  -7   0   6   56.79    1.94
   6   0  -6  119.96    3.08
   6   0  -6  120.28    3.16
  -6   0   6  122.38    3.37
   5   0  -6   58.30    1.73
   5   0  -6   60.37    1.68
  -5   0   6   59.58    1.84
   4   0  -6   10.66    0.49
   4   0  -6   11.05    0.53
  -4   0   6   10.48    0.55
   3   0  -6   35.71    1.05
   3   0  -6   35.67    0.90
   3   0  -6   33.57    1.02
  -3   0   6   33.76    1.11
   2   0  -6  193.15    4.19
   2   0  -6  163.63    4.38
  -2   0   6  180.43    4.37
  -2   0   6  185.92    4.17
   1   0  -6  279.61    6.21
   1   0  -6  282.44    6.70
  -1   0   6  278.43    6.45
  -1   0   6  263.05    6.21
   0   0  -6  204.66    4.64
   0   0  -6  204.64    5.09
   0   0   6  205.43    4.79
   0   0   6  204.65    4.68
  -1   0  -6   71.72    2.00
  -1   0  -6   70.23    1.72
   1   0   6   70.76    1.79
   1   0   6   70.89    1.75
  -2   0  -6   18.20    0.55
   2   0   6   20.29    0.66
   2   0   6   18.14    0.59
  -3   0  -6   68.11    1.85
  -3   0  -6   71.65    2.11
   3   0   6   73.06    1.86
   3   0   6   72.07    1.69
  -4   0  -6  146.37    3.92
  -4   0  -6  145.49    3.64
   4   0   6  145.44    3.52
  -5   0  -6  178.90    4.74
  -5   0  -6  181.88    4.46
   5   0   6  171.68    4.27
  -6   0  -6   93.66    2.61
  -6   0  -6   93.55    2.79
   6   0   6   91.30    2.51
  -7   0  -6   28.14    1.25
  -7   0  -6   29.26    1.19
   7   0   6   29.21    1.14
   8   0   6    0.48    0.28
   9  -1  -6   66.81    2.12
   9  -1  -6   67.27    2.10
  -9   1   6   68.46    2.39
   8  -1  -6   31.79    1.23
   8  -1  -6   31.84    1.21
  -8   1   6   29.99    1.35
   7  -1  -6    2.69    0.37
   7  -1  -6    1.67    0.32
  -7   1   6    2.45    0.40
   6  -1  -6   22.38    0.91
   6  -1  -6   22.79    0.90
  -6   1   6   21.79    0.98
   5  -1  -6  132.45    3.30
   5  -1  -6  131.49    3.31
  -5   1   6  132.77    3.55
   4  -1  -6  249.07    5.86
   4  -1  -6  255.26    5.88
  -4   1   6  257.42    6.25
   3  -1  -6  281.36    6.41
   3  -1  -6  281.57    6.71
  -3   1   6  275.60    6.79
  -3   1   6  286.10    6.38
   2  -1  -6   67.58    1.67
   2  -1  -6   63.60    1.70
  -2   1   6   64.53    1.76
  -2   1   6   63.54    1.65
   1  -1  -6    0.65    0.12
   1  -1  -6    0.76    0.14
  -1   1   6    0.43    0.12
  -1   1   6    0.26    0.11
   0  -1  -6  112.99    3.00
   0  -1  -6  120.29    2.72
   0   1   6  119.88    2.85
   0   1   6  111.03    2.75
  -1  -1  -6  195.76    4.18
  -1  -1  -6  186.02    4.69
   1   1   6  177.96    4.43
   1   1   6  180.54    4.26
  -2  -1  -6  235.50    5.90
  -2  -1  -6  233.47    5.18
   2   1   6  231.05    5.57
  -3  -1  -6  142.56    3.82
   3   1   6  141.25    3.55
   3   1   6  142.96    3.41
  -4  -1  -6   65.16    1.85
  -4  -1  -6   66.01    2.05
   4   1   6   66.30    1.80
  -5  -1  -6    0.45    0.21
  -5  -1  -6    0.24    0.15
   5   1   6    0.33    0.16
  -6  -1  -6   30.73    1.14
  -6  -1  -6   30.14    1.25
   6   1   6   28.67    1.10
  -7  -1  -6   33.92    1.39
  -7  -1  -6   32.10    1.28
   7   1   6   32.58    1.25
  -8  -1  -6   71.97    2.32
   8   1   6   69.11    2.21
   9  -2  -6   14.04    0.83
  -9   2   6   13.33    0.90
   8  -2  -6   54.60    1.77
  -8   2   6   52.41    1.92
   7  -2  -6   96.86    2.71
   7  -2  -6  100.87    2.67
  -7   2   6   97.92    2.93
   6  -2  -6  115.68    3.05
   6  -2  -6  116.12    2.99
  -6   2   6  115.90    3.26
   5  -2  -6   56.00    1.66
   5  -2  -6   53.41    1.58
  -5   2   6   56.77    1.79
   4  -2  -6    0.73    0.20
  -4   2   6    0.22    0.12
  -4   2   6    0.11    0.14
   3  -2  -6   40.51    1.21
   3  -2  -6   39.93    1.12
  -3   2   6   38.16    1.28
  -3   2   6   40.51    1.13
   2  -2  -6  237.09    5.33
   2  -2  -6  235.32    5.65
  -2   2   6  228.72    5.63
  -2   2   6  226.00    5.26
   1  -2  -6  223.74    5.08
   1  -2  -6  222.46    5.50
  -1   2   6  219.73    5.07
  -1   2   6  228.92    5.41
   0  -2  -6  265.78    6.53
   0  -2  -6  278.54    5.95
   0   2   6  249.96    5.98
   0   2   6  269.09    6.34
  -1  -2  -6   92.89    2.12
  -1  -2  -6   87.18    2.44
   1   2   6   90.40    2.21
   1   2   6   88.26    2.34
  -2  -2  -6    5.85    0.42
   2   2   6    6.08    0.35
   2   2   6    7.79    0.40
  -3  -2  -6   42.49    1.46
   3   2   6   44.48    1.35
   3   2   6   44.11    1.28
  -4  -2  -6   78.42    2.41
   4   2   6   79.27    2.22
   4   2   6   78.52    2.11
  -5  -2  -6   90.58    2.51
  -5  -2  -6   86.60    2.69
   5   2   6   86.83    2.39
  -6  -2  -6   74.96    2.43
  -6  -2  -6   76.73    2.28
   6   2   6   72.35    2.16
  -7  -2  -6   30.93    1.28
  -7  -2  -6   32.33    1.39
   7   2   6   30.70    1.24
  -8  -2  -6    0.17    0.26
   8   2   6    0.51    0.30
   9  -3  -6   35.27    1.42
   8  -3  -6   33.81    1.34
  -8   3   6   34.60    1.45
   7  -3  -6    2.05    0.38
  -7   3   6    2.67    0.42
   6  -3  -6   23.82    0.99
  -6   3   6   24.71    1.09
   5  -3  -6  101.67    2.72
  -5   3   6  101.82    2.92
   4  -3  -6  177.22    4.35
  -4   3   6  170.53    4.63
  -4   3   6  189.64    4.21
   3  -3  -6  198.65    4.93
   3  -3  -6  198.32    4.73
  -3   3   6  205.86    4.58
  -3   3   6  193.95    5.02
   2  -3  -6   56.41    1.55
   2  -3  -6   57.74    1.60
  -2   3   6   56.34    1.46
  -2   3   6   54.11    1.66
   1  -3  -6    0.76    0.16
   1  -3  -6    0.33    0.13
  -1   3   6    0.37    0.14
  -1   3   6    0.65    0.13
   0  -3  -6   20.69    0.64
   0  -3  -6   19.68    0.77
   0   3   6   19.90    0.75
   0   3   6   19.73    0.65
  -1  -3  -6  186.85    4.07
  -1  -3  -6  180.36    4.62
   1   3   6  176.21    4.48
   1   3   6  176.71    4.16
  -2  -3  -6  142.86    3.74
   2   3   6  137.46    3.59
   2   3   6  139.96    3.35
  -3  -3  -6   58.75    1.88
   3   3   6   61.57    1.66
   3   3   6   58.54    1.78
  -4  -3  -6    3.49    0.39
   4   3   6    2.66    0.32
   4   3   6    3.50    0.40
  -5  -3  -6    0.67    0.27
   5   3   6    0.21    0.19
   5   3   6    0.44    0.22
  -6  -3  -6   27.04    1.13
  -6  -3  -6   25.40    1.23
   6   3   6   24.11    1.05
  -7  -3  -6  101.02    3.20
  -7  -3  -6  101.85    3.04
   7   3   6  100.88    2.89
   8  -4  -6   47.39    1.67
  -8   4   6   45.19    1.79
   7  -4  -6   94.89    2.74
  -7   4   6   98.19    2.99
   6  -4  -6   74.43    2.21
  -6   4   6   75.18    2.41
   5  -4  -6   23.92    0.97
  -5   4   6   23.58    1.08
   4  -4  -6    2.87    0.35
  -4   4   6    2.45    0.36
   3  -4  -6   33.02    1.13
   3  -4  -6   34.80    1.14
  -3   4   6   33.26    1.24
   2  -4  -6  201.90    4.84
   2  -4  -6  203.06    5.18
  -2   4   6  210.37    5.18
   1  -4  -6  221.46    5.12
   1  -4  -6  219.73    5.57
  -1   4   6  219.74    4.99
  -1   4   6  222.71    5.49
   0  -4  -6  119.97    3.28
   0  -4  -6  125.96    2.92
   0   4   6  121.91    3.22
   0   4   6  120.76    2.88
  -1  -4  -6   14.85    0.71
   1   4   6   15.69    0.58
   1   4   6   15.23    0.71
  -2  -4  -6    2.12    0.31
   2   4   6    3.51    0.35
   2   4   6    2.14    0.25
  -3  -4  -6   12.03    0.68
   3   4   6   10.43    0.62
   3   4   6   12.12    0.57
  -4  -4  -6  105.50    3.17
   4   4   6  112.95    2.86
   4   4   6  107.78    3.05
  -5  -4  -6  101.86    3.12
   5   4   6  102.23    2.96
   5   4   6  101.78    2.77
  -6  -4  -6   63.66    2.10
  -6  -4  -6   61.61    2.26
   6   4   6   63.28    1.98
   6   4   6   61.21    2.09
  -7  -4  -6   24.11    1.19
  -7  -4  -6   22.77    1.26
   7   4   6   24.71    1.13
   8  -5  -6   17.83    0.96
   7  -5  -6    0.33    0.27
  -7   5   6    0.21    0.26
   6  -5  -6   20.04    0.95
  -6   5   6   19.15    1.06
   5  -5  -6   82.59    2.38
  -5   5   6   80.71    2.60
   4  -5  -6  156.32    4.01
  -4   5   6  161.91    4.37
   3  -5  -6   81.31    2.25
   3  -5  -6   80.82    2.35
  -3   5   6   79.13    2.43
   2  -5  -6   85.62    2.50
   2  -5  -6   85.35    2.31
  -2   5   6   86.77    2.51
   1  -5  -6    0.68    0.19
   1  -5  -6    1.80    0.29
  -1   5   6    0.80    0.22
   0  -5  -6   48.34    1.61
   0   5   6   48.94    1.59
  -1  -5  -6   51.67    1.74
   1   5   6   54.65    1.73
  -2  -5  -6   86.08    2.62
   2   5   6   87.73    2.54
   2   5   6   89.20    2.26
  -3  -5  -6   86.34    2.67
   3   5   6   91.25    2.35
   3   5   6   85.53    2.56
  -4  -5  -6   22.49    1.07
   4   5   6   21.11    1.01
   4   5   6   21.61    0.90
  -5  -5  -6    2.21    0.43
   5   5   6    1.69    0.33
   5   5   6    1.54    0.36
  -6  -5  -6   26.94    1.33
   6   5   6   26.34    1.23
   6   5   6   25.16    1.13
   7  -6  -6   66.54    2.17
   6  -6  -6   62.54    2.05
  -6   6   6   65.55    2.33
   5  -6  -6   26.80    1.14
  -5   6   6   27.06    1.30
   4  -6  -6    0.50    0.24
  -4   6   6    0.10    0.22
   3  -6  -6   82.52    2.49
   3  -6  -6   81.42    2.32
  -3   6   6   80.45    2.52
   2  -6  -6   99.21    2.67
   2  -6  -6   98.20    2.93
  -2   6   6   99.17    2.88
   1  -6  -6  112.09    3.27
   1  -6  -6  115.04    2.94
  -1   6   6  112.18    3.18
   0  -6  -6   80.04    2.45
   0   6   6   76.02    2.35
  -1  -6  -6   27.05    1.19
   1   6   6   29.27    1.18
  -2  -6  -6    0.72    0.27
   2   6   6    0.96    0.29
  -3  -6  -6   29.82    1.31
   3   6   6   31.65    1.28
  -4  -6  -6   60.62    2.12
   4   6   6   56.40    1.99
  -5  -6  -6   42.16    1.74
   5   6   6   41.86    1.65
   6  -7  -6   24.43    1.17
  -6   7   6   25.28    1.36
   5  -7  -6   69.62    2.20
  -5   7   6   69.48    2.47
   4  -7  -6   97.32    2.82
  -4   7   6  102.61    3.14
   3  -7  -6   61.66    2.12
   3  -7  -6   64.53    1.96
  -3   7   6   60.50    2.12
   2  -7  -6   18.72    1.01
   2  -7  -6   20.90    0.92
  -2   7   6   20.69    1.02
   1  -7  -6    0.26    0.23
  -1   7   6    0.41    0.24
   0  -7  -6   15.66    0.90
   0   7   6   14.80    0.84
  -1  -7  -6   50.19    1.88
   1   7   6   51.87    1.82
  -2  -7  -6   60.32    2.15
   2   7   6   61.68    2.08
  -3  -7  -6   23.16    1.18
   3   7   6   22.14    1.09
  -4  -7  -6   11.73    0.85
   4   7   6   11.25    0.80
   5  -8  -6    5.09    0.60
   4  -8  -6    0.33    0.28
  -4   8   6    0.26    0.29
   3  -8  -6   22.33    1.17
   3  -8  -6   21.75    1.04
  -3   8   6   22.94    1.19
   2  -8  -6   55.40    2.10
  -2   8   6   55.83    2.02
   1  -8  -6   75.06    2.62
  -1   8   6   77.95    2.52
   0  -8  -6   39.21    1.68
   0   8   6   39.84    1.60
  -1  -8  -6   10.62    0.83
   1   8   6   10.63    0.77
  -2  -8  -6    1.42    0.40
   2   8   6    0.69    0.31
   1  -9  -6    2.00    0.48
   3   9  -7   41.09    1.63
   2   9  -7   46.61    1.82
   1   9  -7   59.45    2.17
  -1  -9   7   57.41    1.87
   0   9  -7   35.82    1.61
   0  -9   7   35.53    1.35
  -1   9  -7   10.69    0.85
   1  -9   7   11.30    0.72
  -2   9  -7   13.46    0.97
   2  -9   7   13.59    0.82
  -3   9  -7   48.19    1.96
   3  -9   7   45.62    1.70
   3   8  -7    9.92    0.69
   2   8  -7    5.68    0.56
  -2  -8   7    5.46    0.47
   1   8  -7    8.04    0.68
  -1  -8   7    8.48    0.57
   0   8  -7   95.76    3.09
   0  -8   7   99.36    2.71
  -1   8  -7   70.95    2.47
   1  -8   7   70.90    2.12
  -2   8  -7   76.20    2.61
   2  -8   7   77.21    2.29
  -3   8  -7   40.67    1.71
   3  -8   7   41.65    1.51
  -4   8  -7    1.46    0.39
   4  -8   7    1.38    0.35
  -5   8  -7    7.31    0.69
   5  -8   7    6.16    0.61
   6   7  -7   46.51    1.68
  -6  -7   7   52.39    1.77
   5   7  -7    0.78    0.27
   4   7  -7    5.17    0.44
   3   7  -7   22.71    0.89
   3   7  -7   21.85    0.98
  -3  -7   7   20.87    0.88
   2   7  -7   97.65    2.89
  -2  -7   7   96.74    2.61
   1   7  -7  131.34    3.74
  -1  -7   7  128.22    3.32
   0   7  -7   48.52    1.78
   0  -7   7   47.19    1.51
  -1   7  -7    1.89    0.38
   1  -7   7    2.66    0.35
  -2   7  -7    5.86    0.58
   2  -7   7    5.14    0.46
  -3   7  -7   51.19    1.90
   3  -7   7   50.59    1.65
  -4   7  -7   97.06    3.08
   4  -7   7   99.93    2.79
  -5   7  -7   62.58    2.23
   5  -7   7   60.98    2.00
  -6   7  -7   25.18    1.29
   6  -7   7   25.72    1.19
   7   6  -7    7.01    0.63
  -7  -6   7    7.49    0.62
   6   6  -7   17.55    0.91
  -6  -6   7   18.99    0.90
   5   6  -7   67.42    2.07
  -5  -6   7   72.72    2.13
   4   6  -7   61.88    1.87
   4   6  -7   65.58    1.85
  -4  -6   7   65.57    1.91
   3   6  -7   52.48    1.53
   3   6  -7   50.37    1.66
  -3  -6   7   51.32    1.57
   2   6  -7    3.31    0.40
   2   6  -7    1.92    0.29
  -2  -6   7    2.09    0.28
   1   6  -7   30.64    1.21
   1   6  -7   31.43    1.04
  -1  -6   7   28.87    1.04
  -1  -6   7   29.11    0.99
   0   6  -7   91.03    2.75
   0  -6   7   89.58    2.40
  -1   6  -7  118.44    3.45
   1  -6   7  118.53    3.04
  -2   6  -7  134.84    3.81
   2  -6   7  128.10    3.32
  -3   6  -7   32.97    1.37
   3  -6   7   31.62    1.15
  -4   6  -7    1.52    0.36
   4  -6   7    1.86    0.32
  -5   6  -7   17.49    0.99
   5  -6   7   17.44    0.87
  -6   6  -7   59.25    2.15
   6  -6   7   57.70    1.90
  -7   6  -7   62.52    2.27
   7  -6   7   60.13    2.03
  -8  -5   7   64.45    2.19
   7   5  -7   49.43    1.76
  -7  -5   7   50.54    1.76
   6   5  -7   23.05    1.04
  -6  -5   7   24.53    1.03
   5   5  -7    0.20    0.18
   5   5  -7    0.55    0.23
  -5  -5   7    0.54    0.21
   4   5  -7   19.04    0.82
   4   5  -7   19.97    0.79
  -4  -5   7   19.23    0.78
   3   5  -7   85.29    2.30
   3   5  -7   88.87    2.45
   3   5  -7   87.50    2.29
  -3  -5   7   87.95    2.31
  -3  -5   7   84.19    2.33
   2   5  -7  189.67    4.41
   2   5  -7  180.26    4.76
   2   5  -7  186.81    4.47
  -2  -5   7  179.07    4.38
   1   5  -7  130.45    3.61
   1   5  -7  138.16    3.28
  -1  -5   7  128.91    3.22
   0   5  -7   57.70    1.91
   0   5  -7   60.93    1.67
   0  -5   7   60.09    1.64
  -1   5  -7    0.92    0.26
   1  -5   7    0.49    0.14
   1  -5   7    0.64    0.18
  -2   5  -7   12.83    0.75
   2  -5   7   12.24    0.52
   2  -5   7   11.94    0.58
  -3   5  -7   87.36    2.68
   3  -5   7   85.14    2.31
  -4   5  -7  123.86    3.57
   4  -5   7  119.72    3.12
  -5   5  -7  107.98    3.26
   5  -5   7  105.94    2.85
  -6   5  -7   24.95    1.24
   6  -5   7   25.61    1.06
  -7   5  -7    0.33    0.29
   8   4  -7    3.35    0.50
  -8  -4   7    3.24    0.50
   7   4  -7   16.02    0.89
  -7  -4   7   17.64    0.88
   6   4  -7   76.07    2.08
   6   4  -7   71.62    2.21
  -6  -4   7   73.40    2.20
   5   4  -7  104.31    2.79
   5   4  -7   99.28    2.65
  -5  -4   7  103.47    2.79
   4   4  -7  120.99    3.07
   4   4  -7  124.52    3.16
  -4  -4   7  123.61    3.17
   3   4  -7  129.44    3.25
   3   4  -7  130.20    3.28
   3   4  -7  136.88    3.45
  -3  -4   7  133.78    3.32
   2   4  -7    5.68    0.39
   2   4  -7    5.82    0.37
  -2  -4   7    5.82    0.38
  -2  -4   7    5.91    0.31
   1   4  -7   27.83    0.78
   1   4  -7   25.10    1.00
   1   4  -7   27.41    0.91
  -1  -4   7   26.39    0.88
   0   4  -7   71.70    2.20
   0   4  -7   76.83    1.95
   0  -4   7   73.26    1.94
  -1   4  -7  205.89    4.85
  -1   4  -7  200.88    5.41
   1  -4   7  212.35    4.88
   1  -4   7  211.82    4.81
  -2   4  -7  186.74    5.01
   2  -4   7  185.46    4.46
   2  -4   7  193.06    4.40
  -3   4  -7   82.94    2.56
   3  -4   7   81.66    2.19
   3  -4   7   86.19    2.14
  -4   4  -7    1.13    0.30
   4  -4   7    0.89    0.21
  -5   4  -7   14.79    0.86
   5  -4   7   15.03    0.65
   5  -4   7   14.72    0.69
  -6   4  -7   83.71    2.72
   6  -4   7   84.21    2.35
  -7   4  -7   77.60    2.63
   8   3  -7   85.61    2.63
  -8  -3   7   88.45    2.73
   7   3  -7  100.69    2.89
  -7  -3   7  100.37    2.92
   6   3  -7   36.45    1.23
   6   3  -7   37.87    1.37
  -6  -3   7   35.37    1.30
   5   3  -7   17.59    0.74
   5   3  -7   19.36    0.85
  -5  -3   7   19.27    0.79
   4   3  -7    2.66    0.30
   4   3  -7    2.21    0.31
  -4  -3   7    2.89    0.28
   3   3  -7  124.70    3.21
   3   3  -7  140.32    3.37
   3   3  -7  131.67    3.26
  -3  -3   7  132.64    3.29
   2   3  -7  238.48    5.74
   2   3  -7  228.58    5.35
  -2  -3   7  229.17    5.36
  -2  -3   7  228.26    5.45
   1   3  -7   34.18    1.17
   1   3  -7   34.92    1.05
  -1  -3   7   35.39    1.05
  -1  -3   7   33.86    0.90
   0   3  -7   99.41    2.85
   0   3  -7  106.93    2.56
   0  -3   7  102.27    2.56
  -1   3  -7   14.71    0.72
  -1   3  -7   14.09    0.57
   1  -3   7   13.52    0.54
  -2   3  -7   69.17    2.10
   2  -3   7   67.10    1.78
   2  -3   7   68.98    1.80
  -3   3  -7  143.97    3.91
   3  -3   7  141.08    3.42
   3  -3   7  142.22    3.41
  -4   3  -7  127.74    3.60
   4  -3   7  124.33    3.10
   4  -3   7  129.46    3.12
  -5   3  -7   48.11    1.74
   5  -3   7   48.73    1.44
   5  -3   7   48.90    1.45
  -6   3  -7   25.88    1.20
   6  -3   7   25.08    0.96
  -7   3  -7    0.33    0.27
   7  -3   7    0.64    0.25
   9   2  -7   15.58    0.91
  -9  -2   7   14.69    0.98
   8   2  -7    0.32    0.25
  -8  -2   7    0.69    0.31
   7   2  -7   24.35    0.99
   7   2  -7   23.09    1.05
  -7  -2   7   21.52    1.03
   6   2  -7   64.26    1.88
   6   2  -7   64.84    1.99
  -6  -2   7   64.07    1.99
   5   2  -7  135.83    3.38
  -5  -2   7  135.48    3.54
   4   2  -7  147.78    3.67
   4   2  -7  146.62    3.60
  -4  -2   7  149.41    3.73
   3   2  -7   24.01    0.73
   3   2  -7   22.97    0.83
   3   2  -7   24.50    0.82
  -3  -2   7   23.89    0.86
  -3  -2   7   22.70    0.78
   2   2  -7    8.17    0.42
   2   2  -7    9.10    0.43
  -2  -2   7    8.91    0.37
  -2  -2   7    8.80    0.44
   1   2  -7   68.75    1.75
   1   2  -7   65.83    1.90
  -1  -2   7   68.58    1.76
  -1  -2   7   65.87    1.67
   0   2  -7  140.64    3.31
   0   2  -7  138.36    3.65
   0  -2   7  138.84    3.33
  -1   2  -7  300.96    7.54
  -1   2  -7  302.25    6.85
   1  -2   7  306.73    6.87
  -2   2  -7  185.54    4.80
  -2   2  -7  180.98    4.25
   2  -2   7  185.07    4.28
  -3   2  -7   57.80    1.86
   3  -2   7   59.33    1.54
   3  -2   7   57.24    1.58
  -4   2  -7    0.44    0.20
   4  -2   7    0.93    0.18
   4  -2   7    0.17    0.12
  -5   2  -7   31.80    1.29
   5  -2   7   31.18    1.06
  -6   2  -7   82.21    2.56
   6  -2   7   77.57    2.21
  -7   2  -7  108.74    3.27
   7  -2   7  105.42    2.90
   8  -2   7   66.24    2.08
   9   1  -7   52.82    1.88
  -9  -1   7   55.29    2.10
   8   1  -7   64.86    2.01
   8   1  -7   64.09    2.08
  -8  -1   7   63.93    2.23
   7   1  -7  117.21    3.07
   7   1  -7  115.04    3.16
  -7  -1   7  112.03    3.30
   6   1  -7   60.40    1.87
   6   1  -7   60.05    1.78
  -6  -1   7   60.35    1.92
   5   1  -7    6.12    0.41
   5   1  -7    5.47    0.43
  -5  -1   7    5.22    0.42
   4   1  -7   27.86    0.98
   4   1  -7   28.23    0.94
  -4  -1   7   25.54    0.96
   3   1  -7  121.40    2.99
   3   1  -7  126.46    3.00
  -3  -1   7  120.36    3.01
  -3  -1   7  119.62    3.12
   2   1  -7  151.70    3.79
   2   1  -7  151.02    3.59
  -2  -1   7  152.61    3.72
  -2  -1   7  151.44    3.60
   1   1  -7  384.18    9.41
   1   1  -7  398.87    8.71
  -1  -1   7  396.41    9.01
  -1  -1   7  378.71    8.71
   0   1  -7   95.37    2.71
   0   1  -7  101.92    2.46
   0  -1   7  104.02    2.50
   0  -1   7  103.40    2.37
  -1   1  -7    0.40    0.12
  -1   1  -7    0.33    0.15
   1  -1   7    0.07    0.11
  -2   1  -7   47.82    1.26
  -2   1  -7   45.01    1.52
  -2   1  -7   47.95    1.21
   2  -1   7   49.48    1.34
  -3   1  -7  112.93    3.20
  -3   1  -7  115.65    2.84
   3  -1   7  113.08    2.83
   3  -1   7  119.43    2.73
  -4   1  -7  179.56    4.92
   4  -1   7  184.83    4.42
   4  -1   7  194.05    4.28
  -5   1  -7  100.98    3.00
   5  -1   7  102.77    2.66
  -6   1  -7   33.36    1.36
   6  -1   7   33.83    1.19
  -7   1  -7    2.97    0.46
   7  -1   7    3.05    0.42
   8  -1   7   16.95    0.89
   9   0  -7   25.35    1.15
  -9   0   7   25.02    1.29
   8   0  -7    1.08    0.30
   8   0  -7    1.08    0.31
  -8   0   7    1.33    0.38
   7   0  -7   24.28    1.03
   7   0  -7   22.97    0.97
  -7   0   7   23.81    1.10
   6   0  -7   80.38    2.26
   6   0  -7   77.49    2.18
  -6   0   7   77.92    2.38
   5   0  -7  173.05    4.35
   5   0  -7  180.07    4.30
  -5   0   7  181.02    4.60
   4   0  -7  237.08    5.54
   4   0  -7  238.40    5.52
  -4   0   7  235.21    5.85
   3   0  -7   54.68    1.50
   3   0  -7   55.40    1.43
  -3   0   7   53.63    1.58
  -3   0   7   54.37    1.51
   2   0  -7    0.64    0.13
   2   0  -7    0.70    0.15
  -2   0   7    0.61    0.14
  -2   0   7    0.78    0.15
   1   0  -7   32.15    1.03
   1   0  -7   32.53    0.97
  -1   0   7   33.46    0.93
  -1   0   7   33.69    1.00
   0   0  -7  176.95    4.47
   0   0  -7  182.11    4.07
   0   0   7  171.92    4.16
   0   0   7  175.44    4.10
  -1   0  -7  230.03    5.53
  -1   0  -7  214.81    4.95
   1   0   7  215.37    5.03
   1   0   7  215.23    5.13
  -2   0  -7  156.43    3.58
  -2   0  -7  159.95    4.12
   2   0   7  149.61    3.75
   2   0   7  160.47    3.72
  -3   0  -7   29.27    1.12
  -3   0  -7   29.26    0.90
   3   0   7   29.49    0.96
   3   0   7   30.07    0.81
  -4   0  -7    1.30    0.20
  -4   0  -7    1.11    0.27
   4   0   7    0.73    0.18
  -5   0  -7   52.45    1.80
  -5   0  -7   52.78    1.59
   5   0   7   53.43    1.59
  -6   0  -7   75.25    2.40
   6   0   7   74.20    2.14
  -7   0  -7   57.95    2.04
   7   0   7   55.93    1.82
   8   0   7   28.80    1.23
   9  -1  -7   68.18    2.15
   9  -1  -7   68.46    2.14
  -9   1   7   66.75    2.38
   8  -1  -7  111.68    3.07
   8  -1  -7  110.65    3.07
  -8   1   7  113.76    3.36
   7  -1  -7   89.29    2.50
   7  -1  -7   87.63    2.48
  -7   1   7   88.21    2.69
   6  -1  -7   68.88    2.02
   6  -1  -7   69.54    2.01
  -6   1   7   70.53    2.18
   5  -1  -7    8.78    0.51
   5  -1  -7    9.36    0.53
  -5   1   7    8.98    0.56
   4  -1  -7   31.07    1.02
  -4   1   7   29.10    1.08
  -4   1   7   29.92    1.00
   3  -1  -7  135.26    3.19
   3  -1  -7  129.14    3.25
  -3   1   7  132.34    3.16
  -3   1   7  125.43    3.35
   2  -1  -7   96.93    2.35
   2  -1  -7   93.14    2.46
  -2   1   7   92.21    2.33
  -2   1   7   94.99    2.45
   1  -1  -7  200.71    4.57
   1  -1  -7  197.67    4.95
  -1   1   7  193.81    4.60
  -1   1   7  203.46    4.79
   0  -1  -7   59.87    1.52
   0  -1  -7   57.99    1.72
   0   1   7   60.18    1.57
   0   1   7   58.29    1.55
  -1  -1  -7    2.53    0.29
  -1  -1  -7    2.83    0.20
   1   1   7    2.56    0.23
   1   1   7    2.53    0.21
  -2  -1  -7   63.05    1.91
  -2  -1  -7   60.23    1.50
   2   1   7   60.64    1.67
   2   1   7   63.76    1.67
  -3  -1  -7  168.49    4.40
   3   1   7  165.00    3.94
   3   1   7  161.49    4.07
  -4  -1  -7  179.81    4.48
  -4  -1  -7  184.49    4.82
   4   1   7  174.12    4.47
   4   1   7  181.29    4.32
  -5  -1  -7   97.65    2.65
  -5  -1  -7   96.67    2.88
   5   1   7   95.00    2.57
  -6  -1  -7   11.00    0.71
  -6  -1  -7   10.46    0.62
   6   1   7   10.01    0.61
  -7  -1  -7    0.27    0.26
   7   1   7    0.56    0.26
   8   1   7   10.20    0.71
   9  -2  -7   21.02    1.04
  -9   2   7   20.12    1.11
   8  -2  -7    1.73    0.38
  -8   2   7    2.05    0.41
   7  -2  -7    9.59    0.60
   7  -2  -7    8.89    0.61
  -7   2   7    9.43    0.66
   6  -2  -7   94.25    2.52
   6  -2  -7   93.96    2.58
  -6   2   7   92.00    2.74
   5  -2  -7  171.35    4.28
  -5   2   7  175.23    4.57
  -5   2   7  176.07    4.21
   4  -2  -7   71.12    1.98
  -4   2   7   67.30    2.09
  -4   2   7   75.05    1.92
   3  -2  -7   58.64    1.55
   3  -2  -7   56.09    1.59
  -3   2   7   56.88    1.53
  -3   2   7   54.33    1.69
   2  -2  -7    4.22    0.28
   2  -2  -7    4.56    0.31
  -2   2   7    3.69    0.30
  -2   2   7    4.09    0.29
   1  -2  -7   68.00    1.72
   1  -2  -7   66.95    1.88
  -1   2   7   66.78    1.83
  -1   2   7   66.54    1.72
   0  -2  -7  239.43    5.29
   0  -2  -7  235.30    5.83
   0   2   7  235.00    5.62
   0   2   7  224.31    5.33
  -1  -2  -7  299.75    7.26
  -1  -2  -7  298.53    6.52
   1   2   7  288.92    6.62
   1   2   7  280.84    6.96
  -2  -2  -7  171.43    4.39
   2   2   7  159.17    4.12
   2   2   7  169.00    3.95
  -3  -2  -7   18.95    0.88
   3   2   7   19.18    0.77
   3   2   7   19.08    0.74
  -4  -2  -7    1.85    0.35
   4   2   7    0.81    0.21
   4   2   7    0.12    0.14
  -5  -2  -7   32.09    1.17
  -5  -2  -7   30.35    1.30
   5   2   7   30.35    1.11
  -6  -2  -7   66.56    2.07
  -6  -2  -7   64.63    2.22
   6   2   7   65.03    1.99
  -7  -2  -7   58.96    2.13
  -7  -2  -7   59.38    1.98
   7   2   7   58.69    1.93
   8  -3  -7  101.60    2.91
  -8   3   7  101.24    3.11
   7  -3  -7   88.25    2.61
  -7   3   7   95.13    2.83
   6  -3  -7   19.50    0.90
  -6   3   7   19.55    0.96
   5  -3  -7    1.50    0.29
  -5   3   7    0.86    0.26
   4  -3  -7   23.79    0.94
  -4   3   7   26.77    0.87
  -4   3   7   24.94    1.04
   3  -3  -7  139.27    3.36
   3  -3  -7  126.77    3.25
  -3   3   7  132.58    3.14
  -3   3   7  122.20    3.45
   2  -3  -7  226.42    5.60
   2  -3  -7  223.51    5.24
  -2   3   7  229.43    5.16
  -2   3   7  221.06    5.56
   1  -3  -7  135.38    3.55
   1  -3  -7  138.04    3.25
  -1   3   7  131.18    3.22
  -1   3   7  141.19    3.51
   0  -3  -7   20.49    0.66
   0  -3  -7   19.89    0.80
   0   3   7   20.56    0.70
   0   3   7   19.75    0.77
  -1  -3  -7    3.89    0.34
   1   3   7    4.43    0.35
   1   3   7    3.04    0.26
  -2  -3  -7   61.29    1.92
   2   3   7   61.83    1.68
   2   3   7   61.33    1.80
  -3  -3  -7  153.75    4.10
   3   3   7  149.29    3.66
   3   3   7  146.51    3.87
  -4  -3  -7   78.59    2.43
   4   3   7   75.82    2.11
   4   3   7   73.75    2.23
  -5  -3  -7   75.39    2.52
   5   3   7   76.64    2.19
   5   3   7   75.72    2.30
  -6  -3  -7   15.79    0.97
  -6  -3  -7   17.23    0.89
   6   3   7   15.77    0.83
  -7  -3  -7    0.05    0.27
  -7  -3  -7    0.22    0.25
   7   3   7   -0.01    0.23
   8  -4  -7    1.48    0.37
  -8   4   7    1.82    0.43
   7  -4  -7   25.19    1.12
   6  -4  -7   87.03    2.53
  -6   4   7   89.94    2.77
   5  -4  -7  110.38    3.00
  -5   4   7  112.88    3.26
   4  -4  -7   95.66    2.60
  -4   4   7   95.71    2.82
   3  -4  -7   91.04    2.45
   3  -4  -7   85.10    2.37
  -3   4   7   89.20    2.58
   2  -4  -7    0.81    0.19
   2  -4  -7    0.60    0.18
  -2   4   7    0.76    0.21
   1  -4  -7   60.75    1.65
   1  -4  -7   59.21    1.81
  -1   4   7   59.82    1.57
  -1   4   7   61.38    1.82
   0  -4  -7  158.47    3.71
   0  -4  -7  155.53    4.17
   0   4   7  162.18    4.09
   0   4   7  158.40    3.72
  -1  -4  -7  144.58    3.83
   1   4   7  138.93    3.38
   1   4   7  142.34    3.72
  -2  -4  -7   95.08    2.78
   2   4   7   93.23    2.43
   2   4   7   98.63    2.68
  -3  -4  -7   63.00    2.06
   3   4   7   62.67    1.95
   3   4   7   62.92    1.78
  -4  -4  -7    2.62    0.41
   4   4   7    3.08    0.41
   4   4   7    2.67    0.35
  -5  -4  -7   26.09    1.26
   5   4   7   25.67    1.05
   5   4   7   26.93    1.16
  -6  -4  -7   38.67    1.51
  -6  -4  -7   37.35    1.66
   6   4   7   37.34    1.49
   6   4   7   36.54    1.40
  -7  -4  -7   54.25    1.94
  -7  -4  -7   48.92    2.04
   7   4   7   51.13    1.82
   7  -5  -7   65.33    2.14
  -7   5   7   68.94    2.38
   6  -5  -7   48.26    1.67
  -6   5   7   47.75    1.84
   5  -5  -7    1.02    0.29
  -5   5   7    0.48    0.26
   4  -5  -7   29.41    1.12
  -4   5   7   28.58    1.25
   3  -5  -7   64.78    1.90
   3  -5  -7   65.55    1.97
  -3   5   7   60.94    2.03
   2  -5  -7  139.11    3.49
   2  -5  -7  137.15    3.75
  -2   5   7  140.21    3.74
   1  -5  -7   68.37    1.86
   1  -5  -7   65.34    2.06
  -1   5   7   68.65    2.06
   0  -5  -7   11.36    0.66
   0   5   7   12.10    0.66
  -1  -5  -7    8.66    0.58
   1   5   7    9.43    0.59
  -2  -5  -7   45.33    1.64
   2   5   7   46.92    1.58
   2   5   7   46.08    1.37
  -3  -5  -7   91.65    2.83
   3   5   7   92.76    2.47
   3   5   7   92.79    2.71
  -4  -5  -7   82.52    2.68
   4   5   7   81.20    2.54
   4   5   7   85.95    2.35
  -5  -5  -7   28.38    1.40
   5   5   7   31.32    1.22
   5   5   7   33.15    1.35
  -6  -5  -7   10.28    0.86
   6   5   7    8.76    0.70
   6   5   7    9.53    0.68
   6  -6  -7   57.41    1.94
  -6   6   7   59.31    2.20
   5  -6  -7   82.59    2.45
  -5   6   7   82.57    2.73
   4  -6  -7   66.15    2.01
  -4   6   7   62.68    2.19
   3  -6  -7    6.17    0.52
   3  -6  -7    6.03    0.49
  -3   6   7    6.18    0.54
   2  -6  -7   10.72    0.66
   2  -6  -7    9.09    0.57
  -2   6   7    8.96    0.62
   1  -6  -7   54.12    1.85
  -1   6   7   54.82    1.82
   0  -6  -7  102.79    3.07
   0   6   7  103.93    2.98
  -1  -6  -7  139.67    4.02
   1   6   7  144.83    3.90
  -2  -6  -7   54.13    1.94
   2   6   7   56.59    1.89
  -3  -6  -7   14.38    0.87
   3   6   7   13.89    0.81
  -4  -6  -7    0.72    0.31
   4   6   7    1.00    0.33
  -5  -6  -7   12.78    0.93
   5   6   7   12.98    0.84
   5  -7  -7    0.58    0.30
  -5   7   7    0.25    0.31
   4  -7  -7   26.50    1.16
  -4   7   7   26.80    1.30
   3  -7  -7   78.12    2.33
   3  -7  -7   78.92    2.52
  -3   7   7   74.48    2.49
   2  -7  -7   89.44    2.82
  -2   7   7   87.68    2.74
   1  -7  -7   78.34    2.57
  -1   7   7   78.59    2.48
   0  -7  -7   12.98    0.83
   0   7   7   11.37    0.76
  -1  -7  -7    0.97    0.32
   1   7   7    0.91    0.32
  -2  -7  -7   28.00    1.34
   2   7   7   28.89    1.28
  -3  -7  -7   49.33    1.93
   3   7   7   48.62    1.82
  -4  -7  -7   61.66    2.32
   4   7   7   62.32    2.19
   4  -8  -7   48.54    1.75
  -4   8   7   46.98    1.92
  -3   8   7   13.79    0.92
   2  -8  -7    3.61    0.56
  -2   8   7    4.00    0.56
   1  -8  -7   30.94    1.46
  -1   8   7   32.64    1.42
   0  -8  -7   63.15    2.32
   0   8   7   62.66    2.21
  -1  -8  -7   55.49    2.14
   1   8   7   56.00    2.03
  -2  -8  -7   26.46    1.37
   2   8   7   26.18    1.28
   2   9  -8   13.90    0.91
  -2  -9   8   13.06    0.77
   1   9  -8   31.25    1.45
  -1  -9   8   29.60    1.22
   0   9  -8   35.84    1.61
   0  -9   8   34.02    1.35
  -1   9  -8   59.11    2.29
   1  -9   8   59.37    1.96
  -2   9  -8   12.30    0.93
   2  -9   8   13.46    0.81
   3   8  -8   53.76    1.89
  -3  -8   8   54.07    1.73
   2   8  -8   42.24    1.62
  -2  -8   8   40.63    1.42
   1   8  -8   21.19    1.11
  -1  -8   8   20.49    0.93
   0   8  -8    1.80    0.42
   0  -8   8    1.65    0.33
  -1   8  -8   18.01    1.05
   1  -8   8   16.71    0.85
  -2   8  -8   65.52    2.35
   2  -8   8   62.55    2.00
  -3   8  -8  111.21    3.47
   3  -8   8  107.43    3.06
  -4   8  -8   93.10    3.10
   4  -8   8   96.22    2.81
   6   7  -8   58.96    1.95
   5   7  -8   65.79    2.01
   4   7  -8   23.90    0.96
  -4  -7   8   23.17    1.00
   3   7  -8    1.67    0.33
   3   7  -8    2.17    0.33
   2   7  -8   14.61    0.83
  -2  -7   8   15.74    0.75
   1   7  -8   72.86    2.36
  -1  -7   8   70.11    2.07
   0   7  -8  128.32    3.77
   0  -7   8  127.64    3.33
  -1   7  -8  103.96    3.21
   1  -7   8  103.34    2.80
  -2   7  -8   42.95    1.70
   2  -7   8   42.34    1.45
  -3   7  -8    0.03    0.24
   3  -7   8    0.45    0.24
  -4   7  -8   15.27    0.96
   4  -7   8   15.26    0.83
  -5   7  -8   49.52    1.97
   5  -7   8   49.29    1.73
   7   6  -8   10.62    0.77
  -7  -6   8   13.18    0.81
   6   6  -8    2.84    0.42
  -6  -6   8    2.78    0.42
   5   6  -8   20.05    0.92
   4   6  -8   97.38    2.59
   4   6  -8   94.42    2.60
  -4  -6   8   95.55    2.64
   3   6  -8   91.36    2.62
   3   6  -8   93.45    2.46
  -3  -6   8   86.93    2.45
   2   6  -8   42.98    1.52
   2   6  -8   43.14    1.38
  -2  -6   8   43.48    1.37
   1   6  -8   55.78    1.91
   1   6  -8   57.38    1.68
  -1  -6   8   56.56    1.63
   0   6  -8    0.18    0.19
   0  -6   8    0.44    0.19
  -1   6  -8   37.19    1.47
   1  -6   8   35.66    1.23
  -2   6  -8   72.66    2.44
   2  -6   8   75.05    2.11
  -3   6  -8   98.43    3.05
   3  -6   8   97.53    2.66
  -4   6  -8   83.85    2.73
   4  -6   8   82.56    2.37
  -5   6  -8   30.75    1.41
   5  -6   8   31.02    1.23
  -6   6  -8    2.02    0.44
   6  -6   8    0.72    0.32
   7   5  -8   27.94    1.26
  -7  -5   8   31.27    1.27
   6   5  -8   79.46    2.43
  -6  -5   8   84.48    2.45
   5   5  -8   72.33    2.07
   5   5  -8   72.39    2.16
  -5  -5   8   74.29    2.14
   4   5  -8    5.93    0.44
   4   5  -8    5.85    0.46
  -4  -5   8    6.08    0.42
   3   5  -8    1.10    0.23
   3   5  -8    0.90    0.23
  -3  -5   8    0.89    0.23
   2   5  -8   20.11    0.86
   2   5  -8   19.37    0.79
  -2  -5   8   20.23    0.80
   1   5  -8  115.01    3.20
   1   5  -8  114.66    2.88
  -1  -5   8  109.36    2.84
   0   5  -8  175.18    4.70
   0   5  -8  175.67    4.19
   0  -5   8  170.55    4.16
  -1   5  -8   89.36    2.73
   1  -5   8   88.09    2.27
   1  -5   8   90.62    2.39
  -2   5  -8   42.33    1.60
   2  -5   8   42.99    1.25
   2  -5   8   40.34    1.32
  -3   5  -8    1.65    0.35
   3  -5   8    1.00    0.24
  -4   5  -8   34.21    1.44
   4  -5   8   31.48    1.15
  -5   5  -8  140.50    4.12
   5  -5   8  139.33    3.60
  -6   5  -8   97.52    3.13
   6  -5   8   95.27    2.70
  -7   5  -8   61.80    2.31
   8   4  -8   46.93    1.77
  -8  -4   8   50.96    1.84
   7   4  -8   25.36    1.16
  -7  -4   8   27.48    1.16
   6   4  -8    1.34    0.29
   6   4  -8    0.39    0.24
  -6  -4   8    0.47    0.22
   5   4  -8   35.45    1.23
   5   4  -8   38.28    1.35
  -5  -4   8   38.51    1.28
   4   4  -8   90.98    2.48
   4   4  -8   95.33    2.55
  -4  -4   8   97.20    2.53
   3   4  -8  119.96    3.03
   3   4  -8  125.88    3.18
  -3  -4   8  118.51    3.03
  -3  -4   8  116.24    3.06
   2   4  -8  137.17    3.37
   2   4  -8  138.16    3.62
  -2  -4   8  134.63    3.37
   1   4  -8   39.81    1.21
   1   4  -8   38.46    1.34
  -1  -4   8   36.43    1.17
   0   4  -8    0.90    0.20
   0   4  -8    0.40    0.18
   0  -4   8    0.42    0.16
  -1   4  -8   33.14    1.31
  -1   4  -8   34.40    1.09
   1  -4   8   35.34    1.07
  -2   4  -8  188.07    5.04
   2  -4   8  182.60    4.45
   2  -4   8  189.21    4.40
  -3   4  -8  216.02    5.78
   3  -4   8  218.64    5.08
   3  -4   8  216.62    5.13
  -4   4  -8   71.08    2.38
   4  -4   8   72.46    1.96
   4  -4   8   73.55    2.01
  -5   4  -8   60.58    2.14
   5  -4   8   58.29    1.76
   5  -4   8   61.44    1.73
  -6   4  -8    0.42    0.31
  -7   4  -8   16.76    1.05
   8   3  -8   11.26    0.78
  -8  -3   8   11.47    0.79
   7   3  -8   65.95    2.00
   7   3  -8   65.33    2.13
  -7  -3   8   69.17    2.18
   6   3  -8  105.78    2.81
   6   3  -8  106.21    2.96
  -6  -3   8  105.12    2.96
   5   3  -8   35.75    1.19
  -5  -3   8   35.79    1.23
   4   3  -8   19.16    0.80
   4   3  -8   20.24    0.78
  -4  -3   8   17.21    0.72
   3   3  -8    0.23    0.11
   3   3  -8    0.04    0.12
  -3  -3   8    0.07    0.12
  -3  -3   8    0.35    0.13
   2   3  -8   74.08    2.05
   2   3  -8   71.16    1.92
  -2  -3   8   70.43    1.84
  -2  -3   8   72.95    1.95
   1   3  -8   98.96    2.78
   1   3  -8  100.83    2.53
  -1  -3   8   99.12    2.52
   0   3  -8  212.78    4.93
   0   3  -8  209.69    5.44
   0  -3   8  208.90    4.93
  -1   3  -8  183.59    4.83
  -1   3  -8  179.62    4.30
   1  -3   8  184.51    4.30
  -2   3  -8   40.70    1.49
   2  -3   8   41.84    1.24
   2  -3   8   43.46    1.26
  -3   3  -8    0.46    0.22
   3  -3   8    0.37    0.15
   3  -3   8    0.91    0.19
  -4   3  -8   40.68    1.56
   4  -3   8   41.50    1.27
   4  -3   8   41.10    1.25
  -5   3  -8   60.36    2.09
   5  -3   8   57.61    1.72
   5  -3   8   62.06    1.72
  -6   3  -8  128.18    3.75
   6  -3   8  122.18    3.22
  -7   3  -8   75.52    2.51
   7  -3   8   67.28    2.09
  -9  -2   8   51.02    2.01
   8   2  -8   50.36    1.78
  -8  -2   8   49.01    1.85
   7   2  -8   26.64    1.08
   7   2  -8   25.43    1.14
  -7  -2   8   26.43    1.17
   6   2  -8    6.32    0.48
   6   2  -8    6.53    0.53
  -6  -2   8    6.66    0.50
   5   2  -8   64.32    1.95
   5   2  -8   65.19    1.86
  -5  -2   8   65.68    1.94
   4   2  -8   60.16    1.76
   4   2  -8   59.96    1.71
  -4  -2   8   59.61    1.73
   3   2  -8  156.84    3.81
  -3  -2   8  161.04    3.93
  -3  -2   8  157.10    3.85
   2   2  -8  356.65    8.09
   2   2  -8  365.21    8.70
  -2  -2   8  348.27    8.10
  -2  -2   8  360.89    8.41
   1   2  -8   69.59    2.02
   1   2  -8   71.05    1.85
  -1  -2   8   71.07    1.72
  -1  -2   8   68.48    1.86
   0   2  -8    0.72    0.16
   0   2  -8    0.99    0.21
   0  -2   8    0.87    0.17
  -1   2  -8   60.47    1.59
  -1   2  -8   55.49    1.82
   1  -2   8   59.80    1.60
  -2   2  -8  100.75    2.90
  -2   2  -8  102.17    2.50
   2  -2   8  100.80    2.54
  -3   2  -8  180.35    5.00
   3  -2   8  194.79    4.42
   3  -2   8  190.82    4.48
  -4   2  -8  141.99    4.05
   4  -2   8  151.32    3.50
   4  -2   8  144.57    3.58
  -5   2  -8   23.43    1.11
   5  -2   8   23.31    0.89
  -6   2  -8    1.63    0.36
   6  -2   8    1.71    0.30
  -7   2  -8   32.41    1.43
   7  -2   8   29.87    1.19
   8  -2   8   64.37    2.07
   9   1  -8    0.91    0.32
  -9  -1   8    0.62    0.34
   8   1  -8   18.28    0.95
   8   1  -8   15.53    0.85
  -8  -1   8   17.33    0.99
   7   1  -8   73.25    2.15
   7   1  -8   72.03    2.22
  -7  -1   8   69.66    2.30
   6   1  -8   94.62    2.69
   6   1  -8   97.29    2.62
  -6  -1   8   95.88    2.79
   5   1  -8   65.79    1.94
   5   1  -8   65.48    1.88
  -5  -1   8   64.86    1.99
   4   1  -8   66.40    1.87
   4   1  -8   63.97    1.82
  -4  -1   8   64.90    1.86
  -4  -1   8   65.37    1.91
   3   1  -8    8.26    0.45
  -3  -1   8    8.81    0.46
  -3  -1   8    8.86    0.48
   2   1  -8   74.56    1.93
   2   1  -8   73.96    2.01
  -2  -1   8   73.02    1.92
  -2  -1   8   72.40    1.93
   1   1  -8  173.44    4.64
   1   1  -8  189.94    4.30
  -1  -1   8  189.64    4.33
  -1  -1   8  181.77    4.33
   0   1  -8  113.14    2.72
   0   1  -8  105.52    3.00
   0  -1   8  113.77    2.62
   0  -1   8  113.40    2.75
  -1   1  -8   96.31    2.74
  -1   1  -8   97.01    2.41
   1  -1   8  101.03    2.47
  -2   1  -8   25.57    1.03
  -2   1  -8   25.62    0.80
   2  -1   8   26.80    0.89
  -3   1  -8    1.66    0.30
   3  -1   8    1.07    0.17
   3  -1   8    1.57    0.23
  -4   1  -8   81.79    2.51
   4  -1   8   81.95    2.19
  -5   1  -8  112.95    3.31
   5  -1   8  113.30    2.93
  -6   1  -8  111.93    3.35
   6  -1   8  111.84    2.98
  -7   1  -8   55.72    2.03
   7  -1   8   55.15    1.80
  -8   1  -8   11.79    0.86
   8  -1   8   11.41    0.74
   9   0  -8   58.26    1.95
   9   0  -8   55.27    1.91
  -9   0   8   56.29    2.13
   8   0  -8   40.02    1.46
   8   0  -8   38.79    1.48
  -8   0   8   41.40    1.62
   7   0  -8    1.30    0.30
   7   0  -8    0.85    0.29
  -7   0   8    1.03    0.30
   6   0  -8    1.90    0.33
   6   0  -8    1.46    0.28
  -6   0   8    1.61    0.31
   5   0  -8   13.95    0.68
   5   0  -8   13.14    0.65
  -5   0   8   13.80    0.71
   4   0  -8  205.74    4.89
  -4   0   8  205.74    4.91
  -4   0   8  206.20    5.16
   3   0  -8  265.78    5.94
  -3   0   8  251.55    6.20
  -3   0   8  250.74    5.91
   2   0  -8   71.13    1.85
   2   0  -8   68.68    1.89
  -2   0   8   70.69    1.85
  -2   0   8   67.33    1.83
   1   0  -8   22.94    0.77
   1   0  -8   23.54    0.84
  -1   0   8   22.66    0.81
  -1   0   8   23.72    0.72
   0   0  -8    3.63    0.31
   0   0  -8    2.63    0.24
   0   0   8    3.98    0.21
   0   0   8    3.44    0.27
  -1   0  -8   60.54    1.55
  -1   0  -8   59.86    1.82
   1   0   8   59.79    1.53
   1   0   8   59.79    1.63
  -2   0  -8  209.71    4.79
  -2   0  -8  219.05    5.44
   2   0   8  200.21    4.98
   2   0   8  213.72    4.93
  -3   0  -8  188.57    4.60
  -3   0  -8  194.92    5.03
   3   0   8  189.32    4.53
  -4   0  -8  123.26    3.47
   4   0   8  122.39    3.10
  -5   0  -8   20.69    0.99
   5   0   8   20.73    0.86
  -6   0  -8    0.75    0.29
   6   0   8    1.44    0.30
  -7   0  -8   32.83    1.43
   7   0   8   30.72    1.25
  -8   0  -8   51.27    1.98
   9  -1  -8    0.47    0.30
   9  -1  -8    0.83    0.35
  -9   1   8    1.02    0.37
   8  -1  -8   25.53    1.12
   8  -1  -8   28.13    1.16
  -8   1   8   25.13    1.21
   7  -1  -8   74.03    2.20
   7  -1  -8   74.15    2.20
  -7   1   8   74.33    2.36
   6  -1  -8  115.22    3.08
   6  -1  -8  114.93    3.07
  -6   1   8  119.50    3.29
   5  -1  -8  134.01    3.41
  -5   1   8  136.59    3.62
  -5   1   8  132.25    3.39
   4  -1  -8   72.83    1.99
  -4   1   8   70.78    2.11
  -4   1   8   73.62    1.98
   3  -1  -8    4.37    0.33
  -3   1   8    4.19    0.31
  -3   1   8    4.13    0.34
   2  -1  -8   31.61    1.04
   2  -1  -8   33.45    1.01
  -2   1   8   31.35    1.00
  -2   1   8   32.88    1.03
   1  -1  -8  120.91    2.92
   1  -1  -8  119.61    3.19
  -1   1   8  123.34    3.02
  -1   1   8  119.11    2.94
   0  -1  -8  300.09    6.53
   0  -1  -8  289.01    7.18
   0   1   8  279.65    6.55
   0   1   8  285.30    6.81
  -1  -1  -8  164.99    4.35
  -1  -1  -8  169.12    3.81
   1   1   8  160.69    3.91
   1   1   8  165.60    4.01
  -2  -1  -8   26.02    0.76
  -2  -1  -8   26.86    1.06
   2   1   8   26.62    0.91
   2   1   8   27.02    0.87
  -3  -1  -8    1.26    0.28
   3   1   8    0.90    0.19
   3   1   8    1.50    0.22
  -4  -1  -8   63.25    1.80
  -4  -1  -8   63.84    2.06
   4   1   8   61.06    1.79
   4   1   8   62.17    1.80
  -5  -1  -8  122.22    3.51
   5   1   8  119.00    3.14
  -6  -1  -8   92.09    2.85
   6   1   8   89.78    2.56
  -7  -1  -8   49.74    1.85
   7   1   8   45.72    1.64
   8  -2  -8   65.18    2.09
  -8   2   8   66.24    2.24
   7  -2  -8   14.97    0.76
   7  -2  -8   14.35    0.79
  -7   2   8   14.71    0.84
   6  -2  -8    0.34    0.22
  -6   2   8    1.03    0.24
  -6   2   8    0.50    0.23
   5  -2  -8   46.63    1.49
  -5   2   8   45.25    1.58
  -5   2   8   46.04    1.42
   4  -2  -8  123.07    3.12
  -4   2   8  116.49    3.29
  -4   2   8  125.49    3.04
   3  -2  -8  166.19    3.96
  -3   2   8  158.88    4.17
  -3   2   8  165.09    3.90
   2  -2  -8  127.23    3.13
   2  -2  -8  136.04    3.34
  -2   2   8  123.27    3.30
  -2   2   8  126.61    3.13
   1  -2  -8   43.79    1.37
   1  -2  -8   43.95    1.24
  -1   2   8   44.69    1.26
  -1   2   8   44.02    1.32
   0  -2  -8    0.31    0.12
   0  -2  -8    0.26    0.14
   0   2   8    0.49    0.14
   0   2   8    1.02    0.18
  -1  -2  -8   42.33    1.45
  -1  -2  -8   44.76    1.17
   1   2   8   43.45    1.28
   1   2   8   43.00    1.29
  -2  -2  -8  154.85    4.15
   2   2   8  155.25    3.73
   2   2   8  151.02    3.85
  -3  -2  -8   82.90    2.55
   3   2   8   82.35    2.22
   3   2   8   83.28    2.29
  -4  -2  -8   54.02    1.89
   4   2   8   53.41    1.66
   4   2   8   53.77    1.62
  -5  -2  -8   13.08    0.68
  -5  -2  -8   10.85    0.74
   5   2   8   12.35    0.67
  -6  -2  -8    3.50    0.51
   6   2   8    4.34    0.49
  -7  -2  -8   36.12    1.57
   7   2   8   35.79    1.41
   8  -3  -8   28.35    1.24
  -8   3   8   28.51    1.32
   7  -3  -8   72.93    2.24
  -7   3   8   73.08    2.38
   6  -3  -8   59.75    1.92
  -6   3   8   64.32    2.10
   5  -3  -8   93.27    2.58
  -5   3   8   92.41    2.76
   4  -3  -8   36.82    1.26
  -4   3   8   39.55    1.18
  -4   3   8   34.17    1.33
   3  -3  -8    2.52    0.26
   3  -3  -8    2.34    0.31
  -3   3   8    2.97    0.28
  -3   3   8    2.02    0.31
   2  -3  -8   45.14    1.34
   2  -3  -8   45.86    1.42
  -2   3   8   47.87    1.30
  -2   3   8   43.92    1.44
   1  -3  -8   98.84    2.73
   1  -3  -8   99.02    2.47
  -1   3   8   99.20    2.66
  -1   3   8  100.96    2.48
   0  -3  -8  142.07    3.25
   0  -3  -8  136.47    3.65
   0   3   8  134.76    3.51
   0   3   8  132.44    3.29
  -1  -3  -8   90.54    2.63
   1   3   8   92.46    2.50
   1   3   8   91.77    2.35
  -2  -3  -8   16.92    0.82
   2   3   8   16.21    0.73
   2   3   8   16.61    0.69
  -3  -3  -8   27.57    1.16
   3   3   8   25.04    0.94
   3   3   8   25.93    1.01
  -4  -3  -8   54.43    1.97
   4   3   8   54.76    1.76
   4   3   8   56.89    1.70
  -5  -3  -8  111.77    3.45
   5   3   8  112.09    3.16
   5   3   8  112.56    3.02
  -6  -3  -8  110.02    3.47
  -6  -3  -8  116.97    3.24
   6   3   8  107.88    3.09
  -7  -3  -8   49.20    1.96
   7   3   8   47.94    1.75
   8  -4  -8   28.34    1.27
  -8   4   8   28.13    1.35
   7  -4  -8   18.76    0.98
  -7   4   8   19.57    1.05
   6  -4  -8    0.26    0.25
  -6   4   8    0.25    0.25
   5  -4  -8   54.04    1.75
  -5   4   8   54.07    1.90
   4  -4  -8  118.73    3.12
  -4   4   8  117.48    3.35
   3  -4  -8  113.21    3.00
   3  -4  -8  118.94    3.12
  -3   4   8  115.33    3.22
   2  -4  -8  147.21    3.66
   2  -4  -8  151.81    3.94
  -2   4   8  148.73    3.92
   1  -4  -8   35.96    1.12
   1  -4  -8   35.66    1.27
  -1   4   8   36.15    1.08
  -1   4   8   37.08    1.26
   0  -4  -8    7.83    0.52
   0   4   8    6.87    0.48
   0   4   8    7.43    0.41
  -1  -4  -8   64.21    2.07
   1   4   8   68.27    2.00
   1   4   8   67.36    1.81
  -2  -4  -8  100.09    2.92
   2   4   8   99.38    2.77
   2   4   8   98.30    2.56
  -3  -4  -8  132.30    3.80
   3   4   8  133.53    3.61
   3   4   8  134.35    3.38
  -4  -4  -8   66.61    2.30
   4   4   8   69.46    2.01
   4   4   8   67.50    2.12
  -5  -4  -8    9.50    0.78
   5   4   8   10.22    0.68
   5   4   8    9.92    0.64
  -6  -4  -8    6.07    0.68
  -6  -4  -8    5.20    0.60
   6   4   8    4.82    0.56
   6   4   8    4.65    0.56
   7  -5  -8   54.98    1.90
  -7   5   8   55.38    2.08
   6  -5  -8  115.46    3.21
  -6   5   8  115.09    3.50
   5  -5  -8   62.78    1.98
  -5   5   8   62.76    2.19
   4  -5  -8   10.49    0.65
  -4   5   8    9.99    0.70
   3  -5  -8    1.21    0.27
  -3   5   8    1.22    0.30
   2  -5  -8   21.85    0.93
   2  -5  -8   20.96    0.86
  -2   5   8   21.36    0.95
   1  -5  -8  111.40    3.23
   1  -5  -8  118.90    2.92
  -1   5   8  113.69    3.17
   0  -5  -8   97.74    2.86
   0   5   8   97.25    2.77
  -1  -5  -8   39.99    1.51
   1   5   8   41.94    1.46
  -2  -5  -8    9.81    0.67
   2   5   8   10.49    0.66
  -3  -5  -8    4.05    0.51
   3   5   8    4.43    0.47
   3   5   8    4.07    0.39
  -4  -5  -8   43.65    1.76
   4   5   8   44.60    1.51
   4   5   8   45.44    1.64
  -5  -5  -8   59.29    2.25
   5   5   8   60.47    1.94
   5   5   8   60.35    2.07
   6  -6  -8    1.46    0.37
  -6   6   8    1.38    0.43
   5  -6  -8   31.72    1.27
  -5   6   8   29.95    1.41
   4  -6  -8   70.50    2.13
  -4   6   8   67.21    2.31
   3  -6  -8  111.17    3.02
  -3   6   8  111.09    3.26
   2  -6  -8   56.04    1.91
   2  -6  -8   58.29    1.76
  -2   6   8   55.41    1.90
   1  -6  -8   14.24    0.80
  -1   6   8   13.68    0.79
   0  -6  -8    1.18    0.30
   0   6   8    0.18    0.21
  -1  -6  -8   47.74    1.76
   1   6   8   48.21    1.69
  -2  -6  -8   80.70    2.66
   2   6   8   84.95    2.57
  -3  -6  -8   76.15    2.57
   3   6   8   75.12    2.40
  -4  -6  -8   36.80    1.65
   4   6   8   40.49    1.57
   5  -7  -8   42.82    1.60
  -5   7   8   42.61    1.79
   4  -7  -8   11.57    0.74
  -4   7   8   11.55    0.83
   3  -7  -8    1.58    0.36
  -3   7   8    1.62    0.39
   2  -7  -8   24.81    1.18
  -2   7   8   23.43    1.14
   1  -7  -8   85.09    2.75
  -1   7   8   83.46    2.64
   0  -7  -8   75.39    2.55
   0   7   8   76.57    2.45
  -1  -7  -8   35.19    1.54
   1   7   8   35.46    1.46
  -2  -7  -8    2.65    0.48
   2   7   8    1.88    0.40
  -3  -7  -8    7.78    0.72
   3   7   8    8.67    0.72
   2  -8  -8   34.22    1.54
  -2   8   8   33.85    1.50
   1  -8  -8    7.52    0.71
  -1   8   8    7.66    0.67
   0  -8  -8    5.23    0.68
   0   8   8    5.04    0.63
  -1  -8  -8   34.46    1.60
   1   8   8   33.29    1.46
   2   9  -9   20.68    1.14
  -2  -9   9   19.24    0.96
   1   9  -9    0.43    0.34
  -1  -9   9    0.60    0.28
   0   9  -9    5.88    0.73
   0  -9   9    5.14    0.58
  -1   9  -9   35.13    1.68
   1  -9   9   36.83    1.43
  -3  -8   9   11.54    0.71
   2   8  -9   64.13    2.21
  -2  -8   9   63.02    1.98
   1   8  -9   95.88    3.03
  -1  -8   9   91.42    2.65
   0   8  -9   58.03    2.17
   0  -8   9   58.41    1.87
  -1   8  -9   20.58    1.17
   1  -8   9   19.81    0.96
  -2   8  -9   -0.12    0.27
   2  -8   9    0.29    0.25
  -3   8  -9   15.72    1.03
   3  -8   9   14.33    0.84
  -4   8  -9   46.49    1.96
   4  -8   9   49.40    1.77
   6   7  -9    9.65    0.70
  -5  -7   9   43.27    1.56
   4   7  -9   72.12    2.11
  -4  -7   9   70.20    2.14
   3   7  -9   59.82    1.83
   2   7  -9   18.51    0.95
   2   7  -9   18.59    0.85
   1   7  -9    0.34    0.25
  -1  -7   9    0.57    0.23
   0   7  -9   28.34    1.32
   0  -7   9   29.33    1.12
  -1   7  -9   75.81    2.56
   1  -7   9   74.88    2.20
  -2   7  -9   67.17    2.37
   2  -7   9   67.02    2.05
  -3   7  -9   45.29    1.85
   3  -7   9   46.93    1.60
  -4   7  -9   34.00    1.56
   4  -7   9   33.84    1.34
  -5   7  -9    0.28    0.30
   5  -7   9    0.03    0.26
   6   6  -9   23.32    1.07
   5   6  -9   19.90    0.94
   5   6  -9   21.26    0.93
  -5  -6   9   20.60    0.98
   4   6  -9    0.14    0.21
  -4  -6   9    0.00    0.18
   3   6  -9   57.76    1.75
  -3  -6   9   56.25    1.75
   2   6  -9   95.21    2.54
   2   6  -9   94.01    2.77
  -2  -6   9   90.88    2.51
   1   6  -9  128.40    3.60
   1   6  -9  123.56    3.20
  -1  -6   9  122.05    3.17
   0   6  -9   85.47    2.70
   0  -6   9   85.87    2.38
   0  -6   9   85.45    2.28
  -1   6  -9   16.18    0.93
   1  -6   9   16.45    0.78
  -2   6  -9    3.46    0.50
   2  -6   9    3.01    0.38
  -3   6  -9   11.60    0.81
   3  -6   9   11.48    0.67
  -4   6  -9   98.24    3.10
   4  -6   9   92.42    2.66
  -5   6  -9  102.42    3.30
   5  -6   9  102.22    2.89
  -6   6  -9   40.88    1.78
   6  -6   9   40.65    1.54
   7   5  -9    0.69    0.30
   6   5  -9   10.92    0.73
   5   5  -9   84.07    2.38
   5   5  -9   85.99    2.45
   4   5  -9  145.32    3.61
  -4  -5   9  138.05    3.65
   3   5  -9   97.18    2.59
  -3  -5   9   95.82    2.60
   2   5  -9   14.59    0.72
   2   5  -9   13.04    0.65
  -2  -5   9   12.67    0.63
   1   5  -9    3.67    0.39
   1   5  -9    2.68    0.33
  -1  -5   9    3.37    0.33
   0   5  -9   48.59    1.48
   0   5  -9   47.15    1.71
   0  -5   9   47.56    1.44
  -1   5  -9  106.54    3.21
   1  -5   9  107.90    2.82
   1  -5   9  107.09    2.71
  -2   5  -9  148.10    4.24
   2  -5   9  147.82    3.62
   2  -5   9  149.26    3.73
  -3   5  -9  141.72    4.14
   3  -5   9  139.29    3.61
   3  -5   9  146.51    3.53
  -4   5  -9   33.68    1.49
   4  -5   9   33.19    1.21
  -5   5  -9    3.36    0.55
   5  -5   9    3.17    0.42
  -6   5  -9   14.16    0.98
   6  -5   9   12.78    0.77
  -8  -4   9   45.43    1.76
   7   4  -9   68.70    2.25
  -7  -4   9   71.03    2.25
   6   4  -9   59.32    1.86
   6   4  -9   62.12    2.00
  -6  -4   9   63.74    1.96
   5   4  -9   39.18    1.39
   5   4  -9   37.63    1.31
  -5  -4   9   40.25    1.34
   4   4  -9    8.85    0.52
  -4  -4   9    8.91    0.57
   3   4  -9   70.33    1.97
  -3  -4   9   70.60    2.01
   2   4  -9   99.08    2.67
   2   4  -9   90.73    2.47
  -2  -4   9   92.62    2.48
   1   4  -9   97.14    2.83
   1   4  -9   99.92    2.58
  -1  -4   9   98.05    2.56
   0   4  -9  136.68    3.36
   0   4  -9  134.57    3.77
   0  -4   9  132.17    3.33
  -1   4  -9   74.15    2.35
  -1   4  -9   72.58    2.00
   1  -4   9   73.07    1.96
  -2   4  -9    0.26    0.19
   2  -4   9    0.05    0.13
   2  -4   9    0.46    0.19
  -3   4  -9   47.34    1.78
   3  -4   9   47.26    1.46
   3  -4   9   48.74    1.45
  -4   4  -9   49.52    1.88
   4  -4   9   50.20    1.51
   4  -4   9   50.57    1.54
  -5   4  -9   80.09    2.73
   5  -4   9   83.97    2.30
   5  -4   9   82.07    2.27
  -6   4  -9   66.08    2.40
  -7   4  -9   18.68    1.15
   8   3  -9   14.37    0.91
  -8  -3   9   15.05    0.92
   7   3  -9    0.28    0.25
   7   3  -9    0.45    0.25
  -7  -3   9    0.37    0.25
   6   3  -9   21.34    1.02
   6   3  -9   23.52    0.96
  -6  -3   9   22.35    0.99
   5   3  -9   84.71    2.43
   5   3  -9   85.65    2.34
  -5  -3   9   84.42    2.40
   4   3  -9   91.20    2.43
  -4  -3   9   91.62    2.46
  -4  -3   9   90.71    2.51
   3   3  -9   35.95    1.16
  -3  -3   9   35.40    1.19
   2   3  -9   15.78    0.67
   2   3  -9   15.78    0.70
  -2  -3   9   15.51    0.67
   1   3  -9    9.53    0.57
   1   3  -9    8.77    0.48
  -1  -3   9    8.87    0.49
   0   3  -9   83.22    2.19
   0   3  -9   83.64    2.49
   0  -3   9   81.73    2.18
  -1   3  -9  197.14    5.24
  -1   3  -9  192.43    4.66
   1  -3   9  203.24    4.68
  -2   3  -9  230.29    5.49
  -2   3  -9  235.10    6.18
   2  -3   9  245.33    5.54
   2  -3   9  233.19    5.51
  -3   3  -9  128.21    3.73
   3  -3   9  128.05    3.25
   3  -3   9  133.92    3.24
  -4   3  -9   22.58    1.12
   4  -3   9   25.14    0.89
   4  -3   9   23.95    0.91
  -5   3  -9    0.20    0.26
   5  -3   9    0.22    0.19
  -6   3  -9   37.72    1.60
   6  -3   9   35.82    1.29
  -7   3  -9   70.34    2.50
   7  -3   9   68.64    2.11
   8   2  -9   33.11    1.32
   8   2  -9   34.55    1.42
  -8  -2   9   33.15    1.46
   7   2  -9   93.50    2.64
   7   2  -9   91.92    2.75
  -7  -2   9   94.38    2.84
   6   2  -9   67.12    2.01
  -6  -2   9   69.32    2.14
   5   2  -9    1.88    0.30
   5   2  -9    2.54    0.35
   4   2  -9   25.42    0.94
  -4  -2   9   25.33    0.99
  -4  -2   9   24.89    0.94
   3   2  -9   70.24    1.95
  -3  -2   9   74.44    2.00
  -3  -2   9   71.50    2.00
   2   2  -9  235.43    5.79
   2   2  -9  231.30    5.37
  -2  -2   9  224.52    5.39
   1   2  -9  391.40    9.58
   1   2  -9  396.16    8.81
  -1  -2   9  381.96    8.84
   0   2  -9  147.23    3.55
   0   2  -9  141.92    3.92
   0  -2   9  151.54    3.58
  -1   2  -9   50.80    1.44
  -1   2  -9   47.81    1.67
   1  -2   9   53.04    1.47
  -2   2  -9    7.92    0.43
  -2   2  -9    8.19    0.57
   2  -2   9    7.94    0.45
  -3   2  -9   48.73    1.79
   3  -2   9   56.23    1.50
   3  -2   9   52.99    1.56
  -4   2  -9  102.50    3.20
   4  -2   9  109.84    2.83
   4  -2   9  113.54    2.72
  -5   2  -9   86.22    2.80
   5  -2   9   91.47    2.45
  -6   2  -9   73.46    2.47
   6  -2   9   70.52    2.10
  -7   2  -9   13.16    0.91
   7  -2   9   12.58    0.75
   8   1  -9    3.34    0.48
   8   1  -9    3.71    0.51
  -8  -1   9    3.10    0.50
   7   1  -9    1.19    0.32
   7   1  -9    1.96    0.36
  -7  -1   9    1.30    0.35
   6   1  -9   60.52    1.83
   6   1  -9   57.70    1.87
  -6  -1   9   58.44    1.93
   5   1  -9  124.15    3.20
   5   1  -9  124.07    3.26
  -5  -1   9  124.15    3.36
  -5  -1   9  122.22    3.25
   4   1  -9  102.14    2.69
  -4  -1   9  102.04    2.72
  -4  -1   9  105.07    2.81
   3   1  -9   84.63    2.28
  -3  -1   9   87.71    2.34
  -3  -1   9   88.30    2.31
   2   1  -9   18.61    0.73
   2   1  -9   17.92    0.71
  -2  -1   9   19.25    0.65
  -2  -1   9   18.55    0.73
   1   1  -9    3.46    0.28
   1   1  -9    2.97    0.30
  -1  -1   9    4.03    0.33
   0   1  -9   42.56    1.42
   0   1  -9   42.13    1.23
   0  -1   9   44.30    1.28
  -1   1  -9  192.52    4.66
  -1   1  -9  203.14    5.22
   1  -1   9  207.42    4.75
  -2   1  -9  176.73    4.17
  -2   1  -9  184.13    4.75
   2  -1   9  174.81    4.27
  -3   1  -9  117.19    3.36
   3  -1   9  123.23    2.87
   3  -1   9  113.97    2.99
  -4   1  -9   32.92    1.32
   4  -1   9   30.93    1.10
  -5   1  -9    0.81    0.30
   5  -1   9    0.45    0.20
  -6   1  -9   25.69    1.23
   6  -1   9   25.34    1.04
  -7   1  -9   78.82    2.64
   7  -1   9   77.27    2.34
   9   0  -9   12.07    0.80
   8   0  -9   60.35    2.00
   8   0  -9   58.62    1.95
  -8   0   9   60.88    2.13
   7   0  -9   67.13    2.04
   7   0  -9   65.77    2.08
  -7   0   9   65.12    2.17
   6   0  -9   60.86    1.87
   6   0  -9   60.16    1.90
  -6   0   9   62.71    1.99
   5   0  -9    5.98    0.47
  -5   0   9    7.10    0.51
  -5   0   9    7.44    0.50
   4   0  -9   14.84    0.68
  -4   0   9   15.29    0.70
  -4   0   9   16.50    0.73
   3   0  -9   82.40    2.20
  -3   0   9   82.63    2.20
  -3   0   9   82.35    2.25
   2   0  -9  156.84    4.04
   2   0  -9  158.66    3.83
  -2   0   9  159.58    3.84
  -2   0   9  160.96    3.91
   1   0  -9  275.26    6.34
   1   0  -9  278.09    6.87
  -1   0   9  273.64    6.38
  -1   0   9  282.17    6.54
   0   0  -9  178.87    4.20
   0   0  -9  183.90    4.65
   0   0   9  178.68    4.28
   0   0   9  178.77    4.26
  -1   0  -9   53.46    1.71
  -1   0  -9   53.60    1.46
   1   0   9   56.29    1.56
  -2   0  -9    7.57    0.38
  -2   0  -9    8.18    0.54
   2   0   9    8.27    0.46
  -3   0  -9   38.31    1.43
   3   0   9   41.62    1.30
  -4   0  -9  117.76    3.35
   4   0   9  113.36    2.98
  -5   0  -9  143.94    4.03
   5   0   9  140.54    3.63
  -6   0  -9   40.91    1.62
   6   0   9   39.43    1.41
  -7   0  -9    3.89    0.58
   7   0   9    4.10    0.49
   8  -1  -9   23.80    1.10
   8  -1  -9   24.15    1.09
  -8   1   9   25.34    1.19
   7  -1  -9    3.60    0.46
   7  -1  -9    3.41    0.46
  -7   1   9    3.02    0.44
   6  -1  -9   75.74    2.22
  -6   1   9   76.37    2.34
  -6   1   9   76.34    2.21
   5  -1  -9   81.98    2.33
  -5   1   9   83.97    2.32
  -5   1   9   86.44    2.49
   4  -1  -9   93.24    2.50
  -4   1   9   94.77    2.49
  -4   1   9   94.44    2.64
   3  -1  -9  100.11    2.61
  -3   1   9  104.95    2.75
  -3   1   9   99.99    2.60
   2  -1  -9   12.87    0.57
   2  -1  -9   13.05    0.57
  -2   1   9   11.36    0.56
  -2   1   9   12.06    0.54
   1  -1  -9    8.18    0.48
   1  -1  -9    8.12    0.43
  -1   1   9    7.24    0.41
  -1   1   9    8.84    0.41
   0  -1  -9  157.50    4.25
   0  -1  -9  167.68    3.83
   0   1   9  162.07    3.87
   0   1   9  161.75    3.96
  -1  -1  -9  175.74    3.94
  -1  -1  -9  170.58    4.49
   1   1   9  167.75    4.12
   1   1   9  164.16    4.05
  -2  -1  -9  181.57    4.72
   2   1   9  174.37    4.25
   2   1   9  173.39    4.31
  -3  -1  -9  135.04    3.80
   3   1   9  136.50    3.42
  -4  -1  -9   27.03    1.16
   4   1   9   25.54    0.99
  -5  -1  -9    3.17    0.47
   5   1   9    2.86    0.39
  -6  -1  -9   34.23    1.45
   6   1   9   33.23    1.28
  -7  -1  -9   56.31    2.07
   7   1   9   53.70    1.86
   8  -2  -9   71.48    2.25
  -8   2   9   70.08    2.37
   7  -2  -9   64.43    2.08
  -7   2   9   69.17    2.24
   6  -2  -9   17.64    0.88
  -6   2   9   20.98    0.88
  -6   2   9   20.02    0.97
   5  -2  -9    1.46    0.29
  -5   2   9    1.72    0.28
  -5   2   9    2.00    0.34
   4  -2  -9    2.87    0.35
  -4   2   9    3.10    0.39
  -4   2   9    3.71    0.34
   3  -2  -9  100.84    2.60
  -3   2   9  101.56    2.58
  -3   2   9   97.35    2.74
   2  -2  -9  227.17    5.31
   2  -2  -9  232.93    5.72
  -2   2   9  220.93    5.58
  -2   2   9  229.40    5.31
   1  -2  -9  142.84    3.48
   1  -2  -9  144.47    3.83
  -1   2   9  147.84    3.51
  -1   2   9  146.29    3.66
   0  -2  -9  176.01    4.17
   0  -2  -9  178.95    4.66
   0   2   9  180.58    4.24
   0   2   9  176.17    4.39
  -1  -2  -9   57.13    1.84
   1   2   9   56.68    1.62
   1   2   9   55.98    1.61
  -2  -2  -9    2.50    0.39
   2   2   9    2.55    0.27
   2   2   9    2.29    0.29
  -3  -2  -9   48.45    1.78
   3   2   9   50.46    1.54
   3   2   9   50.70    1.54
  -4  -2  -9   68.07    2.33
   4   2   9   74.36    2.08
  -5  -2  -9   82.07    2.72
   5   2   9   87.24    2.44
  -6  -2  -9   55.06    2.03
   6   2   9   53.89    1.82
  -7  -2  -9    5.44    0.67
   8  -3  -9    5.88    0.58
  -8   3   9    6.16    0.61
   7  -3  -9   18.24    0.94
  -7   3   9   17.86    0.98
   6  -3  -9   32.94    1.30
  -6   3   9   37.23    1.45
   5  -3  -9   83.84    2.40
  -5   3   9   83.72    2.57
   4  -3  -9  147.55    3.83
  -4   3   9  163.54    3.78
  -4   3   9  146.61    4.09
   3  -3  -9  110.40    2.91
  -3   3   9  110.42    3.10
  -3   3   9  117.33    2.87
   2  -3  -9   10.72    0.57
   2  -3  -9   10.38    0.53
  -2   3   9   11.91    0.53
  -2   3   9   11.15    0.59
   1  -3  -9    7.25    0.48
   1  -3  -9    6.30    0.38
  -1   3   9    6.87    0.44
  -1   3   9    6.14    0.39
   0  -3  -9   77.61    1.95
   0  -3  -9   74.84    2.25
   0   3   9   73.06    2.01
   0   3   9   75.53    2.12
  -1  -3  -9  176.65    4.65
   1   3   9  173.10    4.39
   1   3   9  171.86    4.19
  -2  -3  -9  145.64    3.96
   2   3   9  146.15    3.54
   2   3   9  133.11    3.66
  -3  -3  -9   77.51    2.49
   3   3   9   77.40    2.17
   3   3   9   77.14    2.24
  -4  -3  -9    9.99    0.76
   4   3   9   11.29    0.64
   4   3   9   10.12    0.62
  -5  -3  -9    4.89    0.62
   5   3   9    3.44    0.45
  -6  -3  -9   39.08    1.70
   6   3   9   38.25    1.48
   7  -4  -9   64.17    2.13
  -7   4   9   68.01    2.31
   6  -4  -9   42.53    1.55
  -6   4   9   44.49    1.71
   5  -4  -9   13.64    0.76
  -5   4   9   13.65    0.85
   4  -4  -9    8.42    0.58
  -4   4   9    8.62    0.62
   3  -4  -9   32.56    1.16
  -3   4   9   32.05    1.24
   2  -4  -9  145.75    3.83
   2  -4  -9  143.06    3.55
  -2   4   9  140.00    3.78
   1  -4  -9  157.52    4.19
   1  -4  -9  159.27    3.78
  -1   4   9  153.19    4.07
   0  -4  -9   50.74    1.72
   0   4   9   53.48    1.66
   0   4   9   52.12    1.51
  -1  -4  -9    8.58    0.59
   1   4   9    7.79    0.51
   1   4   9    8.45    0.49
  -2  -4  -9    0.60    0.25
   2   4   9    0.98    0.23
   2   4   9    0.87    0.25
  -3  -4  -9   34.15    1.43
   3   4   9   34.34    1.22
   3   4   9   34.44    1.29
  -4  -4  -9   96.11    3.04
   4   4   9   93.27    2.63
   4   4   9   94.28    2.77
  -5  -4  -9   66.36    2.46
   5   4   9   67.74    2.11
   5   4   9   68.33    2.19
  -6  -4  -9   19.34    1.19
   6   4   9   20.59    1.04
   7  -5  -9    2.99    0.48
  -7   5   9    4.04    0.61
   6  -5  -9   19.54    1.00
  -6   5   9   18.65    1.07
   5  -5  -9   63.69    2.04
  -5   5   9   65.21    2.27
   4  -5  -9   93.97    2.64
  -4   5   9   90.93    2.83
   3  -5  -9   27.75    1.09
  -3   5   9   27.33    1.17
   2  -5  -9    5.37    0.47
   2  -5  -9    4.86    0.42
  -2   5   9    4.88    0.46
   1  -5  -9   11.12    0.68
  -1   5   9   11.71    0.68
   0  -5  -9   59.78    1.99
   0   5   9   60.50    1.92
  -1  -5  -9  104.65    3.13
   1   5   9  106.34    2.99
  -2  -5  -9  126.64    3.69
   2   5   9  125.62    3.50
  -3  -5  -9   62.68    2.22
   3   5   9   63.50    2.06
   3   5   9   63.02    1.89
  -4  -5  -9    3.03    0.51
   4   5   9    3.26    0.43
   4   5   9    2.16    0.39
  -5  -5  -9    4.65    0.67
   5   5   9    5.49    0.57
   5   5   9    4.59    0.54
   6  -6  -9   38.77    1.54
  -6   6   9   41.40    1.76
   5  -6  -9   14.08    0.84
  -5   6   9   13.98    0.94
   4  -6  -9   14.96    0.83
  -4   6   9   14.09    0.88
   3  -6  -9   65.93    2.02
  -3   6   9   63.46    2.15
   2  -6  -9   91.78    2.77
  -2   6   9   88.46    2.71
   1  -6  -9  100.60    3.03
  -1   6   9   99.47    2.94
   0  -6  -9   83.84    2.64
   0   6   9   81.05    2.52
  -1  -6  -9   12.58    0.82
   1   6   9   12.47    0.76
  -2  -6  -9   10.85    0.78
   2   6   9   11.57    0.75
  -3  -6  -9   32.89    1.50
   3   6   9   33.19    1.39
  -4  -6  -9   65.04    2.41
   4   6   9   63.91    2.20
   5  -7  -9   56.56    1.96
   4  -7  -9   56.68    1.93
  -4   7   9   57.14    2.11
  -3   7   9   23.35    1.17
   2  -7  -9   15.26    0.92
  -2   7   9   13.56    0.85
   1  -7  -9    4.61    0.59
  -1   7   9    4.20    0.54
   0  -7  -9   44.70    1.79
   0   7   9   43.27    1.69
  -1  -7  -9   62.83    2.33
   1   7   9   67.85    2.24
  -2  -7  -9   48.86    1.97
   2   7   9   50.89    1.88
   1  -8  -9   56.14    2.19
   1   9 -10   36.57    1.64
  -1  -9  10   33.22    1.37
   0   9 -10    8.42    0.80
   0  -9  10    9.32    0.71
  -3  -8  10   26.46    1.14
   2   8 -10    1.46    0.39
  -2  -8  10    1.56    0.34
   1   8 -10   20.69    1.15
  -1  -8  10   20.52    0.98
   0   8 -10   55.65    2.14
   0  -8  10   54.77    1.83
  -1   8 -10   72.31    2.60
   1  -8  10   71.64    2.24
  -2   8 -10   35.49    1.64
   2  -8  10   35.54    1.41
  -3   8 -10    5.90    0.74
   3  -8  10    6.03    0.58
  -5  -7  10    0.03    0.22
   4   7 -10   10.77    0.67
  -4  -7  10   10.31    0.68
   3   7 -10   48.18    1.61
   2   7 -10   76.68    2.27
   2   7 -10   80.23    2.54
   1   7 -10   64.32    2.21
  -1  -7  10   60.71    1.93
   0   7 -10   18.65    1.06
   0  -7  10   18.91    0.89
  -1   7 -10    0.21    0.27
   1  -7  10   -0.09    0.19
  -2   7 -10   32.65    1.51
   2  -7  10   32.13    1.27
  -3   7 -10   33.73    1.57
   3  -7  10   33.05    1.31
  -4   7 -10   52.18    2.10
   4  -7  10   52.35    1.82
   5  -7  10   48.49    1.77
   6   6 -10   56.20    1.90
  -6  -6  10   55.79    1.92
   5   6 -10   92.88    2.64
  -5  -6  10   92.90    2.70
   4   6 -10   96.35    2.66
  -4  -6  10   93.28    2.67
   3   6 -10   29.06    1.13
  -3  -6  10   29.56    1.14
   2   6 -10    0.78    0.26
   2   6 -10    0.50    0.22
  -2  -6  10    0.32    0.20
   1   6 -10   17.46    0.80
   1   6 -10   16.90    0.92
  -1  -6  10   17.08    0.79
   0   6 -10   84.80    2.38
   0   6 -10   85.85    2.74
   0  -6  10   84.70    2.30
   0  -6  10   85.32    2.41
  -1   6 -10   62.88    2.23
   1  -6  10   61.27    1.89
  -2   6 -10   30.34    1.42
   2  -6  10   32.17    1.20
  -3   6 -10    4.03    0.58
   3  -6  10    4.62    0.51
  -4   6 -10    3.50    0.56
   4  -6  10    3.36    0.45
  -5   6 -10   49.56    2.03
   5  -6  10   47.35    1.68
   7   5 -10   62.71    2.11
   6   5 -10   26.18    1.15
   6   5 -10   23.01    1.03
   5   5 -10    1.02    0.29
  -5  -5  10    0.98    0.29
   4   5 -10   24.50    1.00
  -4  -5  10   23.71    1.02
   3   5 -10   74.93    2.18
  -3  -5  10   79.16    2.22
   2   5 -10   88.89    2.50
   2   5 -10   96.11    2.71
  -2  -5  10   90.36    2.50
   1   5 -10   62.21    1.85
   1   5 -10   63.85    2.08
  -1  -5  10   61.20    1.83
   0   5 -10   16.04    0.75
   0   5 -10   16.38    0.91
   0  -5  10   16.62    0.72
  -1   5 -10   17.68    0.97
   1  -5  10   17.53    0.80
   1  -5  10   16.22    0.71
  -2   5 -10   45.31    1.79
   2  -5  10   46.83    1.43
   2  -5  10   45.65    1.49
  -3   5 -10   66.15    2.38
   3  -5  10   68.48    1.94
   3  -5  10   68.43    2.01
  -4   5 -10  105.53    3.38
   4  -5  10  106.99    2.89
  -5   5 -10   83.50    2.83
   5  -5  10   77.27    2.32
  -6   5 -10   10.08    0.88
   7   4 -10   41.37    1.60
   6   4 -10   65.31    2.00
   6   4 -10   66.96    2.12
   5   4 -10   96.57    2.64
  -5  -4  10   96.04    2.75
   4   4 -10   88.97    2.46
  -4  -4  10   91.05    2.54
   3   4 -10   33.70    1.17
  -3  -4  10   34.48    1.21
   2   4 -10    1.46    0.26
   2   4 -10    0.92    0.23
  -2  -4  10    1.77    0.29
   1   4 -10   21.30    0.98
   1   4 -10   21.34    0.87
  -1  -4  10   21.46    0.86
   0   4 -10  115.50    3.36
   0   4 -10  114.79    2.96
   0  -4  10  112.23    2.91
  -1   4 -10  117.57    3.47
  -1   4 -10  114.25    2.99
   1  -4  10  118.77    2.97
  -2   4 -10   50.84    1.89
   2  -4  10   51.68    1.54
   2  -4  10   50.55    1.57
  -3   4 -10   18.11    1.02
   3  -4  10   18.82    0.81
   3  -4  10   18.74    0.79
  -4   4 -10    1.23    0.36
   4  -4  10    0.92    0.26
   4  -4  10    0.82    0.23
  -5   4 -10   34.58    1.58
   5  -4  10   34.98    1.24
   5  -4  10   34.71    1.24
  -6   4 -10   80.76    2.83
   8   3 -10  104.59    3.15
  -8  -3  10  107.75    3.28
   7   3 -10   56.53    1.81
   7   3 -10   56.28    1.94
  -7  -3  10   53.67    1.92
   6   3 -10   13.75    0.80
   6   3 -10   13.61    0.72
  -6  -3  10   15.10    0.79
   5   3 -10    0.28    0.19
  -5  -3  10    0.36    0.21
   4   3 -10   37.28    1.24
  -4  -3  10   36.62    1.30
   3   3 -10  113.23    2.91
  -3  -3  10  113.05    2.96
   2   3 -10  204.43    5.08
   2   3 -10  191.34    4.68
  -2  -3  10  190.89    4.71
   1   3 -10   55.66    1.82
   1   3 -10   53.73    1.60
  -1  -3  10   54.87    1.64
   0   3 -10    6.43    0.43
   0   3 -10    6.85    0.54
   0  -3  10    6.49    0.42
  -1   3 -10   10.24    0.54
  -1   3 -10    9.91    0.66
   1  -3  10   10.72    0.54
  -2   3 -10   37.42    1.49
  -2   3 -10   38.84    1.22
   2  -3  10   36.17    1.21
  -3   3 -10  121.34    3.64
   3  -3  10  126.64    3.14
   3  -3  10  123.22    3.17
  -4   3 -10  127.37    3.87
   4  -3  10  131.29    3.37
   4  -3  10  136.19    3.32
  -5   3 -10   36.45    1.57
   5  -3  10   35.06    1.26
  -6   3 -10    6.85    0.68
   6  -3  10    7.35    0.56
  -7   3 -10    0.84    0.38
   7  -3  10    0.41    0.28
   8   2 -10    0.78    0.33
   8   2 -10    1.14    0.35
  -8  -2  10    0.89    0.36
   7   2 -10   38.45    1.50
   7   2 -10   38.32    1.41
  -7  -2  10   38.20    1.52
   6   2 -10   81.83    2.49
   6   2 -10   83.56    2.40
  -6  -2  10   86.94    2.55
   5   2 -10  137.81    3.57
  -5  -2  10  144.68    3.75
  -5  -2  10  137.04    3.66
   4   2 -10   84.70    2.36
  -4  -2  10   85.58    2.42
  -4  -2  10   92.15    2.46
   3   2 -10   25.35    0.92
  -3  -2  10   23.80    0.93
   2   2 -10    0.42    0.17
   2   2 -10    1.45    0.26
  -2  -2  10    0.30    0.15
   1   2 -10   96.47    2.46
   1   2 -10   93.43    2.73
  -1  -2  10   96.67    2.53
   0   2 -10   84.15    2.19
   0   2 -10   78.03    2.44
   0  -2  10   84.25    2.20
  -1   2 -10   64.56    1.84
  -1   2 -10   66.22    2.14
   1  -2  10   72.40    1.89
  -2   2 -10   92.93    2.83
  -2   2 -10   96.42    2.44
   2  -2  10   93.41    2.48
  -3   2 -10   21.80    1.07
   3  -2  10   24.04    0.85
   3  -2  10   22.45    0.90
  -4   2 -10    9.23    0.69
   4  -2  10    8.74    0.54
  -5   2 -10   34.97    1.51
   5  -2  10   36.80    1.29
  -6   2 -10   71.41    2.49
   6  -2  10   71.80    2.16
  -7   2 -10   79.96    2.76
   7  -2  10   79.77    2.41
   8   1 -10   37.20    1.46
   8   1 -10   36.44    1.49
  -8  -1  10   39.26    1.58
   7   1 -10   47.37    1.68
   7   1 -10   46.15    1.62
  -7  -1  10   44.96    1.68
   6   1 -10   20.58    0.93
  -6  -1  10   19.74    0.97
  -6  -1  10   21.36    0.98
   5   1 -10    1.03    0.26
  -5  -1  10    0.98    0.26
  -5  -1  10    0.76    0.24
   4   1 -10   70.38    2.04
  -4  -1  10   75.67    2.11
  -4  -1  10   71.18    2.07
   3   1 -10  118.81    3.04
  -3  -1  10  120.19    3.07
  -3  -1  10  120.81    3.10
   2   1 -10  114.50    3.11
   2   1 -10  114.19    2.90
  -2  -1  10  119.01    2.97
   1   1 -10   68.82    1.81
   1   1 -10   64.73    1.99
  -1  -1  10   65.50    1.86
   0   1 -10    9.16    0.45
   0   1 -10    8.30    0.54
   0  -1  10    8.45    0.47
  -1   1 -10    6.41    0.50
  -1   1 -10    6.18    0.38
   1  -1  10    6.54    0.43
  -2   1 -10   71.44    1.93
  -2   1 -10   76.68    2.32
   2  -1  10   73.48    2.04
  -3   1 -10  165.35    4.49
   3  -1  10  161.24    4.03
  -4   1 -10  144.35    4.03
   4  -1  10  137.97    3.58
  -5   1 -10   61.34    2.12
   5  -1  10   58.99    1.85
  -6   1 -10   14.18    0.90
   6  -1  10   14.38    0.79
  -7   1 -10    7.25    0.71
   7  -1  10    6.28    0.57
   8   0 -10   10.71    0.74
   8   0 -10   10.45    0.74
  -8   0  10   10.97    0.77
   7   0 -10   33.09    1.35
   7   0 -10   35.46    1.36
  -7   0  10   34.40    1.39
  -7   0  10   36.02    1.38
   6   0 -10  119.80    3.19
  -6   0  10  114.39    3.18
  -6   0  10  119.72    3.32
   5   0 -10  169.99    4.29
  -5   0  10  169.09    4.30
  -5   0  10  176.55    4.50
   4   0 -10  108.04    2.87
  -4   0  10  107.93    2.86
  -4   0  10  111.16    2.98
   3   0 -10    3.22    0.32
  -3   0  10    3.44    0.33
  -3   0  10    3.90    0.32
   2   0 -10   13.20    0.60
   2   0 -10   11.84    0.57
  -2   0  10   12.65    0.61
  -2   0  10   13.13    0.53
   1   0 -10   95.82    2.64
   1   0 -10   95.60    2.43
  -1   0  10   93.85    2.46
   0   0 -10  132.99    3.58
   0   0 -10  132.73    3.22
   0   0  10  133.77    3.29
  -1   0 -10  163.40    3.93
  -1   0 -10  167.48    4.43
   1   0  10  169.65    4.06
  -2   0 -10  114.20    3.17
  -2   0 -10  106.87    2.70
   2   0  10  111.38    2.86
  -3   0 -10   21.54    0.99
   3   0  10   21.48    0.88
  -4   0 -10    8.44    0.62
   4   0  10    8.13    0.53
  -5   0 -10   45.73    1.72
   5   0  10   46.07    1.54
  -6   0 -10   55.97    2.02
   6   0  10   50.74    1.75
  -7   0 -10   58.41    2.14
   7   0  10   52.63    1.87
   8  -1 -10   61.39    2.05
  -8   1  10   60.29    2.13
  -8   1  10   62.14    2.01
   7  -1 -10   60.60    1.98
  -7   1  10   62.54    2.08
  -7   1  10   60.61    1.95
   6  -1 -10   16.80    0.85
  -6   1  10   16.89    0.88
  -6   1  10   17.47    0.84
   5  -1 -10   18.03    0.85
  -5   1  10   18.82    0.84
  -5   1  10   19.82    0.90
   4  -1 -10   63.61    1.87
  -4   1  10   64.04    1.95
  -4   1  10   62.84    1.85
   3  -1 -10  122.33    3.16
  -3   1  10  125.27    3.17
  -3   1  10  127.78    3.29
   2  -1 -10  122.21    3.08
   2  -1 -10  123.42    3.26
  -2   1  10  121.07    3.10
  -2   1  10  123.64    3.15
   1  -1 -10   88.69    2.50
   1  -1 -10   85.94    2.28
  -1   1  10   87.24    2.29
  -1   1  10   89.15    2.29
   0  -1 -10   33.78    1.23
   0  -1 -10   33.86    1.03
   0   1  10   32.72    1.01
   0   1  10   32.37    1.07
  -1  -1 -10    0.64    0.16
  -1  -1 -10    1.07    0.25
   1   1  10    0.51    0.17
  -2  -1 -10   81.81    2.49
   2   1  10   80.78    2.23
  -3  -1 -10   96.80    2.94
   3   1  10  101.16    2.67
  -4  -1 -10   90.41    2.81
   4   1  10   90.86    2.52
  -5  -1 -10   49.20    1.83
   5   1  10   48.57    1.63
  -6  -1 -10    9.42    0.76
   6   1  10    9.34    0.67
  -7  -1 -10    2.92    0.51
   8  -2 -10    0.79    0.33
  -8   2  10    1.14    0.35
   7  -2 -10   38.46    1.48
  -7   2  10   39.16    1.53
   6  -2 -10   99.06    2.89
  -6   2  10  106.87    2.84
  -6   2  10  105.53    3.07
   5  -2 -10   93.77    2.66
  -5   2  10   98.74    2.62
  -5   2  10   95.94    2.83
   4  -2 -10   56.58    1.75
  -4   2  10   58.27    1.87
  -4   2  10   59.83    1.73
   3  -2 -10    6.08    0.43
  -3   2  10    5.99    0.44
  -3   2  10    6.15    0.43
   2  -2 -10    7.93    0.47
   2  -2 -10    8.70    0.52
  -2   2  10    9.43    0.49
  -2   2  10    8.80    0.49
   1  -2 -10   44.13    1.35
   1  -2 -10   46.45    1.55
  -1   2  10   48.99    1.40
  -1   2  10   45.07    1.39
   0  -2 -10  139.66    3.37
   0  -2 -10  140.34    3.83
   0   2  10  136.74    3.52
   0   2  10  140.18    3.45
  -1  -2 -10  182.59    4.82
   1   2  10  176.20    4.41
   1   2  10  174.61    4.30
  -2  -2 -10   61.21    2.09
   2   2  10   64.14    1.85
  -3  -2 -10    2.29    0.40
   3   2  10    1.84    0.30
  -4  -2 -10    1.08    0.33
   4   2  10    1.31    0.30
  -5  -2 -10   41.71    1.67
   5   2  10   39.21    1.44
  -6  -2 -10  106.50    3.36
   6   2  10  105.60    3.02
  -8   3  10   61.27    2.20
   7  -3 -10   38.36    1.50
  -7   3  10   40.55    1.61
   6  -3 -10    1.05    0.32
  -6   3  10    1.05    0.33
   5  -3 -10   29.49    1.17
  -5   3  10   30.68    1.28
   4  -3 -10   52.20    1.65
  -4   3  10   51.92    1.76
   3  -3 -10  187.91    4.58
  -3   3  10  193.24    4.52
  -3   3  10  182.31    4.83
   2  -3 -10  140.98    3.49
   2  -3 -10  144.48    3.78
  -2   3  10  134.64    3.66
  -2   3  10  142.70    3.45
   1  -3 -10   84.75    2.50
   1  -3 -10   83.86    2.22
  -1   3  10   87.42    2.26
  -1   3  10   83.26    2.36
   0  -3 -10   11.52    0.68
   0   3  10   10.80    0.57
   0   3  10   11.09    0.57
  -1  -3 -10   19.04    0.93
   1   3  10   18.85    0.79
   1   3  10   19.21    0.80
  -2  -3 -10   49.62    1.79
   2   3  10   49.11    1.55
   2   3  10   47.55    1.53
  -3  -3 -10  113.48    3.44
   3   3  10  113.18    3.01
   3   3  10  112.41    3.08
  -4  -3 -10  100.33    3.19
   4   3  10  100.03    2.79
  -5  -3 -10   57.00    2.18
   5   3  10   59.64    1.92
  -6  -3 -10    7.32    0.74
   6   3  10    7.87    0.64
   7  -4 -10   47.18    1.74
  -7   4  10   49.54    1.90
   6  -4 -10   89.16    2.68
  -6   4  10   93.24    2.92
   5  -4 -10   86.86    2.51
  -5   4  10   83.17    2.68
   4  -4 -10   33.69    1.26
  -4   4  10   33.96    1.37
   3  -4 -10   28.25    1.08
  -3   4  10   28.19    1.15
   2  -4 -10    9.51    0.59
   2  -4 -10    9.40    0.54
  -2   4  10    7.65    0.53
   1  -4 -10   60.62    1.94
   1  -4 -10   60.41    1.69
  -1   4  10   58.21    1.84
   0  -4 -10   98.72    2.90
   0   4  10   96.23    2.57
   0   4  10   98.53    2.74
  -1  -4 -10   86.17    2.70
   1   4  10   88.85    2.39
   1   4  10   88.03    2.51
  -2  -4 -10   62.38    2.17
   2   4  10   63.73    1.98
   2   4  10   64.70    1.89
  -3  -4 -10   17.82    1.01
   3   4  10   17.64    0.84
   3   4  10   17.85    0.87
  -4  -4 -10    4.95    0.64
   4   4  10    5.58    0.52
   4   4  10    5.22    0.50
  -5  -4 -10   41.15    1.83
   5   4  10   40.81    1.53
   6  -5 -10    1.46    0.38
  -6   5  10    2.03    0.48
   5  -5 -10    8.27    0.64
  -5   5  10    6.69    0.66
   4  -5 -10   81.67    2.39
  -4   5  10   79.77    2.58
   3  -5 -10   98.69    2.74
  -3   5  10   99.98    2.94
   2  -5 -10   88.21    2.43
   2  -5 -10   90.05    2.66
  -2   5  10   87.28    2.62
   1  -5 -10   54.83    1.87
  -1   5  10   54.71    1.80
   0  -5 -10   13.18    0.78
   0   5  10   12.08    0.71
  -1  -5 -10   13.10    0.82
   1   5  10   14.36    0.77
  -2  -5 -10   48.07    1.84
   2   5  10   49.34    1.70
  -3  -5 -10   87.14    2.86
   3   5  10   84.24    2.60
  -4  -5 -10   53.58    2.11
   4   5  10   51.03    1.84
   4   5  10   53.20    1.78
   5  -6 -10   72.05    2.31
  -5   6  10   73.75    2.55
   4  -6 -10   34.07    1.36
  -4   6  10   33.16    1.46
   3  -6 -10    0.98    0.31
  -3   6  10    2.49    0.43
   2  -6 -10    3.64    0.49
  -2   6  10    3.47    0.47
   1  -6 -10   39.64    1.58
  -1   6  10   41.02    1.53
   0  -6 -10   85.65    2.77
   0   6  10   87.33    2.65
  -1  -6 -10   74.27    2.52
   1   6  10   74.70    2.37
  -2  -6 -10   17.51    1.04
   2   6  10   20.06    1.02
  -3  -6 -10    6.47    0.69
   3   6  10    6.79    0.61
   4  -7 -10   41.11    1.59
  -3   7  10   58.25    2.11
  -2   7  10   76.18    2.50
   1  -7 -10   45.44    1.80
  -1   7  10   42.98    1.68
   0  -7 -10    1.97    0.45
   0   7  10    2.07    0.44
  -1  -7 -10    6.46    0.69
   1   7  10    7.02    0.65
   3   8 -11   67.29    2.09
  -3  -8  11   63.38    2.08
  -2  -8  11   68.53    2.18
   1   8 -11   15.09    0.99
  -1  -8  11   14.11    0.82
   0   8 -11    1.80    0.45
   0  -8  11    2.14    0.41
  -1   8 -11   11.82    0.94
   1  -8  11   12.49    0.78
  -2   8 -11   48.34    2.03
   2  -8  11   46.23    1.70
   5   7 -11   49.91    1.72
  -5  -7  11   48.81    1.74
   4   7 -11   18.86    0.94
  -4  -7  11   19.46    0.96
   3   7 -11    2.55    0.41
   2   7 -11   35.44    1.33
   2   7 -11   36.58    1.50
   1   7 -11   81.31    2.71
   1   7 -11   81.33    2.38
   0   7 -11   73.46    2.54
   0  -7  11   70.32    2.19
  -1   7 -11   61.89    2.28
   1  -7  11   59.23    1.94
  -2   7 -11   10.41    0.85
   2  -7  11   11.14    0.72
  -3   7 -11    5.92    0.74
   3  -7  11    5.74    0.58
  -4   7 -11   34.25    1.66
   4  -7  11   32.42    1.37
  -6  -6  11    0.47    0.28
   5   6 -11   36.76    1.40
  -5  -6  11   37.32    1.44
   4   6 -11   92.18    2.60
  -4  -6  11   86.99    2.59
   3   6 -11  109.52    3.04
  -3  -6  11  113.40    3.06
   2   6 -11   56.65    1.83
   2   6 -11   60.37    2.01
  -2  -6  11   58.55    1.84
   1   6 -11   13.29    0.73
   1   6 -11   14.01    0.86
  -1  -6  11   13.47    0.73
   0   6 -11    1.75    0.40
   0   6 -11    2.07    0.36
   0  -6  11    1.80    0.30
   0  -6  11    2.27    0.37
  -1   6 -11   24.95    1.28
   1  -6  11   26.92    1.10
  -2   6 -11   82.84    2.80
   2  -6  11   79.46    2.38
  -3   6 -11   63.11    2.38
   3  -6  11   62.60    2.00
  -4   6 -11   32.27    1.60
   4  -6  11   35.37    1.36
  -5   6 -11    2.26    0.55
   5  -6  11    2.91    0.48
   6   5 -11   85.09    2.56
  -6  -5  11   93.30    2.73
   5   5 -11   66.85    2.07
  -5  -5  11   69.79    2.17
   4   5 -11   19.55    0.90
  -4  -5  11   19.99    0.94
   3   5 -11    1.00    0.28
  -3  -5  11    0.29    0.21
   2   5 -11   28.40    1.11
   2   5 -11   31.46    1.22
  -2  -5  11   28.05    1.11
   1   5 -11   72.55    2.34
   1   5 -11   69.03    2.07
  -1  -5  11   70.85    2.08
   0   5 -11   95.91    3.03
   0   5 -11   99.12    2.68
   0  -5  11   96.38    2.59
  -1   5 -11   78.16    2.61
  -1   5 -11   75.35    2.20
   1  -5  11   75.81    2.22
   1  -5  11   77.02    2.12
  -2   5 -11    7.46    0.70
   2  -5  11    8.07    0.52
   2  -5  11    7.20    0.55
  -3   5 -11   12.95    0.92
   3  -5  11   14.32    0.71
   3  -5  11   13.14    0.73
  -4   5 -11   25.80    1.35
   4  -5  11   25.62    1.08
  -5   5 -11   81.72    2.94
   5  -5  11   87.25    2.50
   7   4 -11   19.36    0.96
   7   4 -11   19.22    1.05
  -7  -4  11   20.47    1.07
   6   4 -11    0.18    0.25
  -6  -4  11    0.48    0.26
   5   4 -11   19.48    0.88
  -5  -4  11   17.84    0.91
   4   4 -11   86.68    2.39
  -4  -4  11   82.34    2.43
   3   4 -11  119.92    3.09
  -3  -4  11  115.74    3.12
   2   4 -11   22.33    0.94
   2   4 -11   26.94    1.07
  -2  -4  11   24.37    0.98
   1   4 -11   16.18    0.76
   1   4 -11   17.41    0.90
  -1  -4  11   16.45    0.77
   0   4 -11    0.66    0.26
   0   4 -11    1.01    0.25
   0  -4  11    0.79    0.22
  -1   4 -11   86.56    2.77
  -1   4 -11   83.65    2.35
   1  -4  11   85.57    2.30
  -2   4 -11  125.89    3.77
   2  -4  11  124.90    3.21
   2  -4  11  124.01    3.25
  -3   4 -11   51.03    1.98
   3  -4  11   52.55    1.63
   3  -4  11   49.47    1.59
  -4   4 -11   15.54    1.00
   4  -4  11   16.58    0.78
   4  -4  11   15.20    0.75
  -5   4 -11    4.36    0.65
   5  -4  11    4.64    0.47
  -6   4 -11   10.82    0.91
   6  -4  11   11.63    0.73
   7   3 -11   76.23    2.45
   7   3 -11   76.45    2.29
  -7  -3  11   73.71    2.43
   6   3 -11   91.07    2.56
  -6  -3  11   88.34    2.68
   5   3 -11   49.22    1.57
  -5  -3  11   47.59    1.65
   4   3 -11    4.42    0.40
  -4  -3  11    4.37    0.42
   3   3 -11    3.86    0.36
  -3  -3  11    3.23    0.39
   2   3 -11   81.22    2.32
   2   3 -11   73.19    2.09
  -2  -3  11   71.96    2.12
   1   3 -11  109.28    3.11
   1   3 -11  103.02    2.75
  -1  -3  11  105.00    2.81
   0   3 -11  159.39    4.41
   0   3 -11  154.52    3.92
   0  -3  11  162.71    3.92
  -1   3 -11   50.05    1.80
  -1   3 -11   46.69    1.49
   1  -3  11   50.16    1.49
  -2   3 -11    0.29    0.23
  -2   3 -11    0.76    0.22
   2  -3  11    0.85    0.22
  -3   3 -11   10.45    0.76
   3  -3  11   12.10    0.62
   3  -3  11   10.05    0.60
  -4   3 -11   41.03    1.71
   4  -3  11   43.20    1.44
  -5   3 -11   86.30    2.92
   5  -3  11   88.80    2.51
  -6   3 -11   81.04    2.83
   6  -3  11   82.26    2.43
   8   2 -11   64.40    2.19
   8   2 -11   60.99    2.06
  -8  -2  11   62.59    2.21
   7   2 -11   23.54    1.07
  -7  -2  11   23.73    1.13
  -7  -2  11   24.00    1.16
   6   2 -11    2.86    0.40
  -6  -2  11    2.40    0.40
   5   2 -11   39.68    1.36
  -5  -2  11   38.95    1.43
   4   2 -11   77.28    2.17
  -4  -2  11   77.25    2.24
   3   2 -11   99.79    2.63
  -3  -2  11  100.11    2.70
   2   2 -11  146.96    3.81
   2   2 -11  136.66    3.47
  -2  -2  11  136.13    3.53
   1   2 -11   24.68    0.91
   1   2 -11   25.10    1.06
  -1  -2  11   25.41    0.97
   0   2 -11   15.39    0.67
   0   2 -11   13.89    0.78
   0  -2  11   15.71    0.69
  -1   2 -11   73.17    2.02
  -1   2 -11   72.01    2.33
   1  -2  11   76.05    2.06
  -2   2 -11   47.10    1.46
  -2   2 -11   51.03    1.80
   2  -2  11   50.46    1.53
  -3   2 -11   87.82    2.80
   3  -2  11   94.31    2.39
   3  -2  11   87.05    2.46
  -4   2 -11   46.81    1.79
   4  -2  11   46.71    1.54
  -5   2 -11    5.91    0.63
   5  -2  11    5.74    0.49
  -6   2 -11   13.62    0.94
   6  -2  11   14.58    0.81
   8   1 -11   32.76    1.42
   8   1 -11   32.68    1.39
  -8  -1  11   34.57    1.44
  -8  -1  11   32.67    1.44
   7   1 -11   68.36    2.20
  -7  -1  11   69.77    2.27
  -7  -1  11   73.26    2.31
   6   1 -11   86.81    2.55
  -6  -1  11   92.45    2.66
  -6  -1  11   86.14    2.59
   5   1 -11   81.35    2.39
  -5  -1  11   84.26    2.44
  -5  -1  11   87.59    2.47
   4   1 -11   12.93    0.67
  -4  -1  11   13.51    0.70
   3   1 -11    5.87    0.43
  -3  -1  11    6.08    0.46
   2   1 -11   54.60    1.75
   2   1 -11   57.13    1.64
  -2  -1  11   59.52    1.73
   1   1 -11  126.20    3.46
   1   1 -11  126.90    3.14
  -1  -1  11  125.13    3.20
   0   1 -11   91.03    2.39
   0   1 -11   92.99    2.71
   0  -1  11   93.81    2.45
  -1   1 -11   17.02    0.71
  -1   1 -11   18.78    0.89
   1  -1  11   18.17    0.77
  -2   1 -11    0.20    0.15
  -2   1 -11    0.31    0.21
   2  -1  11    0.44    0.19
  -3   1 -11    5.55    0.52
   3  -1  11    5.15    0.43
  -4   1 -11   95.40    2.93
   4  -1  11   91.44    2.60
  -5   1 -11   97.54    3.05
   5  -1  11   96.02    2.73
  -6   1 -11   64.09    2.29
   6  -1  11   61.01    2.00
   8   0 -11   47.81    1.76
  -8   0  11   47.53    1.80
  -8   0  11   48.42    1.77
   7   0 -11    9.13    0.68
  -7   0  11    9.12    0.68
  -7   0  11    9.14    0.67
   6   0 -11    1.06    0.31
  -6   0  11    1.37    0.31
  -6   0  11    0.60    0.26
   5   0 -11   32.88    1.25
  -5   0  11   34.09    1.27
  -5   0  11   35.55    1.29
   4   0 -11  118.62    3.20
  -4   0  11  126.19    3.31
  -4   0  11  124.17    3.23
   3   0 -11   69.97    1.98
  -3   0  11   68.33    1.99
   2   0 -11   48.42    1.49
   2   0 -11   52.59    1.59
  -2   0  11   49.74    1.55
   1   0 -11    2.45    0.29
   1   0 -11    3.71    0.36
  -1   0  11    2.30    0.30
   0   0 -11   39.02    1.19
   0   0 -11   37.35    1.36
   0   0  11   42.32    1.28
  -1   0 -11   58.24    1.61
  -1   0 -11   57.71    1.88
   1   0  11   59.28    1.72
  -2   0 -11   97.64    2.85
   2   0  11   93.61    2.57
  -3   0 -11  137.86    3.83
   3   0  11  130.62    3.46
  -4   0 -11   49.09    1.79
   4   0  11   48.03    1.60
  -5   0 -11    0.25    0.25
   5   0  11    0.15    0.20
  -6   0 -11    8.27    0.74
   6   0  11    8.05    0.64
   8  -1 -11   24.11    1.18
  -8   1  11   22.90    1.16
  -8   1  11   24.77    1.13
   7  -1 -11   60.43    2.05
  -7   1  11   65.08    2.15
  -7   1  11   64.37    2.03
   6  -1 -11   97.34    2.81
  -6   1  11   97.18    2.77
  -6   1  11  102.53    2.94
   5  -1 -11   39.60    1.42
  -5   1  11   42.22    1.42
  -5   1  11   41.53    1.49
   4  -1 -11    6.34    0.48
  -4   1  11    6.63    0.50
  -4   1  11    6.90    0.50
   3  -1 -11    8.14    0.52
  -3   1  11    9.49    0.55
  -3   1  11    8.07    0.49
   2  -1 -11   76.48    2.18
   2  -1 -11   74.35    2.07
  -2   1  11   75.61    2.07
  -2   1  11   74.47    2.09
   1  -1 -11  154.38    3.80
   1  -1 -11  160.34    4.17
  -1   1  11  155.86    3.84
   0  -1 -11  117.65    3.28
   0  -1 -11  114.67    2.88
   0   1  11  118.06    2.99
  -1  -1 -11   54.37    1.80
   1   1  11   51.75    1.59
  -2  -1 -11    6.00    0.53
   2   1  11    5.17    0.43
  -3  -1 -11    9.24    0.66
   3   1  11    9.67    0.60
  -4  -1 -11   62.83    2.17
  -5  -1 -11   74.77    2.49
   5   1  11   72.79    2.25
  -6  -1 -11   68.48    2.40
   6   1  11   66.10    2.17
  -8   2  11   45.80    1.79
   7  -2 -11    3.11    0.49
  -7   2  11    4.17    0.54
   6  -2 -11    4.81    0.55
  -6   2  11    4.23    0.52
  -6   2  11    5.18    0.49
   5  -2 -11   47.71    1.62
  -5   2  11   49.24    1.59
  -5   2  11   48.48    1.72
   4  -2 -11   99.30    2.75
  -4   2  11  105.40    2.75
  -4   2  11   98.21    2.88
   3  -2 -11  119.01    3.10
  -3   2  11  117.67    3.22
  -3   2  11  120.85    3.11
   2  -2 -11   45.55    1.52
   2  -2 -11   44.65    1.39
  -2   2  11   44.26    1.40
  -2   2  11   43.26    1.37
   1  -2 -11    0.46    0.22
  -1   2  11    0.87    0.20
  -1   2  11    0.73    0.20
   0  -2 -11   16.46    0.66
   0  -2 -11   15.00    0.83
   0   2  11   15.81    0.71
  -1  -2 -11   46.66    1.71
   1   2  11   47.84    1.49
  -2  -2 -11  127.84    3.68
   2   2  11  125.38    3.29
  -3  -2 -11   52.87    1.91
   3   2  11   50.87    1.67
  -4  -2 -11   27.23    1.30
   4   2  11   29.01    1.17
  -5  -2 -11    2.46    0.46
   5   2  11    1.93    0.37
  -6  -2 -11   13.73    0.96
   6   2  11   13.38    0.85
   7  -3 -11   67.53    2.21
  -7   3  11   67.36    2.32
   6  -3 -11   64.94    2.13
  -6   3  11   69.34    2.29
   5  -3 -11   37.75    1.41
  -5   3  11   39.73    1.54
   4  -3 -11    9.35    0.60
  -4   3  11    9.41    0.65
   3  -3 -11   12.15    0.65
  -3   3  11   11.96    0.68
  -3   3  11   13.29    0.64
   2  -3 -11   97.28    2.75
   2  -3 -11   91.23    2.50
  -2   3  11   89.49    2.61
  -2   3  11   98.71    2.50
   1  -3 -11  103.05    2.96
   1  -3 -11  100.64    2.62
  -1   3  11  103.71    2.65
  -1   3  11   95.57    2.73
   0  -3 -11   59.10    1.99
   0   3  11   60.44    1.79
   0   3  11   58.06    1.75
  -1  -3 -11   52.46    1.86
   1   3  11   49.19    1.58
   1   3  11   50.95    1.59
  -2  -3 -11   14.65    0.91
   2   3  11   15.62    0.77
  -3  -3 -11   19.97    1.10
   3   3  11   20.41    0.93
  -4  -3 -11   51.11    2.02
   4   3  11   54.61    1.79
  -5  -3 -11   70.56    2.54
   5   3  11   70.41    2.24
   6  -4 -11    4.93    0.57
  -6   4  11    4.36    0.60
   5  -4 -11   43.95    1.59
  -5   4  11   45.73    1.75
   4  -4 -11   64.87    2.02
  -4   4  11   65.38    2.16
   3  -4 -11   68.43    2.04
  -3   4  11   70.42    2.18
   2  -4 -11   24.18    0.96
  -2   4  11   26.61    1.06
   1  -4 -11    0.46    0.23
  -1   4  11    0.41    0.20
   0  -4 -11   14.29    0.82
   0   4  11   12.88    0.67
   0   4  11   13.73    0.71
  -1  -4 -11   50.77    1.88
   1   4  11   52.65    1.64
   1   4  11   52.39    1.69
  -2  -4 -11  106.40    3.30
   2   4  11  106.65    3.00
   2   4  11  108.04    2.91
  -3  -4 -11   71.12    2.50
   3   4  11   69.36    2.13
  -4  -4 -11   16.78    1.10
   4   4  11   18.02    0.92
   5   4  11    1.70    0.39
   6  -5 -11   62.50    2.08
  -6   5  11   58.92    2.24
   5  -5 -11   18.18    0.95
  -5   5  11   17.70    1.03
   4  -5 -11    0.40    0.26
  -4   5  11    1.15    0.33
   3  -5 -11   37.01    1.35
  -3   5  11   36.78    1.44
  -2   5  11   67.04    2.14
   1  -5 -11   72.33    2.32
  -1   5  11   68.05    2.18
   0  -5 -11  111.10    3.31
   0   5  11  108.39    3.11
  -1  -5 -11   41.83    1.68
   1   5  11   43.02    1.54
  -2  -5 -11    0.87    0.34
   2   5  11    0.88    0.31
  -3  -5 -11    9.05    0.79
   5  -6 -11   38.36    1.52
  -5   6  11   37.65    1.65
   4  -6 -11   72.70    2.26
  -4   6  11   67.63    2.39
  -3   6  11   48.68    1.81
  -2   6  11   30.50    1.30
   1  -6 -11    5.60    0.57
  -1   6  11    5.36    0.53
   0  -6 -11    4.30    0.58
   0   6  11    6.07    0.56
  -1  -6 -11   51.79    1.97
   1   6  11   47.09    1.75
  -2  -6 -11   53.81    2.12
   2   6  11   55.42    1.93
  -2   7  11   33.08    1.44
   1  -7 -11   68.43    2.39
  -1   7  11   62.40    2.20
   0  -7 -11   62.24    2.30
   0   7  11   58.60    2.11
  -2  -8  12   69.24    2.23
   1   8 -12   91.91    3.03
  -1  -8  12   86.57    2.66
   0   8 -12   59.19    2.28
   0  -8  12   54.03    1.92
  -1   8 -12   13.76    1.01
   1  -8  12   11.45    0.78
   4   7 -12   70.21    2.21
  -4  -7  12   68.47    2.20
   3   7 -12   30.63    1.27
  -3  -7  12   32.26    1.29
   2   7 -12   14.64    0.83
   1   7 -12    3.84    0.56
   1   7 -12    4.47    0.52
  -1  -7  12    3.47    0.48
   0   7 -12   53.04    2.06
   0  -7  12   49.20    1.74
  -1   7 -12   65.34    2.45
   1  -7  12   62.98    2.07
  -2   7 -12   61.29    2.39
   2  -7  12   60.02    2.01
  -3   7 -12   41.58    1.90
   3  -7  12   43.23    1.62
   5   6 -12    3.69    0.49
  -5  -6  12    3.37    0.48
   4   6 -12    1.27    0.34
  -4  -6  12    0.93    0.31
   3   6 -12   35.47    1.36
  -3  -6  12   36.68    1.38
   2   6 -12   91.86    2.63
  -2  -6  12   91.08    2.63
   1   6 -12  122.69    3.62
   1   6 -12  118.19    3.24
  -1  -6  12  117.99    3.21
   0   6 -12   40.13    1.71
   0   6 -12   40.51    1.45
   0  -6  12   38.95    1.34
  -1   6 -12    4.92    0.67
   1  -6  12    4.96    0.54
  -2   6 -12    0.76    0.34
   2  -6  12    0.39    0.26
  -3   6 -12   42.80    1.88
   3  -6  12   39.01    1.50
  -4   6 -12  116.83    3.82
   4  -6  12  115.91    3.27
   6   5 -12   26.17    1.14
  -6  -5  12   25.91    1.22
   5   5 -12   84.30    2.49
  -5  -5  12   85.62    2.57
   4   5 -12   94.91    2.68
  -4  -5  12   94.15    2.72
   3   5 -12   73.26    2.22
  -3  -5  12   77.67    2.28
   2   5 -12    9.49    0.62
  -2  -5  12   10.29    0.64
   1   5 -12    9.27    0.61
   1   5 -12    9.06    0.70
  -1  -5  12    9.22    0.61
   0   5 -12   44.73    1.55
   0   5 -12   48.01    1.86
   0  -5  12   47.15    1.50
  -1   5 -12  106.93    2.97
  -1   5 -12  115.07    3.52
   1  -5  12  108.21    2.88
  -2   5 -12  146.76    4.40
   2  -5  12  142.83    3.79
   2  -5  12  146.58    3.71
  -3   5 -12   44.33    1.90
   3  -5  12   41.54    1.46
   3  -5  12   45.59    1.55
  -4   5 -12   10.87    0.89
   4  -5  12   10.16    0.69
  -5   5 -12    3.99    0.66
   7   4 -12   61.52    2.02
   6   4 -12   33.86    1.32
  -6  -4  12   35.33    1.44
   5   4 -12   12.31    0.71
  -5  -4  12   13.23    0.79
   4   4 -12    5.81    0.48
  -4  -4  12    5.23    0.50
   3   4 -12   63.75    1.94
  -3  -4  12   65.75    2.01
   2   4 -12   92.87    2.55
  -2  -4  12   91.59    2.59
   1   4 -12   89.40    2.72
   1   4 -12   80.69    2.36
  -1  -4  12   83.54    2.40
   0   4 -12   60.42    1.88
   0   4 -12   65.19    2.23
   0  -4  12   60.99    1.83
  -1   4 -12   12.66    0.70
  -1   4 -12   13.73    0.89
   1  -4  12   13.72    0.68
  -2   4 -12   13.97    0.96
   2  -4  12   15.46    0.77
   2  -4  12   15.62    0.76
  -3   4 -12   62.51    2.39
   3  -4  12   65.67    1.99
   3  -4  12   71.72    2.04
  -4   4 -12   40.48    1.80
   4  -4  12   41.42    1.46
   4  -4  12   45.20    1.48
  -5   4 -12   61.19    2.43
   5  -4  12   67.91    2.06
   7   3 -12    7.13    0.59
  -7  -3  12    6.29    0.62
   6   3 -12   45.90    1.59
  -6  -3  12   46.54    1.70
   5   3 -12   75.20    2.21
  -5  -3  12   74.87    2.30
   4   3 -12   97.55    2.66
  -4  -3  12   97.68    2.75
   3   3 -12   97.18    2.63
  -3  -3  12   97.09    2.70
   2   3 -12   13.62    0.68
  -2  -3  12   13.62    0.71
   1   3 -12   16.08    0.75
   1   3 -12   16.40    0.89
  -1  -3  12   16.05    0.78
   0   3 -12   58.08    2.05
   0   3 -12   59.05    1.78
   0  -3  12   60.34    1.77
  -1   3 -12  104.60    2.79
  -1   3 -12  102.09    3.20
   1  -3  12  108.08    2.79
  -2   3 -12  125.81    3.74
  -2   3 -12  120.14    3.19
   2  -3  12  127.89    3.26
  -3   3 -12   47.19    1.89
   3  -3  12   53.13    1.60
   3  -3  12   48.43    1.61
  -4   3 -12    2.23    0.46
   4  -3  12    2.12    0.36
  -5   3 -12    8.10    0.77
   5  -3  12    8.89    0.63
  -6   3 -12   45.51    1.94
   6  -3  12   44.54    1.63
   7   2 -12   83.70    2.50
  -7  -2  12   82.37    2.61
   6   2 -12   46.59    1.62
  -6  -2  12   48.78    1.73
   5   2 -12   11.36    0.66
  -5  -2  12   11.72    0.73
   4   2 -12    2.29    0.33
  -4  -2  12    1.85    0.33
   3   2 -12   65.50    1.89
  -3  -2  12   64.49    1.96
   2   2 -12  140.00    3.48
  -2  -2  12  135.52    3.55
   1   2 -12   81.46    2.20
   1   2 -12   78.49    2.46
  -1  -2  12   80.18    2.25
   0   2 -12   43.53    1.37
   0   2 -12   42.48    1.59
   0  -2  12   43.10    1.38
  -1   2 -12    2.03    0.39
  -1   2 -12    1.99    0.31
   1  -2  12    2.04    0.30
  -2   2 -12   25.21    0.94
  -2   2 -12   24.66    1.17
   2  -2  12   24.17    0.98
  -3   2 -12   85.24    2.72
   3  -2  12   81.96    2.38
  -4   2 -12   96.88    3.05
   4  -2  12   92.52    2.66
  -5   2 -12   71.98    2.48
   5  -2  12   66.11    2.12
  -6   2 -12   26.50    1.37
   6  -2  12   25.11    1.15
   8   1 -12    0.19    0.31
   7   1 -12    5.06    0.58
  -7  -1  12    6.08    0.61
   6   1 -12   40.37    1.47
  -6  -1  12   39.39    1.51
   5   1 -12  130.79    3.48
  -5  -1  12  133.27    3.54
   4   1 -12  139.81    3.64
  -4  -1  12  144.97    3.72
   3   1 -12   30.94    1.12
  -3  -1  12   32.37    1.19
   2   1 -12    0.71    0.20
  -2  -1  12    0.25    0.17
   1   1 -12    6.48    0.50
   1   1 -12    6.33    0.44
  -1  -1  12    6.44    0.45
   0   1 -12   62.38    2.02
   0   1 -12   63.79    1.78
   0  -1  12   61.59    1.81
  -1   1 -12  178.34    4.38
  -1   1 -12  186.07    4.94
   1  -1  12  183.76    4.48
  -2   1 -12   97.42    2.93
  -2   1 -12   93.42    2.50
   2  -1  12   98.55    2.65
  -3   1 -12   34.09    1.41
   3  -1  12   32.84    1.24
  -4   1 -12    2.47    0.44
   4  -1  12    2.86    0.40
  -5   1 -12   10.13    0.79
   5  -1  12   10.07    0.68
  -6   1 -12   33.41    1.53
   6  -1  12   30.55    1.32
   7   0 -12   98.80    2.90
  -7   0  12   95.79    2.93
  -7   0  12   98.22    2.87
   6   0 -12   69.55    2.19
  -6   0  12   73.79    2.25
  -6   0  12   65.50    2.15
   5   0 -12   15.80    0.83
  -5   0  12   16.48    0.83
   4   0 -12   15.72    0.77
  -4   0  12   13.30    0.74
   3   0 -12   50.88    1.58
  -3   0  12   50.10    1.62
   2   0 -12   67.57    1.93
  -2   0  12   67.65    1.98
   1   0 -12  149.07    3.95
   1   0 -12  144.04    3.61
  -1   0  12  147.21    3.66
   0   0 -12   65.75    2.06
   0   0 -12   64.38    1.80
   0   0  12   64.89    1.86
  -1   0 -12    1.07    0.29
  -1   0 -12    1.25    0.23
   1   0  12    1.08    0.25
  -2   0 -12   27.20    1.18
   2   0  12   27.68    1.07
  -3   0 -12   70.77    2.31
   3   0  12   68.60    2.09
  -4   0 -12  108.16    3.31
   4   0  12  110.19    3.03
  -5   0 -12   68.35    2.39
   5   0  12   67.79    2.15
  -6   0 -12   26.76    1.35
   6   0  12   25.11    1.18
   7  -1 -12    3.02    0.49
  -7   1  12    3.91    0.51
  -7   1  12    3.26    0.48
   6  -1 -12   56.71    1.93
  -6   1  12   61.06    2.00
  -6   1  12   56.99    1.88
   5  -1 -12   92.93    2.64
  -5   1  12   87.41    2.57
  -5   1  12   91.86    2.70
   4  -1 -12   84.78    2.42
  -4   1  12   84.50    2.46
  -4   1  12   83.32    2.40
   3  -1 -12   40.46    1.37
  -3   1  12   40.50    1.40
   2  -1 -12    4.61    0.41
  -2   1  12    4.66    0.41
   1  -1 -12   12.08    0.67
   1  -1 -12   12.47    0.61
  -1   1  12   12.85    0.63
   0  -1 -12  111.71    2.82
   0  -1 -12  110.67    3.20
   0   1  12  112.91    2.92
  -1  -1 -12  116.90    3.42
   1   1  12  121.35    3.12
  -2  -1 -12   40.93    1.56
   2   1  12   40.53    1.40
  -3  -1 -12   18.61    0.99
   3   1  12   18.28    0.88
  -4  -1 -12    0.97    0.33
   4   1  12    0.45    0.24
  -5  -1 -12   14.20    0.93
   5   1  12   13.93    0.82
   7  -2 -12   51.00    1.84
  -7   2  12   49.61    1.87
   6  -2 -12   28.93    1.25
  -6   2  12   29.31    1.30
   5  -2 -12    5.35    0.53
  -5   2  12    4.86    0.52
  -5   2  12    4.95    0.52
   4  -2 -12   10.50    0.66
  -4   2  12   10.48    0.66
  -4   2  12   11.32    0.68
   3  -2 -12   64.64    1.94
  -3   2  12   66.13    1.92
  -3   2  12   63.56    1.96
   2  -2 -12   81.02    2.26
  -2   2  12   82.09    2.25
   1  -2 -12   82.36    2.48
   1  -2 -12   79.04    2.19
  -1   2  12   80.46    2.21
   0  -2 -12   20.37    0.98
   0   2  12   17.65    0.80
  -1  -2 -12    4.51    0.54
   1   2  12    3.27    0.40
  -2  -2 -12   42.63    1.66
   2   2  12   40.70    1.44
  -3  -2 -12   80.17    2.64
   3   2  12   78.03    2.34
  -4  -2 -12  101.07    3.23
   4   2  12  104.86    2.95
  -5  -2 -12   85.80    2.90
   5   2  12   87.46    2.64
  -7   3  12    6.23    0.66
   6  -3 -12   44.48    1.67
  -6   3  12   47.51    1.80
   5  -3 -12   93.10    2.72
  -5   3  12   94.49    2.88
   4  -3 -12   70.67    2.14
  -4   3  12   70.36    2.25
   3  -3 -12   62.92    1.91
  -3   3  12   64.19    1.99
   2  -3 -12    3.41    0.39
  -2   3  12    3.57    0.38
  -2   3  12    3.30    0.38
   1  -3 -12   38.67    1.53
  -1   3  12   41.07    1.33
   0  -3 -12   92.61    2.89
   0   3  12   91.65    2.53
  -1  -3 -12   68.97    2.38
   1   3  12   69.20    2.06
  -2  -3 -12   79.31    2.70
   2   3  12   81.51    2.36
  -3  -3 -12   37.60    1.63
   3   3  12   38.06    1.41
  -4  -3 -12    0.57    0.32
   4   3  12    0.44    0.27
   5   3  12   14.26    0.89
   6  -4 -12   39.37    1.56
  -6   4  12   39.31    1.67
   5  -4 -12    1.80    0.38
  -5   4  12    1.44    0.40
   4  -4 -12    9.67    0.65
  -4   4  12    8.88    0.67
   3  -4 -12   26.29    1.07
  -3   4  12   26.17    1.13
   2  -4 -12   96.48    2.60
  -2   4  12   93.08    2.72
   1  -4 -12   46.57    1.71
  -1   4  12   44.54    1.54
   0  -4 -12    1.08    0.34
   0   4  12    1.94    0.34
  -1  -4 -12    0.79    0.33
   1   4  12    1.57    0.32
  -2  -4 -12   19.56    1.11
   2   4  12   17.89    0.90
  -3  -4 -12   72.37    2.62
   3   4  12   71.73    2.23
   4   4  12   64.11    2.12
   5  -5 -12   55.75    1.96
  -5   5  12   59.73    2.16
   4  -5 -12   52.68    1.79
  -4   5  12   51.83    1.91
   3  -5 -12   17.02    0.86
  -3   5  12   15.40    0.88
  -2   5  12    1.78    0.37
   1  -5 -12   21.79    1.10
  -1   5  12   20.73    0.99
   0  -5 -12   54.63    2.01
   0   5  12   52.56    1.82
  -1  -5 -12   76.47    2.61
   1   5  12   74.48    2.33
  -2  -5 -12   60.05    2.27
  -3   6  12   37.82    1.55
  -2   6  12   67.76    2.25
   1  -6 -12   33.64    1.47
  -1   6  12   31.08    1.33
   0  -6 -12   11.86    0.88
   0   6  12   10.96    0.75
  -1  -6 -12    0.75    0.38
   1   6  12    0.56    0.30
   3   7 -13   57.46    1.94
  -3  -7  13   58.38    1.97
   2   7 -13   68.44    2.19
   1   7 -13   45.49    1.67
   1   7 -13   48.63    1.94
   0   7 -13    5.57    0.73
   0  -7  13    5.73    0.56
  -1   7 -13    2.00    0.50
   1  -7  13    2.19    0.42
  -2   7 -13   30.39    1.59
   2  -7  13   28.90    1.29
   5   6 -13   51.18    1.81
  -5  -6  13   51.44    1.84
   4   6 -13   38.17    1.47
  -4  -6  13   39.31    1.50
   3   6 -13    3.89    0.51
  -3  -6  13    4.32    0.53
   2   6 -13    5.96    0.54
  -2  -6  13    5.41    0.54
   1   6 -13   48.77    1.69
   1   6 -13   49.73    1.93
  -1  -6  13   49.88    1.67
   0   6 -13  101.93    3.30
   0   6 -13   97.30    2.84
   0  -6  13  101.25    2.75
  -1   6 -13   90.98    3.11
   1  -6  13   89.16    2.66
  -2   6 -13   53.43    2.20
   2  -6  13   52.27    1.82
  -3   6 -13    6.19    0.79
   3  -6  13    6.73    0.64
   6   5 -13    4.18    0.54
   5   5 -13    7.26    0.61
  -5  -5  13    7.27    0.62
   4   5 -13   48.10    1.64
  -4  -5  13   46.09    1.67
   3   5 -13   74.16    2.28
  -3  -5  13   80.35    2.37
   2   5 -13   61.30    1.95
  -2  -5  13   63.36    2.01
   1   5 -13   76.00    2.46
   1   5 -13   65.90    2.10
  -1  -5  13   67.59    2.10
   0   5 -13   14.73    0.98
   0   5 -13   13.72    0.77
   0  -5  13   14.61    0.75
  -1   5 -13   11.79    0.72
  -1   5 -13   11.14    0.90
   1  -5  13   11.10    0.64
  -2   5 -13   52.36    2.15
   2  -5  13   53.09    1.69
   2  -5  13   51.57    1.75
  -3   5 -13   56.14    2.28
   3  -5  13   56.16    1.86
   3  -5  13   56.88    1.81
  -4   5 -13   43.32    2.00
   4  -5  13   48.04    1.65
   6   4 -13   44.59    1.59
  -6  -4  13   43.10    1.67
   5   4 -13   47.33    1.61
  -5  -4  13   46.07    1.69
   4   4 -13   22.69    1.00
  -4  -4  13   22.92    1.06
   3   4 -13    4.44    0.46
  -3  -4  13    4.31    0.50
   2   4 -13   15.64    0.77
  -2  -4  13   13.43    0.78
   1   4 -13   67.83    2.06
   1   4 -13   71.38    2.39
  -1  -4  13   67.36    2.06
   0   4 -13  160.40    4.56
   0   4 -13  150.77    3.98
   0  -4  13  156.51    3.95
  -1   4 -13  112.09    3.10
  -1   4 -13  115.02    3.62
   1  -4  13  119.93    3.08
  -2   4 -13   44.15    1.92
   2  -4  13   50.27    1.63
   2  -4  13   49.79    1.60
  -3   4 -13    4.92    0.69
   3  -4  13    4.45    0.51
   3  -4  13    4.57    0.47
  -4   4 -13    4.26    0.66
   4  -4  13    5.25    0.52
  -5   4 -13   31.26    1.64
   5  -4  13   35.76    1.38
   7   3 -13   19.38    0.98
   6   3 -13    0.63    0.30
  -6  -3  13    0.30    0.26
   5   3 -13   15.53    0.80
  -5  -3  13   15.20    0.86
   4   3 -13   57.30    1.81
  -4  -3  13   58.85    1.91
   3   3 -13  132.15    3.41
  -3  -3  13  130.77    3.51
   2   3 -13  229.43    5.52
  -2  -3  13  228.22    5.63
   1   3 -13   74.89    2.43
   1   3 -13   71.81    2.09
  -1  -3  13   70.91    2.12
   0   3 -13    3.87    0.40
   0   3 -13    3.43    0.50
   0  -3  13    3.82    0.42
  -1   3 -13    1.47    0.38
  -1   3 -13    1.91    0.32
   1  -3  13    1.34    0.27
  -2   3 -13   40.90    1.42
  -2   3 -13   43.44    1.77
   2  -3  13   47.18    1.51
  -3   3 -13   89.09    2.99
   3  -3  13   93.63    2.55
   3  -3  13   89.84    2.60
  -4   3 -13   55.86    2.14
   4  -3  13   52.06    1.78
  -5   3 -13   26.74    1.40
   5  -3  13   25.64    1.15
   7   2 -13   38.65    1.49
  -7  -2  13   39.35    1.60
   6   2 -13   67.61    2.11
  -6  -2  13   66.69    2.21
   5   2 -13   74.91    2.24
  -5  -2  13   76.39    2.34
   4   2 -13   45.84    1.53
  -4  -2  13   47.65    1.63
   3   2 -13    6.40    0.49
  -3  -2  13    7.92    0.56
   2   2 -13   14.10    0.69
  -2  -2  13   13.60    0.75
   1   2 -13   70.38    2.27
   1   2 -13   70.65    2.00
  -1  -2  13   67.12    2.02
   0   2 -13   98.98    2.99
   0   2 -13   96.19    2.62
   0  -2  13   98.59    2.64
  -1   2 -13   85.79    2.69
  -1   2 -13   82.10    2.31
   1  -2  13   83.43    2.36
  -2   2 -13   52.02    1.92
  -2   2 -13   49.30    1.57
   2  -2  13   52.82    1.67
  -3   2 -13    2.15    0.43
   3  -2  13    2.75    0.40
  -4   2 -13    6.76    0.66
   4  -2  13    6.97    0.58
  -5   2 -13   31.18    1.50
   5  -2  13   31.39    1.31
   7   1 -13   20.29    1.03
  -7  -1  13   20.11    1.08
   6   1 -13    2.34    0.40
  -6  -1  13    2.21    0.42
   5   1 -13   15.25    0.80
  -5  -1  13   13.70    0.80
   4   1 -13   85.43    2.40
  -4  -1  13   81.75    2.44
   3   1 -13  125.24    3.23
  -3  -1  13  122.52    3.31
   2   1 -13  137.29    3.42
  -2  -1  13  130.84    3.49
   1   1 -13   52.05    1.73
   1   1 -13   50.32    1.53
  -1  -1  13   47.78    1.55
   0   1 -13   10.16    0.68
   0   1 -13   10.85    0.58
   0  -1  13   10.08    0.58
  -1   1 -13   15.79    0.72
  -1   1 -13   15.74    0.88
   1  -1  13   16.81    0.78
  -2   1 -13   64.17    2.18
   2  -1  13   62.92    1.94
  -3   1 -13   91.77    2.93
   3  -1  13   94.22    2.66
  -4   1 -13   80.03    2.64
   4  -1  13   75.89    2.36
  -5   1 -13   13.20    0.93
   5  -1  13   13.56    0.84
   7   0 -13   48.93    1.79
  -7   0  13   47.44    1.75
   6   0 -13   87.39    2.64
  -6   0  13   88.71    2.64
   5   0 -13   80.52    2.46
  -5   0  13   86.13    2.51
   4   0 -13   50.35    1.66
  -4   0  13   51.61    1.71
   3   0 -13    1.31    0.29
  -3   0  13    1.73    0.32
   2   0 -13   23.40    0.93
  -2   0  13   23.06    0.96
   1   0 -13  121.77    3.11
   1   0 -13  125.90    3.42
  -1   0  13  117.50    3.14
   0   0 -13  117.84    3.36
   0   0 -13  119.42    3.01
   0   0  13  116.96    3.08
  -1   0 -13  122.00    3.50
  -2   0 -13   46.30    1.70
   2   0  13   43.95    1.52
  -3   0 -13    4.12    0.53
   3   0  13    3.88    0.47
  -4   0 -13   16.01    0.96
   4   0  13   16.27    0.88
  -5   0 -13   45.80    1.84
   5   0  13   43.62    1.65
   7  -1 -13   17.92    1.02
  -7   1  13   18.34    0.98
   6  -1 -13    0.51    0.31
  -6   1  13    0.03    0.22
   5  -1 -13   13.17    0.79
  -5   1  13   13.42    0.79
   4  -1 -13   87.38    2.55
  -4   1  13   90.82    2.59
   3  -1 -13  151.51    3.93
  -3   1  13  156.41    3.96
   2  -1 -13   85.86    2.38
  -2   1  13   86.54    2.39
   1  -1 -13   61.17    1.78
   1  -1 -13   60.92    1.97
  -1   1  13   61.03    1.82
   0  -1 -13   16.45    0.70
   0  -1 -13   15.44    0.84
   0   1  13   15.49    0.75
  -1  -1 -13   10.95    0.73
   1   1  13   11.03    0.64
  -2  -1 -13   67.19    2.28
   2   1  13   68.41    2.08
  -3  -1 -13   43.94    1.71
   3   1  13   43.22    1.55
  -4  -1 -13   41.48    1.70
   4   1  13   41.81    1.56
  -5  -1 -13   12.03    0.89
   5   1  13   12.82    0.82
  -7   2  13   43.50    1.73
   6  -2 -13   70.94    2.34
  -6   2  13   77.40    2.47
   5  -2 -13   87.86    2.65
  -5   2  13   92.39    2.65
   4  -2 -13   63.09    2.01
  -4   2  13   65.73    2.03
   3  -2 -13    0.58    0.25
  -3   2  13    0.15    0.19
   2  -2 -13   18.43    0.83
  -2   2  13   19.06    0.83
   1  -2 -13   54.80    1.90
   1  -2 -13   55.60    1.67
  -1   2  13   56.48    1.71
   0  -2 -13  141.34    4.01
   0   2  13  139.00    3.60
  -1  -2 -13   90.21    2.85
   1   2  13   89.93    2.54
  -2  -2 -13   19.07    1.05
   2   2  13   20.08    0.94
  -3  -2 -13    1.29    0.39
   3   2  13    1.00    0.31
  -4  -2 -13   15.90    1.00
   4   2  13   16.12    0.92
   6  -3 -13    1.77    0.43
  -6   3  13    1.59    0.42
   5  -3 -13   22.73    1.09
  -5   3  13   22.44    1.12
   4  -3 -13   51.85    1.76
  -4   3  13   53.03    1.83
   3  -3 -13  109.72    3.00
   2  -3 -13   86.02    2.43
  -2   3  13   86.88    2.39
   1  -3 -13   33.23    1.41
  -1   3  13   32.61    1.20
   0  -3 -13    0.89    0.32
   0   3  13    0.55    0.24
  -1  -3 -13   18.69    1.06
   1   3  13   16.84    0.86
  -2  -3 -13   41.78    1.73
   2   3  13   39.83    1.48
  -3  -3 -13   74.28    2.63
   3   3  13   74.19    2.32
   4   3  13   38.69    1.53
   5  -4 -13   56.82    1.98
  -5   4  13   60.65    2.13
   4  -4 -13    9.93    0.71
  -4   4  13    9.49    0.70
   3  -4 -13    0.47    0.24
  -3   4  13    0.08    0.22
   1  -4 -13   74.11    2.49
   0  -4 -13   95.46    3.08
  -1  -4 -13   53.59    2.06
   1   4  13   50.51    1.73
  -2  -4 -13   23.26    1.28
   2   4  13   22.35    1.05
  -3  -4 -13    0.82    0.38
   3   4  13    0.71    0.32
   4  -5 -13   68.32    2.20
  -4   5  13   68.85    2.34
  -3   5  13   67.37    2.22
  -2   5  13   62.16    2.06
   1  -5 -13   34.70    1.52
   0  -5 -13    0.21    0.30
  -1  -5 -13   26.09    1.36
   1   7 -14   62.03    2.08
   0   7 -14   44.19    1.95
  -1   7 -14   28.05    1.56
   4   6 -14   49.76    1.77
  -4  -6  14   49.17    1.80
   3   6 -14   42.31    1.58
  -3  -6  14   42.57    1.61
   2   6 -14   20.63    1.02
  -2  -6  14   22.66    1.10
   1   6 -14    0.67    0.30
  -1  -6  14    0.87    0.30
   0   6 -14   16.24    0.89
   0   6 -14   16.79    1.09
   0  -6  14   16.71    0.84
  -1   6 -14   58.02    2.30
   1  -6  14   52.79    1.87
  -2   6 -14   90.92    3.22
   2  -6  14   87.82    2.69
   3  -6  14   74.69    2.39
   5   5 -14   16.33    0.92
  -5  -5  14   18.00    0.99
   4   5 -14    1.50    0.36
  -4  -5  14    2.60    0.44
   3   5 -14    9.60    0.68
  -3  -5  14   10.89    0.73
   2   5 -14   28.48    1.19
  -2  -5  14   28.76    1.24
   1   5 -14   80.23    2.64
   1   5 -14   72.13    2.26
  -1  -5  14   72.20    2.23
   0   5 -14   84.05    2.52
   0   5 -14   88.63    2.98
   0  -5  14   85.99    2.46
  -1   5 -14   43.56    1.93
  -1   5 -14   41.99    1.54
   1  -5  14   44.59    1.50
  -2   5 -14    1.61    0.47
   2  -5  14    1.56    0.37
   2  -5  14    2.18    0.37
  -3   5 -14    8.09    0.83
   3  -5  14    8.90    0.68
   3  -5  14    8.62    0.65
   6   4 -14    9.74    0.70
   5   4 -14   26.86    1.17
  -5  -4  14   28.85    1.27
   4   4 -14   55.96    1.84
  -4  -4  14   58.68    1.96
   3   4 -14   76.57    2.29
  -3  -4  14   78.16    2.39
   2   4 -14   16.02    0.82
  -2  -4  14   14.26    0.83
   1   4 -14    0.72    0.28
   1   4 -14    1.05    0.37
  -1  -4  14    0.74    0.26
   0   4 -14   21.37    0.98
   0   4 -14   22.33    1.23
   0  -4  14   22.37    0.97
  -1   4 -14   72.20    2.21
  -1   4 -14   74.67    2.66
   1  -4  14   75.02    2.19
  -2   4 -14  120.37    3.79
   2  -4  14  118.29    3.19
   2  -4  14  116.05    3.21
  -3   4 -14   79.41    2.87
   3  -4  14   80.72    2.40
   3  -4  14   82.53    2.44
   4  -4  14   14.65    0.85
   6   3 -14   39.99    1.51
  -6  -3  14   42.26    1.65
   5   3 -14   15.02    0.82
  -5  -3  14   14.56    0.87
   4   3 -14    1.02    0.29
  -4  -3  14    0.74    0.28
  -3  -3  14    9.82    0.67
   2   3 -14   78.66    2.29
  -2  -3  14   80.63    2.40
   1   3 -14   97.31    3.00
   1   3 -14   93.09    2.60
  -1  -3  14   91.47    2.62
   0   3 -14   84.71    2.77
   0   3 -14   84.74    2.40
   0  -3  14   82.39    2.38
  -1   3 -14   37.70    1.63
  -1   3 -14   37.71    1.35
   1  -3  14   39.13    1.37
  -2   3 -14    3.86    0.45
  -2   3 -14    3.84    0.59
   2  -3  14    3.74    0.46
  -3   3 -14   23.54    1.28
   3  -3  14   23.52    1.06
  -4   3 -14   45.52    1.92
   4  -3  14   43.52    1.61
   6   2 -14    9.35    0.67
  -6  -2  14    9.74    0.73
   5   2 -14   46.08    1.61
  -5  -2  14   48.57    1.74
   4   2 -14   68.86    2.10
  -4  -2  14   72.06    2.23
   3   2 -14   60.75    1.86
  -3  -2  14   59.75    1.96
   2   2 -14   34.09    1.20
  -2  -2  14   31.30    1.25
   1   2 -14    0.91    0.32
   1   2 -14    0.99    0.26
  -1  -2  14    1.70    0.30
   0   2 -14   21.66    0.94
   0   2 -14   23.39    1.13
   0  -2  14   24.54    0.99
  -1   2 -14   88.58    2.47
  -1   2 -14   88.89    2.85
   1  -2  14   90.89    2.53
  -2   2 -14  111.82    3.45
   2  -2  14  112.58    3.07
  -3   2 -14   79.79    2.71
   3  -2  14   80.28    2.41
  -4   2 -14   21.92    1.20
   4  -2  14   20.66    1.04
   6   1 -14   55.81    1.92
  -6  -1  14   58.72    2.01
   5   1 -14   39.72    1.47
  -5  -1  14   40.36    1.54
   4   1 -14    0.84    0.26
  -4  -1  14    0.29    0.24
   3   1 -14   19.39    0.88
  -3  -1  14   19.54    0.95
   2   1 -14   76.89    2.19
  -2  -1  14   77.04    2.26
   1   1 -14  151.41    3.99
   1   1 -14  136.78    3.57
  -1  -1  14  136.22    3.62
   0   1 -14  107.10    3.05
   0   1 -14   98.14    2.66
   0  -1  14   95.26    2.69
  -1   1 -14   39.25    1.54
  -1   1 -14   38.27    1.29
   1  -1  14   38.65    1.38
  -2   1 -14    1.67    0.38
   2  -1  14    1.31    0.31
  -3   1 -14   18.23    1.03
   3  -1  14   19.24    0.95
  -4   1 -14   50.53    1.96
   4  -1  14   48.21    1.74
   6   0 -14   19.34    1.01
  -6   0  14   15.88    0.93
   5   0 -14   47.54    1.70
  -5   0  14   52.00    1.78
   4   0 -14   78.94    2.35
  -4   0  14   80.34    2.43
   3   0 -14   71.13    2.10
  -3   0  14   70.55    2.18
   2   0 -14   39.48    1.34
  -2   0  14   38.91    1.37
   1   0 -14    1.27    0.26
   1   0 -14    1.78    0.34
  -1   0  14    1.45    0.29
   0   0 -14   19.98    0.83
   0   0 -14   20.99    1.00
   0   0  14   19.60    0.89
  -1   0 -14   73.42    2.40
   1   0  14   73.88    2.18
  -2   0 -14   80.46    2.63
   2   0  14   82.10    2.41
  -3   0 -14   58.24    2.13
   3   0  14   59.08    1.95
  -4   0 -14   17.18    1.03
   4   0  14   17.13    0.94
   6  -1 -14   47.56    1.78
  -6   1  14   48.33    1.75
   5  -1 -14   21.17    1.03
  -5   1  14   19.83    1.01
   4  -1 -14    0.31    0.26
  -4   1  14    0.40    0.25
   3  -1 -14   17.10    0.85
  -3   1  14   17.74    0.86
   2  -1 -14   74.70    2.17
  -2   1  14   75.42    2.19
   1  -1 -14  107.39    2.89
   1  -1 -14  113.83    3.21
  -1   1  14  110.02    2.94
   0  -1 -14  101.73    3.05
  -1  -1 -14   31.07    1.36
   1   1  14   33.36    1.25
  -2  -1 -14    6.50    0.62
   2   1  14    7.08    0.57
  -3  -1 -14    8.71    0.72
   3   1  14    9.51    0.69
  -4  -1 -14   38.22    1.64
   4   1  14   35.31    1.45
   6  -2 -14   24.39    1.20
   5  -2 -14   57.72    1.97
   4  -2 -14  130.40    3.56
  -4   2  14  131.71    3.53
   3  -2 -14  101.77    2.86
  -3   2  14  104.62    2.84
   2  -2 -14   35.00    1.25
  -2   2  14   32.34    1.22
  -1   2  14    0.60    0.24
   0  -2 -14   28.66    1.30
   0   2  14   29.79    1.15
  -1  -2 -14   61.64    2.20
   1   2  14   63.18    1.98
  -2  -2 -14   82.91    2.76
   2   2  14   82.39    2.48
  -3  -2 -14   50.60    1.97
   3   2  14   48.70    1.76
   5  -3 -14   19.50    1.03
   4  -3 -14    7.07    0.61
   3  -3 -14   16.71    0.88
   2  -3 -14   71.40    2.14
  -1   3  14   77.20    2.26
   0  -3 -14   45.88    1.83
   0   3  14   47.13    1.60
  -1  -3 -14   27.18    1.34
   1   3  14   24.85    1.11
  -2  -3 -14    2.14    0.47
   2   3  14    1.42    0.36
  -3  -3 -14   11.80    0.91
   3   3  14   12.29    0.82
   4  -4 -14   81.51    2.50
   3  -4 -14   56.70    1.88
   0  -4 -14   22.33    1.25
  -1  -4 -14   55.19    2.19
  -2  -4 -14   65.22    2.47
   2   4  14   66.05    2.15
   0  -5 -14   61.03    2.35
  -3  -6  15   32.21    1.42
   2   6 -15   49.43    1.80
  -2  -6  15   53.08    1.86
   1   6 -15   46.62    1.72
  -1  -6  15   49.78    1.69
   0   6 -15   18.24    0.98
   0   6 -15   20.93    1.27
   0  -6  15   17.85    0.90
  -1   6 -15    0.94    0.43
   1  -6  15    0.48    0.33
   4   5 -15   48.90    1.74
  -4  -5  15   50.18    1.84
   3   5 -15    9.73    0.68
  -3  -5  15   10.24    0.75
   2   5 -15    0.35    0.27
  -2  -5  15    0.36    0.27
   1   5 -15    9.10    0.67
  -1  -5  15    9.14    0.64
   0   5 -15   55.63    2.21
   0   5 -15   52.83    1.83
   0  -5  15   53.64    1.77
  -1   5 -15   76.63    2.41
  -1   5 -15   80.75    2.92
   1  -5  15   81.25    2.38
  -2   5 -15   48.44    2.14
   2  -5  15   50.32    1.69
   2  -5  15   47.85    1.73
   5   4 -15    2.15    0.42
  -5  -4  15    2.68    0.48
   4   4 -15   19.20    0.95
  -4  -4  15   19.85    1.04
   3   4 -15   65.39    2.05
  -3  -4  15   63.84    2.16
   2   4 -15   81.24    2.40
  -2  -4  15   80.90    2.48
   1   4 -15   65.77    2.04
  -1  -4  15   63.00    2.01
   0   4 -15   23.17    1.29
   0   4 -15   22.14    1.03
   0  -4  15   23.60    1.03
  -1   4 -15    0.09    0.23
  -1   4 -15    0.28    0.31
   1  -4  15    0.09    0.21
  -2   4 -15   20.38    1.25
   2  -4  15   20.22    0.97
   2  -4  15   18.40    0.92
  -3   4 -15   52.26    2.21
   3  -4  15   54.17    1.84
   5   3 -15   57.10    1.89
  -5  -3  15   57.33    2.02
   4   3 -15   43.48    1.55
  -4  -3  15   44.99    1.67
   3   3 -15   43.07    1.51
  -3  -3  15   43.10    1.62
   2   3 -15    1.97    0.37
  -2  -3  15    1.97    0.38
   1   3 -15   17.67    0.86
  -1  -3  15   17.94    0.88
   0   3 -15   52.55    2.00
   0   3 -15   49.27    1.66
   0  -3  15   50.31    1.67
  -1   3 -15   58.77    2.19
  -1   3 -15   54.92    1.82
   1  -3  15   59.41    1.87
  -2   3 -15   66.27    2.07
  -2   3 -15   72.25    2.53
   2  -3  15   68.82    2.14
  -3   3 -15   25.76    1.39
   3  -3  15   27.12    1.18
   5   2 -15    0.31    0.25
  -5  -2  15    0.57    0.31
   4   2 -15   16.80    0.85
  -4  -2  15   18.08    0.97
   3   2 -15   62.24    1.93
  -3  -2  15   61.40    2.05
   2   2 -15   81.66    2.32
  -2  -2  15   79.22    2.39
   1   2 -15   46.03    1.55
  -1  -2  15   48.77    1.61
   0   2 -15   16.97    0.96
   0   2 -15   16.46    0.81
   0  -2  15   16.03    0.81
  -1   2 -15    0.62    0.32
  -1   2 -15    1.30    0.31
   1  -2  15    1.41    0.31
  -2   2 -15   24.46    1.24
   2  -2  15   22.03    1.03
  -3   2 -15   96.18    3.16
   3  -2  15   96.98    2.83
   4  -2  15   93.04    2.80
   6   1 -15   48.94    1.77
  -6  -1  15   50.30    1.86
   5   1 -15   76.28    2.37
  -5  -1  15   81.13    2.52
   4   1 -15   43.36    1.53
  -4  -1  15   44.31    1.66
   3   1 -15    9.54    0.63
  -3  -1  15   10.23    0.71
   2   1 -15    1.11    0.28
  -2  -1  15    0.45    0.24
   1   1 -15   31.54    1.15
  -1  -1  15   29.84    1.18
   0   1 -15   69.99    2.04
   0   1 -15   70.97    2.33
   0  -1  15   67.58    2.08
  -1   1 -15  104.32    3.19
   1  -1  15  101.71    2.87
  -2   1 -15   95.35    3.04
   2  -1  15   94.78    2.74
  -3   1 -15   24.78    1.28
   3  -1  15   24.83    1.14
  -6   0  15    6.13    0.62
   5   0 -15    0.95    0.32
  -5   0  15    0.67    0.31
   4   0 -15   25.25    1.10
  -4   0  15   25.32    1.18
   3   0 -15   57.52    1.84
  -3   0  15   59.97    1.93
   2   0 -15   90.35    2.54
  -2   0  15   91.50    2.58
   1   0 -15   95.77    2.59
  -1   0  15   92.13    2.62
   0   0 -15   36.15    1.45
   0   0  15   34.60    1.29
  -1   0 -15   -0.12    0.23
   1   0  15    0.27    0.23
  -2   0 -15   22.81    1.19
   2   0  15   23.91    1.08
  -3   0 -15   72.59    2.56
   3   0  15   75.54    2.36
   5  -1 -15   62.49    2.11
  -5   1  15   64.36    2.16
   4  -1 -15   55.57    1.90
  -4   1  15   61.74    2.00
   3  -1 -15   12.33    0.73
  -3   1  15   12.85    0.76
   2  -1 -15    0.80    0.27
  -2   1  15    0.97    0.29
   1  -1 -15   23.96    0.98
  -1   1  15   23.95    1.02
   0  -1 -15   74.86    2.43
   0   1  15   71.70    2.18
  -1  -1 -15  109.39    3.32
   1   1  15  106.66    3.00
  -2  -1 -15   34.09    1.51
   2   1  15   34.43    1.37
  -3  -1 -15    4.13    0.59
   3   1  15    3.71    0.51
   5  -2 -15    0.60    0.32
   4  -2 -15   23.01    1.10
  -4   2  15   22.99    1.07
   3  -2 -15   82.88    2.50
  -3   2  15   88.99    2.52
   2  -2 -15   87.05    2.54
  -2   2  15   93.21    2.57
  -1   2  15   56.10    1.80
   0  -2 -15   18.45    1.04
   0   2  15   19.57    0.92
  -1  -2 -15    0.91    0.36
   1   2  15    0.81    0.29
  -2  -2 -15   33.08    1.54
   2   2  15   34.81    1.40
   3   2  15   55.74    1.95
   4  -3 -15   37.76    1.49
   3  -3 -15   19.67    0.98
  -1   3  15   32.61    1.26
   0  -3 -15   59.72    2.21
   0   3  15   58.33    1.91
  -1  -3 -15   81.11    2.81
   1   3  15   82.04    2.48
  -2  -3 -15   48.87    2.01
   2   3  15   49.86    1.79
   0  -4 -15   17.96    1.13
  -3  -5  16   45.77    1.78
   2   5 -16   23.37    1.10
  -2  -5  16   23.02    1.13
   1   5 -16   14.91    0.87
  -1  -5  16   14.37    0.83
   0   5 -16    0.17    0.26
   0   5 -16    0.39    0.38
   0  -5  16    0.25    0.25
  -1   5 -16   22.04    1.11
  -1   5 -16   26.34    1.47
   1  -5  16   23.61    1.08
   3   4 -16    0.14    0.24
  -3  -4  16    0.07    0.24
   2   4 -16   22.88    1.05
  -2  -4  16   22.31    1.08
   1   4 -16   59.08    1.95
  -1  -4  16   59.04    1.95
   0   4 -16   60.86    2.35
   0   4 -16   57.33    1.94
   0  -4  16   59.84    1.92
  -1   4 -16   42.40    1.57
  -1   4 -16   47.02    1.99
   1  -4  16   43.40    1.58
  -2   4 -16   17.22    1.15
   2  -4  16   15.48    0.89
   2  -4  16   15.40    0.89
   4   3 -16   40.65    1.51
  -4  -3  16   43.22    1.68
   3   3 -16   72.43    2.23
  -3  -3  16   73.80    2.38
   2   3 -16   48.36    1.65
  -2  -3  16   48.09    1.70
   1   3 -16    8.41    0.61
  -1  -3  16    8.07    0.62
   0   3 -16    2.48    0.41
   0   3 -16    1.99    0.47
   0  -3  16    2.17    0.38
  -1   3 -16   17.98    1.12
  -1   3 -16   18.74    0.90
   1  -3  16   17.54    0.91
  -2   3 -16   58.17    2.26
   2  -3  16   58.19    1.94
   4   2 -16    6.73    0.58
  -4  -2  16    6.25    0.62
   3   2 -16    2.45    0.42
  -3  -2  16    1.54    0.37
   2   2 -16   23.51    1.03
  -2  -2  16   25.03    1.10
   1   2 -16   44.26    1.54
  -1  -2  16   44.99    1.57
   0   2 -16   74.44    2.49
   0   2 -16   71.03    2.15
   0  -2  16   70.39    2.18
  -1   2 -16   47.63    1.88
   1  -2  16   47.54    1.66
  -2   2 -16   13.12    0.91
   2  -2  16   11.24    0.75
  -3   2 -16    0.27    0.32
  -5  -1  16   23.67    1.20
   4   1 -16   46.59    1.65
  -4  -1  16   48.28    1.80
   3   1 -16   43.34    1.53
  -3  -1  16   45.01    1.63
   2   1 -16   51.41    1.68
  -2  -1  16   50.72    1.72
   1   1 -16   12.29    0.70
  -1  -1  16   10.91    0.69
   0   1 -16    1.68    0.40
   0   1 -16    1.81    0.35
   0  -1  16    1.37    0.33
  -1   1 -16   28.73    1.35
   1  -1  16   29.28    1.20
  -2   1 -16   61.26    2.25
   2  -1  16   61.45    2.02
  -3   1 -16   87.24    2.94
  -5   0  16   31.56    1.43
   4   0 -16    9.24    0.66
  -4   0  16    8.65    0.71
   3   0 -16    1.31    0.32
  -3   0  16    1.12    0.32
   2   0 -16   25.34    1.05
  -2   0  16   25.16    1.09
   1   0 -16   69.04    2.09
  -1   0  16   72.19    2.15
   0   0 -16   80.38    2.62
   0   0  16   80.31    2.39
  -1   0 -16   37.99    1.59
   1   0  16   37.08    1.42
  -2   0 -16    7.26    0.69
   2   0  16    8.18    0.65
   4  -1 -16   63.20    2.11
  -4   1  16   68.86    2.19
   3  -1 -16   56.82    1.88
  -3   1  16   59.34    1.92
   2  -1 -16   30.66    1.21
  -2   1  16   31.81    1.26
  -1   1  16    7.13    0.58
   0  -1 -16    2.99    0.48
   0   1  16    2.89    0.42
  -1  -1 -16   39.61    1.65
   1   1  16   39.33    1.49
  -2  -1 -16   79.09    2.68
   2   1  16   76.59    2.42
   4  -2 -16   19.56    1.02
   3  -2 -16    1.87    0.40
  -3   2  16    2.36    0.41
  -2   2  16   30.96    1.24
  -1   2  16   67.95    2.12
   0  -2 -16   70.70    2.44
   0   2  16   68.90    2.18
  -1  -2 -16   57.58    2.18
   1   2  16   58.96    1.97
   0   3  16    4.92    0.57
   1   4 -17    1.33    0.37
  -1  -4  17    1.04    0.33
   0   4 -17   21.24    1.04
   0  -4  17   22.20    1.06
   2   3 -17   43.74    1.58
  -2  -3  17   43.38    1.62
   1   3 -17   51.47    1.76
  -1  -3  17   50.77    1.76
   0   3 -17   20.72    0.99
   0  -3  17   18.78    0.96
  -1   3 -17    3.05    0.45
  -1   3 -17    3.96    0.64
   3   2 -17   29.04    1.20
  -3  -2  17   29.11    1.30
   2   2 -17    6.15    0.57
  -2  -2  17    6.92    0.60
   1   2 -17    2.59    0.42
  -1  -2  17    2.31    0.40
   0   2 -17   35.09    1.34
   0  -2  17   35.03    1.37
  -1   2 -17   53.69    2.06
   1  -2  17   51.15    1.80
   3   1 -17   21.07    1.01
  -3  -1  17   22.42    1.08
   2   1 -17   70.56    2.19
  -2  -1  17   75.47    2.30
   1   1 -17   67.92    2.06
  -1  -1  17   64.02    2.06
   0  -1  17   31.40    1.29
  -1   1 -17    5.62    0.69
   1  -1  17    5.29    0.53
   3   0 -17   31.95    1.28
  -3   0  17   31.93    1.33
   2   0 -17    7.11    0.58
  -2   0  17    7.11    0.59
  -1   0  17    1.72    0.36
   0   0  17   21.60    1.04
  -1   0 -17   54.62    2.07
   3  -1 -17   27.78    1.21
  -3   1  17   30.68    1.27
   2  -1 -17   46.48    1.61
  -2   1  17   46.10    1.63
  -1   1  17   53.25    1.81
   0   1  17   31.02    1.28
   0   0   0    0.00    0.00
;
_shelx_hkl_checksum              98563
#END Tags that were not found in dictionaries
loop_
_space_group_symop_operation_xyz
'x, y, z'
'-x, -y, -z'
loop_
_atom_site_label
_atom_site_type_symbol
_atom_site_fract_x
_atom_site_fract_y
_atom_site_fract_z
_atom_site_U_iso_or_equiv
_atom_site_adp_type
_atom_site_occupancy
_atom_site_site_symmetry_order
_atom_site_calc_flag
_atom_site_refinement_flags_posn
_atom_site_refinement_flags_adp
_atom_site_refinement_flags_occupancy
Re1 Re 0.41570(2) 0.24649(2) 0.15494(2) 0.00846(4) Uani 1 1 d . . .
O1 O 0.5345(3) 0.4888(3) 0.23410(15) 0.0135(4) Uani 1 1 d . . .
O2 O 0.4805(3) 0.7603(3) 0.29078(16) 0.0176(4) Uani 1 1 d . . .
O3 O 0.1940(3) -0.0793(3) 0.05292(18) 0.0226(5) Uani 1 1 d . . .
O4 O 0.4862(3) 0.3043(3) -0.05400(16) 0.0174(4) Uani 1 1 d . . .
O5 O 0.7560(3) 0.0427(3) 0.17904(19) 0.0237(5) Uani 1 1 d . . .
O7 O 0.2399(3) 0.1305(4) 0.58165(18) 0.0258(6) Uani 1 1 d . . .
H1O7 H 0.330(8) 0.170(8) 0.631(5) 0.067(18) Uiso 1 1 d . . .
C15 C 0.9731(19) 0.5251(18) 0.4258(10) 0.073(3) Uiso 0.5 1 d . . P
H15A H 0.9667 0.6452 0.4140 0.110 Uiso 0.5 1 calc R U P
H15B H 1.0991 0.4966 0.4363 0.110 Uiso 0.5 1 calc R U P
H15C H 0.9166 0.5095 0.4848 0.110 Uiso 0.5 1 calc R U P
O8 O 0.8800(10) 0.4130(9) 0.3408(5) 0.0493(16) Uiso 0.5 1 d . . P
H8 H 0.7900 0.4609 0.3168 0.059 Uiso 0.5 1 calc R U P
N1 N 0.1961(3) 0.4171(3) 0.15525(18) 0.0110(5) Uani 1 1 d . . .
N2 N 0.3525(3) 0.2121(3) 0.30358(18) 0.0129(5) Uani 1 1 d . . .
C1 C 0.4329(4) 0.6134(4) 0.2473(2) 0.0130(6) Uani 1 1 d . . .
C2 C 0.2371(4) 0.5761(4) 0.2056(2) 0.0129(6) Uani 1 1 d . . .
C3 C 0.1105(5) 0.6959(4) 0.2190(3) 0.0239(7) Uani 1 1 d . . .
H3 H 0.1434 0.8061 0.2562 0.029 Uiso 1 1 calc R U .
C4 C -0.0657(5) 0.6528(5) 0.1773(4) 0.0332(9) Uani 1 1 d . . .
H4 H -0.1561 0.7324 0.1861 0.040 Uiso 1 1 calc R U .
C5 C -0.1075(4) 0.4926(4) 0.1228(3) 0.0254(7) Uani 1 1 d . . .
H5 H -0.2269 0.4616 0.0921 0.030 Uiso 1 1 calc R U .
C6 C 0.0250(4) 0.3769(4) 0.1129(2) 0.0153(6) Uani 1 1 d . . .
H6 H -0.0050 0.2664 0.0755 0.018 Uiso 1 1 calc R U .
C7 C 0.2814(4) 0.0422(4) 0.0921(2) 0.0143(6) Uani 1 1 d . . .
C8 C 0.4621(4) 0.2847(4) 0.0249(2) 0.0140(6) Uani 1 1 d . . .
C9 C 0.6274(4) 0.1173(4) 0.1696(2) 0.0153(6) Uani 1 1 d . . .
C10 C 0.1891(4) 0.1544(4) 0.3195(2) 0.0134(6) Uani 1 1 d . . .
H10 H 0.0968 0.1333 0.2647 0.016 Uiso 1 1 calc R U .
C11 C 0.1482(4) 0.1244(4) 0.4108(2) 0.0163(6) Uani 1 1 d . . .
H11 H 0.0310 0.0825 0.4180 0.020 Uiso 1 1 calc R U .
C12 C 0.2811(4) 0.1562(4) 0.4924(2) 0.0186(6) Uani 1 1 d . . .
C13 C 0.4518(4) 0.2149(5) 0.4769(2) 0.0230(7) Uani 1 1 d . . .
H13 H 0.5462 0.2373 0.5307 0.028 Uiso 1 1 calc R U .
C14 C 0.4817(4) 0.2400(5) 0.3831(2) 0.0207(7) Uani 1 1 d . . .
H14 H 0.5987 0.2788 0.3735 0.025 Uiso 1 1 calc R U .
loop_
_atom_site_aniso_label
_atom_site_aniso_U_11
_atom_site_aniso_U_22
_atom_site_aniso_U_33
_atom_site_aniso_U_23
_atom_site_aniso_U_13
_atom_site_aniso_U_12
Re1 0.00798(6) 0.00965(6) 0.00776(6) 0.00130(4) 0.00076(4) 0.00120(4)
O1 0.0121(10) 0.0155(10) 0.0123(10) 0.0020(8) 0.0006(8) -0.0021(8)
O2 0.0212(11) 0.0154(10) 0.0141(10) -0.0023(8) 0.0010(9) -0.0039(9)
O3 0.0219(12) 0.0168(11) 0.0261(12) -0.0037(10) -0.0005(10) -0.0031(9)
O4 0.0220(11) 0.0208(11) 0.0106(10) 0.0036(9) 0.0045(8) 0.0044(9)
O5 0.0155(11) 0.0232(12) 0.0336(14) 0.0085(10) 0.0008(10) 0.0073(9)
O7 0.0191(12) 0.0453(16) 0.0130(11) 0.0086(11) 0.0014(9) -0.0091(11)
N1 0.0104(11) 0.0128(11) 0.0099(11) 0.0010(9) 0.0026(9) 0.0002(9)
N2 0.0139(12) 0.0174(12) 0.0079(11) 0.0035(9) 0.0019(9) -0.0008(10)
C1 0.0152(14) 0.0160(14) 0.0082(13) 0.0019(11) 0.0040(10) -0.0021(11)
C2 0.0145(14) 0.0130(13) 0.0116(13) 0.0020(11) 0.0034(11) -0.0018(11)
C3 0.0208(16) 0.0130(15) 0.037(2) -0.0029(14) 0.0077(14) 0.0008(12)
C4 0.0156(16) 0.0209(17) 0.063(3) 0.0003(17) 0.0084(17) 0.0074(13)
C5 0.0107(14) 0.0206(16) 0.045(2) 0.0058(15) 0.0018(14) 0.0014(12)
C6 0.0116(14) 0.0135(14) 0.0203(15) 0.0029(12) 0.0004(11) -0.0022(11)
C7 0.0134(14) 0.0167(14) 0.0136(14) 0.0017(11) 0.0038(11) 0.0045(11)
C8 0.0119(13) 0.0131(13) 0.0154(14) -0.0004(11) -0.0020(11) 0.0022(11)
C9 0.0162(15) 0.0145(14) 0.0152(14) 0.0028(11) 0.0015(11) -0.0007(11)
C10 0.0114(13) 0.0160(14) 0.0118(13) 0.0012(11) -0.0011(10) -0.0005(11)
C11 0.0125(14) 0.0221(15) 0.0146(14) 0.0041(12) 0.0026(11) -0.0037(11)
C12 0.0160(15) 0.0246(16) 0.0157(15) 0.0067(12) 0.0023(12) -0.0041(12)
C13 0.0136(15) 0.042(2) 0.0127(15) 0.0074(14) -0.0025(12) -0.0059(14)
C14 0.0119(14) 0.0358(19) 0.0139(15) 0.0062(13) -0.0002(11) -0.0062(13)
loop_
_atom_type_symbol
_atom_type_description
_atom_type_scat_dispersion_real
_atom_type_scat_dispersion_imag
_atom_type_scat_source
C C 0.0033 0.0016 'International Tables Vol C Tables 4.2.6.8 and 6.1.1.4'
H H 0.0000 0.0000 'International Tables Vol C Tables 4.2.6.8 and 6.1.1.4'
N N 0.0061 0.0033 'International Tables Vol C Tables 4.2.6.8 and 6.1.1.4'
O O 0.0106 0.0060 'International Tables Vol C Tables 4.2.6.8 and 6.1.1.4'
Re Re -1.0185 7.2310 'International Tables Vol C Tables 4.2.6.8 and 6.1.1.4'
loop_
_geom_angle_atom_site_label_1
_geom_angle_atom_site_label_2
_geom_angle_atom_site_label_3
_geom_angle
C7 Re1 C8 86.82(13)
C7 Re1 C9 89.54(13)
C8 Re1 C9 90.24(13)
C7 Re1 O1 172.09(10)
C8 Re1 O1 97.34(10)
C9 Re1 O1 97.14(11)
C7 Re1 N1 97.78(11)
C8 Re1 N1 93.20(11)
C9 Re1 N1 172.07(11)
O1 Re1 N1 75.34(9)
C7 Re1 N2 93.76(11)
C8 Re1 N2 177.19(10)
C9 Re1 N2 92.52(11)
O1 Re1 N2 81.76(9)
N1 Re1 N2 84.00(9)
C1 O1 Re1 118.06(19)
C12 O7 H1O7 112(4)
O8 C15 H15A 109.5
O8 C15 H15B 109.5
H15A C15 H15B 109.5
O8 C15 H15C 109.5
H15A C15 H15C 109.5
H15B C15 H15C 109.5
C15 O8 H8 109.5
C2 N1 C6 118.3(3)
C2 N1 Re1 115.37(19)
C6 N1 Re1 126.3(2)
C10 N2 C14 116.8(3)
C10 N2 Re1 122.5(2)
C14 N2 Re1 120.6(2)
O2 C1 O1 125.9(3)
O2 C1 C2 118.1(3)
O1 C1 C2 116.0(3)
N1 C2 C3 122.7(3)
N1 C2 C1 115.0(3)
C3 C2 C1 122.3(3)
C2 C3 C4 118.8(3)
C2 C3 H3 120.6
C4 C3 H3 120.6
C5 C4 C3 118.8(3)
C5 C4 H4 120.6
C3 C4 H4 120.6
C4 C5 C6 119.7(3)
C4 C5 H5 120.1
C6 C5 H5 120.1
N1 C6 C5 121.6(3)
N1 C6 H6 119.2
C5 C6 H6 119.2
O3 C7 Re1 177.6(3)
O4 C8 Re1 178.1(3)
O5 C9 Re1 178.8(3)
N2 C10 C11 123.7(3)
N2 C10 H10 118.1
C11 C10 H10 118.1
C10 C11 C12 119.0(3)
C10 C11 H11 120.5
C12 C11 H11 120.5
O7 C12 C11 119.0(3)
O7 C12 C13 123.2(3)
C11 C12 C13 117.9(3)
C14 C13 C12 119.3(3)
C14 C13 H13 120.3
C12 C13 H13 120.3
N2 C14 C13 123.2(3)
N2 C14 H14 118.4
C13 C14 H14 118.4
loop_
_geom_bond_atom_site_label_1
_geom_bond_atom_site_label_2
_geom_bond_distance
Re1 C7 1.901(3)
Re1 C8 1.922(3)
Re1 C9 1.926(3)
Re1 O1 2.158(2)
Re1 N1 2.169(2)
Re1 N2 2.202(2)
O1 C1 1.274(4)
O2 C1 1.242(4)
O3 C7 1.163(4)
O4 C8 1.150(4)
O5 C9 1.153(4)
O7 C12 1.340(4)
O7 H1O7 0.91(6)
C15 O8 1.448(14)
C15 H15A 0.9800
C15 H15B 0.9800
C15 H15C 0.9800
O8 H8 0.8400
N1 C2 1.347(4)
N1 C6 1.350(4)
N2 C10 1.347(4)
N2 C14 1.354(4)
C1 C2 1.513(4)
C2 C3 1.376(4)
C3 C4 1.385(5)
C3 H3 0.9500
C4 C5 1.377(5)
C4 H4 0.9500
C5 C6 1.383(5)
C5 H5 0.9500
C6 H6 0.9500
C10 C11 1.375(4)
C10 H10 0.9500
C11 C12 1.392(4)
C11 H11 0.9500
C12 C13 1.398(4)
C13 C14 1.373(4)
C13 H13 0.9500
C14 H14 0.9500
loop_
_geom_hbond_atom_site_label_D
_geom_hbond_atom_site_label_H
_geom_hbond_atom_site_label_A
_geom_hbond_distance_DH
_geom_hbond_distance_HA
_geom_hbond_distance_DA
_geom_hbond_angle_DHA
_geom_hbond_site_symmetry_A
O7 H1O7 O2 0.91(6) 1.70(6) 2.597(3) 172(6) 2_666
O8 H8 O1 0.84 2.14 2.941(8) 159.4 .
loop_
_geom_torsion_atom_site_label_1
_geom_torsion_atom_site_label_2
_geom_torsion_atom_site_label_3
_geom_torsion_atom_site_label_4
_geom_torsion
Re1 O1 C1 O2 -179.7(2)
Re1 O1 C1 C2 0.3(3)
C6 N1 C2 C3 2.8(4)
Re1 N1 C2 C3 -175.3(3)
C6 N1 C2 C1 -177.6(3)
Re1 N1 C2 C1 4.3(3)
O2 C1 C2 N1 176.9(3)
O1 C1 C2 N1 -3.1(4)
O2 C1 C2 C3 -3.5(4)
O1 C1 C2 C3 176.5(3)
N1 C2 C3 C4 -1.4(5)
C1 C2 C3 C4 179.0(3)
C2 C3 C4 C5 -0.9(6)
C3 C4 C5 C6 1.7(6)
C2 N1 C6 C5 -1.9(4)
Re1 N1 C6 C5 175.9(2)
C4 C5 C6 N1 -0.3(5)
C14 N2 C10 C11 0.4(5)
Re1 N2 C10 C11 176.9(2)
N2 C10 C11 C12 0.6(5)
C10 C11 C12 O7 178.5(3)
C10 C11 C12 C13 -1.1(5)
O7 C12 C13 C14 -179.1(3)
C11 C12 C13 C14 0.4(5)
C10 N2 C14 C13 -1.1(5)
Re1 N2 C14 C13 -177.7(3)
C12 C13 C14 N2 0.7(6)
