#------------------------------------------------------------------------------
#$Date: 2016-03-24 00:18:40 +0200 (Thu, 24 Mar 2016) $
#$Revision: 179530 $
#$URL: svn://www.crystallography.net/cod/cif/4/34/27/4342745.cif $
#------------------------------------------------------------------------------
#
# This file is available in the Crystallography Open Database (COD),
# http://www.crystallography.net/
#
# All data on this site have been placed in the public domain by the
# contributors.
#
data_4342745
loop_
_publ_author_name
'Mesbah, Adel'
'Prakash, Jai'
'Beard, Jessica C.'
'Leb\`egue, S\'ebastien'
'Malliakas, Christos D.'
'Ibers, James A.'
_publ_section_title
;
 Syntheses, Crystal Structures, Optical and Theoretical Studies of the
 Actinide Thiophosphates SrU(PS4)2, BaU(PS4)2, and SrTh(PS4)2.
;
_journal_issue                   6
_journal_name_full               'Inorganic chemistry'
_journal_page_first              2970
_journal_page_last               2975
_journal_paper_doi               10.1021/acs.inorgchem.5b00071
_journal_volume                  54
_journal_year                    2015
_chemical_formula_sum            'Ba P2 S8 U'
_chemical_formula_weight         693.79
_chemical_name_common            BaUP2S8
_chemical_name_systematic
;
 ?
;
_space_group_crystal_system      tetragonal
_space_group_IT_number           135
_space_group_name_Hall           '-P 4c 2ab'
_space_group_name_H-M_alt        'P 42/m b c'
_symmetry_space_group_name_Hall  '-P 4c 2ab'
_symmetry_space_group_name_H-M   'P 42/m b c'
_atom_sites_solution_primary     direct
_atom_sites_solution_secondary   difmap
_audit_creation_method           SHELXL-2013
_cell_angle_alpha                90
_cell_angle_beta                 90
_cell_angle_gamma                90
_cell_formula_units_Z            4
_cell_length_a                   11.1405(4)
_cell_length_b                   11.1405(4)
_cell_length_c                   9.6604(5)
_cell_measurement_reflns_used    1622
_cell_measurement_temperature    100(2)
_cell_measurement_theta_max      64.46
_cell_measurement_theta_min      5.62
_cell_volume                     1198.96(9)
_computing_cell_refinement       'Bruker SAINT'
_computing_data_collection       'Bruker APEX2'
_computing_data_reduction        'Bruker SAINT'
_computing_molecular_graphics    'Bruker SHELXTL'
_computing_publication_material  'Bruker SHELXTL'
_computing_structure_refinement  'SHELXL-2014/6 (Sheldrick, 2014)'
_computing_structure_solution    'SHELXL-2012/1 (Sheldrick, 2012)'
_diffrn_ambient_temperature      100(2)
_diffrn_measured_fraction_theta_full 0.930
_diffrn_measured_fraction_theta_max 0.991
_diffrn_measurement_device_type  'Bruker APEX-II CCD'
_diffrn_measurement_method       '\f and \w scans'
_diffrn_radiation_type           CuK\a
_diffrn_radiation_wavelength     1.54178
_diffrn_reflns_av_R_equivalents  0.0310
_diffrn_reflns_av_unetI/netI     0.0162
_diffrn_reflns_Laue_measured_fraction_full 0.930
_diffrn_reflns_Laue_measured_fraction_max 0.991
_diffrn_reflns_limit_h_max       12
_diffrn_reflns_limit_h_min       -12
_diffrn_reflns_limit_k_max       12
_diffrn_reflns_limit_k_min       -12
_diffrn_reflns_limit_l_max       6
_diffrn_reflns_limit_l_min       -11
_diffrn_reflns_number            6173
_diffrn_reflns_point_group_measured_fraction_full 0.930
_diffrn_reflns_point_group_measured_fraction_max 0.991
_diffrn_reflns_theta_full        67.679
_diffrn_reflns_theta_max         64.865
_diffrn_reflns_theta_min         5.616
_diffrn_source                   'fine-focus sealed tube'
_exptl_absorpt_coefficient_mu    78.241
_exptl_absorpt_correction_T_max  0.42975
_exptl_absorpt_correction_T_min  0.05576
_exptl_absorpt_correction_type   numerical
_exptl_absorpt_process_details   'face indexed (SADABS; Sheldrick, 2012/1)'
_exptl_crystal_colour            Orange
_exptl_crystal_density_diffrn    3.844
_exptl_crystal_density_meas      ?
_exptl_crystal_density_method    'not measured'
_exptl_crystal_description       Needle
_exptl_crystal_F_000             1224
_exptl_crystal_size_max          0.154
_exptl_crystal_size_mid          0.023
_exptl_crystal_size_min          0.020
_refine_diff_density_max         1.394
_refine_diff_density_min         -1.652
_refine_diff_density_rms         0.220
_refine_ls_extinction_coef       0.00015(2)
_refine_ls_extinction_expression Fc^*^=kFc[1+0.001xFc^2^\l^3^/sin(2\q)]^-1/4^
_refine_ls_extinction_method     SHELXL
_refine_ls_goodness_of_fit_ref   1.058
_refine_ls_hydrogen_treatment    undef
_refine_ls_matrix_type           full
_refine_ls_number_parameters     34
_refine_ls_number_reflns         542
_refine_ls_number_restraints     0
_refine_ls_restrained_S_all      1.058
_refine_ls_R_factor_all          0.0262
_refine_ls_R_factor_gt           0.0235
_refine_ls_shift/su_max          0.000
_refine_ls_shift/su_mean         0.000
_refine_ls_structure_factor_coef Fsqd
_refine_ls_weighting_details
;
 w=1/[\s^2^(Fo^2^)+(0.0437P)^2^]
 where P=(1.0000Fo^2^+0.0000Fc^2^)
;
_refine_ls_weighting_scheme      calc
_refine_ls_wR_factor_gt          0.0607
_refine_ls_wR_factor_ref         0.0625
_reflns_Friedel_coverage         0.000
_reflns_number_gt                487
_reflns_number_total             542
_reflns_threshold_expression     'I > 2\s(I)'
_cod_data_source_file            ic5b00071_si_001.cif
_cod_data_source_block           BaUP2S8
_cod_depositor_comments
;
The following automatic conversions were performed:

'_exptl_crystal_density_meas' value 'not measured' was changed to '?'
- the value is perceived as not measured.

Automatic conversion script
Id: cif_fix_values 3143 2015-03-26 13:38:13Z robertas 
;
_cod_original_cell_volume        1198.96(11)
_cod_database_code               4342745
#BEGIN Tags that were not found in dictionaries:
_shelx_space_group_comment
;
The symmetry employed for this shelxl refinement is uniquely defined
by the following loop, which should always be used as a source of
symmetry information in preference to the above space-group names.
They are only intended as comments.
;
_shelx_estimated_absorpt_t_min   0.029
_shelx_estimated_absorpt_t_max   0.304
_shelxl_version_number           2013-2
_shelx_res_file
;
TITL t in P4(2)/mbc
CELL 1.54178  11.1405  11.1405   9.6604  90.000  90.000  90.000
ZERR    4.00   0.0004   0.0004   0.0005   0.000   0.000   0.000
LATT  1
SYMM -X, -Y, Z
SYMM -Y, X, 0.5+Z
SYMM Y, -X, 0.5+Z
SYMM 0.5-X, 0.5+Y, -Z
SYMM 0.5+X, 0.5-Y, -Z
SYMM 0.5+Y, 0.5+X, 0.5-Z
SYMM 0.5-Y, 0.5-X, 0.5-Z
SFAC P S BA U
UNIT 8 32 4 4
TEMP -173.170
SIZE 0.02 0.023 0.154

L.S. 4
BOND
FMAP 2
PLAN 20
acta
WGHT    0.043700    0.000000    0.000000    0.000000    0.000000    1.000000
EXTI    0.000151
FVAR       0.16148
U1    4    0.000000    0.000000    0.250000    10.25000    0.01334    0.01334 =
         0.00646    0.00000    0.00000    0.00000
BA1   3    0.000000    0.500000    0.250000    10.25000    0.01906    0.01906 =
         0.01158    0.00000    0.00000   -0.00007
P1    1    0.035797    0.231448    0.000000    10.50000    0.01383    0.01513 =
         0.00810    0.00000    0.00000    0.00045
S1    2    0.226628    0.070753    0.326943    11.00000    0.01551    0.01637 =
         0.01045    0.00288   -0.00047   -0.00112
S2    2    0.134106    0.074902    0.000000    10.50000    0.01404    0.01624 =
         0.00855    0.00000    0.00000    0.00157
S3    2    0.138360    0.378403    0.000000    10.50000    0.01466    0.01629 =
         0.01670    0.00000    0.00000   -0.00223
HKLF 4

REM  t in P4(2)/mbc
REM R1 =  0.0235 for     487 Fo > 4sig(Fo)  and  0.0262 for all     542 data
REM     34 parameters refined using      0 restraints

END

WGHT      0.0437      0.0000

REM Highest difference peak  1.394,  deepest hole -1.652,  1-sigma level  0.220
Q1    1   0.0025  0.0796  0.2509  11.00000  0.05    1.39
Q2    1  -0.0585  0.0487  0.2484  11.00000  0.05    1.26
Q3    1   0.0000  0.5000  0.1489  10.50000  0.05    0.97
Q4    1   0.0000  0.0000  0.1644  10.50000  0.05    0.92
Q5    1   0.0913  0.5033  0.2897  11.00000  0.05    0.67
Q6    1   0.0615  0.4385  0.2500  10.50000  0.05    0.64
Q7    1   0.0794  0.5119  0.3193  11.00000  0.05    0.64
Q8    1   0.0642  0.5642  0.2500  10.50000  0.05    0.63
Q9    1  -0.0134  0.0570  0.1539  11.00000  0.05    0.62
Q10   1   0.1790  0.0151  0.2738  11.00000  0.05    0.56
Q11   1   0.0000  0.5000  0.4596  10.50000  0.05    0.55
Q12   1   0.0095  0.0326  0.0530  11.00000  0.05    0.53
Q13   1   0.3032 -0.0535  0.2474  11.00000  0.05    0.51
Q14   1  -0.0742  0.2198  0.0000  10.50000  0.05    0.48
Q15   1   0.2979  0.0422  0.2506  11.00000  0.05    0.47
Q16   1   0.3170 -0.0180  0.2500  11.00000  0.05    0.45
Q17   1  -0.0699  0.3863  0.0000  10.50000  0.05    0.40
Q18   1   0.2603  0.0242  0.0243  11.00000  0.05    0.39
Q19   1   0.2032  0.1053  0.0000  10.50000  0.05    0.38
Q20   1   0.1038  0.4478  0.0494  11.00000  0.05    0.36
;
_shelx_res_checksum              58581
_shelx_hkl_file
;
  -1   0   0 0.53197 0.85122   3
  -1  -1   0 1029.82   32.39  12
  -1   1   0 1032.25   32.74  12
  -1  -1   0 1084.21   34.74   3
   0   2   0 6476.13  199.28  12
  -2   0   0 6273.16  199.13  12
   0  -2   0 6894.69  199.26  12
  -2   0   0 6673.03  214.42   3
  -1   2   0 10.9531  3.9172  12
  -1  -2   0 7.63301 3.01707  12
  -2  -1   0 12.1599  3.0380  12
  -2   1   0 13.0448  3.5262  12
  -2  -1   0 11.6009  2.1033   3
  -2   2   0 1897.53   60.87  12
  -2  -2   0 1952.89   60.34  12
  -2  -2   0 1992.16   64.60   3
  -3   0   0 -0.8179  3.5112  12
  -3   0   0 -2.1263  2.2182   3
   0  -3   0 -2.6418  3.6595  12
   0   3   0 1.27738 3.90827  12
  -3  -1   0 303.790  11.319  12
   1   3   0 269.289  10.650   5
  -1  -3   0 307.129  11.550  12
   1  -3   0 281.591  11.741  12
  -1   3   0 298.097  11.982  12
   1   3   0 294.291  11.460  12
  -3  -1   0 290.364  10.680   3
  -3   1   0 301.675  11.750  12
  -3   2   0 640.262  22.207  12
  -3  -2   0 649.718  21.759  12
  -3  -2   0 659.255  22.276   3
  -2   3   0 620.453  22.511  12
  -2  -3   0 652.970  21.736  12
  -2  -3   0 615.680  22.629   3
  -3  -3   0 16.1822  3.4958   3
  -3   3   0 19.0269  5.4804  12
  -3  -3   0 25.9514  4.6614  12
  -4   0   0 4940.89  150.98  12
   0  -4   0 4877.26  151.15  12
  -4   0   0 4999.73  161.57   3
   0   4   0 4918.37  151.19  12
   1   4   0 362.849  14.336  12
  -1  -4   0 353.049  14.282  12
  -4  -1   0 372.576  14.174  12
  -1   4   0 372.791  14.988  12
  -4  -1   0 379.471  13.453   3
  -4   1   0 351.840  14.329  12
   1  -4   0 370.470  14.584  12
  -2  -4   0 6122.01  182.42  12
   2  -4   0 5999.01  182.80  12
   2   4   0 5628.45  204.04   5
  -4  -2   0 6057.27  182.18  12
  -4   2   0 6059.48  182.80  12
  -2  -4   0 5897.95  196.31   3
  -2   4   0 5982.85  182.78  12
  -4  -2   0 6021.78  195.48   3
  -4   3   0 16.8518  5.1643  12
  -4  -3   0 23.8493  3.5378   3
  -3  -4   0 25.8637  4.8592  12
  -3  -4   0 18.7800  3.9549   3
  -3   4   0 25.0679  5.5055  12
  -4  -3   0 23.4679  4.8372  12
  -4   4   0 6179.20  188.05  12
  -4  -4   0 6069.90  201.23   3
  -4  -4   0 6099.52  187.63  12
  -5   0   0 0.89481 2.44577   3
   0  -5   0 -1.9946  4.6311  12
  -5   0   0 1.67223 3.98332  12
   0   5   0 -2.4354  4.6298  12
  -5  -1   0 823.634  28.166  12
   1  -5   0 838.473  28.754  12
  -1   5   0 835.039  28.769  12
  -5  -1   0 836.816  28.376   3
  -5   1   0 820.288  28.489  12
  -1  -5   0 787.045  28.324  12
  -5   2   0 20.1131  5.2962  12
  -2   5   0 24.4095  5.5524  12
  -5  -2   0 13.0300  4.5504  12
   2  -5   0 20.1260  5.6114  12
  -2  -5   0 12.7213  4.5655  12
  -2  -5   0 20.4253  4.5548   3
  -5  -2   0 20.7428  3.1477   3
   2   5   0 16.7112  4.3365  11
  -5  -3   0 477.006  18.613  12
   3   5   0 468.135  19.521  11
  -3  -5   0 506.091  18.989  12
  -5  -3   0 483.263  18.120   3
  -3   5   0 473.725  19.300  12
  -3  -5   0 487.898  19.267   3
   3  -5   0 536.093  19.592  12
  -5   3   0 485.434  19.588  12
  -5   4   0 10.4824  4.9725  12
   4  -5   0 5.49028 4.71667  12
  -4  -5   0 12.9385  4.8813  12
  -5  -4   0 3.70697 4.48555  12
  -4   5   0 2.67885 5.03753  12
  -5  -4   0 9.28691 3.28078   3
  -4  -5   0 8.34625 3.68275   3
  -5  -5   0 141.945   9.627  12
  -5  -5   0 117.349   7.712   3
  -5   5   0 139.225   9.859  12
  -6   0   0 1626.86   53.03  12
   0   6   0 1644.41   53.44  12
   0  -6   0 1603.67   53.47  12
  -6  -1   0 65.6934  6.6904  12
  -1   6   0 65.8548  7.3543  12
  -1  -6   0 60.5617  6.7763  12
  -6   1   0 65.4205  6.6954  12
   1  -6   0 76.4553  7.5520  12
  -2  -6   0 3637.18  116.14  12
  -6   2   0 3690.47  116.36  12
  -6  -2   0 3943.79  116.18  12
  -2  -6   0 3759.39  124.75   3
   2  -6   0 3393.24  116.34  12
   2   6   0 3723.10  131.77  11
  -2   6   0 3857.26  116.74  12
   3  -6   0 36.1747  6.6065  12
  -3  -6   0 47.0824  5.8715   3
  -6  -3   0 47.7235  6.1881  12
  -3   6   0 42.2949  6.6304  12
  -6   3   0 39.4801  6.6464  12
  -3  -6   0 38.2581  6.2126  12
  -4  -6   0 2431.98   87.13   3
  -6  -4   0 2636.17   82.22  12
  -4  -6   0 2683.16   82.65  12
  -6   4   0 2618.37   82.69  12
  -4   6   0 2669.14   82.93  12
   4  -6   0 2398.21   82.41  12
  -6  -5   0 70.0534  6.9700   2
  -5   6   0 70.5730  7.5344   2
  -5  -6   0 61.3453  6.5377   3
  -6   5   0 81.4655  8.2583  12
   5  -6   0 78.9254  8.1458  12
  -5  -6   0 78.9448  7.1353   2
  -6  -5   0 70.1664  7.6435  12
  -5  -6   0 64.2017  7.6487  12
  -6   5   0 88.4581  7.9368   2
  -5   6   0 81.2598  8.1501  12
  -6  -6   0 2644.45   94.18   2
  -6  -6   0 2932.06   91.15  12
  -6   6   0 2849.26   94.71   2
  -6   6   0 2917.18   91.05  12
  -7   0   0 1.33386 4.67059  12
   0  -7   0 5.36116 5.30142  12
   0   7   0 -8.9360  4.6618  12
   0   7   0 4.49563 4.61961   9
   1  -7   0 2.97036 5.64770  12
  -7   1   0 8.85477 5.07930  12
  -1  -7   0 4.48759 5.42890  12
   1   7   0 8.74337 5.11846  11
  -1   7   0 23.7260  5.5165   9
  -7  -1   0 5.36925 4.87856  12
   1   7   0 21.8842  5.1787   9
  -1   7   0 23.8955  6.3104  12
  -1  -7   0 11.7068  5.3245   3
   2  -7   0 -6.8767  5.0333  12
  -7  -2   0 12.6647  4.6197   2
  -2   7   0 14.8233  5.7338  12
  -7   2   0 9.35599 5.20048  12
   2   7   0 1.66775 4.75951  11
   2   7   0 -1.9166  4.4260   9
  -2   7   0 13.9715  5.1095   9
  -7  -2   0 8.31086 5.15574  12
  -7   2   0 12.4297  5.2232   2
  -2  -7   0 7.32421 4.91689   3
  -2  -7   0 12.5857  5.4871  12
  -7   3   0 650.642  25.791   2
  -3  -7   0 647.692  26.090   3
  -3   7   0 681.852  25.735  12
  -7  -3   0 639.261  25.049   2
   3  -7   0 705.729  26.009  12
  -3   7   0 606.355  25.438   2
  -7  -3   0 671.253  25.163  12
  -7   3   0 662.925  25.793  12
   3   7   0 640.068  25.881   9
  -3  -7   0 672.128  25.729  12
   4  -7   0 47.4111  7.1704  12
  -4  -7   0 51.1590  6.4876   3
  -4   7   0 51.6758  7.6437  12
  -7  -4   0 45.9483  6.9431  12
  -4  -7   0 54.2798  7.3583  12
  -7  -4   0 58.1172  6.7132   2
  -4   7   0 46.3098  6.6006   2
  -7   4   0 61.0007  7.2525   2
  -7   4   0 58.8617  7.4411  12
   5  -7   0 242.462  14.258  12
  -7  -5   0 250.945  13.037   2
  -5   7   0 275.335  14.164  12
  -7   5   0 254.214  13.905  12
  -5  -7   0 281.681  14.518  12
  -7  -5   0 267.674  14.088  12
  -5  -7   0 237.567  12.877   3
  -7   5   0 239.521  13.450   2
  -5   7   0 243.409  13.457   2
   7  -6   0 1.00170 5.22488  12
  -6  -7   0 -4.1251  4.5417   2
  -6   7   0 -0.6260  4.9351  12
  -7  -6   0 0.63088 4.72789   2
  -6  -7   0 11.3617  5.5336  12
  -7   6   0 4.08165 5.12734  12
   6  -7   0 2.50145 5.70024  12
  -6   7   0 7.06113 4.97962   2
  -7  -6   0 8.82382 5.66727  12
  -7   6   0 8.40425 5.05202   2
  -7   7   0 225.826  12.684   2
  -7  -7   0 212.517  12.476   2
   0   8   0 3131.96  105.61   9
   0   8   0 3104.39  113.61  11
   0   8   0 3127.02  104.30   2
  -8   0   0 3223.75  100.06  12
   0  -8   0 3083.66  107.28   3
   0  -8   0 3121.04  100.74  12
  -8  -1   0 96.9375  8.2423   2
  -8   1   0 72.4307  7.9217   2
  -1  -8   0 105.157   9.444   3
  -1   8   0 89.3416  9.0368   2
  -1  -8   0 110.435   9.873  12
  -1   8   0 93.1976  9.4905  12
   1   8   0 109.860   9.052   2
  -8  -1   0 97.6941  9.0014  12
  -1   8   0 91.4991  9.2259   9
  -8   1   0 110.604   9.485  12
   1  -8   0 95.2752  9.6691  12
   1   8   0 84.2316  8.9629  11
   1   8   0 96.5588  9.2085   9
   2   8   0 4233.77  140.83   9
  -2   8   0 4326.41  134.06  12
  -8   2   0 4294.79  133.77  12
  -2  -8   0 4133.79  143.34   3
  -8  -2   0 4128.15  138.87   2
  -8   2   0 4224.50  139.41   2
  -8  -2   0 4464.29  133.57  12
   2   8   0 4253.18  151.43  11
  -2   8   0 4192.73  139.24   2
   2  -8   0 4202.63  134.39  12
  -2   8   0 4281.51  140.98   9
  -2  -8   0 4122.27  133.69  12
  -8   3   0 79.4732  8.2023   2
  -3  -8   0 64.3716  7.6874   3
  -8   3   0 64.2147  8.2663  12
  -3   8   0 61.1735  8.2723  12
   3   8   0 78.4125  8.6559   9
  -3  -8   0 66.3260  8.7006  12
   3  -8   0 73.6258  8.8010  12
  -3   8   0 68.4781  7.6250   2
  -8  -3   0 59.9258  7.9202  12
  -8  -3   0 70.9643  7.5048   2
  -8   4   0 1428.93   47.82  12
  -8   4   0 1350.36   49.24   2
   4   8   0 1361.61   50.07   9
  -4   8   0 1331.00   48.82   2
  -4  -8   0 1409.44   48.60  12
  -8  -4   0 1404.36   47.93  12
  -4   8   0 1388.62   47.96  12
  -8  -4   0 1365.25   48.66   2
  -8  -5   0 -0.8891  4.5039   2
  -5   8   0 -8.1630  4.3049   2
  -8   5   0 -9.0299  4.4429   2
   5   8   0 4.41761 5.49906   9
  -6   8   0 1821.20   64.48   2
  -8  -6   0 1967.09   64.92   2
   6   8   0 1923.54   66.17   9
  -8   6   0 1776.85   64.50   2
  -8  -7   0 24.3965  5.7953   2
  -8   7   0 4.43390 4.93067   2
  -7   8   0 10.6098  5.0345   2
   7   8   0 14.5170  5.8488   9
   8   8   0 1099.71   41.87   9
  -8   8   0 1169.05   40.94   2
   0   9   0 -1.6231  5.1752   9
  -9   0   0 -5.9299  5.3193  12
   0   9   0 0.99580 5.50534   2
  -9   0   0 2.00214 4.84484   2
   0   9   0 -0.8491  5.3460  11
   0  -9   0 7.87278 6.29650  12
  -9  -1   0 463.504  20.603   2
  -9   1   0 469.548  20.754  12
  -1   9   0 488.825  22.719  11
   1   9   0 469.936  22.519  11
  -9  -1   0 466.396  20.829  12
  -1   9   0 489.202  21.715   9
   1  -9   0 476.472  21.568  12
   1   9   0 477.997  21.800   9
  -9   1   0 465.866  20.800   2
  -1   9   0 433.705  20.694   2
   1   9   0 475.468  21.509   2
  -1  -9   0 464.127  21.410  12
   2   9   0 3.41634 5.40033   9
  -9   2   0 18.3910  6.5168  12
  -2  -9   0 25.3481  6.9610  12
  -2   9   0 27.6303  6.9036  12
  -2   9   0 8.09577 5.39209   2
  -9   2   0 14.5176  5.3759   2
  -9  -2   0 14.3158  5.3756   2
  -9  -2   0 8.00150 5.76789  12
   2   9   0 16.2406  5.8688   2
   2  -9   0 6.63992 6.14555  12
  -9   3   0 642.679  26.176   2
   3   9   0 626.931  26.103   2
  -9  -3   0 618.708  25.738   2
   3   9   0 657.677  26.995   9
  -3   9   0 648.261  26.087   2
  -9   4   0 2.78278 4.94972   2
  -4   9   0 -3.8601  4.4387   2
   4   9   0 3.87224 5.65358   9
  -9  -4   0 8.46411 4.98741   2
   5   9   0 75.1522  9.0397   9
  -9  -5   0 67.4476  7.7680   2
  -5   9   0 66.5550  7.6063   2
  -9   5   0 71.2089  7.8689   2
  -9   6   0 81.2720  8.1800   2
  -9  -6   0 90.1534  8.3789   2
  -6   9   0 83.8398  8.0180   2
   6   9   0 84.4115  9.3552   9
   7   9   0 37.0524  6.8243   9
  -9   7   0 37.7298  6.2187   2
  -7   9   0 44.2735  6.1595   2
   8   9   0 114.104   9.007   9
   9   8   0 106.525   8.581   9
  -8   9   0 99.5249  7.8137   2
  -9   8   0 100.111   7.846   2
   9  -8   0 95.7431  7.9857  10
  -9   9   0 8.10354 3.59548   2
   9  -9   0 11.3670  3.9676  10
 -10   0   0 1073.62   40.14   2
   0  10   0 1089.22   41.31   9
   0  10   0 1069.77   40.57   2
   0  10   0 1091.87   43.79  11
   1  10   0 475.327  21.366   2
   1  10   0 480.791  22.045   9
 -10  -1   0 465.110  20.708   2
   1  10   0 445.246  22.058  11
  -1  10   0 453.192  22.162  11
 -10   1   0 457.819  20.559   2
  -1  10   0 446.582  20.748   2
   2  10   0 1819.84   64.90   9
 -10   2   0 1842.27   63.73   2
   2  10   0 1874.15   64.20   2
 -10  -2   0 1771.75   63.65   2
  -2  10   0 1830.60   69.15  11
  -2  10   0 1819.97   63.65   2
  -3  10   0 31.2385  6.1215   2
 -10  -3   0 32.4378  6.2736   2
   3  10   0 29.5425  6.8946   2
  -3  10   0 33.5596  6.8001  11
   3  10   0 15.4514  6.6191   9
 -10   3   0 15.3038  5.5830   2
 -10  -4   0 1518.65   52.66   2
   4  10   0 1476.48   54.30   9
 -10  -4   0 1502.31   48.45   1
 -10   4   0 1502.08   52.71   2
   4  10   0 1461.91   53.21   2
  -4  10   0 1519.23   52.65   2
   5  10   0 8.90288 5.75747   9
 -10   5   0 16.9544  5.2902   2
 -10  -5   0 27.7959  6.3274   2
  -5  10   0 17.3081  5.4267   2
  10  -5   0 15.7538  5.0656  10
  10  -6   0 1863.60   64.58  10
 -10  -6   0 1861.78   63.20   2
  -6  10   0 1849.40   62.70   2
   6  10   0 1781.98   64.32   9
 -10   6   0 1849.51   62.84   2
 -10   7   0 127.255   8.385   2
  10  -7   0 134.013   8.549  10
   7  10   0 124.034   9.429   9
  -7  10   0 126.035   8.505   2
 -10   8   0 1056.08   37.20   2
  10  -8   0 1101.99   38.55  10
  -8  10   0 1061.90   37.30   2
   8 -10   0 1099.42   38.63  10
   0  11   0 4.65034 5.48843   2
   0  11   0 1.61627 5.48816  11
 -11   0   0 3.88202 5.23464   2
  -1  11   0 19.2574  6.6753  11
 -11  -1   0 24.4407  6.4087   2
   1  11   0 25.4341  6.5994   2
  -1  11   0 34.9491  6.6109   2
 -11   1   0 14.5271  5.7184   2
   1  11   0 19.0227  6.3632   9
  -2  11   0 14.7870  5.9009  11
   2  11   0 14.6496  6.2389   9
 -11  -2   0 14.5453  5.6871   2
  -2  11   0 14.6437  5.6104   2
   2  11   0 10.7417  6.1013   2
 -11   2   0 18.7894  5.6692   2
   3  11   0 17.5718  6.0327   2
 -11   3   0 14.2921  5.3608   2
  -3  11   0 27.7144  5.9101   2
   3  11   0 7.38442 5.67615   9
 -11  -3   0 18.7126  5.5883   2
  -3  11   0 12.1854  5.2612  11
   4  11   0 17.1087  5.7267   2
 -11   4   0 7.15464 4.63300   2
 -11  -4   0 16.1147  5.5201   2
   4  11   0 7.36581 5.11094   9
  -4  11   0 7.31532 4.94294   2
   5  11   0 165.404  10.761   9
 -11   5   0 150.256   9.599   2
 -11  -5   0 179.440  10.530   2
   5  11   0 160.378  11.131   2
  -5  11   0 163.104   9.760   2
  -6  11   0 34.6527  5.0253   2
   6  11   0 32.9984  5.4568   9
 -11  -6   0 43.3797  5.6495   2
 -11   6   0 36.0196  4.8588   2
   7 -11   0 578.579  21.748  10
 -12   0   0 1041.40   37.89   2
   0  12   0 1047.75   37.81   2
   1  12   0 2.07660 4.53877   2
  -1  12   0 17.7735  5.1736   2
 -12   1   0 10.9705  4.8792   2
 -12  -1   0 10.3341  4.7179   2
   2  12   0 1141.96   41.53   2
  -2  12   0 1167.52   41.16   2
 -12   2   0 1211.37   41.35   2
 -12  -2   0 1143.09   41.32   2
 -12  -3   0 146.771   9.802   2
   3  12   0 140.705  10.312   9
   3  12   0 154.245  10.026   2
 -12  -3   0 153.983   5.767   1
  -3  12   0 140.832   9.213   2
 -12   3   0 158.296   9.187   2
   4  12   0 1502.63   51.99   2
  -4  12   0 1499.36   51.37   2
 -12  -4   0 1508.91   51.80   2
 -12   4   0 1519.73   51.09   2
   4  12   0 1523.02   52.58   9
   0   0  -1 0.25970 1.21717   3
   0   0  -1 -0.5479  1.4146   5
   0  -1  -1 -1.1847  1.7580   3
   1   0  -1 0.44803 2.19816   5
  -1   0  -1 1.85890 1.81849   3
   0   1  -1 0.74632 1.76026   5
  -1   0  -1 3.55081 1.78356  12
   0   1  -1 -1.4663  1.5757  12
   0  -1  -1 2.62142 1.74239  12
  -1  -1  -1 2.76794 2.05677   3
  -1   1   1 -0.8740  2.7321  12
   1   1  -1 0.25466 2.25935   5
  -1  -1  -1 2.46451 2.04032  12
  -1  -1   1 -0.9771  2.1472  12
  -1   1  -1 -0.1909  2.5864  12
   1  -1  -1 1.14812 1.90964   3
   1  -1  -1 1.98187 2.36491   5
  -2   0  -1 446.849  14.852  12
   0  -2  -1 449.953  14.993  12
   0   2  -1 447.678  14.998  12
   0   2   1 438.400  15.194  12
   0   2  -1 431.328  16.103   5
  -2   0  -1 461.556  15.774   3
   0  -2  -1 458.956  16.059   3
   0  -2   1 435.781  14.982  12
  -2   0   1 438.606  15.014  12
  -2  -1   1 29.0999  2.3101   3
  -1   2   1 28.7504  4.3132  12
  -2   1  -1 29.7922  4.0995  12
  -1  -2  -1 33.1289  3.6885   3
  -1  -2  -1 21.9868  3.2980  12
   1   2  -1 29.7102  2.9388   5
  -2  -1   1 24.7130  3.5381  12
  -2   1   1 28.8875  3.8369  12
   1  -2  -1 24.9692  3.9007  12
  -1   2  -1 29.5709  4.0126  12
   1  -2  -1 28.8905  2.6134   5
  -1  -2   1 24.6170  3.4202  12
  -2  -1  -1 29.0496  3.1944  12
  -2  -1  -1 23.9842  2.9045   3
   1   2   1 27.1418  3.3327  12
   2   2  -1 -0.5040  3.5175   5
  -2   2   1 -1.9039  4.2882  12
  -2   2  -1 0.09820 4.06271  12
  -2  -2  -1 0.55712 3.30159  12
  -2  -2  -1 0.02183 2.95642   3
  -2  -2   1 -3.0811  3.2995  12
   0  -3   1 -1.8460  3.6356  12
   0   3  -1 0.49574 3.73752  12
   0   3  -1 0.64063 2.38451   5
   0  -3  -1 1.10879 3.71083  12
  -3   0  -1 -4.7415  3.3877  12
  -3   0  -1 -1.3849  2.7259   3
   0   3   1 -4.5998  3.7882  12
  -3   0   1 0.36627 3.54652  12
  -3   1  -1 2.99649 3.29777   3
  -1  -3  -1 2.91147 3.58172  12
   1   3  -1 0.61389 2.33520   5
  -3  -1   1 1.00076 3.39035  12
   1  -3   1 2.79544 3.98236  12
  -3   1  -1 -0.2303  4.1019  12
  -1   3   1 0.44082 4.44980  12
  -1  -3  -1 -1.6050  3.7483   3
  -3  -1   1 2.65305 1.75528   3
  -3  -1  -1 -6.7927  3.2527  12
  -3   1   1 3.08840 3.95028  12
  -3  -1  -1 0.97196 2.70430   3
   1   3   1 0.33916 3.51964  12
  -1   3  -1 8.25501 4.17280  12
  -1  -3   1 6.03042 3.72265  12
   1  -3  -1 -1.1148  3.9845  12
  -3   2  -1 197.460  10.278  12
  -3  -2   1 193.537   7.991   3
  -2  -3  -1 208.040   9.142  12
  -2   3   1 203.774  10.111  12
  -2  -3  -1 214.291   9.343   3
  -3  -2   1 201.628   9.425  12
   2   3  -1 186.600   8.845   5
  -3   2   1 195.921   9.832  12
  -3  -2  -1 198.122   8.961  12
  -2   3  -1 209.475  10.029  12
  -3  -2  -1 198.615   8.862   3
  -2  -3   1 189.602   9.279  12
  -3   3   1 1.91844 4.74755  12
  -3  -3   1 -2.5904  4.0396  12
  -3  -3  -1 -1.4879  3.7888  12
  -3  -3   1 -0.8575  3.0409   3
   3   3  -1 0.74003 3.87973   5
  -3  -3  -1 5.25309 3.35500   3
  -3   3  -1 2.90570 4.71275  12
   0   4   1 178.985   9.727  12
  -4   0  -1 183.683   8.913  12
  -4   0   1 167.461   9.153  12
   0  -4   1 187.164   9.635  12
  -4   0  -1 187.235   8.319   3
   0   4  -1 183.808   9.476  12
   0  -4  -1 183.801   9.431  12
  -4  -1   1 5.88640 4.00814  12
   1   4  -1 8.17928 4.07655  11
  -4  -1   1 5.04270 1.87546   3
  -1   4   1 1.40888 4.55905  12
  -4   1  -1 -4.1439  4.1070  12
  -1  -4  -1 4.55579 4.01012  12
  -1  -4  -1 -0.6022  4.2848   3
   1   4  -1 1.52258 2.21324   5
   1  -4   1 6.31433 4.59265  12
  -4  -1  -1 3.75093 3.71501  12
  -1  -4   1 6.50755 4.16507  12
  -1   4  -1 -3.6125  4.2821  12
  -4   1   1 4.23277 4.20859  12
   1  -4  -1 4.58504 4.51058  12
  -4  -1  -1 6.09397 2.84518   3
   1   4   1 5.42489 4.10029  12
  -2  -4  -1 275.600  11.730  12
   2   4  -1 257.844  11.057   5
  -4   2  -1 300.684  12.664  12
  -4  -2   1 275.905  10.351   3
   2  -4   1 267.282  12.539  12
  -2   4   1 279.711  12.833  12
  -4  -2   1 264.651  11.740  12
  -2  -4  -1 286.042  12.205   3
   2   4  -1 274.157  12.498  11
  -4  -2  -1 264.633  11.414  12
  -4  -2  -1 274.800  11.191   3
  -2   4  -1 283.178  12.775  12
   2  -4  -1 287.311  12.518  12
  -2  -4   1 278.302  11.922  12
  -4   2   1 256.382  12.382  12
   3   4  -1 1.75228 3.72854  11
  -4  -3   1 7.62964 2.73401   3
   3   4  -1 8.21013 3.24593   5
  -4   3  -1 8.03595 4.91954  12
  -3  -4  -1 10.4031  4.4368  12
  -3   4   1 -0.1418  4.8975  12
  -3  -4  -1 11.1977  3.8140   3
  -4  -3   1 7.35143 4.41230  12
  -3  -4   1 7.15941 4.40058  12
  -4  -3  -1 0.89147 4.04148  12
   4   3  -1 6.27819 3.47018  11
  -3  -4   1 8.75530 3.32723   3
  -4   3   1 7.27695 4.90677  12
  -3   4  -1 11.5171  5.2580  12
  -4  -3  -1 7.15414 3.36052   3
  -4  -4  -1 0.40129 4.16374  12
  -4  -4   1 1.53354 3.00683   3
   4   4  -1 1.04215 3.27129  11
  -4   4  -1 -3.5156  4.6910  12
  -4   4   1 1.23975 4.54042  12
  -4  -4  -1 -3.4934  3.1886   3
  -4  -4   1 3.32715 4.28433  12
   4   4  -1 3.94122 3.71082   5
   0  -5  -1 -3.1096  4.4727  12
  -5   0  -1 -0.1376  2.8713   3
   0  -5   1 -4.3108  4.4298  12
  -5   0  -1 -5.2624  4.0018  12
   0   5  -1 -1.7225  4.4401  12
   0   5   1 -6.6553  4.2997  12
  -5   0   1 2.22086 4.20140  12
  -1  -5  -1 69.7993  6.4662  12
  -5  -1   1 61.0293  6.1866  12
   1  -5   1 68.3522  6.7975  12
   1   5  -1 75.7622  6.6999  11
  -1   5   1 67.9535  6.8931  12
  -5   1  -1 59.4394  6.1855  12
  -1  -5  -1 70.2977  7.1115   3
  -5  -1  -1 76.5733  5.2822   3
  -5   1   1 70.4824  6.5212  12
  -5  -1  -1 69.7054  6.1416  12
   5   1  -1 74.3739  5.8316  11
   1  -5  -1 70.5205  6.8349  12
   1   5   1 73.8446  6.6222  12
  -1  -5   1 60.7999  6.3251  12
  -1   5  -1 67.4357  6.7261  12
  -5  -2   1 1.06501 4.23755  12
  -2  -5  -1 3.55297 4.18497  12
  -2  -5  -1 2.01027 4.19487   3
   2   5  -1 -0.9780  4.0256  11
   2  -5   1 -1.6072  4.9106  12
  -5   2  -1 10.2145  4.8126  12
  -2   5   1 4.26375 5.06781  12
   2  -5  -1 9.29917 4.82654  12
  -2  -5   1 5.69121 4.38450  12
   5   2  -1 1.38846 3.44508  11
  -5  -2  -1 -1.5794  3.9682  12
  -5  -2  -1 0.89409 2.88072   3
  -5   2   1 -4.1385  4.4581  12
  -2   5  -1 -1.2206  4.7588  12
  -3  -5  -1 18.6287  4.8894  12
  -3   5   1 11.7465  5.4161  12
   3  -5   1 14.2801  5.3551  12
  -3  -5  -1 22.6725  4.5107   3
   3   5  -1 17.0762  4.3332  11
  -5  -3   1 21.4560  4.7968  12
  -5   3  -1 20.2220  5.3965  12
  -5  -3  -1 19.7451  3.7272   3
  -5   3   1 10.5910  5.3369  12
  -3  -5   1 11.8427  4.7625  12
  -3  -5   1 15.7302  3.8881   3
  -3   5  -1 12.8249  5.3623  12
  -5  -3  -1 22.8838  4.7876  12
   3  -5  -1 19.5451  5.4226  12
  -4  -5  -1 18.2375  4.9943  12
  -4  -5  -1 12.9507  4.0785   3
  -5   4  -1 12.9286  5.4385  12
  -5  -4   1 13.7651  4.7794  12
  -4   5   1 18.4222  5.3140  12
   4   5  -1 13.2911  4.2635  11
   4  -5  -1 17.7955  5.0255  12
  -5  -4  -1 21.0163  4.8378  12
  -4   5  -1 23.6449  5.5553  12
  -5   4   1 13.6689  5.2916  12
  -4  -5   1 21.0165  5.2068  12
  -5  -4  -1 11.0895  3.6781   3
   5   4  -1 9.62087 4.55611   5
  -4  -5   1 15.1480  3.8307   3
  -5   5  -1 3.26369 4.43630   2
  -5  -5  -1 2.52326 4.02100   2
  -5   5  -1 -1.7681  4.8082  12
  -5  -5   1 1.67965 4.60479  12
  -5   5   1 -5.0602  4.6171  12
  -5  -5  -1 4.00134 4.72760  12
  -5  -5  -1 -3.0475  3.4400   3
  -6   0  -1 213.264   9.765   3
   0  -6  -1 191.065  11.561  12
   0   6   1 222.494  11.713  12
   0   6  -1 214.291  11.670  12
  -6   0  -1 209.894  11.001  12
  -6   0   1 206.622  11.230  12
   0  -6   1 220.252  11.839  12
   0  -6  -1 236.982  13.183   3
   1  -6   1 3.16086 5.06358  12
  -6  -1   1 6.37456 4.56155  12
  -1  -6  -1 -0.6043  4.5071  12
  -6   1  -1 2.92684 4.59202  12
   1   6  -1 -1.9794  4.4055  11
  -1  -6  -1 -0.2233  5.2851   3
  -1   6   1 1.45247 4.83477  12
  -6   1   1 3.95090 4.55142  12
  -6  -1  -1 0.42088 4.08163  12
   1  -6  -1 1.91344 4.86497  12
  -6  -1  -1 6.48883 3.07476   3
  -1  -6   1 12.1724  4.9257  12
  -1   6  -1 0.16890 4.83045  12
   2   6  -1 97.4747  8.0019  11
   2  -6   1 88.6020  8.3441  12
  -2  -6  -1 71.3708  7.1574  12
  -6   2  -1 81.7474  7.5483  12
  -6  -2   1 91.0730  7.4265  12
  -2  -6  -1 95.2710  8.1799   3
  -2   6   1 82.9430  8.1727  12
  -6  -2  -1 74.4083  6.7407  12
   2  -6  -1 75.4453  7.7813  12
  -6  -2  -1 76.0418  5.6936   3
  -6   2   1 72.5031  7.6997  12
  -2  -6   1 82.5472  7.5914  12
  -2   6  -1 72.0125  7.6633  12
  -6   3  -1 97.8038  8.2025  12
  -3  -6  -1 97.8701  7.7016   3
   3  -6   1 86.7084  8.5887  12
  -3  -6  -1 89.2443  7.9962  12
   3   6  -1 87.0522  7.6572  11
  -6  -3   1 93.0722  7.9709  12
  -3   6   1 83.0916  8.1926  12
   3  -6  -1 81.9110  8.1176  12
  -6  -3  -1 75.8127  6.0133   3
  -6   3   1 73.1477  7.9441  12
  -3   6  -1 82.8639  8.2218  12
  -6  -3  -1 83.8844  7.4294  12
  -3  -6   1 90.4579  7.5395   3
  -3  -6   1 86.1618  7.8261  12
   4   6  -1 83.1265  7.3855   2
  -4   6   1 70.7022  7.9001  12
  -4  -6  -1 72.4201  7.7293  12
  -6   4  -1 83.2899  7.6995   2
  -4  -6  -1 85.6190  7.4254   2
  -4  -6  -1 89.5982  7.4199   3
   4   6  -1 90.4555  7.5040  11
   4  -6   1 91.9714  8.6751  12
  -6  -4   1 89.1831  8.1653  12
  -6   4  -1 77.2468  7.7943  12
  -4   6  -1 84.2223  8.1789  12
  -4   6  -1 84.9497  7.6994   2
   6   4  -1 82.7452  7.5160   2
  -6  -4  -1 92.3967  8.0428  12
  -4  -6   1 86.1105  8.3062  12
   4  -6  -1 99.0907  8.6044  12
   6   4  -1 82.1668  7.8355   5
  -6   4   1 84.6995  8.4287  12
  -6  -4  -1 81.6193  7.1174   2
  -6  -4  -1 84.5363  6.6001   3
  -4  -6   1 73.8326  6.7798   3
  -5  -6  -1 13.3446  4.7896   2
  -5   6   1 23.2816  5.8060  12
   5   6  -1 12.9282  4.9321   2
  -6   5  -1 16.1263  5.1013   2
  -6   5  -1 29.3774  6.0078  12
   5  -6   1 15.9589  5.7622  12
  -5  -6  -1 18.2263  5.4255  12
  -5  -6  -1 24.4706  5.0483   3
  -6  -5   1 12.0442  5.3261  12
  -6   5   1 26.8759  6.1508  12
   5  -6  -1 11.7669  5.5099  12
  -6  -5  -1 26.1778  5.2099   2
  -6  -5  -1 17.4567  1.7332   1
  -6  -5  -1 18.3690  4.3306   3
  -5  -6   1 23.6032  5.9385  12
  -5   6  -1 19.8891  5.2576   2
   6   5  -1 19.3331  4.9079   2
   5  -6  -1 19.4962  1.8231   1
  -5   6  -1 23.4683  5.6889  12
  -6  -5  -1 23.9063  5.4127  12
  -6  -6  -1 1.08910 4.87689  12
  -6   6  -1 12.3121  5.4484  12
   6  -6  -1 -4.5464  4.6531  12
  -6   6   1 3.98810 5.46830  12
  -6  -6   1 -2.1282  4.7891  12
   6  -6   1 3.37799 5.19045  12
   6   6  -1 1.48648 4.76791   2
  -6   6  -1 -9.2109  4.0524   2
  -6  -6  -1 4.72769 4.51569   2
   0  -7  -1 -2.8181  4.9892  12
  -7   0  -1 6.51512 4.66021  12
   0   7  -1 -8.5555  3.7693   9
  -7   0  -1 2.11815 3.96605   2
   0   7  -1 -0.7223  5.2453  11
  -7   0   1 -2.3926  4.6914  12
   0  -7  -1 -3.7056  4.7933   3
   0   7   1 -4.2078  4.8177  12
   0   7   1 -1.0231  4.3494   9
   0  -7   1 4.68036 5.18992  12
   1   7  -1 154.780  10.941  11
  -1  -7  -1 145.128  11.131   3
  -7  -1   1 149.067  10.100  12
  -7   1  -1 152.867  10.330  12
   1   7  -1 148.957   9.788   2
  -7   1  -1 142.520   9.547   2
  -1   7   1 155.421  10.910  12
  -1  -7  -1 154.980  10.595  12
   1  -7   1 150.819  11.133  12
  -1   7   1 146.812  10.445   9
   1   7  -1 164.535  10.590   9
  -1   7  -1 148.599  10.070   2
   1   7   1 149.997  10.385   9
   1  -7  -1 185.897  11.415  12
  -7   1   1 149.877  10.429  12
  -7  -1  -1 140.899   8.903   2
  -1  -7   1 134.050  10.332  12
   1  -7  -1 146.136  11.110   3
  -7  -1  -1 140.322   9.887  12
  -1   7  -1 136.218  10.548  12
  -1   7  -1 150.327  10.375   9
  -2  -7  -1 11.1586  5.2331   3
  -2  -7  -1 6.52603 5.22817  12
  -7   2  -1 6.51292 5.21222  12
   2   7  -1 21.5762  5.6458   9
   7  -2  -1 18.8406  5.2490   2
  -2   7   1 3.56150 5.35022  12
  -7   2  -1 5.15848 4.67739   2
   2  -7   1 19.0442  5.9405  12
   2   7  -1 5.84373 5.13707  11
  -2   7   1 16.0045  5.2972   9
   2   7  -1 7.73097 4.84104   2
  -7  -2   1 7.03359 5.09068  12
  -2   7  -1 9.98532 4.72636   2
   2  -7  -1 10.6005  5.8823  12
  -7  -2  -1 24.1982  4.9505   2
  -2  -7   1 19.3302  5.7994  12
  -7   2   1 12.4562  5.6138  12
  -2   7  -1 8.47030 5.58994  12
   2   7   1 6.47489 4.56005   9
  -2  -7   1 9.61906 5.07371   3
  -7  -2  -1 12.1514  4.8791  12
   7   2  -1 0.99892 4.55337   2
   3   7  -1 11.2959  5.1909   9
   3   7  -1 10.0741  4.8558  11
  -3  -7  -1 11.5401  5.2157   3
   3  -7   1 10.9286  5.6902  12
  -3  -7  -1 20.4888  5.7325  12
   3   7  -1 5.30809 4.70240   2
  -7   3  -1 8.93578 5.13306  12
  -3   7   1 2.44812 5.54439  12
  -7   3  -1 16.0309  5.2340   2
  -7  -3   1 15.3954  5.5007  12
  -3  -7   1 10.2151  5.5851  12
  -3   7  -1 5.06317 4.87528   2
   3  -7  -1 11.0881  5.6610  12
  -3  -7   1 3.82439 4.62334   3
  -3   7  -1 6.82998 5.35902  12
  -7  -3  -1 4.56839 4.70535  12
  -7  -3  -1 6.27698 4.23530   2
  -7   3   1 6.06715 5.52116  12
   7   3  -1 17.6170  4.8347   2
  -7   4  -1 4.69001 4.96727   2
  -7   4  -1 -1.5865  4.6223  12
  -4  -7  -1 8.09127 4.65717   3
  -4   7   1 13.0520  5.5812  12
  -4  -7  -1 4.88675 5.34969  12
   4  -7   1 6.88540 5.57710  12
   4   7  -1 -2.3556  4.9657   9
  -7  -4   1 3.87703 5.31407  12
   4   7  -1 9.78579 4.80575   2
  -7  -4  -1 4.23412 4.35137   2
  -4  -7   1 -5.1716  4.9892  12
   7   4  -1 11.2133  4.9198   2
  -7  -4  -1 6.90455 4.97963  12
  -7   4   1 -0.5899  5.1174  12
  -4   7  -1 9.52741 5.34047  12
  -4  -7   1 9.24620 4.48515   3
   4  -7  -1 3.26358 5.24751  12
   4  -7  -1 2.59454 1.25610   1
   7   4  -1 6.71244 5.17768   5
  -4   7  -1 8.10095 4.90029   2
  -5   7   1 37.3237  6.7942  12
  -7  -5   1 21.9202  6.3793  12
   5   7  -1 23.1871  5.7246   2
  -7   5  -1 39.1066  6.3326   2
  -5  -7  -1 42.6835  6.9202  12
  -5  -7  -1 31.9191  5.9931   3
   5   7  -1 46.3810  7.1928   9
   5  -7   1 46.2273  7.8545  12
  -7   5  -1 47.1532  6.8465  12
   5  -7  -1 36.3566  2.5082   1
  -7  -5  -1 24.9497  5.6217   2
   7   5  -1 31.9704  6.1448   2
  -7  -5  -1 41.0573  6.7395  12
  -7   5   1 33.2747  6.8878  12
  -7  -5  -1 36.0981  2.5049   1
  -5   7  -1 37.5809  6.0612   2
  -5  -7   1 41.2870  7.2267  12
  -5   7  -1 40.9630  6.9628  12
   5  -7  -1 44.2569  7.1443  12
  -6   7   1 15.9599  5.9479  12
   6   7  -1 -1.0175  4.9419   2
   7  -6  -1 3.26338 5.71548  12
  -7   6  -1 6.41435 4.89286   2
   6  -7   1 6.95900 6.19792  12
   6   7  -1 17.5246  5.6959   9
  -6  -7  -1 -0.1563  4.8553  12
  -7  -6   1 2.78601 5.79260  12
  -7   6  -1 4.94573 5.27379  12
  -7  -6  -1 17.9084  5.1824   2
   6  -7  -1 5.97025 5.74376  12
  -7   6   1 2.32482 5.37611  12
  -7  -6  -1 13.9248  5.7754  12
  -6   7  -1 5.32307 4.97767  12
   7   6  -1 3.09470 4.97028   2
  -6   7  -1 10.2836  5.1272   2
  -6  -7   1 6.42848 5.70089  12
   7  -6   1 17.7316  6.2154  12
   7   7  -1 0.12077 4.73179   2
  -7   7  -1 -0.5589  4.4532   2
   7   7  -1 0.36102 5.16078   9
   0  -8   1 -0.0928  5.5864  12
  -8   0  -1 11.1133  5.0884   2
   0   8   1 8.35921 5.25922   9
   0   8  -1 -3.3343  5.0239   2
   0   8  -1 0.99239 5.41857  11
   0  -8  -1 1.43556 5.57390  12
  -8   0  -1 10.7108  4.9883  12
  -8   0   1 2.25840 5.12182  12
   0   8  -1 -5.9551  4.6883   9
   8   0  -1 3.56479 4.98485   2
   0  -8  -1 -3.5378  5.2601   3
  -1  -8  -1 68.1187  8.5969   3
  -1   8   1 72.9445  8.2550   9
   1   8  -1 89.7695  8.3837   2
   1   8  -1 77.9210  8.9471   9
   8  -1  -1 79.0759  8.0034   2
  -1  -8  -1 66.7158  8.3003  12
  -8   1  -1 78.5904  8.1109  12
  -1   8   1 83.3621  9.0286  12
  -8  -1   1 93.3724  9.0839  12
   1  -8   1 69.6364  9.0045  12
   1   8  -1 73.1687  8.9357  11
  -8   1  -1 69.0756  7.4073   2
  -8   1   1 87.5815  9.0400  12
  -1   8  -1 70.9168  9.3773  11
  -8  -1  -1 85.0917  8.1789  12
  -1   8  -1 79.9820  8.6308   9
  -1  -8   1 77.9919  8.7271  12
   8   1  -1 87.2832  7.7774   2
   1   8   1 77.5188  8.2187   9
  -1   8  -1 83.8739  8.3385   2
   1  -8  -1 78.3236  8.5329   3
   1   8   1 88.4375  8.4427  11
   1  -8  -1 60.6454  8.3522  12
  -8  -1  -1 86.5599  7.5347   2
  -2   8   1 10.9679  6.0921  12
  -8   2  -1 17.4549  5.7471   2
  -2   8   1 24.4110  6.0761   9
  -8  -2   1 7.50423 5.44400  12
   2   8  -1 26.4233  5.9668   2
   2   8  -1 31.5375  6.4985   9
   2  -8   1 13.5432  6.6034  12
  -8   2  -1 20.1472  5.8883  12
   8  -2  -1 25.5098  5.7779  10
   8  -2  -1 27.5166  6.1753   2
   2   8  -1 15.6986  5.9465  11
  -2  -8  -1 20.3791  6.1829   3
  -2  -8  -1 17.9902  6.4961  12
  -8   2   1 15.4855  5.9823  12
  -2  -8   1 36.4302  6.7781  12
   2  -8  -1 29.4463  7.0268  12
  -8  -2  -1 14.8818  4.8985   2
  -2  -8   1 4.20095 5.23181   3
  -2   8  -1 14.4613  5.3758   2
   2  -8  -1 25.9504  5.5943   3
  -2   8  -1 14.8564  6.3640  12
   8   2  -1 19.3619  5.4354   2
   2   8   1 20.9124  5.8832   9
  -8  -2  -1 19.0590  5.8298  12
   3   8  -1 3.52295 5.15014   9
  -3  -8  -1 -1.3000  4.9629   3
   3   8  -1 -6.8219  4.6252   2
  -8   3  -1 8.79037 5.42182  12
   3  -8   1 4.07175 5.96385  12
  -8  -3   1 10.8833  5.7512  12
   8  -3  -1 4.49916 5.11870   2
   3   8  -1 2.00647 5.08985  11
  -3  -8  -1 -6.4358  5.3606  12
  -8   3  -1 -1.4578  4.7924   2
  -3   8   1 5.40731 5.49552  12
   8  -3  -1 6.08632 5.07024  10
  -8  -3  -1 -4.7128  4.2012   2
  -3   8  -1 -3.2068  5.2024  12
   3  -8  -1 4.95002 5.51075  12
   3  -8  -1 -0.1680  4.4925   3
  -3  -8   1 5.05408 5.26756   3
  -3  -8   1 9.21416 6.03274  12
   3   8   1 4.98535 5.20161   9
   8   3  -1 -2.2413  5.7873   5
   8   3  -1 0.67173 4.52360   2
  -8  -3  -1 7.29405 5.03559  12
  -3   8  -1 6.16661 4.98501   2
  -8   3   1 -1.6334  5.3791  12
  -8   4  -1 63.4979  8.1390   2
   4   8  -1 90.6613  8.5461   2
  -8  -4   1 83.9744  8.7494  12
  -4  -8  -1 71.2382  8.7138  12
   4   8  -1 86.0303  9.2002   9
  -8   4  -1 89.2178  8.5016  12
  -4   8   1 73.4299  8.6388  12
   4  -8   1 74.3709  9.0931  12
   8   4  -1 90.7442  8.3773   2
  -4   8  -1 82.8581  8.7195  12
  -4   8  -1 79.1549  8.1142   2
  -8  -4  -1 83.4431  8.8784  12
  -8   4   1 92.9249  9.2746  12
  -8  -4  -1 91.5080  8.0260   2
   4  -8  -1 89.1025  8.9999  12
   8   4  -1 78.4413  8.7964   5
  -4  -8   1 79.9380  9.3770  12
   4   8   1 81.4210  8.8757   9
  -8   5  -1 24.1088  5.9789   2
   5   8  -1 30.0920  6.2470   2
   5   8  -1 38.6309  7.3505   9
  -8  -5  -1 32.4595  2.3466   1
  -5   8  -1 20.3556  5.5483   2
  -8  -5  -1 39.5851  6.3896   2
   8   5  -1 22.6753  5.6526   2
   5   8   1 30.2657  6.7039   9
   6   8  -1 5.85589 5.76211   9
  -8   6  -1 -5.7919  4.6977   2
   6   8  -1 6.52806 5.20063   2
  -8  -6  -1 6.44714 4.84216   2
   8   6  -1 -1.4049  4.8486   2
  -6   8  -1 -1.8671  4.4904   2
   7   8  -1 44.9562  7.2898   9
  -8   7  -1 63.4668  7.1514   2
   7   8  -1 59.5167  7.6407   2
  -7   8  -1 52.6006  6.7780   2
   8   7  -1 56.2160  7.4828   2
   8   7  -1 42.0453  6.9334   9
  -8   7   1 50.5351  7.0081   2
   8   8   1 -2.7549  4.6727   9
   8   8  -1 -1.3304  4.6151   9
   8   8  -1 8.10696 5.09678   2
  -8   8  -1 -3.8105  4.3057   2
  -8   8   1 1.37908 4.61139   2
   0   9  -1 -4.0257  5.2530   2
   0  -9   1 0.92298 5.89945  12
   0   9  -1 -6.4888  5.4635  11
   0  -9  -1 0.82316 5.72640  12
  -9   0  -1 -1.1151  5.2058  12
   9   0  -1 12.7157  5.4080   2
  -9   0   1 -3.2376  5.5099  12
   0   9   1 1.22745 5.39526   9
   0   9  -1 3.32624 5.66831   9
   0   9   1 2.78831 5.53180  11
  -9   0  -1 -0.4942  4.6817   2
   9  -1  -1 9.70045 5.39343   2
   1  -9   1 10.5674  6.5183  12
  -9   1  -1 7.21580 5.38694   2
   1   9  -1 0.53518 5.47310   2
   1   9  -1 4.70198 5.91175  11
  -9   1  -1 14.7590  5.9104  12
  -9  -1   1 13.4766  6.1797  12
  -1   9   1 20.3858  6.1262   9
   1   9  -1 5.07515 5.76395   9
  -1  -9  -1 15.1228  6.5105  12
   1   9   1 18.2669  6.3689   9
  -1   9  -1 16.0184  5.7079   2
  -9   1   1 -4.7256  5.5509  12
  -9  -1  -1 16.3010  5.4875   2
  -9  -1  -1 2.74583 5.23892  12
   1  -9  -1 6.08978 6.11972  12
   9   1  -1 12.9334  5.3414   2
  -1  -9   1 5.58662 6.39944  12
  -1   9  -1 21.9003  6.4562   9
  -1   9  -1 6.97384 6.08954  11
  -2  -9  -1 -6.5578  5.7046  12
  -9   2  -1 -10.900   4.198  12
   2   9  -1 -6.6483  5.0799  11
  -9  -2   1 -2.5081  5.7253  12
  -2   9   1 11.4166  6.4063  12
   2  -9   1 -4.1177  6.1796  12
   9  -2  -1 3.78355 5.26629   2
   2   9  -1 1.82033 5.85052   9
  -9   2  -1 -0.4588  4.7954   2
   2   9  -1 1.96864 5.13801   2
  -2   9  -1 4.52894 5.74861  11
   2   9   1 -2.2012  5.2996   9
  -9  -2  -1 3.88101 5.08019  12
  -9  -2  -1 -7.5644  4.4603   2
  -9   2   1 6.16735 6.23350  12
  -2   9  -1 2.15138 4.83236   2
  -2  -9   1 1.00977 6.23332  12
   2  -9  -1 2.42544 5.83295  12
   9   2  -1 -0.7388  4.4717   2
  -9   3  -1 33.6345  6.5213   2
   3   9  -1 33.7759  6.5433   2
   9  -3  -1 40.3684  7.0163   2
   3   9  -1 36.8796  7.2748   9
   9  -3  -1 44.9746  6.8145  10
  -3   9  -1 37.5831  7.4305  11
   9   3  -1 33.9513  6.1270   2
  -9  -3  -1 26.3678  5.6292   2
   3   9   1 44.3114  7.7979   9
  -3   9  -1 41.7519  6.6794   2
   9  -4  -1 8.16238 5.07582  10
   9  -4  -1 8.44070 5.17430   2
   4   9  -1 4.26698 5.21201   2
  -9   4  -1 1.55325 5.03090   2
   4   9  -1 -0.0015  5.5868   9
  -4   9  -1 7.55889 4.99267   2
  -9  -4  -1 -3.7401  4.4238   2
   4   9   1 2.53874 5.72802   9
   9   4  -1 -0.7507  4.8064   2
   9  -5  -1 15.7745  5.7513   2
  -9   5  -1 25.4058  5.8706   2
   5   9  -1 16.2142  6.1222   9
   5   9  -1 20.6375  6.0503   2
   9  -5  -1 19.7046  6.0426  10
  -5   9  -1 5.14832 5.00960   2
  -9   5   1 22.7770  5.7918   2
  -9  -5  -1 19.5987  5.9089   2
  -9  -5  -1 17.0971  1.8670   1
   5   9   1 14.9370  6.3086   9
   9   5  -1 14.3106  5.3129   2
   6   9  -1 122.501  10.171   2
   6   9  -1 128.443  10.525   9
  -9   6  -1 112.593   9.205   2
   9  -6  -1 125.589  10.147  10
   9  -6  -1 137.267  10.177   2
  -6   9  -1 119.845   9.213   2
   9   6  -1 137.327  10.244   2
  -9   6   1 117.790   9.727   2
   6   9   1 133.069  11.177   9
  -9  -6  -1 132.842   9.816   2
   9  -7  -1 100.345   8.519  10
   7   9  -1 72.7643  8.0029   9
   7   9  -1 81.4605  8.3966   2
  -9   7  -1 85.5243  7.6635   2
  -9   7   1 92.4541  8.0965   2
  -7   9  -1 80.6966  7.4971   2
   7   9   1 88.3662  8.7747   9
   9   7  -1 80.1979  8.1023   2
  -8   9   1 14.0746  4.5067   2
   9  -8  -1 16.4501  4.7796   2
   9  -8  -1 12.7919  4.7914  10
  -9   8  -1 17.6895  4.5332   2
   9   8   1 15.6067  5.1755   9
   8   9  -1 18.4175  5.1779   2
   9   8  -1 23.2877  5.2333   2
   8  -9  -1 20.5605  5.1628  10
  -8   9  -1 17.0205  4.4938   2
  -9   8   1 11.7390  4.5151   2
   8   9   1 22.3168  5.4809   9
   9  -9  -1 -0.8292  3.3474  10
   9  -9  -1 -3.8594  3.2073   2
   9   9  -1 2.32033 3.88520   2
  -9   9  -1 2.96617 3.24344   2
   9   9   1 2.62191 4.02465   9
 -10   0   1 49.5463  7.3684   2
  10   0  -1 59.2979  7.3608   2
   0  10   1 59.8756  8.5622   9
 -10   0  -1 49.5703  7.2007   2
   0  10  -1 41.0537  7.9353  11
   0  10   1 53.6842  7.7522  11
   0  10  -1 44.7457  7.5170   2
   0  10  -1 52.6293  8.1397   9
   1  10  -1 -2.4402  5.5101   2
   1  10  -1 8.03185 6.31621  11
  -1  10   1 -5.1706  5.1759   9
 -10   1  -1 14.7464  5.4101   2
 -10  -1   1 6.76736 5.60929   2
  10  -1  -1 11.5333  5.6455   2
  -1  10   1 3.27188 5.34631  11
   1  10  -1 15.3270  6.3097   9
   1  10   1 11.8245  6.0101   9
  10   1  -1 10.2288  5.3703   2
  -1  10  -1 1.23056 6.14720  11
 -10   1   1 12.5114  5.5579   2
  -1  10  -1 0.67161 5.38735   2
 -10  -1  -1 14.6393  5.6326   2
   2  10  -1 16.3700  6.2336  11
  10  -2  -1 18.7320  6.0729   2
   2  10  -1 6.50692 5.99265   9
 -10  -2   1 1.25013 5.39102   2
 -10   2  -1 17.4702  5.8815   2
   2  10  -1 14.9292  6.1291   2
  -2  10  -1 18.2499  5.8272   2
   2  10   1 20.5436  6.6644   9
  -2  10  -1 10.9611  5.9160  11
 -10   2   1 -0.7928  5.0695   2
 -10  -2  -1 10.4597  5.5032   2
  10   2  -1 15.2888  5.6680   2
 -10  -3   1 28.8721  6.5749   2
 -10   3  -1 40.2093  6.5312   2
   3  10  -1 30.1843  6.8471   9
   3  10  -1 44.7242  7.2738   2
  10  -3  -1 26.4680  6.3273   2
 -10  -3  -1 28.9355  6.1517   2
   3  10   1 42.1091  7.5946   9
  10   3  -1 33.8244  6.6232   2
  -3  10  -1 33.4048  6.8431  11
 -10   3   1 38.1649  6.4747   2
  -3  10  -1 31.0532  6.4131   2
 -10   4  -1 5.72624 4.71587   2
   4  10  -1 3.84820 5.39800   2
   4  10  -1 1.49202 5.43267   9
  10  -4  -1 5.31216 4.98957  10
  10  -4  -1 1.66151 4.94547   2
 -10  -4   1 4.50032 5.10192   2
  -4  10  -1 -2.2070  4.5505  11
   4  10   1 9.90257 5.95224   9
  -4  10  -1 -3.3113  4.5026   2
 -10   4   1 3.26007 4.75592   2
 -10  -4  -1 5.39710 5.16771   2
 -10  -4  -1 7.21957 1.49878   1
  10   4  -1 3.47441 4.76216   2
 -10  -5   1 148.946  10.973   2
   5  10  -1 125.537  10.544   2
   5  10  -1 147.889  11.665   9
  10  -5  -1 145.628  10.225  10
 -10   5  -1 138.722   9.589   2
  10  -5  -1 162.014  10.364   2
 -10   5   1 129.299   9.934   2
 -10  -5  -1 133.516  10.205   2
 -10  -5  -1 142.685   5.685   1
   5  10   1 135.413  11.204   9
  -5  10  -1 143.219   9.994  11
  10   5  -1 133.345  10.343   2
  -5  10  -1 133.483   9.824   2
 -10  -6   1 9.48149 5.09946   2
   6  10  -1 19.0878  5.6683   2
  10  -6  -1 18.2898  5.4194   2
   6  10  -1 22.5205  5.9706   9
 -10   6  -1 8.36420 4.33388   2
  10  -6  -1 8.99857 5.09425  10
   6  10   1 14.2272  5.4983   9
 -10   6   1 9.15442 4.57091   2
  10  -6   1 15.6889  4.6735  10
 -10  -6  -1 14.9600  5.2338   2
  -6  10  -1 15.2159  4.6251   2
  10   6  -1 19.0056  5.4164   2
  10  -7  -1 4.39342 4.23023   2
 -10   7  -1 -2.2495  3.5729   2
  -7  10   1 3.90520 4.01314   2
   7  10  -1 0.00668 4.40809   2
   7  10  -1 9.07586 4.68400   9
  10  -7  -1 -2.2238  3.9834  10
 -10   7   1 -3.3023  3.6840   2
  10  -7   1 5.03225 3.82581  10
  10   7  -1 2.94893 4.31277   2
   7 -10  -1 1.52072 3.88100  10
  -7  10  -1 -2.9929  3.5559   2
   7  10   1 6.08555 4.62652   9
  10  -8  -1 12.0594  3.8203  10
 -10   8  -1 3.49515 3.10130   2
   8  10  -1 10.4844  4.2821   2
   8 -10  -1 9.97108 3.60672  10
  10  -8   1 9.25353 3.29647  10
   8  10   1 6.85080 3.97073   9
  -8  10  -1 12.1430  3.5984   2
 -11   0  -1 -14.055   4.325   2
 -11   0   1 4.42189 5.26760   2
   0  11  -1 -3.1517  4.9098   2
   0  11  -1 2.10846 5.92519  11
  11   0  -1 -1.2185  4.8960   2
   0  11   1 0.56743 5.37373   9
  11  -1  -1 6.06194 5.20754   2
   1  11  -1 5.91480 5.85438   9
 -11  -1   1 25.0504  6.2946   2
  -1  11   1 2.60079 5.42237  11
   1  11  -1 9.81228 5.53044   2
 -11   1  -1 10.8989  5.5978   2
   1  11  -1 -2.7819  5.4610  11
  -1  11  -1 -0.8946  5.4915  11
 -11  -1  -1 12.7869  5.6355   2
  -1  11  -1 13.9120  5.6349   2
   1  11   1 4.52408 5.53020   9
 -11   1   1 15.1391  5.5607   2
  11   1  -1 13.6918  5.6441   2
  -2  11   1 -5.8251  4.8167  11
 -11  -2   1 3.21407 5.14291   2
  11  -2  -1 11.5204  5.1139   2
   2  11  -1 14.7044  5.8494   9
   2  11  -1 0.54295 5.55257   2
 -11   2  -1 -1.4956  4.5550   2
  -2  11  -1 -0.2907  4.7215   2
 -11  -2  -1 -1.7369  4.5693   2
  11   2  -1 0.37311 4.97268   2
   2  11   1 16.8096  6.2562   9
  -2  11  -1 1.20635 5.08075  11
 -11   2   1 0.55449 4.59930   2
 -11   3  -1 17.4193  5.2204   2
   3  11  -1 9.64043 5.66689   9
 -11  -3   1 12.0620  5.5201   2
   3  11  -1 19.5889  6.0068   2
  11  -3  -1 12.3998  5.5011   2
 -11  -3  -1 21.2031  5.6409   2
 -11  -3  -1 16.3412  1.9087   1
 -11   3   1 19.7633  5.5268   2
  -3  11  -1 27.4081  5.5109   2
  11   3  -1 15.9096  5.6041   2
   3  11   1 6.69983 5.63685   9
  -3  11  -1 15.3122  5.4733  11
   4  11  -1 14.6839  5.8017   2
 -11  -4   1 12.1073  5.4590   2
 -11   4  -1 12.8151  4.8575   2
  11  -4  -1 4.44935 4.89373   2
   4  11  -1 8.32283 5.25304   9
 -11  -4  -1 3.87979 4.74762   2
  11   4  -1 6.32074 5.08329   2
 -11   4   1 8.75318 4.72308   2
   4  11   1 9.13017 5.63096   9
  -4  11  -1 16.7607  4.9702   2
 -11  -4  -1 10.5455  1.5612   1
  11  -5  -1 -3.1573  3.7368  10
   5  11  -1 0.80096 5.01047   2
   5  11  -1 1.39559 4.58842   9
  11  -5  -1 0.08493 4.03086   2
 -11   5  -1 -2.3133  3.7297   2
 -11  -5   1 2.90097 4.65209   2
  11   5  -1 3.81310 4.71585   2
 -11  -5  -1 -0.4492  4.1655   2
   5  11   1 11.2966  5.1909   9
  -5  11  -1 -1.2947  3.8654   2
 -11   5   1 -3.8020  3.7852   2
   6  11  -1 7.82401 4.49280   9
   6  11  -1 1.25500 4.53432   2
 -11   6  -1 7.08307 3.57207   2
  11  -6  -1 5.63154 3.91471   2
  11  -6  -1 4.90114 3.44498  10
 -11  -6   1 6.65108 4.48820   2
  -6  11  -1 11.3989  3.7945   2
   6  11   1 1.76949 4.36182   9
  11   6  -1 5.29916 4.47822   2
   6 -11  -1 6.50372 3.64646  10
 -11   6   1 17.1601  3.9788   2
   0  12  -1 19.4088  5.3429   2
  12   0  -1 29.5119  5.8283   2
 -12   0   1 27.4517  5.6494   2
 -12   0  -1 30.5430  5.6129   2
 -12   1  -1 1.67862 4.22590   2
  12  -1  -1 2.63153 4.54031   2
 -12  -1   1 11.2332  4.7458   2
   1  12  -1 -0.9075  4.2370   2
 -12  -1  -1 1.73741 4.29425   2
  -1  12  -1 -2.0135  4.2420   2
  12   1  -1 1.85760 4.48668   2
 -12   1   1 0.17315 4.20803   2
  12  -2  -1 3.92482 4.61044   2
 -12   2  -1 3.79247 4.31551   2
   2  12  -1 6.57880 4.70090   2
 -12  -2   1 8.72693 4.90064   2
  -2  12  -1 -0.4050  3.7967   2
 -12  -2  -1 4.99823 4.50636   2
  12   2  -1 -5.1130  4.3409   2
   2  12   1 2.01973 4.56111   9
 -12  -2  -1 2.25685 1.15313   1
 -12   2   1 3.85448 4.38888   2
   3  12  -1 68.1630  6.8228   2
 -12   3  -1 77.3415  6.6026   2
  12  -3  -1 63.0570  6.3406   2
 -12  -3   1 68.8903  6.9373   2
 -12   3   1 59.7770  6.1283   2
 -12  -3  -1 61.4278  6.6398   2
   3  12   1 56.2140  6.7587   9
  -3  12  -1 50.9878  5.8907   2
 -12  -3  -1 62.7824  3.0806   1
  12   3  -1 56.8841  6.3524   2
   4  12  -1 13.0718  4.6669   2
 -12  -4   1 -7.4563  4.0142   2
 -12   4  -1 -4.7980  3.1120   2
  12  -4  -1 3.78143 3.67849   2
 -12  -4  -1 0.47642 0.90190   1
  12   4  -1 0.61605 4.06058   2
 -12  -4  -1 -5.2891  3.6214   2
  -4  12  -1 1.72986 3.53154   2
 -12   4   1 -4.3480  3.3053   2
   4  12   1 0.17024 3.85434   9
   0   0  -2 2433.87   81.65   3
   0   0  -2 2534.07   85.71   5
   0  -1  -2 -0.7082  2.3985   3
   0  -1  -2 0.25187 2.78706   5
   0  -1  -2 0.22023 1.27233  12
   0   1  -2 -1.8231  2.8188   5
   1   0  -2 -3.7135  2.8640   5
  -1   0  -2 3.92274 3.32272   5
   1   0  -2 -0.1242  2.0618   3
  -1   0  -2 1.83203 2.69527   3
   1  -1  -2 410.973  15.688   5
   1   1  -2 414.736  15.805   5
  -1   1  -2 423.348  15.354   3
  -1   1  -2 420.371  13.095  12
  -1  -1  -2 403.631  13.151  12
   1  -1  -2 421.587  13.664  12
   1  -1  -2 406.965  14.417   3
  -1   1  -2 421.771  16.037   5
   0   2  -2 5169.64  180.37   5
  -2   0  -2 5352.43  172.57   3
   0  -2  -2 5268.23  159.47  12
   0  -2  -2 5314.24  172.50   3
   0  -2   2 5282.29  159.72  12
  -2   0  -2 5209.08  159.48  12
  -2   0   2 5256.86  159.81  12
   0  -2  -2 5337.75  180.17   5
   0   2   2 5105.06  159.75  12
   2   0  -2 5339.24  180.81   5
  -1   2   2 357.231  13.735  12
   1   2  -2 375.359  14.668   5
   2  -1  -2 356.582  12.720   3
  -1  -2  -2 370.455  12.720  12
   2  -1  -2 405.660  15.349   5
  -2  -1   2 373.214  13.315  12
  -2   1  -2 359.069  13.063  12
  -2   1  -2 383.119  14.325   3
  -1  -2  -2 382.305  14.272   3
  -2   1   2 367.915  13.519  12
   1  -2  -2 391.020  13.277  12
  -2  -1  -2 376.879  14.144   3
   1   2   2 364.927  12.950  12
   2   1  -2 386.692  15.127   5
  -1   2  -2 375.813  12.881  12
   1  -2  -2 375.428  13.774   3
  -2  -1  -2 364.731  12.665  12
  -1  -2   2 384.723  13.194  12
   1  -2  -2 377.037  14.259   5
  -2   2  -2 5688.14  176.64  12
   2  -2  -2 5986.27  199.47   5
   2   2  -2 5718.74  199.48   5
  -2  -2   2 5797.23  176.81  12
  -2  -2  -2 5980.33  190.79   3
   2  -2  -2 5915.67  190.02   3
  -2   2   2 5704.65  177.24  12
  -2  -2  -2 5710.67  176.33  12
   3   0  -2 -3.2881  4.8671   5
   0   3  -2 4.41480 3.03076   5
  -3   0   2 1.47877 3.48264  12
   0   3   2 1.99652 3.68627  12
   0  -3  -2 1.73900 3.61319   3
   0  -3  -2 2.08496 3.45342  12
   0  -3   2 1.89537 3.60836  12
  -3   0  -2 -0.8407  3.5096  12
  -3   0  -2 4.32374 3.30847   3
  -1  -3  -2 274.139  11.582   3
  -3   1  -2 257.406  11.199  12
  -1  -3  -2 260.512  10.290  12
   3  -1  -2 300.120  13.924   5
   1  -3   2 252.809  11.028  12
  -1   3   2 260.992  11.400  12
   1   3  -2 253.405  10.898   5
  -3  -1   2 262.631  10.711  12
  -3   1  -2 270.357  11.242   3
  -3  -1   2 245.663   8.904   3
   1   3   2 249.989  10.500  12
   3   1  -2 279.774  12.905   5
   1  -3  -2 272.212  11.381   3
   1  -3  -2 253.899  10.881  12
  -1  -3   2 265.048  10.696  12
  -3  -1  -2 258.423  10.166  12
  -3  -1  -2 271.815  10.981   3
  -1   3  -2 258.387  10.620  12
  -3   1   2 262.075  11.132  12
   1  -3  -2 259.640  10.377   5
  -2  -3  -2 3.09554 3.60118  12
  -2   3   2 -5.8068  4.3193  12
   2   3  -2 4.52039 3.80532  11
   3  -2  -2 2.03280 2.42441   3
   3  -2  -2 4.29252 5.22752   5
   2   3  -2 3.37734 3.21328   5
  -3   2  -2 5.02786 4.18833  12
  -2  -3  -2 -3.2960  3.5350   3
  -3  -2   2 -2.8292  3.6811  12
  -3   2   2 -3.9703  4.2284  12
   2  -3  -2 -8.4286  3.9410   3
   2  -3  -2 -0.5857  4.0967  12
   3   2  -2 1.27660 4.00826   5
  -3  -2  -2 4.68929 3.33825  12
   2  -3  -2 3.52901 3.11925   5
   3   2  -2 -1.2893  3.6192  11
  -2  -3   2 -0.0795  3.7444  12
  -2   3  -2 -2.0610  4.1180  12
  -3  -2  -2 -3.1844  2.9786   3
  -3  -3  -2 936.052  30.706  12
   3  -3  -2 983.777  33.027   3
   3  -3  -2 984.360  34.712   5
  -3   3  -2 921.355  31.340  12
   3   3  -2 910.431  34.905  11
  -3   3   2 902.726  31.749  12
  -3  -3   2 936.857  31.385  12
   3   3  -2 916.805  34.331   5
  -3  -3  -2 928.467  33.103   3
   0  -4  -2 7518.15  228.46  12
   0  -4   2 7696.94  228.81  12
  -4   0   2 7470.27  228.72  12
   0   4  -2 7391.14  256.96   5
  -4   0  -2 7549.03  246.15   3
   0   4  -2 7342.48  262.51  11
   0   4   2 7473.06  228.69  12
   4   0  -2 7619.33  262.26  11
   0  -4  -2 7651.52  246.92   3
  -4   0  -2 7374.56  228.28  12
  -4  -1   2 70.7347  5.9231  12
  -1  -4  -2 55.1122  5.7424   3
   1   4  -2 79.7739  6.6406  11
  -4   1  -2 67.9110  5.4863   3
   1   4  -2 69.3877  4.8279   5
  -4   1  -2 63.1561  5.8751  12
   1  -4   2 64.1975  6.0218  12
  -1   4   2 77.1270  6.6545  12
  -1  -4  -2 59.2135  5.4052  12
  -4  -1  -2 57.1187  5.0036   3
   1  -4  -2 67.5032  6.1647  12
   4   1  -2 70.9990  6.1252  11
  -1  -4   2 65.0886  5.8886  12
  -4  -1  -2 59.4859  5.3336  12
   1  -4  -2 68.2626  6.9141   3
  -1   4  -2 70.9697  5.9430  12
   4   1  -2 85.0350  7.9468   5
   1   4   2 79.2434  6.0464  12
  -4   1   2 76.9358  6.4069  12
  -4  -2   2 5492.29  163.53  12
   2   4  -2 5152.85  183.35   5
   2  -4   2 5139.62  163.77  12
  -2  -4  -2 5412.93  176.33   3
   2   4  -2 5244.03  187.24  11
  -4   2  -2 5247.30  163.49  12
  -2  -4  -2 5376.99  163.16  12
  -2   4   2 5350.98  164.09  12
  -2   4  -2 5219.94  163.55  12
   4   2  -2 5366.81  187.14  11
   2  -4  -2 5653.42  177.31   3
  -4  -2  -2 5277.72  163.07  12
  -4  -2  -2 5227.40  175.77   3
   4   2  -2 5306.29  184.66   5
  -2  -4   2 5649.63  163.74  12
   2  -4  -2 5199.97  163.85  12
  -4   2   2 5411.72  164.10  12
  -4  -3   2 120.843   8.215  12
   3   4  -2 124.704   8.362  11
  -3  -4  -2 118.121   7.649  12
  -3  -4  -2 116.389   7.926   3
  -4   3  -2 122.267   8.153  12
   3   4  -2 114.291   7.390   5
   4  -3  -2 138.275   9.599   5
  -3   4   2 117.026   8.554  12
  -4  -3  -2 108.986   7.262  12
  -3   4  -2 104.920   7.927  12
   4   3  -2 115.927   8.331   5
  -4  -3  -2 110.552   7.221   3
  -4   3   2 120.774   8.699  12
   4   3  -2 117.204   7.929  11
   3  -4  -2 181.643  14.397   3
   3  -4  -2 99.7847  7.7645  12
  -3  -4   2 127.607   8.286  12
  -4   4   2 1522.36   51.42  12
  -4  -4   2 1588.58   51.23  12
  -4  -4  -2 1556.25   50.48  12
  -4  -4  -2 1589.33   54.15   3
  -4   4  -2 1608.36   50.91  12
   4   4  -2 1532.73   57.08  11
   4   4  -2 1549.58   56.20   5
   0  -5   2 0.63549 4.50006  12
   0  -5  -2 -0.8909  4.1871  12
  -5   0  -2 -1.8362  3.1233   3
   0   5   2 -0.9699  4.3031  12
   0   5  -2 -2.3046  4.7329  11
  -5   0   2 2.81048 4.22817  12
   0  -5  -2 -5.0371  4.8573   3
  -5   0  -2 2.77922 4.07211  12
  -1  -5  -2 376.605  15.249  12
  -5  -1   2 378.835  15.574  12
  -5   1  -2 380.293  15.477  12
  -1   5   2 387.080  16.170  12
   1  -5   2 374.934  16.000  12
   1   5  -2 370.058  17.303  11
  -1  -5  -2 403.823  16.795   3
  -1   5  -2 404.128  18.651  11
   1  -5  -2 361.542  15.697  12
   1   5   2 386.123  15.565  12
  -5   1   2 375.312  15.794  12
  -5  -1  -2 376.737  15.288   3
   5   1  -2 405.937  16.878  11
  -5  -1  -2 361.471  14.810  12
   1  -5  -2 419.175  17.861   3
  -1  -5   2 412.482  15.872  12
  -1   5  -2 376.712  15.571  12
  -2  -5  -2 9.41341 4.55766   3
  -2   5   2 8.10918 5.29480  12
  -5  -2   2 3.20583 4.42428  12
  -5   2  -2 5.38229 4.51785  12
   2  -5   2 -2.7751  4.9781  12
   2   5  -2 9.80552 4.49517  11
  -2  -5  -2 7.24480 4.09695  12
  -5   2   2 -0.6614  4.5785  12
   5   2  -2 4.80603 4.10533  11
  -2  -5   2 -1.9052  4.2491  12
   2  -5  -2 5.70213 4.74038  12
   2  -5  -2 11.5796  5.9814   3
   5   2  -2 3.92054 4.92570   5
  -5  -2  -2 6.71656 3.33032   3
  -2   5  -2 4.87748 4.71101  12
  -5  -2  -2 4.87965 3.77948  12
  -3  -5  -2 432.534  17.379  12
  -3   5   2 466.653  18.833  12
   3   5  -2 458.436  19.531  11
  -5   3  -2 446.492  17.551  12
   5  -3  -2 474.874  20.237   5
  -3  -5  -2 457.859  18.549   3
  -5  -3   2 425.066  17.682  12
   3  -5   2 463.393  18.563  12
  -3  -5   2 443.977  17.994  12
   3  -5  -2 414.464  19.625   3
   5   3  -2 448.835  18.757  11
   5   3  -2 464.497  19.640   5
   3  -5  -2 426.192  18.139  12
  -5  -3  -2 439.812  17.826   3
  -5   3   2 432.483  18.577  12
  -3   5  -2 448.937  18.159  12
  -5  -3  -2 451.202  17.407  12
  -5   4  -2 278.878  13.302  12
  -4  -5  -2 285.593  13.166  12
  -4  -5  -2 270.017  13.211   3
   4   5  -2 272.708  13.845  11
  -5  -4   2 299.511  13.780  12
  -4   5   2 266.129  13.667  12
  -5  -4  -2 287.747  13.107   3
  -4   5  -2 296.943  13.760  12
  -5   4   2 273.503  13.988  12
   4  -5  -2 284.419  13.448  12
   5   4  -2 295.486  13.893   5
  -5  -4  -2 294.980  12.897  12
   5   4  -2 271.828  13.774  11
  -4  -5   2 270.808  13.689  12
  -5  -5  -2 112.539   8.013   2
  -5  -5  -2 111.822   8.118  12
  -5   5   2 82.8328  8.3189  12
   5   5  -2 96.9263  7.8315  11
  -5   5  -2 94.2450  7.9450   2
  -5  -5  -2 83.1965  7.4271   3
  -5   5  -2 97.3640  8.2351  12
  -5  -5   2 85.2928  8.2963  12
   5  -5  -2 80.4521  7.9012  12
  -5  -5  -2 92.4180  4.0747   1
   5  -5  -2 97.0594  4.2846   1
   5   5  -2 94.6620  7.6220   2
  -6   0  -2 2969.81  100.57   3
   0  -6  -2 3056.76   94.76  12
  -6   0   2 2938.73   94.82  12
   0  -6  -2 3023.26  102.72   3
   0   6  -2 3119.73  108.62  11
   0   6   2 2874.91   94.83  12
   0  -6   2 3026.23   95.19  12
  -6   0  -2 3033.24   94.23  12
   1  -6   2 31.5992  6.3430  12
  -1  -6  -2 33.7297  6.2659   3
  -6  -1   2 42.1197  6.0799  12
  -1   6   2 33.9162  6.1439  12
  -1  -6  -2 37.4440  5.7477  12
   1   6  -2 32.0621  6.2723  11
  -6   1  -2 35.1310  5.5377  12
  -1   6  -2 38.6575  6.2163  12
  -1  -6   2 26.2795  5.7378  12
  -6  -1  -2 28.3070  4.3202   3
   1  -6  -2 31.4207  6.6597   3
   6   1  -2 34.6740  5.4164  11
  -6   1   2 28.9128  5.6613  12
  -1   6  -2 40.8047  7.7798  11
  -6  -1  -2 31.1342  5.3089  12
   1  -6  -2 35.9590  6.3617  12
   1   6   2 29.1832  5.5203  12
  -6  -2   2 4048.73  124.38  12
   2  -6   2 3898.57  124.72  12
   2   6  -2 4070.56  141.78  11
  -2  -6  -2 4122.22  123.93  12
  -2   6   2 3986.72  124.86  12
  -6   2  -2 4105.21  124.07  12
  -2  -6  -2 4119.10  133.92   3
  -6   2   2 3887.75  124.74  12
   2  -6  -2 3987.71  124.51  12
  -6  -2  -2 4053.20  123.53  12
  -2   6  -2 3944.18  124.23  12
  -6  -2  -2 3869.07  132.35   3
   2  -6  -2 3516.01  133.79   3
  -2  -6   2 3739.84  124.19  12
   6   2  -2 4147.17  141.18  11
   6   2  -2 4139.47  140.65   5
  -6   3  -2 611.980  22.612  12
   3   6  -2 604.460  22.865   2
  -3  -6  -2 598.462  23.929   3
  -3  -6  -2 610.189  22.792  12
  -3   6   2 600.086  23.777  12
  -6  -3   2 604.585  23.248  12
   6  -3  -2 586.451  25.250   5
   3   6  -2 643.090  25.362  11
  -6   3  -2 585.950  23.136   2
   3  -6   2 565.595  23.519  12
   6   3  -2 606.650  24.528  11
   3  -6  -2 547.150  23.848   3
   3  -6  -2 620.003  23.466  12
  -3   6  -2 595.856  23.097   2
  -6  -3  -2 530.896  22.309   2
  -6   3   2 585.086  23.685  12
   6   3  -2 653.219  25.836   5
   6   3  -2 579.816  22.743   2
  -3  -6   2 594.069  23.539   3
  -6  -3  -2 623.441  22.309  12
  -6  -3  -2 608.215  23.069   3
  -3   6  -2 624.159  23.152  12
  -3  -6   2 588.064  23.291  12
  -4  -6  -2 2361.20   77.93   1
   6  -4  -2 2464.74   78.16   1
  -4  -6  -2 2395.00   83.74   3
  -4  -6  -2 2427.43   78.12  12
   4   6  -2 2362.35   81.24   2
  -6   4  -2 2482.12   78.06  12
  -6   4  -2 2520.28   81.61   2
   4  -6   2 2370.42   79.18  12
  -6  -4   2 2415.77   78.76  12
   4   6  -2 2527.01   88.81  11
   4   6  -2 2472.38   82.93   9
  -4   6   2 2414.75   78.91  12
   4  -6  -2 2556.79   78.69  12
  -6   4   2 2385.01   79.22  12
   6   4  -2 2405.58   87.34   5
  -6  -4  -2 2354.50   80.78   2
  -6  -4  -2 2547.35   78.19  12
  -4   6  -2 2482.33   81.31   2
  -4  -6   2 2429.34   79.06  12
   4  -6  -2 2469.47   78.23   1
  -6  -4  -2 2446.90   78.03   1
  -4   6  -2 2447.81   78.39  12
  -6  -4  -2 2465.16   83.24   3
   6   4  -2 2383.10   81.16   2
  -5  -6  -2 22.1551  5.1244   2
  -6   5  -2 21.7547  5.2916   2
  -5   6   2 19.6328  6.0297  12
   6  -5  -2 16.2033  5.5504  12
  -5  -6  -2 25.1527  5.3031  12
   5  -6   2 22.3773  6.1047  12
   5   6  -2 24.7948  5.3547  11
  -5  -6  -2 19.8825  1.8849   1
   6  -5  -2 18.6093  1.9984   1
  -6   5  -2 31.3136  5.7395  12
   5   6  -2 25.4284  5.2046   2
  -6  -5   2 19.8170  5.9763  12
  -5  -6  -2 18.6238  4.9300   3
  -6  -5  -2 26.2156  5.6246  12
  -6  -5  -2 23.1631  5.2050   2
  -5   6  -2 15.0929  5.4863  12
  -6   5   2 26.6630  6.5717  12
   5  -6  -2 19.2078  2.0563   1
  -6  -5  -2 18.0221  4.8166   3
  -5   6  -2 15.8259  5.0603   2
   5  -6  -2 26.1568  6.0637  12
  -5  -6   2 18.6045  5.9754  12
  -6  -5  -2 24.6324  2.0519   1
   6   5  -2 25.4359  5.2762   2
  -6  -6   2 3256.31  108.48  12
   6  -6  -2 3689.44  108.75  12
  -6   6  -2 3409.03  112.38   2
   6   6  -2 3400.23  112.53   2
  -6  -6  -2 3380.57  107.89  12
   6  -6  -2 3368.13  108.62   1
  -6   6   2 3302.89  108.70  12
  -6   6  -2 3331.06  107.55  12
  -6  -6  -2 3419.89  108.51   1
  -6  -6  -2 3469.97  112.47   2
   0  -7   2 -1.3414  5.0783  12
   0   7  -2 -0.3433  5.5046  11
   0   7  -2 0.50443 5.20948   9
   0  -7  -2 -6.6799  5.2793   3
  -7   0  -2 -4.7044  3.6926   2
   0   7  -2 -8.2835  4.1771   2
   0  -7  -2 9.54878 5.34820  12
  -7   0  -2 5.74985 4.95316  12
  -7   0   2 -4.8129  4.7336  12
   0   7   2 6.63567 5.38613  12
   7   0  -2 -0.3945  4.0292   2
   0   7   2 1.59873 4.48598   9
  -1  -7  -2 367.122  17.864   3
   7  -1  -2 357.399  16.169   2
  -1   7   2 353.239  16.651   9
  -7   1  -2 377.756  15.987  12
  -1  -7  -2 345.141  16.242  12
  -1   7   2 362.253  16.828  12
   1  -7   2 358.042  17.417  12
  -7   1  -2 391.242  15.923   2
   1   7  -2 372.449  16.121   2
  -7  -1   2 354.579  16.312  12
   1   7  -2 377.629  17.490   9
   1   7  -2 365.462  18.361  11
  -7  -1  -2 366.470  15.367   2
  -1   7  -2 367.915  17.307   9
  -1  -7   2 343.826  16.771  12
   1   7   2 347.414  16.507   9
   1  -7  -2 379.993  16.997  12
  -1   7  -2 396.916  19.376  11
  -7   1   2 342.556  16.381  12
  -1   7  -2 365.962  16.471   2
  -7  -1  -2 379.492  15.938  12
   7   1  -2 308.810  18.764   5
   1  -7  -2 362.388  17.967   3
   7   1  -2 365.481  15.929   2
   2   7  -2 82.9599  8.5572   9
   7  -2  -2 67.1179  7.6501  10
  -2   7   2 77.5622  7.8056   9
   2   7  -2 70.2194  7.0987   2
  -2   7   2 74.5848  8.3596  12
   7  -2  -2 80.1764  7.7558   2
  -7   2  -2 87.0381  7.8878  12
  -2  -7  -2 76.5420  8.3367   3
   2   7  -2 71.1690  8.1095  11
  -7   2  -2 78.1461  7.4291   2
   2  -7   2 83.6515  9.0662  12
  -7  -2   2 68.2162  7.8639  12
  -2  -7  -2 78.7712  3.4922   1
  -2  -7  -2 71.0280  7.5292  12
   2  -7  -2 71.4298  8.2070  12
   2  -7  -2 80.8748  8.3484   3
   2  -7  -2 68.5130  3.7312   1
  -2   7  -2 79.6221  8.1932  12
   7   2  -2 72.5202  8.8017   5
  -7  -2  -2 76.1808  7.5455  12
  -7  -2  -2 70.1098  6.6967   2
  -2   7  -2 83.3308  9.9304  11
   7   2  -2 78.9260  7.2908   2
  -2   7  -2 92.7677  7.9058   2
  -2  -7   2 77.8515  8.4839  12
   2   7   2 77.8692  7.8415   9
  -7   2   2 84.0044  8.6009  12
  -3  -7  -2 90.3997  4.2123   1
  -3  -7  -2 93.7384  8.7065  12
   3   7  -2 113.488   9.736  11
   7  -3  -2 106.267   9.571  10
   7  -3  -2 86.4841  8.5983   5
  -7  -3   2 102.558   9.280  12
  -3  -7  -2 94.9704  8.9780   3
  -7   3  -2 115.985   8.971   2
  -7   3  -2 94.3827  8.1526  12
   3   7  -2 112.151   9.604   9
  -3   7   2 97.9729  9.5307  12
   3  -7   2 112.181   9.905  12
   3   7  -2 114.172   8.524   2
  -3  -7   2 113.978   9.961  12
  -3   7  -2 101.983   8.515   2
  -7  -3  -2 107.321   8.428  12
  -7   3   2 120.802  10.258  12
   3  -7  -2 104.967   4.678   1
  -3   7  -2 112.323   9.169  12
   3  -7  -2 90.1284  8.8551  12
   7   3  -2 112.332   8.435   2
  -7  -3  -2 127.763   8.390   2
  -3  -7   2 100.539   8.147   3
   7   3  -2 102.521   9.817   5
  -4  -7  -2 -0.8168  0.9668   1
  -7  -4   2 -2.4759  5.3208  12
  -7   4  -2 4.62406 4.64367  12
   4   7  -2 1.12950 4.84111  11
  -4  -7  -2 0.66942 4.45277   3
   4  -7   2 -3.5197  5.4197  12
  -7   4  -2 -10.400   4.427   2
  -4  -7  -2 -4.6142  4.7110  12
   4   7  -2 -1.7293  4.3992   2
   4   7  -2 -0.7062  5.3372   9
  -4   7   2 -8.7937  4.6658  12
   7   4  -2 5.87461 4.72719   2
  -7  -4  -2 0.07751 1.05498   1
  -4  -7   2 3.72473 5.64323  12
   7   4  -2 6.10413 4.98969   5
   4  -7  -2 0.95019 1.17538   1
  -4   7  -2 -6.0446  4.8180  12
  -4   7  -2 -3.6861  4.1932   2
   4  -7  -2 8.95514 5.41241  12
  -7   4   2 1.80258 5.51388  12
  -7  -4  -2 0.79666 4.19570   2
  -7  -4  -2 4.55367 5.03002  12
  -5   7   2 165.460  11.966  12
  -7  -5   2 169.326  12.244  12
  -7   5  -2 173.113  10.447  12
  -7   5  -2 161.370  10.885   2
   7  -5  -2 143.769  11.133  12
  -5  -7  -2 167.064  10.664  12
   5   7  -2 167.617  12.138   9
   5   7  -2 162.223  10.766   2
  -5  -7  -2 161.402   6.252   1
   7   5  -2 162.338  10.757   2
  -7  -5  -2 164.142   6.401   1
  -7   5   2 159.776  12.109  12
  -7  -5  -2 160.399  10.818   2
  -5   7  -2 165.619  10.709   2
  -5   7  -2 149.475  10.858  12
  -5  -7   2 175.356  12.576  12
  -7  -5  -2 153.761  10.726  12
   5  -7  -2 131.507  10.950  12
   5  -7  -2 159.651   6.468   1
   6   7  -2 8.77288 5.06502   2
  -6  -7  -2 1.13589 1.13760   1
  -7   6  -2 3.68537 4.72888   2
  -7  -6  -2 7.03016 4.94209   2
   7   6  -2 3.79003 4.97971   2
  -6   7  -2 6.13234 4.60842   2
  -7  -6  -2 1.57931 1.25601   1
   7   7  -2 984.500  36.698   2
  -7  -7  -2 971.793  32.150   1
  -7   7  -2 996.708  36.153   2
   0   8  -2 1447.87   52.04   9
  -8   0  -2 1445.26   48.79  12
   8   0  -2 1454.04   50.76   2
   8   0  -2 1389.99   55.65   5
   0   8  -2 1478.85   50.93   2
   0   8   2 1457.07   51.65   9
   0  -8  -2 1451.00   49.50  12
  -8   0  -2 1466.49   50.04   2
  -8   0   2 1486.01   49.95  12
   0  -8   2 1445.96   50.25  12
   0  -8  -2 1355.73   52.99   3
   0   8  -2 1401.98   56.37  11
  -8   1  -2 93.7154  8.1043   2
   1   8  -2 76.4026  9.4795  11
   8  -1  -2 83.8108  8.3690   2
  -8   1  -2 90.1898  8.6744  12
  -1   8   2 99.7860  9.0375   9
   8  -1  -2 80.3141  7.8549  10
  -1   8   2 94.3887  9.7877  12
   1   8  -2 107.826   9.847   9
  -1  -8  -2 97.8895  9.1227  12
   1   8  -2 86.2325  8.2397   2
   8  -1  -2 94.3985  9.8069   5
   1  -8   2 83.2330  9.6141  12
  -1  -8  -2 94.6510  9.7539   3
  -8  -1   2 121.674  10.302  12
   8   1  -2 81.3498  7.9092   2
   1  -8  -2 97.5744  9.7304   3
   1  -8  -2 74.4780  8.5539  12
   8   1  -2 70.2927  9.5809   5
  -1  -8   2 97.9380  9.6394  12
  -8  -1  -2 94.7534  8.0776   2
  -8  -1  -2 84.6749  8.1798  12
   1   8   2 90.9054  9.1384   9
  -8   1   2 99.5315  9.5129  12
  -1   8  -2 89.1680  8.5886   2
  -1   8  -2 84.9769 10.1976  11
  -2   8   2 2361.97   81.29   9
   2  -8   2 2437.76   79.34  12
  -2  -8  -2 2437.61   84.29   3
   2   8  -2 2295.97   87.92  11
  -8   2  -2 2480.07   77.19  12
   2   8  -2 2362.81   82.28   9
   8  -2  -2 2379.09   83.28  10
   2   8  -2 2362.01   80.31   2
   8  -2  -2 2381.90   80.79   2
  -8   2  -2 2407.52   80.32   2
  -2  -8  -2 2404.55   77.85  12
   8  -2  -2 2313.22   86.63   5
  -2   8   2 2409.19   78.41  12
  -8  -2   2 2422.35   78.11  12
   2  -8  -2 2446.56   78.09  12
  -2  -8   2 2335.32   83.09   3
  -2   8  -2 2365.16   88.86  11
   2  -8  -2 2318.22   76.40   1
   8   2  -2 2399.39   80.14   2
   2   8   2 2411.07   81.82   9
  -8  -2  -2 2520.68   77.15  12
  -8   2   2 2345.27   78.08  12
   8   2  -2 2296.74   87.75   5
  -2  -8   2 2490.88   78.65  12
   2  -8  -2 2255.30   82.80   3
  -8  -2  -2 2323.31   79.68   2
  -2   8  -2 2402.14   80.21   2
   8  -3  -2 90.1783  9.0212  10
   3   8  -2 96.3498  9.5924  11
  -3   8   2 75.8422  8.9598  12
  -8   3  -2 81.0853  7.8766  12
  -8  -3   2 73.8213  8.9362  12
   3   8  -2 87.6088  9.6263   9
  -8   3  -2 81.9975  8.3868   2
   8  -3  -2 82.6472  8.6002   2
  -3  -8  -2 92.0027  8.8391  12
   8  -3  -2 86.3901  8.9258   5
   3   8  -2 96.0943  8.5647   2
   3  -8   2 78.7601  9.8194  12
  -8   3   2 62.6298  8.5923  12
  -8  -3  -2 94.5120  8.8142  12
   8   3  -2 88.9179  8.1389   2
  -3   8  -2 89.0730  8.3600   2
  -3   8  -2 78.5813  8.6510  12
   3   8   2 89.5323  9.1579   9
   8   3  -2 76.8009  9.4291   5
   3  -8  -2 85.1722  8.9230  12
  -3  -8   2 74.1574  9.3409  12
   3  -8  -2 81.6531  4.0227   1
  -8  -3  -2 89.5598  7.6546   2
  -3   8  -2 66.2479  9.3044  11
   4   8  -2 2017.53   79.85  11
  -4  -8  -2 2133.79   71.00  12
  -4   8   2 2156.65   71.69  12
  -8   4  -2 2113.96   70.15  12
  -8   4  -2 2263.59   73.78   2
  -8  -4   2 2204.21   71.84  12
   4   8  -2 2153.62   75.10   9
   8  -4  -2 2191.02   76.61  10
   4   8  -2 2166.21   73.73   2
   4  -8  -2 2146.83   69.44   1
   8   4  -2 2036.37   78.97   5
  -8   4   2 2182.70   72.06  12
   8   4  -2 2123.32   73.42   2
  -4   8  -2 2183.56   80.73  11
  -4  -8   2 2170.23   72.47  12
  -4   8  -2 2174.75   70.73  12
  -8  -4  -2 2153.23   69.38   1
  -8  -4  -2 2270.08   72.96   2
   4   8   2 2235.30   74.97   9
  -8  -4  -2 2141.85   70.47  12
  -4   8  -2 2144.90   73.15   2
  -8   5  -2 42.4199  6.6382   2
   8  -5  -2 32.7500  6.8489  10
   5   8  -2 38.6223  6.3827   2
   5   8  -2 45.2982  7.5069   9
  -5   8  -2 33.5835  6.1382   2
   8   5  -2 33.8002  6.2838   2
  -8  -5  -2 32.9328  2.5589   1
  -5   8  -2 29.9429  6.5332  11
   5  -8  -2 33.8068  2.5200   1
  -8  -5  -2 29.2749  6.0887   2
   8  -6  -2 2036.19   71.99  10
  -8   6  -2 2063.91   69.07   2
   6   8  -2 2058.61   69.44   2
   8   6  -2 2023.04   69.37   2
  -8  -6  -2 2035.96   68.93   2
  -6   8  -2 2094.43   68.82   2
  -8  -6  -2 1992.08   64.92   1
  -6   8  -2 1855.34   74.63  11
   7   8  -2 -0.9131  5.1432   2
   8  -7  -2 0.35609 5.03544  10
  -8   7  -2 1.72079 4.71164   2
  -7   8  -2 2.31999 4.65131   2
   8   7  -2 2.47821 4.89673   2
   8  -8  -2 1379.42   50.04  10
   8   8  -2 1362.98   48.74   2
  -8   8  -2 1404.79   48.02   2
   0   9  -2 -7.4627  5.3355   9
  -9   0  -2 -10.108   4.587  12
   9   0  -2 -0.8866  4.7071   2
  -9   0   2 -16.985   5.251  12
   0   9   2 -6.1878  4.9958   9
   0   9  -2 -4.2469  5.2865   2
   0  -9   2 -17.899   5.749  12
   9   0  -2 1.08763 5.89907   5
  -9   0  -2 2.62334 4.79742   2
   0   9  -2 -2.0496  6.1384  11
   0  -9  -2 3.23554 5.83833  12
   9  -1  -2 293.897  16.870   5
   1   9  -2 299.910  16.714   9
  -9   1  -2 298.856  15.101  12
   1   9  -2 281.821  17.045  11
   1  -9   2 294.946  16.889  12
  -1  -9  -2 320.551  16.273  12
   9  -1  -2 277.066  15.602   2
   1   9  -2 300.363  15.754   2
  -1   9   2 300.387  16.602  12
  -9   1  -2 304.325  15.258   2
  -9  -1   2 287.064  16.424  12
  -1   9   2 295.465  16.113   9
  -9  -1  -2 315.138  15.147   2
   9   1  -2 315.212  18.037   5
  -9  -1  -2 333.487  15.629  12
   1  -9  -2 293.714  15.641  12
  -1  -9   2 312.596  17.103  12
   9   1  -2 313.679  15.724   2
   1   9   2 294.314  16.151   9
  -1   9  -2 319.075  18.189  11
  -1   9  -2 307.154  15.728   2
  -9   1   2 276.506  16.332  12
  -9   2  -2 2.70399 5.12125   2
   9  -2  -2 -0.4543  4.7695  10
   2   9  -2 1.74334 5.97071   9
   2   9  -2 3.40497 5.86485  11
   2   9  -2 1.99083 5.24599   2
   9  -2  -2 1.88148 5.14256   2
   9   2  -2 -2.4415  4.8272   2
  -2   9  -2 2.96779 5.97710  11
  -9  -2  -2 0.27143 4.68574   2
   2   9   2 5.47357 5.53249   9
  -2   9  -2 2.82275 5.21516   2
   3   9  -2 83.0306  8.5208   2
   9  -3  -2 66.7480  8.1943   2
   3   9  -2 74.8117  9.2392  11
   9  -3  -2 85.2390  8.6691  10
   3   9  -2 70.9188  9.0364   9
  -9   3  -2 93.2272  8.4772   2
  -9  -3  -2 76.3932  7.8084   2
  -3   9  -2 77.1943  8.1142   2
   3   9   2 68.4847  8.8730   9
   9   3  -2 68.9157  7.9583   2
  -3   9  -2 76.2935  9.2882  11
  -9   4  -2 6.11512 5.31860   2
   4   9  -2 4.68207 5.22979   2
   9  -4  -2 -6.4216  5.0220   2
   9  -4  -2 -0.3121  5.2736  10
   4   9  -2 -1.0106  5.8587   9
   9   4  -2 -8.0762  4.7501   2
  -4   9  -2 -0.4817  5.4018  11
   4   9   2 4.29957 5.69002   9
  -9  -4  -2 2.17101 1.24334   1
  -4   9  -2 4.93568 4.58178   2
  -9  -4  -2 0.44614 4.55764   2
   4  -9  -2 1.00863 1.13416   1
   9  -5  -2 54.0326  7.5013  10
   5   9  -2 57.2586  8.0634   9
   9  -5  -2 52.8239  7.3528   2
   5   9  -2 47.5687  7.2454   2
  -9   5  -2 42.9004  6.8029   2
   9   5  -2 47.5035  7.0061   2
  -5   9  -2 59.3580  7.1117   2
   5   9   2 53.5449  8.0074   9
  -5   9  -2 53.6491  7.3922  11
  -9  -5  -2 39.4485  6.5495   2
  -9  -5  -2 56.7269  3.1699   1
   9  -6  -2 1.27552 4.93988   2
  -9   6  -2 6.76635 4.59353   2
   6   9  -2 5.33982 5.50327   9
   6   9  -2 -1.4132  5.0702   2
   9  -6  -2 -5.8439  4.7342  10
   6   9   2 1.92482 5.92139   9
  -9  -6  -2 8.57942 4.91164   2
  -6   9  -2 -2.7069  4.5079  11
  -6   9  -2 -0.8659  4.2532   2
   9   6  -2 5.57309 4.91185   2
  -9  -6  -2 2.61593 1.22395   1
   9  -7  -2 233.957  12.277   2
   7   9  -2 222.536  12.646   2
  -9   7  -2 225.439  11.528   2
   9  -7  -2 221.731  12.710  10
  -7   9  -2 237.332  11.566   2
   7  -9  -2 218.557  12.534  10
   9   7  -2 207.980  12.224   2
   7   9   2 214.400  13.385   9
   9  -8  -2 -1.8138  3.7965   2
   9  -8  -2 1.43676 4.21604  10
  -9   8  -2 11.6548  3.8495   2
   9   8   2 5.35585 4.58763   9
   8   9  -2 4.25091 4.47639   2
  -8   9  -2 5.94318 3.83368   2
   9   8  -2 7.69785 4.40574   2
   8   9   2 7.22213 4.63996   9
   8  -9  -2 -1.9582  4.0473  10
   9   9   2 93.6214  7.5108   9
   9  -9  -2 110.216   7.271  10
   9   9  -2 100.316   7.832   4
   9  -9  -2 89.0897  6.4769   2
   9   9  -2 108.179   7.476   2
  -9   9  -2 109.002   6.417   2
   0  10  -2 2389.34   80.10   2
  10   0  -2 2347.21   80.46   2
 -10   0  -2 2326.63   79.90   2
   0  10   2 2394.41   81.66   9
   0  10  -2 2308.62   88.11  11
   1  10  -2 29.5855  7.2983  11
  -1  10   2 22.9959  6.6651   9
  -1  10   2 29.9243  6.5727  11
  10  -1  -2 26.9101  6.4599   2
   1  10  -2 24.5174  7.0045   9
 -10   1  -2 15.3169  5.7687   2
   1  10  -2 34.7377  6.9496   2
  -1  10  -2 15.0108  5.8363   2
   1  10   2 30.9545  6.9103   9
  -1  10  -2 18.1830  7.0369  11
 -10  -1  -2 24.8766  6.0082   2
  10   1  -2 33.6318  6.4836   2
   2  10  -2 1814.28   71.85  11
   2  10  -2 1884.25   67.02   9
 -10   2  -2 1852.54   65.12   2
   2  10  -2 1840.74   65.81   2
  10  -2  -2 1943.36   66.12   2
  -2  10  -2 1874.33   65.35   2
 -10  -2  -2 1981.25   65.03   2
   2  10   2 1911.41   67.31   9
  -2  10  -2 1926.53   72.42  11
  10   2  -2 1929.34   65.84   2
  10  -3  -2 2.96518 5.51770   2
  10  -3  -2 20.2487  5.6762  10
   3  10  -2 19.8385  6.1538   2
   3  10  -2 -0.4443  5.3346   9
 -10   3  -2 17.4176  5.5476   2
   3  10   2 19.0622  6.5199   9
  -3  10  -2 22.4688  5.6676   2
  -3  10  -2 10.4238  6.0179  11
  10   3  -2 4.71765 5.45683   2
 -10  -3  -2 24.5525  5.5363   2
  10  -4  -2 1558.08   56.42  10
 -10   4  -2 1605.28   54.58   2
  10  -4  -2 1601.55   55.31   2
   4  10  -2 1500.24   56.18   9
   4  10  -2 1605.92   55.37   2
  -4  10  -2 1632.22   54.73   2
 -10  -4  -2 1595.86   50.94   1
   4  10   2 1548.32   56.43   9
  -4  10  -2 1501.05   59.81  11
  10   4  -2 1573.92   55.16   2
 -10  -4  -2 1564.22   54.75   2
  10  -5  -2 150.773  10.044  10
   5  10  -2 122.983  10.206   9
  -5 -10  -2 139.262  10.238   6
  10  -5  -2 141.719  10.134   2
 -10   5  -2 138.557   9.123   2
   5  10  -2 137.408  10.450   2
 -10  -5  -2 137.781   5.604   1
   5  10   2 135.636  11.202   9
  -5  10  -2 116.002  10.021  11
  10   5  -2 139.043  10.361   2
 -10  -5  -2 141.735   9.672   2
  -5  10  -2 164.054   9.944   2
  10  -6  -2 1235.12   44.54  10
   6  10  -2 1283.81   43.83   2
 -10   6  -2 1242.55   42.52   2
  10  -6  -2 1259.67   43.43   2
  -6  10  -2 1239.81   42.75   2
   6 -10  -2 1176.91   44.18  10
  10   6  -2 1232.66   43.64   2
   6  10   2 1220.09   44.73   9
 -10  -6  -2 1185.30   39.73   1
 -10   7  -2 42.5213  4.6599   2
  10  -7  -2 41.7616  5.3757   2
   7  10  -2 46.9178  6.0068   2
  10  -7  -2 43.1247  5.5001  10
   7  10   2 47.0639  6.2575   9
  10   7  -2 47.3943  6.0091   2
  10  -7   2 31.8918  4.7091  10
   7 -10  -2 42.6583  5.4298  10
  -7  10  -2 50.4147  5.3432   2
  10  -8  -2 1206.49   41.65  10
 -10   8  -2 1157.65   39.56   2
  -8  10  -2 1172.53   39.74   2
   8 -10  -2 1197.63   41.70  10
   0  11   2 0.51460 5.20293   9
   0  11  -2 -3.8379  5.2894  11
 -11   0  -2 -5.5471  4.6625   2
  11   0  -2 -1.0156  5.1039   2
   0  11  -2 -5.5136  4.6907   2
 -11   1  -2 131.280   9.785   2
  11  -1  -2 136.326  10.588   2
   1  11  -2 129.996   9.887   2
   1  11  -2 108.934  10.703  11
  -1  11  -2 134.049  11.185  11
  11   1  -2 137.856  10.488   2
   1  11   2 140.340  11.123   9
  -1  11  -2 125.178   9.838   2
 -11  -1  -2 136.917   9.829   2
   2  11  -2 2.12522 5.08190   2
  11  -2  -2 0.53028 4.83353   2
 -11   2  -2 -7.7990  4.3556   2
   2  11   2 -6.3095  4.8248   9
  -2  11  -2 -2.0357  4.5252   2
 -11  -2  -2 9.21140 5.01856   2
  -2  11  -2 -1.2814  4.7907  11
  11   2  -2 -1.3635  5.1882   2
   3  11  -2 330.404  16.427   9
   3  11  -2 362.146  16.601   2
  11  -3  -2 340.074  16.084   2
 -11   3  -2 333.373  15.079   2
  -3  11  -2 352.483  15.290   2
   3  11   2 356.955  16.922   9
 -11  -3  -2 305.580  15.266   2
 -11  -3  -2 325.687  11.835   1
  11   3  -2 328.881  15.955   2
   4  11  -2 6.57342 5.07014   9
 -11   4  -2 -0.4926  3.9538   2
   4  11  -2 8.75257 5.22494   2
  11  -4  -2 8.35118 4.36141  10
  11  -4  -2 8.68724 4.94729   2
  -4 -11  -2 4.81928 4.47366   6
  -4  11  -2 13.4279  4.5769   2
   4  11   2 6.97999 5.34307   9
  11   4  -2 7.41791 4.98571   2
 -11  -4  -2 5.19863 1.41267   1
 -11  -4  -2 3.91415 4.51118   2
 -11   5  -2 356.162  14.244   2
  11  -5  -2 337.906  14.981  10
   5  11  -2 307.412  15.191   9
  11  -5  -2 338.825  15.197   2
   5  11  -2 356.302  15.735   2
  -5  11  -2 335.561  14.249   2
  11   5  -2 335.864  15.208   2
   5  11   2 325.121  16.105   9
 -11  -5  -2 332.642  11.666   1
 -11  -5  -2 356.299  14.781   2
  11  -6  -2 2.04397 3.51024  10
  11  -6  -2 1.76478 3.75804   2
 -11   6  -2 -0.9836  3.0591   2
   6  11  -2 7.26292 4.31046   2
   6 -11  -2 -1.7184  3.1548  10
  -6  11  -2 0.61445 3.05802   2
  11   6  -2 5.12940 4.07372   2
   6  11   2 -1.8362  4.0521   9
  12   0  -2 1974.46   68.04   2
 -12   0  -2 2056.42   67.27   2
   0  12  -2 2005.04   67.58   2
   1  12  -2 -5.1305  4.1315   2
 -12   1  -2 2.99491 4.10351   2
  12  -1  -2 -4.9566  4.3973   2
 -12  -1  -2 1.32962 3.92034   2
  12   1  -2 14.1036  5.0178   2
  -1  12  -2 7.11666 4.16098   2
   2  12  -2 1029.05   36.77   2
  -2 -12  -2 931.695  38.541   6
  12  -2  -2 1055.45   37.03   2
 -12   2  -2 1097.27   36.36   2
  -2  12  -2 1052.90   36.31   2
  12   2  -2 1029.96   37.20   2
 -12  -2  -2 1034.94   33.86   1
 -12  -2  -2 1056.68   36.57   2
   2  12   2 1074.31   38.02   9
   3  12  -2 22.8634  4.9012   2
 -12   3  -2 16.4370  4.0711   2
  12  -3  -2 18.7242  4.7975   2
  -3 -12  -2 17.0051  4.1664   6
 -12  -3  -2 17.1109  1.6786   1
  12   3  -2 16.4037  4.6577   2
 -12  -3  -2 17.5480  4.6113   2
  -3  12  -2 18.8378  4.2651   2
   3  12   2 21.4084  4.9572   9
 -12   4  -2 1262.15   42.10   2
   4  12  -2 1246.48   46.52   4
   4  12  -2 1273.13   42.95   2
  12  -4  -2 1259.14   42.87   2
  -4  12  -2 1225.25   42.20   2
 -12  -4  -2 1215.02   42.40   2
   4  12   2 1230.93   43.94   9
  12   4  -2 1276.86   43.31   2
 -12  -4  -2 1270.65   40.33   1
   0   0  -3 1.46008 2.85166   3
   0   0  -3 5.97606 3.59551   5
   0   1  -3 2.29698 3.44590   5
   0  -1  -3 1.50359 3.60849   5
   1   0  -3 0.51321 2.59173   3
   1   0  -3 1.57921 3.56941   5
  -1   0  -3 -3.0894  3.1245   3
  -1   0  -3 -1.8761  3.7631   5
   0  -1  -3 2.07678 2.81391   3
  -1   1  -3 0.98564 3.77456   5
   1   1  -3 -2.1359  3.5079   5
   1  -1  -3 5.04452 3.66912   5
  -1   1  -3 -0.2031  3.3295   3
  -1  -1  -3 0.88787 3.07451   3
   1  -1  -3 1.12370 2.53113   3
   0  -2  -3 313.091  12.999   5
   2   0  -3 318.521  13.578   5
  -2   0  -3 323.450  12.818   3
   0  -2  -3 303.448  12.344   3
   0   2  -3 310.524  13.166   5
  -2   0   3 299.165  11.495  12
   0  -2  -3 297.664  10.100  12
   1   2  -3 551.742  20.990   5
   2  -1  -3 550.861  21.345   5
   2  -1  -3 556.711  21.627  11
   2  -1  -3 545.609  18.719   3
  -2   1  -3 559.398  20.228   3
  -1  -2  -3 531.021  17.105  12
   1   2  -3 515.435  21.309  11
  -1  -2  -3 555.896  20.072   3
  -2  -1   3 535.634  18.269  12
   2   1  -3 573.843  21.374   5
  -2  -1  -3 542.243  20.077   3
   2   1  -3 528.978  21.416  11
  -2   1   3 531.983  18.743  12
   1  -2  -3 562.663  19.570   3
  -1   2  -3 545.020  20.996   5
   1  -2  -3 545.518  20.724   5
   1  -2  -3 538.800  17.638  12
  -2  -2  -3 -2.2385  3.3227   3
   2  -2  -3 -3.8877  3.6272   5
  -2   2   3 6.02604 4.54887  12
  -2  -2   3 -0.4556  3.4309  12
   2   2  -3 -1.5047  3.6801  11
   2  -2  -3 -0.4775  3.4055  12
   2   2  -3 -3.9837  3.5903   5
   2  -2  -3 -4.5330  2.3933   3
  -2   2  -3 -4.4327  2.5170  12
  -2  -2  -3 -2.7337  2.5380  12
  -3   0  -3 2.84455 3.38069  12
   3   0  -3 -2.4041  3.8779  11
   0   3  -3 1.65731 4.16935  11
  -3   0   3 0.77872 3.62631  12
  -3   0  -3 2.97708 3.40934   3
   0  -3  -3 2.69225 3.61105   3
   0  -3  -3 3.32247 2.83923  12
   3   0  -3 -2.4399  4.5885   5
   0   3  -3 1.35382 3.37330   5
   0  -3  -3 -1.5410  3.1061   5
  -1  -3  -3 62.6952  5.7814   3
   1   3  -3 49.3195  4.9719   5
  -3  -1   3 51.6726  4.8804  12
  -1  -3  -3 59.8132  4.3303  12
  -3   1  -3 63.7310  4.7478  12
   1   3  -3 65.8989  6.1165  11
   3  -1  -3 61.6371  6.0918  11
   3  -1  -3 62.1452  6.7413   5
  -3   1  -3 50.2347  5.2093   3
   3   1  -3 65.9942  5.8440  11
   1  -3  -3 51.9335  4.7897   5
  -3  -1  -3 59.6330  4.3615  12
   1  -3  -3 57.3829  4.6954  12
   1  -3  -3 55.0492  5.0213   3
  -1   3  -3 60.3099  6.4738  11
   3   1  -3 54.4363  6.0565   5
  -3  -1  -3 46.3461  4.8226   3
  -3   1   3 56.9940  5.5667  12
   2   3  -3 13.3201  4.5348  11
  -2   3   3 10.7923  4.6975  12
  -2  -3  -3 24.4476  3.5497  12
   3  -2  -3 23.3754  5.5313   5
   2   3  -3 18.3654  4.1260   5
  -3   2  -3 16.8563  4.2887  12
  -3  -2   3 12.9467  4.0544  12
  -2  -3  -3 9.15907 3.92590   3
  -2  -3   3 15.6228  4.1756  12
  -2   3  -3 16.5024  3.7470  12
   3   2  -3 22.9827  4.5564  11
  -3   2   3 16.3438  4.7483  12
   2  -3  -3 13.4340  3.7255   3
   3   2  -3 13.9893  4.7233   5
  -3  -2  -3 20.1349  3.9787   3
   2  -3  -3 17.0482  4.1000  12
   2  -3  -3 16.8642  3.7935   5
  -3  -2  -3 14.3104  3.2688  12
  -2   3  -3 26.4528  5.3861  11
  -3   3  -3 3.59483 5.29074  11
  -3  -3  -3 3.64368 3.69017   3
  -3  -3   3 5.22719 4.16887  12
   3   3  -3 0.72743 4.07429  11
  -3   3  -3 0.15404 4.20421  12
  -3  -3  -3 7.47983 3.30117  12
   3   3  -3 0.86233 3.83688   5
   3  -3  -3 4.94066 4.12613  12
   3  -3  -3 -0.5862  3.8877   5
  -3   3   3 -6.0380  4.3687  12
   4   0  -3 59.2987  6.3327  11
  -4   0  -3 59.7683  5.1350  12
   0   4  -3 57.6289  6.8196  11
   4   0  -3 46.6556  7.2555   5
  -4   0  -3 57.0871  5.3986   3
   0  -4  -3 53.5238  4.9063  12
  -4   0   3 57.4728  5.8197  12
   0  -4  -3 59.4801  5.7788   3
   0   4  -3 55.8194  5.2428   5
   4  -1  -3 221.436  13.669   5
  -1  -4  -3 204.966   9.458  12
  -4   1  -3 237.497  10.412  12
  -4   1  -3 227.702  10.952   3
  -4  -1   3 219.067  10.578  12
   1   4  -3 227.058  10.700   5
   1   4  -3 245.185  12.110  11
  -1  -4  -3 225.195  11.175   3
   4   1  -3 228.378  12.439   5
  -4  -1  -3 203.683   9.647  12
   1  -4  -3 213.871  10.135  12
   1  -4  -3 221.050  11.110   3
  -1   4  -3 275.494  13.302  11
   4   1  -3 245.959  12.017  11
  -4  -1  -3 228.457  10.667   3
  -4   1   3 229.455  11.100  12
  -2  -4  -3 74.5251  5.7390  12
   2   4  -3 73.1473  6.0150   5
  -2   4   3 80.1002  7.3185  12
   2   4  -3 80.4374  7.3722  11
  -2  -4  -3 81.2059  6.9556   3
  -4  -2   3 94.9698  6.8328  12
   4  -2  -3 79.5766  8.4433   5
  -4   2  -3 83.5706  6.4367  12
  -2   4  -3 87.2330  8.7273  11
  -4  -2  -3 75.9926  6.1920   3
  -4  -2  -3 81.9374  5.7889  12
   4   2  -3 87.5069  7.1789  11
  -2   4  -3 91.4939  6.3597  12
  -4   2   3 90.0585  7.5502  12
   2  -4  -3 84.6336  7.0457   3
   2  -4  -3 69.7739  6.4028  12
  -2  -4   3 83.6138  6.7815  12
   4   2  -3 78.8069  7.2440   5
   3   4  -3 500.938  20.673  11
  -3  -4  -3 506.035  19.550   3
  -4  -3   3 489.342  18.443  12
  -4   3  -3 464.373  18.100  12
   3   4  -3 469.200  19.582   5
  -3  -4  -3 470.940  17.377  12
   4  -3  -3 456.318  20.274   5
  -3   4   3 472.438  19.112  12
   4   3  -3 466.419  20.189   5
  -3   4  -3 519.799  22.949  11
   4   3  -3 475.452  20.334  11
  -4  -3  -3 490.425  19.250   3
   3  -4  -3 464.129  18.395  12
  -3  -4   3 470.513  18.689  12
  -3   4  -3 476.956  18.210  12
  -4  -3  -3 461.263  17.280  12
  -4   3   3 471.934  19.315  12
  -4  -4  -3 -0.1742  3.8719   3
  -4   4  -3 -3.8037  4.7397  12
  -4  -4  -3 2.16798 3.76037  12
  -4   4  -3 -11.279   8.764  11
   4  -4  -3 5.73977 4.38763  12
   4   4  -3 -5.9613  3.8955   5
   4   4  -3 5.99152 4.46733  11
  -4  -4   3 3.82060 4.68547  12
  -4   4   3 -0.6330  4.5405  12
   0   5  -3 1.83949 3.17864   5
   0  -5  -3 -6.3173  3.7846  12
  -5   0  -3 -3.2458  3.6947  12
   0  -5  -3 1.16123 4.94901   3
  -5   0  -3 -1.7621  3.4841   3
   0   5  -3 0.57169 5.23391  11
  -5   0   3 0.98951 4.08593  12
   5   0  -3 -1.4169  4.2843  11
   5   0  -3 -10.022   7.416   5
   1   5  -3 15.9963  3.6607   5
  -5   1  -3 11.9256  4.4784  12
   1   5  -3 17.8080  5.4262  11
  -1  -5  -3 17.2747  4.1154  12
  -5  -1   3 25.7984  4.9077  12
  -1  -5  -3 10.6431  4.9580   3
   5  -1  -3 15.0708  8.7690   5
   1  -5  -3 21.4979  6.2968   3
   5   1  -3 22.9461  6.2792   5
  -5   1   3 9.93231 4.91886  12
  -5  -1  -3 9.84886 3.87676   3
   1  -5  -3 16.5738  4.8442  12
  -5  -1  -3 23.8164  4.5201  12
  -1   5  -3 18.6225  6.5276  11
   5   1  -3 15.1383  4.8628  11
  -2  -5  -3 166.205   9.210  12
  -2  -5  -3 188.773  10.773   3
  -5   2  -3 188.448   9.798  12
   2   5  -3 160.679   9.043   5
  -5  -2   3 175.411  10.110  12
   5  -2  -3 177.057  12.621   5
   2   5  -3 195.096  11.427  11
  -2   5   3 171.325  10.774  12
  -5  -2  -3 187.071   9.359  12
  -5   2   3 176.149  11.042  12
   5   2  -3 178.953  11.168   5
   2  -5  -3 223.848  13.602   3
  -5  -2  -3 196.575   9.763   3
   2  -5  -3 168.910  10.342  12
  -2   5  -3 186.645  10.209  12
  -2   5  -3 174.401  13.057  11
   5   2  -3 179.269  10.841  11
   5  -3  -3 32.5588  6.2365   5
  -3   5   3 13.7424  5.7507  12
  -3  -5  -3 32.4135  5.0298  12
   3   5  -3 25.5758  5.6489  11
  -5  -3   3 37.9640  5.8015  12
  -3  -5  -3 24.6554  5.2316   3
  -5   3  -3 32.8196  5.6570  12
   3   5  -3 24.9007  4.3951   5
  -5  -3  -3 22.6358  4.6155   3
  -5  -3  -3 28.7532  5.0101  12
   5   3  -3 37.5699  6.0533   5
  -3   5  -3 27.8329  5.5865  12
   3  -5  -3 31.9430  5.9105  12
  -3   5  -3 34.3486  8.1164  11
   5   3  -3 33.5217  5.5451  11
  -5   3   3 33.2304  6.5062  12
   4   5  -3 -0.4355  3.6270   2
   5  -4  -3 -1.2296  4.0928  12
  -5  -4   3 5.46404 4.78433  12
  -5   4  -3 8.38799 4.83979  12
   4   5  -3 1.93683 3.90712   5
  -4   5   3 -0.7536  4.9206  12
  -4  -5  -3 2.40797 3.87724  12
  -4  -5  -3 3.53193 4.23168   3
  -4  -5  -3 1.27699 1.06818   1
  -5   4  -3 3.03334 4.03080   2
   4   5  -3 -0.2575  4.5809  11
  -4  -5  -3 -0.3242  4.4773   6
   5  -4  -3 -1.6660  1.0728   1
   5  -4  -3 3.40830 5.95350  10
   5   4  -3 -3.2376  4.3964  11
  -5  -4  -3 -0.5638  1.0255   1
  -5  -4  -3 -2.1012  3.9987  12
  -4   5  -3 1.79261 4.79386  12
  -5   4   3 -1.0288  4.8958  12
  -5  -4  -3 -6.6791  3.4168   2
  -4   5  -3 4.35461 4.14168   2
   5   4  -3 -2.5624  4.3298   5
   4  -5  -3 0.18566 1.25090   1
   4  -5  -3 8.21457 4.92123  12
  -4  -5   3 -6.9244  4.4160  12
  -4   5  -3 -1.9858  7.3871  11
   5   4  -3 5.63932 3.81705   2
  -5  -4  -3 3.53615 4.05957   3
  -5  -5  -3 0.54377 1.10803   1
  -5   5  -3 8.04026 4.86719  12
   5   5  -3 -2.9243  4.5827  11
  -5  -5  -3 0.79137 3.90777   2
  -5  -5   3 4.25776 4.93695  12
   5  -5  -3 -1.8484  1.1647   1
  -5  -5  -3 3.56125 4.37271  12
   5   5  -3 3.01478 4.18905   5
  -5   5  -3 -5.8554  5.2135  11
  -5   5  -3 2.17146 4.18085   2
   5  -5  -3 10.2641  5.0047  12
   5   5  -3 5.18115 4.12661   2
  -5  -5  -3 -1.3374  4.0396   3
  -5   5   3 -0.3883  4.9477  12
  -6   0  -3 290.839  12.655   2
   0  -6  -3 289.993  15.732   3
   0  -6  -3 308.118  13.726  12
   6   0  -3 373.594  24.629   5
  -6   0   3 284.712  14.251  12
   0   6  -3 339.822  17.154  11
  -6   0  -3 307.773  13.874   3
  -6   0  -3 340.098  13.536  12
   6   0  -3 289.524  13.578   2
   0   6  -3 289.943  13.578   2
   6  -1  -3 186.458  17.710   5
   1   6  -3 160.698   9.496   2
  -6   1  -3 193.016  10.059  12
  -1  -6  -3 164.982  11.349   3
   6  -1  -3 169.663   9.972   2
  -6   1  -3 164.570   8.966   2
  -1  -6  -3 180.516   9.899  12
  -6  -1   3 165.492  10.576  12
   1   6  -3 196.312  12.287  11
  -6  -1  -3 164.989   8.986   2
   1  -6  -3 176.146  10.607  12
  -6   1   3 166.363  10.614  12
   1  -6  -3 178.116  13.142   3
  -1   6  -3 173.414   9.984   2
   6   1  -3 200.667  14.456   5
   6   1  -3 184.022   9.727   2
   6   1  -3 191.617  11.306  11
  -6  -1  -3 181.339   9.796   3
  -1   6  -3 188.688  13.814  11
  -6  -1  -3 198.019   9.980  12
  -2  -6  -3 100.754   7.729  12
   6  -2  -3 100.682   8.093   2
   2   6  -3 97.4536  7.5277   2
  -6   2  -3 96.1522  7.1569   2
   2   6  -3 97.1285  9.0890  11
   6  -2  -3 99.4082  9.2260  10
  -6  -2   3 91.7657  8.1305  12
  -6   2  -3 114.966   7.876  12
  -2  -6  -3 109.539   9.048   3
   6  -2  -3 103.704  10.610   5
  -6  -2  -3 104.490   7.077   2
  -2   6  -3 77.7456 10.1396  11
  -6   2   3 88.8245  8.7105  12
  -6  -2  -3 99.9423  7.5933  12
   6   2  -3 93.8529  9.2981   5
   2  -6  -3 84.2010 12.0256   3
  -2   6  -3 105.042   8.466  12
  -2   6  -3 100.042   7.472   2
   6   2  -3 103.495   8.558  11
  -6  -2  -3 89.7608  7.4735   3
   2  -6  -3 96.2416  4.4326   1
   2  -6  -3 97.6723  8.6328  12
   6   2  -3 105.186   7.487   2
   6  -3  -3 14.3450  1.8339   1
  -6   3  -3 8.88432 4.54490   2
   3   6  -3 19.4720  5.7964  11
   3   6  -3 15.6555  4.5814   2
  -6   3  -3 19.2615  4.9380  12
  -3  -6  -3 15.4742  5.3464   3
   6  -3  -3 12.5795  5.4282   5
   6  -3  -3 21.4632  6.2870  10
  -3  -6  -3 13.4211  1.6048   1
  -6  -3   3 13.7962  5.2953  12
  -3  -6  -3 28.6597  5.2070  12
   6   3  -3 15.1137  4.4843   2
   6   3  -3 17.4635  5.2914  11
  -3   6  -3 17.7871  4.6075   2
  -3   6  -3 14.5339  7.0411  11
  -6  -3  -3 19.1932  4.2592   2
  -6  -3  -3 11.9147  4.4742  12
   6   3  -3 8.61634 5.37499   5
   3  -6  -3 19.3880  2.1118   1
  -3   6  -3 14.5795  5.6393  12
   3  -6  -3 20.2815  5.5490  12
  -6   3   3 17.9582  6.0746  12
  -6  -3  -3 23.1691  4.6934   3
   6  -4  -3 12.5359  1.7614   1
   4   6  -3 1.50999 5.02042  11
  -6  -4   3 12.1302  5.7321  12
   6  -4  -3 7.11942 6.10131  10
   4   6  -3 15.3667  4.7034   2
  -4  -6  -3 13.4128  1.5967   1
  -6   4  -3 8.69542 4.72873  12
  -6   4  -3 11.9690  4.8395   2
  -4  -6  -3 7.62791 4.51887  12
  -4  -6  -3 20.1573  5.2795   3
  -6   4   3 14.0607  6.1479  12
   4  -6  -3 13.0043  5.0490  12
  -4   6  -3 13.3786  6.4120  11
   6   4  -3 16.3996  4.8269   2
  -6  -4  -3 11.0270  4.8529  12
   6   4  -3 3.04679 5.10394   5
  -4   6  -3 13.2773  4.6043   2
   6   4  -3 13.6489  5.1880  11
  -6  -4  -3 12.1087  1.6515   1
   4  -6  -3 14.6697  1.9083   1
  -6  -4  -3 18.1187  4.7913   2
  -6  -4  -3 19.7731  4.7327   3
  -4   6  -3 12.7592  5.2912  12
  -6   5  -3 73.3058  7.2411  12
  -5  -6  -3 64.0981  7.2691   6
   5   6  -3 87.5340  7.8765   2
  -5  -6  -3 69.9290  3.5426   1
  -5  -6  -3 70.1725  7.1516  12
   5   6  -3 70.0828  8.0908  11
  -6   5  -3 64.4370  7.1194   2
   6  -5  -3 74.5754  9.3509  10
   6  -5  -3 78.7154  7.6639  12
  -5  -6  -3 63.6883  7.6098   3
   6  -5  -3 69.2016  3.6832   1
  -5   6  -3 69.2755  7.3288  12
  -6  -5  -3 78.1791  7.3338  12
   6   5  -3 77.8638  7.8899  11
  -6   5   3 69.8067  8.8786  12
  -6  -5  -3 71.2757  3.6208   1
  -5   6  -3 72.2139  7.1674   2
   5  -6  -3 77.5970  7.7459  12
  -6  -5  -3 70.6717  7.3025   3
   5  -6  -3 71.2666  3.8301   1
  -5   6  -3 59.9503  7.4718  11
   6   5  -3 74.4057  7.5904   2
  -6  -5  -3 69.0774  6.8636   2
  -6  -6  -3 -7.0391  4.5507  12
  -6   6  -3 7.35517 4.87203  12
   6  -6  -3 0.45606 4.62657  12
  -6   6  -3 -0.1822  4.5242   2
   6  -6  -3 -0.7373  1.2496   1
   6  -6  -3 1.34589 6.26553  10
  -6  -6  -3 -1.3496  1.0963   1
   6   6  -3 0.44566 4.80204  11
   6   6  -3 -8.5724  4.3069   2
   0  -7  -3 1.32569 1.17133   1
   0   7  -3 3.63620 4.38515   2
   7   0  -3 4.40873 4.60930   2
   0  -7  -3 2.05559 4.80733  12
   7   0  -3 -4.1367  4.0794  10
   0   7  -3 3.74522 5.23849   9
   0  -7  -3 -7.2657  5.7437   3
  -7   0   3 -2.2763  4.7843  12
   7   0  -3 9.01966 8.24342   5
   0   7   3 0.03115 4.32440   9
  -7   0  -3 7.39234 3.76513   2
  -7   0  -3 0.33155 4.58116  12
   0   7  -3 10.4386  6.8700  11
  -7   1  -3 7.02859 4.06298   2
   7  -1  -3 8.90699 5.00850  10
  -1  -7  -3 11.7952  5.0133  12
  -1  -7  -3 9.74651 1.48525   1
   1   7  -3 7.64345 4.39836   2
  -1  -7  -3 5.13794 5.86528   3
  -7   1  -3 19.6722  5.1198  12
  -7  -1   3 2.49856 5.04159  12
   7  -1  -3 2.25045 7.14696   5
   1   7  -3 4.50585 5.51039   9
   7  -1  -3 12.0749  4.8275   2
   1   7  -3 15.3696  6.3522  11
   1  -7  -3 3.40822 5.80610   3
   7   1  -3 1.78747 3.96554  10
   1  -7  -3 3.39984 5.18946  12
  -7  -1  -3 8.22084 4.93531  12
   1   7   3 11.3195  5.1593   9
  -7   1   3 6.90911 5.19834  12
  -1   7  -3 9.63275 4.55637   2
   7   1  -3 12.1670  6.9749   5
   7   1  -3 8.02249 4.51417   2
  -7  -1  -3 15.6261  4.4639   3
   1  -7  -3 7.66449 1.56416   1
  -1   7  -3 -0.0830  7.2658  11
  -7  -1  -3 11.4454  4.1127   2
   2   7  -3 73.1944  8.7637  11
  -7   2  -3 80.9390  7.2049   2
  -2  -7  -3 77.2225  3.6659   1
   7  -2  -3 79.2782  8.4359  10
   2   7  -3 78.5312  8.5154   9
  -7  -2   3 93.0493  8.8479  12
  -2  -7  -3 100.636   9.646   3
   7  -2  -3 70.1519  8.8089   5
  -2  -7  -3 81.0018  7.6928  12
  -7   2  -3 77.4119  7.1723  12
   2   7  -3 83.9361  7.3648   2
   7  -2  -3 86.0954  8.0846   2
   7   2  -3 83.4434  8.1022  11
  -2   7  -3 81.8964 10.4819  11
   2   7   3 79.5533  7.8881   9
  -7  -2  -3 70.0111  6.8880   3
  -7   2   3 72.3979  8.6291  12
  -7  -2  -3 83.8164  6.8626   2
  -2   7  -3 77.5505  7.2804   2
   7   2  -3 77.6371  7.2260   2
   7   2  -3 67.3971  8.8494   5
   2  -7  -3 80.7416  8.1940  12
   2  -7  -3 68.8006  3.8609   1
  -7  -2  -3 80.9806  7.5694  12
  -7  -3   3 24.5008  6.2566  12
   7  -3  -3 29.3731  6.1796   2
  -3  -7  -3 32.2708  5.9935  12
  -7   3  -3 29.8327  5.7405   2
   3   7  -3 39.6471  7.0852  11
   7  -3  -3 14.3187  6.7340  10
  -3  -7  -3 29.1998  6.6321   3
  -3  -7  -3 33.9678  2.3575   1
   3   7  -3 43.0050  6.0854   2
  -7   3  -3 28.6803  5.5942  12
   7  -3  -3 30.5530  6.2851   5
  -3   7  -3 28.7548  5.4372   2
   7   3  -3 24.2339  5.7205  11
   3  -7  -3 18.2768  6.2272  12
   7   3  -3 30.8148  6.8576   5
  -7  -3  -3 19.2053  5.0643   3
   7   3  -3 27.6649  5.5859   2
  -7  -3  -3 28.5777  5.8168  12
  -3   7  -3 32.4858  7.9053  11
  -7  -3  -3 25.7172  4.9316   2
  -3   7  -3 34.3857  6.3598  12
  -7   3   3 28.7679  7.0500  12
   3  -7  -3 28.5150  2.5745   1
  -7  -4   3 78.7603  9.0791  12
  -7   4  -3 82.7204  7.9721   2
  -4  -7  -3 77.2860  3.7608   1
   4   7  -3 78.7289  7.6658   2
  -4  -7  -3 68.0612  7.3453  12
   7  -4  -3 82.6446  9.4263  10
   4   7  -3 73.1126  8.5725  11
  -7   4  -3 76.6736  7.3749  12
  -7  -4  -3 72.6410  7.4616   3
  -4   7  -3 75.3087  8.9969  11
  -7  -4  -3 75.5109  3.8363   1
  -7  -4  -3 90.7644  7.5675   2
  -4   7  -3 69.2117  7.0075   2
   4  -7  -3 76.1104  3.9405   1
  -4   7  -3 87.7302  8.2676  12
   4  -7  -3 78.5094  8.2608  12
   7   4  -3 82.5106  9.0910   5
   7   4  -3 77.3046  7.8165   2
  -7  -4  -3 78.6565  7.4194  12
  -7   4   3 78.3503  9.1060  12
   7  -5  -3 87.3379  8.1804  12
  -7   5  -3 87.5787  8.2539   2
  -5  -7  -3 92.8996  8.5937   6
   5   7  -3 90.8180  8.4483   2
   7  -5  -3 81.5508  9.6183  10
  -5  -7  -3 78.7843  3.9023   1
  -5  -7  -3 81.8885  7.8810  12
   5   7  -3 78.2265  8.5579  11
  -7  -5  -3 97.4140  7.9584   2
  -5   7  -3 84.6086  7.7615   2
  -5   7  -3 81.7963  8.3104  11
  -7  -5  -3 74.9685  7.6197  12
   5  -7  -3 79.4787  4.1292   1
   5  -7  -3 67.8048  7.7911  12
   7   5  -3 79.7663  8.1010   2
  -5   7  -3 85.9455  7.9014  12
  -7  -5  -3 85.3399  4.1196   1
  -6  -7  -3 0.77875 1.21250   1
  -7   6  -3 -3.6446  4.5748   2
   6   7  -3 2.03147 5.17364   2
   7  -6  -3 5.45062 6.06616  10
   6  -7  -3 -5.3752  5.4213  10
   6  -7  -3 -1.4503  1.1632   1
  -7  -6  -3 -1.9182  1.0795   1
  -6   7  -3 1.89940 4.44157   2
   7   6  -3 -3.0841  4.7653   2
   7   7  -3 -2.4836  4.9289   2
  -7  -7  -3 -1.8525  1.1298   1
   7  -7  -3 -3.9577  5.0492  10
  -7   7  -3 1.74969 4.59175   2
   8   0  -3 216.777  12.306   2
   0   8   3 198.330  12.616   9
  -8   0  -3 213.930  11.267   2
   0   8  -3 200.962  15.052  11
  -8   0   3 201.502  13.611  12
   0   8  -3 210.842  12.331   2
   8   0  -3 200.337  12.199  10
   0  -8  -3 187.232  14.098   3
   8   0  -3 187.234  14.866   5
   0  -8  -3 202.712   7.841   1
   0  -8  -3 203.418  12.413  12
  -8   0  -3 216.766  11.802  12
   8  -1  -3 -4.8687  4.6015  10
  -1  -8  -3 5.45593 5.42981  12
  -8   1  -3 5.94529 4.60276   2
   8  -1  -3 -3.3454  5.4812   5
   1   8  -3 10.7194  6.5313  11
  -8   1  -3 -0.6079  5.0073  12
   1   8  -3 9.16264 5.23125   2
   8  -1  -3 14.8140  5.5664   2
   1   8  -3 6.18655 5.81155   9
  -8  -1   3 10.6677  6.0725  12
  -1  -8  -3 3.88250 1.36627   1
   8   1  -3 0.26543 6.17062   5
  -1   8  -3 -5.4606  6.5470  11
   1   8   3 -1.4523  4.8824   9
  -8  -1  -3 -2.1859  4.7477  12
   1  -8  -3 3.38687 1.46792   1
  -8  -1  -3 7.45585 4.38992   2
   8   1  -3 9.36963 5.28366   2
   1  -8  -3 6.48346 5.76685   3
   1  -8  -3 3.01822 5.36500  12
  -8   1   3 -7.8870  5.5040  12
  -1   8  -3 1.90681 4.62323   2
   2   8  -3 21.5899  6.9012   9
   8  -2  -3 12.6571  5.7926   2
  -8  -2   3 5.49046 6.04173  12
   2   8  -3 19.2679  6.6878  11
  -8   2  -3 18.4478  5.2874  12
   8  -2  -3 20.4801  5.9375  10
  -2  -8  -3 15.5104  1.8243   1
  -2  -8  -3 18.1996  6.0755  12
   8  -2  -3 13.7529  5.8012   5
  -8   2  -3 9.99109 5.06107   2
   2   8  -3 6.05268 5.16730   2
  -8  -2  -3 4.61673 5.08787  12
  -2   8  -3 19.3837  7.9491  11
  -8  -2  -3 10.7027  4.7688   2
   8   2  -3 16.1659  5.6314   2
   2   8   3 19.3230  5.9032   9
  -2   8  -3 22.0298  5.5677   2
   2  -8  -3 9.12322 5.85628  12
  -8   2   3 17.8990  6.5816  12
   2  -8  -3 12.5647  1.9827   1
   8   2  -3 11.8405  6.7806   5
  -8   3  -3 51.0224  6.8018   2
   3   8  -3 47.7336  7.8925  11
   3   8  -3 67.7624  8.5793   9
  -8  -3   3 55.2605  8.3892  12
   8  -3  -3 59.9736  8.4425  10
   3   8  -3 56.8290  7.2327   2
   8  -3  -3 57.1133  7.9636   2
  -3  -8  -3 48.5861  7.3087  12
  -3  -8  -3 54.4319  3.1187   1
   3  -8  -3 53.8597  7.4323  12
   3   8   3 64.4441  8.1799   9
  -8  -3  -3 55.9700  7.0473  12
  -3   8  -3 57.0268  9.1819  11
  -8  -3  -3 48.7053  3.1680   1
  -3   8  -3 51.4003  6.6560   2
  -8   3   3 67.0075  8.9037  12
   3  -8  -3 59.2587  3.4032   1
  -8  -3  -3 59.5283  6.5289   2
   8   3  -3 59.0527  8.6222   5
   8   3  -3 66.2571  7.5286   2
   4   8  -3 -1.5484  4.6501   2
   8  -4  -3 3.03415 5.19972   2
  -4  -8  -3 1.20418 1.14182   1
   8  -4  -3 0.11798 5.90189  10
   4   8  -3 5.30012 5.61004  11
  -8   4  -3 -0.2982  4.9842   2
  -8  -4  -3 -4.9468  4.3203   2
  -8  -4  -3 0.00198 1.19952   1
  -4   8  -3 5.11732 4.70919   2
  -4   8  -3 -6.5371  5.0957  11
   8   4  -3 -1.8577  4.7272   2
   4  -8  -3 -2.1780  1.1737   1
  -8   5  -3 42.2375  6.2782   2
   8  -5  -3 40.1229  6.9489   2
  -5  -8  -3 37.9819  2.7024   1
   8  -5  -3 55.9947  8.2386  10
  -5  -8  -3 39.9608  7.0111   6
   5   8  -3 45.4796  7.0878   2
   5  -8  -3 42.1110  6.9709  10
  -8  -5  -3 31.5755  5.7892   2
  -5   8  -3 39.2455  6.2026   2
   8   5  -3 40.5807  6.7710   2
  -5   8  -3 28.9402  6.2841  11
   5  -8  -3 42.9906  2.8270   1
  -8  -5  -3 39.2407  2.8206   1
  -6  -8  -3 120.868   5.048   1
   8  -6  -3 123.956  10.788  10
   6   8  -3 113.354   9.526   2
  -8   6  -3 97.5419  8.3254   2
  -6   8  -3 116.283   8.825   2
   6  -8  -3 116.359   9.921  10
  -8  -6  -3 126.509   5.201   1
   8   6  -3 121.649   9.804   2
   8  -7  -3 28.0845  6.5469  10
  -8   7  -3 28.4903  5.2380   2
   7   8  -3 31.5022  6.3322   2
  -7  -8  -3 32.2883  2.3290   1
   8   7  -3 23.3618  6.0733   2
   7  -8  -3 20.0204  5.8335  10
  -8  -7  -3 30.9067  2.3525   1
  -7   8  -3 33.5978  5.4490   2
   8  -8  -3 -2.8678  4.4043  10
   8   8  -3 -4.1260  4.5162   2
  -8   8  -3 1.09935 3.59032   2
   0  -9  -3 -1.1923  1.1824   1
   0   9   3 -12.598   4.230   9
   0   9  -3 6.04169 5.39949   2
  -9   0  -3 -5.8186  4.6136   2
   9   0  -3 -9.1626  4.5441   2
   0   9  -3 7.56985 6.88847  11
   1   9  -3 70.4278  9.8091  11
   1   9  -3 78.6672  8.1840   2
   9  -1  -3 55.6161  7.8320   2
  -9   1  -3 82.8668  7.7553   2
  -1   9   3 80.7216  8.5688   9
  -1  -9  -3 57.1470  3.4912   1
   9  -1  -3 61.4790  7.7124  10
   1  -9  -3 66.0478  3.6307   1
   1   9   3 72.5125  8.9550   9
  -9  -1  -3 85.8690  7.8909   2
   9   1  -3 58.7726  7.4897   2
  -1   9  -3 75.8070  7.8321   2
  -1   9  -3 72.8418 10.2778  11
   9  -2  -3 -9.6780  5.0429   2
   2   9  -3 2.68133 5.45937   2
  -2  -9  -3 1.91976 1.26725   1
   9  -2  -3 4.09092 5.28424  10
  -9   2  -3 1.94655 5.02121   2
   2   9  -3 1.45169 6.62662  11
   2   9  -3 3.58584 6.08217   9
   9   2  -3 8.04480 5.25290   2
   2   9   3 -1.8654  5.2277   9
  -2   9  -3 -3.1972  6.3738  11
   2  -9  -3 0.37835 1.34131   1
  -2   9  -3 3.04052 5.09470   2
  -9  -2  -3 2.47121 4.47463   2
   9  -3  -3 40.7084  6.8736   2
  -9   3  -3 36.1784  6.3976   2
   3   9  -3 33.0168  6.3839   2
   3   9  -3 47.2686  7.9328   9
   9  -3  -3 43.4586  7.1208  10
   3   9  -3 48.3892  8.3648  11
   3   9   3 33.6698  7.2084   9
   9   3  -3 49.1433  7.3306   2
   3  -9  -3 34.5410  2.6287   1
  -3   9  -3 33.8077  6.1985   2
  -3   9  -3 41.1769  8.1826  11
  -9  -3  -3 33.1070  2.6642   1
  -9  -3  -3 27.6350  5.4038   2
  -4  -9  -3 75.4400  9.5750   6
   4   9  -3 66.2312  8.7755  11
   9  -4  -3 73.1065  8.2172   2
  -9   4  -3 65.7558  6.9500   2
   4   9  -3 59.1097  7.4503   2
   9  -4  -3 58.1783  7.7118  10
  -9  -4  -3 62.7609  7.1180   2
   4   9   3 65.6207  8.1702   9
   4  -9  -3 63.3500  3.4140   1
   4  -9  -3 62.1645  7.1773  10
  -4   9  -3 65.3002  8.7386  11
   9   4  -3 66.5665  7.6346   2
  -9  -4  -3 59.8194  3.4887   1
  -4   9  -3 70.3316  7.1713   2
   5   9  -3 33.2693  6.4502   2
  -9   5  -3 39.7013  5.8585   2
   9  -5  -3 24.7677  6.3360  10
   9  -5  -3 34.7043  6.7601   2
  -5  -9  -3 31.3288  6.8555   6
   5  -9  -3 33.6674  6.0730  10
  -9  -5  -3 34.6342  2.5482   1
   9   5  -3 30.7016  6.3611   2
   5  -9  -3 34.0092  2.4509   1
  -9  -5  -3 36.5743  5.8848   2
   5   9   3 34.3885  7.1060   9
  -5   9  -3 31.0746  6.6625  11
  -5   9  -3 38.0026  5.9012   2
  -9   6  -3 42.9683  5.6082   2
   9  -6  -3 46.0597  6.6717  10
   6   9  -3 34.4053  6.4873   2
   9  -6  -3 28.3704  6.1615   2
   6  -9  -3 26.5686  5.7110  10
   6   9   3 39.8784  7.4995   9
  -6   9  -3 40.1963  5.7937   2
   9   6  -3 37.9200  6.3205   2
  -9  -6  -3 43.4777  2.6480   1
  -9   7  -3 24.9167  4.4952   2
   9  -7  -3 33.8936  5.7064  10
   9  -7  -3 41.5857  5.7762   2
   7   9  -3 43.8101  6.2859   2
   7  -9  -3 27.6390  5.5728  10
   9   7  -3 31.7733  6.2325   4
   7   9   3 26.0279  6.3797   9
  -9  -7  -3 35.0572  2.3073   1
  -7   9  -3 37.4668  5.1265   2
   9   7  -3 28.7567  5.8764   2
  -9   8  -3 5.94849 3.00012   2
   9   8   3 11.5505  4.7536   9
   9  -8  -3 -0.9472  3.8241  10
   8   9  -3 3.25852 5.20743   4
   8   9  -3 2.45227 4.12643   2
   9  -8  -3 6.10413 3.87421   2
   9   8  -3 5.57415 4.81594   4
   9   8  -3 7.93881 4.49272   2
   8   9   3 8.32125 4.33010   9
   8  -9  -3 4.52395 3.74677   2
  -8   9  -3 3.38969 3.18648   2
   8  -9  -3 1.21745 3.74990  10
 -10   0  -3 33.9443  6.1659   2
   0  10  -3 30.5203  6.0973   2
  10   0  -3 33.6180  6.7417   2
   0  10  -3 45.7238  8.1750  11
   0  10   3 34.9820  6.8915   9
   1  10  -3 1.31608 6.27274  11
 -10   1  -3 0.05158 4.96359   2
  10  -1  -3 4.16902 5.34759   2
   1  10  -3 3.60942 5.04224   2
  10   1  -3 15.6810  5.9084   2
   1  10   3 9.30089 5.48660   9
  -1  10  -3 8.30702 5.18332   2
 -10  -1  -3 3.92887 4.90554   2
  -1  10  -3 1.80727 6.05877  11
  10  -2  -3 -2.5478  5.0903   2
 -10   2  -3 8.77564 5.05640   2
   2  10  -3 -0.2845  5.8152  11
  10  -2  -3 2.47782 5.23236  10
   2  10  -3 -0.1474  5.2440   2
   2  10   3 -2.7279  5.1534   9
  -2  10  -3 -2.6501  4.7065   2
  10   2  -3 7.99665 5.45594   2
  -2  10  -3 -6.1439  5.6953  11
 -10  -2  -3 3.43123 4.64264   2
   3  10  -3 176.892  11.772   2
 -10   3  -3 175.495  10.630   2
  10  -3  -3 179.113  11.948   2
   3  10  -3 174.853  12.049   9
   3  10  -3 185.974  12.918  11
  -3 -10  -3 170.491  13.436   6
  10  -3  -3 172.937  11.508  10
  -3  10  -3 173.027  10.550   2
   3  10   3 200.869  12.722   9
 -10  -3  -3 177.813   7.093   1
  -3  10  -3 163.830  12.167  11
 -10  -3  -3 194.129  10.959   2
  10   3  -3 168.023  11.522   2
  10  -4  -3 21.4683  5.9886   2
  10  -4  -3 8.77219 5.20384  10
   4  10  -3 18.0084  5.8939   2
 -10   4  -3 15.0653  4.9287   2
  -4 -10  -3 14.6936  6.1996   6
   4 -10  -3 18.1075  1.7248   1
  10   4  -3 14.1435  5.4335   2
 -10  -4  -3 25.2764  5.3678   2
  -4  10  -3 24.1545  5.3324   2
 -10  -4  -3 21.6278  2.1428   1
  -4  10  -3 27.8750  6.2332  11
   4  10   3 26.2351  6.3592   9
  10  -5  -3 168.745  10.090   2
   5  10  -3 132.101  10.001   2
  -5 -10  -3 145.512  10.231   6
  10  -5  -3 143.428  10.166  10
 -10   5  -3 149.319   8.970   2
   5 -10  -3 145.596   9.371  10
 -10  -5  -3 153.312   6.027   1
  10   5  -3 165.815  10.501   2
   5  10   3 130.362  10.715   9
  -5  10  -3 153.626   8.985   2
  10  -6  -3 7.84279 4.36895  10
 -10   6  -3 4.33352 3.39786   2
  10  -6  -3 11.2169  4.4810   2
   6  10  -3 -1.8427  4.3635   2
  10   6  -3 8.47600 4.71930   2
   6  10   3 4.73259 4.69713   9
  -6  10  -3 1.40873 3.45584   2
 -10  -6  -3 8.14095 1.38341   1
   6 -10  -3 6.97084 4.04821   8
   6 -10  -3 9.61886 4.26613  10
 -10   7  -3 19.1817  3.2770   2
  10  -7  -3 9.63635 3.76126   2
  10  -7  -3 13.8577  4.1701  10
   7  10  -3 7.37403 4.15837   2
   7  10  -3 21.0590  5.6371   4
   7 -10  -3 13.0194  3.8915  10
   7  10   3 18.7628  4.7243   9
   7 -10  -3 15.7866  4.0736   8
  -7  10  -3 17.7337  3.5387   2
  10   7  -3 12.7237  4.3839   2
  11   0  -3 -0.0927  4.9588   2
   0  11  -3 0.81754 4.48774   2
 -11   0  -3 -1.0322  4.2043   2
  11  -1  -3 43.5962  6.5158   2
 -11   1  -3 40.7057  5.9160   2
   1  11  -3 40.7538  6.0343   2
  -1 -11  -3 34.3292  6.5713   6
   1  11   3 35.1281  6.3797   9
  -1  11  -3 38.0825  5.8329   2
 -11  -1  -3 44.6870  5.9896   2
   1 -11  -3 37.0561  6.3018   6
  11   1  -3 35.9498  6.2686   2
  11  -2  -3 -5.1465  4.7391   2
   2  11  -3 0.05788 4.19679   2
 -11   2  -3 2.27294 4.10526   2
  -2 -11  -3 2.20254 5.00392   6
  11   2  -3 8.80562 5.23341   2
   2 -11  -3 0.65887 4.13860   6
  -2  11  -3 4.41664 4.24934   2
 -11  -2  -3 2.07500 4.39917   2
 -11  -2  -3 -1.0124  1.1907   1
   2  11   3 -0.7469  4.7401   9
  11  -3  -3 9.22940 4.46774  10
   3  11  -3 0.07748 4.72660   2
  11  -3  -3 7.23870 4.78956   2
  -3 -11  -3 13.7152  5.3016   6
   3  11  -3 3.99085 5.28316   4
 -11   3  -3 4.36178 3.95053   2
  11   3  -3 3.24424 4.76403   2
   3  11   3 5.17147 4.75893   9
  -3  11  -3 2.82453 4.09083   2
 -11  -3  -3 3.13681 4.33312   2
 -11  -3  -3 5.09916 1.37345   1
  11  -4  -3 2.55768 4.21548   2
  -4 -11  -3 5.03233 4.49152   6
  11  -4  -3 -1.8709  4.2690  10
   4  11  -3 8.46172 4.87409   2
 -11   4  -3 5.95827 3.64009   2
 -11  -4  -3 2.56480 3.90503   2
 -11  -4  -3 7.33952 1.35776   1
  -4  11  -3 7.92386 3.90274   2
  11   4  -3 9.67364 4.84265   2
   4  11   3 7.53868 5.07150   9
  11  -5  -3 13.7413  4.4017  10
   5  11  -3 15.4817  5.0930   4
 -11   5  -3 7.60471 3.11499   2
   5  11  -3 11.7305  4.6890   2
  11  -5  -3 15.7750  4.4167   2
 -11  -5  -3 12.7680  1.4884   1
  11   5  -3 19.6966  4.7836   2
   5  11   3 16.4198  5.1124   9
  -5  11  -3 16.0646  3.6627   2
  11  -6  -3 18.6370  3.7014   8
  11  -6  -3 18.7432  4.2241  10
  11  -6  -3 11.0960  3.5705   2
   6  11  -3 18.1598  4.6937   4
   6  11  -3 26.2302  4.5147   2
   6  11   3 16.2347  4.7247   9
  11   6  -3 17.0886  4.2519   2
  12   0  -3 123.737   8.872   2
   0  12  -3 130.107   8.016   2
 -12   0  -3 135.104   5.263   1
   0 -12  -3 127.070   8.571   6
 -12   0  -3 139.570   7.414   2
  12  -1  -3 135.562   8.661   2
  -1 -12  -3 121.698   8.447   6
   1  12  -3 138.385   8.173   2
 -12   1  -3 141.655   7.334   2
  12   1  -3 133.793   8.844   2
  -1  12  -3 131.112   7.723   2
   1 -12  -3 122.834   8.343   6
 -12  -1  -3 126.789   7.518   2
  12  -2  -3 12.7828  4.3171   2
   2  12  -3 9.14190 4.06474   2
 -12   2  -3 6.25756 2.97808   2
  -2 -12  -3 6.97628 3.89890   6
  -2  12  -3 6.32660 3.41792   2
 -12  -2  -3 8.37669 3.47325   2
 -12  -2  -3 9.22784 1.41478   1
  12   2  -3 10.3805  4.2233   2
   2  12   3 5.72902 4.26352   9
  12  -3  -3 91.2352  6.5304   2
   3  12  -3 92.7214  6.4810   2
 -12   3  -3 87.8008  5.3463   2
 -12  -3  -3 86.5961  3.7402   1
  -3  12  -3 93.7845  5.9219   2
 -12  -3  -3 75.1570  5.4647   2
   3  12   3 91.5352  7.3695   9
  12   3  -3 85.1202  6.8366   2
   0   0  -4 9999.99  334.07   5
   0   0  -4 9479.41  318.62   3
   1   0  -4 -5.4360  3.8672   5
   0  -1  -4 -6.7649  3.8657   5
   0   1  -4 2.34993 4.19626   5
   0  -1  -4 3.80042 3.32940   3
  -1   0  -4 -2.8674  3.9721   5
   1   0  -4 -1.7539  3.7445  11
   1   0  -4 2.04616 3.02545   3
   0   1  -4 3.37932 3.76568  11
  -1   0  -4 2.34111 3.43370   3
   1  -1  -4 441.194  16.968   3
  -1  -1  -4 451.298  17.629   3
   1   1  -4 472.473  18.950  11
   1   1  -4 472.730  18.952   5
  -1   1  -4 461.169  18.981   5
   1  -1  -4 469.366  18.899   5
   1  -1  -4 452.736  18.837  11
   2   0  -4 5017.35  173.73   5
   0  -2  -4 5219.48  173.51   5
  -2   0  -4 4936.02  165.82   3
   0  -2  -4 4914.40  165.49   3
   0   2  -4 5082.95  173.60   5
   2   0  -4 5047.03  176.41  11
   0   2  -4 4918.34  176.20  11
   1   2  -4 189.220  10.029   5
  -2   1  -4 182.570   9.504   3
   2  -1  -4 184.263  10.310   5
  -1  -2  -4 173.438   9.153   3
   2  -1  -4 183.962  10.270  11
   1   2  -4 164.344   9.997  11
  -1   2  -4 191.572  10.028   5
   2   1  -4 175.825  10.104   5
   2   1  -4 173.498   9.930  11
   1  -2  -4 164.321   8.342   3
   1  -2  -4 193.087   9.974   5
  -1   2  -4 178.613   9.819  11
  -2  -1  -4 178.244   9.436   3
   2  -2  -4 3573.47  122.96   5
   2   2  -4 3500.03  124.94  11
  -2   2  -4 3387.41  124.26  11
  -2  -2  -4 3648.65  117.66   3
   2   2  -4 3520.53  123.06   5
   0   3  -4 3.67662 4.57027  11
   3   0  -4 3.70906 4.92939   5
   0   3  -4 -0.5818  3.8066   5
   3   0  -4 4.70239 4.37394  11
   0  -3  -4 -0.9280  3.6762   5
  -3   0  -4 -1.2818  3.5294   3
   0  -3  -4 -1.6211  3.5875   3
   3  -1  -4 467.393  19.867  11
   1   3  -4 445.281  19.052   5
   1   3  -4 434.280  19.556  11
  -1  -3  -4 492.972  18.789   3
  -3   1  -4 457.492  18.540   3
   3  -1  -4 470.357  20.193   5
   3  -1  -4 462.757  16.033  12
  -1   3  -4 453.591  19.591  11
   1  -3  -4 451.557  17.895   3
  -3  -1  -4 466.752  18.445   3
   3   1  -4 471.853  19.883   5
   3   1  -4 453.761  19.666  11
   1  -3  -4 471.959  18.797   5
   3  -2  -4 11.8456  3.9380  12
  -2  -3  -4 9.32868 4.44534   3
   3  -2  -4 7.34980 5.17927   5
   2   3  -4 8.57090 4.85446  11
   2   3  -4 9.41693 4.22203   5
   2  -3  -4 13.7309  4.1296   5
  -2   3  -4 10.3648  4.9221  11
   3   2  -4 9.71453 4.87353   5
  -3  -2  -4 11.9875  4.0651   3
   3   2  -4 11.2190  4.9426  11
   2  -3  -4 12.1554  3.3510  12
  -3  -3  -4 71.5551  6.7803   3
   3   3  -4 70.5935  7.1796  11
   3  -3  -4 65.3493  6.7323   5
   3   3  -4 73.0904  6.9872   5
   3  -3  -4 73.0501  6.2267  12
  -4   0  -4 2617.42   87.27   3
   4   0  -4 2646.58   92.61   5
   0   4  -4 2514.13   90.69   5
   0   4  -4 2585.01   93.19  11
   4   0  -4 2583.41   92.98  11
   0  -4  -4 2519.55   87.16   3
   1   4  -4 13.6329  4.1605   5
  -1  -4  -4 22.3457  4.9135   3
   1   4  -4 20.2364  5.6624  11
   4  -1  -4 15.2201  6.2610   5
  -4   1  -4 13.6137  4.4794   3
  -1   4  -4 22.5157  5.8783  11
   4   1  -4 20.8306  5.6982   5
   1  -4  -4 14.0339  3.4711  12
   1  -4  -4 17.9626  4.9344   3
  -4  -1  -4 11.2752  4.2972   3
   4   1  -4 12.5494  4.9613  11
  -2  -4  -4 3270.49  114.36   6
   4  -2  -4 3136.59  116.36   5
   2   4  -4 3130.53  114.63   5
   2   4  -4 3355.48  117.55  11
  -2  -4  -4 3310.86  110.47   3
  -2   4  -4 3534.13  118.33  11
   2  -4  -4 3217.98  101.29  12
  -4  -2  -4 3256.16  110.14   3
   4   2  -4 3311.75  117.28  11
   4   2  -4 3253.19  115.74   5
  -3  -4  -4 92.3742  7.8534   6
   4  -3  -4 71.3145  7.8011   5
  -3  -4  -4 82.4210  7.5746   3
   3   4  -4 84.2914  8.2093  11
   3   4  -4 74.8029  7.1428   5
   4  -3  -4 93.7917  7.4231  12
  -4  -3  -4 79.9815  6.9227   6
   4   3  -4 82.8994  8.2018  11
  -3   4  -4 83.7244  9.4776  11
   4   3  -4 75.7365  7.7122   5
   3  -4  -4 92.2336  7.4129  12
  -4  -3  -4 70.9126  6.9895   3
   4  -4  -4 5592.73  177.53   1
  -4  -4  -4 5573.73  177.31   1
   4  -4  -4 5575.12  189.13  10
   4   4  -4 5594.47  194.32   5
  -4  -4  -4 5652.23  192.17   6
  -4   4  -4 5457.37  179.83   2
   4  -4  -4 5659.53  172.16  12
  -4   4  -4 5355.70  182.29   7
   4   4  -4 5498.74  179.81   2
   4   4  -4 5820.20  198.08  11
  -4  -4  -4 5675.18  186.29   3
   0  -5  -4 -1.1216  3.5033  12
   0  -5  -4 -0.8542  4.5907   3
  -5   0  -4 4.45066 4.02916   3
   0   5  -4 -3.9131  5.4561  11
   0  -5  -4 -2.5573  7.1282   6
   5   0  -4 1.55182 7.25682   5
   5   0  -4 -5.9551  4.5455  11
  -5   0  -4 -0.7446  4.8308   7
   0   5  -4 -3.4610  3.4318   5
  -1  -5  -4 266.336  14.655   3
   1   5  -4 306.315  14.549   5
  -1  -5  -4 369.556  17.159   6
   1   5  -4 303.192  16.388  11
  -1  -5  -4 306.012  12.498  12
  -5   1  -4 336.891  15.267   7
   5  -1  -4 296.220  18.699   5
   1  -5  -4 325.672  15.874   3
   1  -5  -4 345.245  18.600   6
   1  -5  -4 335.075  13.196  12
   5   1  -4 331.694  16.061  11
   5   1  -4 327.060  17.798   5
  -1   5  -4 339.373  17.680  11
  -5  -1  -4 323.615  14.490   3
  -5   2  -4 -4.1005  4.6926   7
   5  -2  -4 0.62910 3.84155   2
   2   5  -4 3.64928 5.08184  11
  -2  -5  -4 4.82585 5.32600   6
   5  -2  -4 -0.9088  6.1717   5
  -5   2  -4 5.64770 3.50066   2
  -2  -5  -4 6.83186 4.52402   3
   2   5  -4 -3.1103  3.7838   2
   2   5  -4 3.87908 3.75324   5
   5   2  -4 -3.7809  4.8197   5
  -2   5  -4 1.38873 3.71750   2
   5   2  -4 5.06558 4.76351  11
  -5  -2  -4 6.93922 3.11859   2
   2  -5  -4 2.02999 6.27252   6
  -2   5  -4 8.29109 7.39043  11
   5   2  -4 6.04393 3.60726   2
  -5  -2  -4 -2.6696  3.5916   3
   2  -5  -4 2.31522 4.73912  12
   3   5  -4 222.627  13.298  11
   5  -3  -4 240.866  11.591  12
  -5   3  -4 247.574  12.459   7
   3   5  -4 216.190  11.671   5
  -3  -5  -4 219.929  12.944   6
  -3  -5  -4 234.146  12.607   3
   3   5  -4 211.546  10.874   2
   5  -3  -4 237.648  14.130  10
   5  -3  -4 222.544   8.368   1
  -3  -5  -4 217.196   8.177   1
   5  -3  -4 218.804  13.405   5
  -5   3  -4 204.306  10.843   2
   5   3  -4 212.369  13.192   5
   3  -5  -4 227.878   8.479   1
  -5  -3  -4 218.051  11.941   3
   5   3  -4 238.646  13.373  11
  -3   5  -4 207.889  10.828   2
   5   3  -4 224.860  10.832   2
   3  -5  -4 237.844  12.146  12
  -5  -3  -4 213.229  10.601   2
  -3   5  -4 262.592  18.146  11
  -5  -3  -4 229.645   8.271   1
  -4  -5  -4 164.878  11.136   6
  -4  -5  -4 172.273  11.116   3
  -5   4  -4 170.582   9.933   2
   4   5  -4 173.897  11.723  11
  -4  -5  -4 164.008   6.518   1
  -5   4  -4 168.163  10.358   7
   5  -4  -4 160.691  13.167  10
   5  -4  -4 164.620  10.149  12
   4   5  -4 165.178   9.518   2
   5  -4  -4 168.110   6.665   1
   4   5  -4 155.869  10.205   5
  -5  -4  -4 169.149   6.514   1
   5   4  -4 184.559  11.741  11
  -5  -4  -4 168.782   9.393   2
  -4   5  -4 260.040  24.155  11
  -4   5  -4 151.112   9.657   2
   4  -5  -4 162.730  10.768  12
   5   4  -4 165.821   9.714   2
   5   4  -4 159.207  11.359   5
  -4   5  -4 152.436   9.936   7
  -5  -4  -4 168.025  10.343   6
   4  -5  -4 164.480   6.750   1
   4  -5  -4 181.788  15.313  10
  -5  -4  -4 153.953  10.400   3
   5  -5  -4 438.514  15.125   1
  -5  -5  -4 431.349  14.983   1
   5   5  -4 416.628  20.822  11
   5  -5  -4 462.316  18.523  12
   5   5  -4 441.933  19.825   5
  -5   5  -4 426.543  17.965   2
   5  -5  -4 430.032  22.296  10
  -5  -5  -4 447.277  19.722   3
   5   5  -4 428.402  17.946   2
  -5  -5  -4 412.640  19.154   6
   6   0  -4 3117.19  104.42   2
   0  -6  -4 3165.53   99.58  12
   6   0  -4 3187.26  109.13  10
   0  -6  -4 3103.52  101.84   1
   0   6  -4 3122.95  104.48   2
  -6   0  -4 3159.42  108.09   3
   0  -6  -4 3313.71  110.56   3
   0   6  -4 3356.75  116.85  11
  -6   0  -4 3241.66  103.78   2
   1   6  -4 44.2600  7.8389  11
   6  -1  -4 34.5682 10.8360   5
   6  -1  -4 40.6655  6.3820  10
   6  -1  -4 49.2021  5.5621   2
  -1  -6  -4 34.1411  5.2486  12
  -1  -6  -4 43.2718  7.3013   3
  -6   1  -4 32.4969  4.5729   2
   1   6  -4 26.3609  5.1920   2
  -1  -6  -4 29.7880  2.4022   1
   6   1  -4 26.8657  6.3305  11
   6   1  -4 34.7394  5.7097  10
  -6  -1  -4 33.7950  4.5385   2
   1  -6  -4 39.4695  9.9502   3
   1  -6  -4 39.0993  2.6765   1
   6   1  -4 46.7490  9.3813   5
   6   1  -4 33.6298  5.1469   2
  -1   6  -4 36.4318  5.4358   2
  -6  -1  -4 32.5263  5.4206   3
   1  -6  -4 42.1558  5.8874  12
  -1   6  -4 40.2476  8.5421  11
   6  -2  -4 2489.50   86.06  10
  -2  -6  -4 2465.87   85.54   3
  -6   2  -4 2458.76   80.92   2
   6  -2  -4 2624.94   91.47   5
   6  -2  -4 2428.35   78.83   1
   2   6  -4 2467.50   81.52   2
  -2  -6  -4 2584.32   89.43   6
   6  -2  -4 2411.45   81.84   2
  -2  -6  -4 2415.67   78.74   1
  -6   2  -4 2441.57   83.16   7
   2   6  -4 2493.41   90.72  11
   2  -6  -4 2533.94   89.82   6
   2  -6  -4 2338.17   78.87   1
  -2   6  -4 2427.16   81.24   2
   6   2  -4 2507.58   90.05   5
   6   2  -4 2456.56   81.40   2
  -2   6  -4 2476.32   92.77  11
   2  -6  -4 2477.36   78.63  12
  -6  -2  -4 2449.78   78.84   1
   6   2  -4 2430.98   89.96  11
  -6  -2  -4 2357.04   84.21   3
  -6  -2  -4 2476.95   80.76   2
   6  -3  -4 406.953  19.959   5
   6  -3  -4 430.000  20.388  10
   3   6  -4 417.030  20.127  11
  -6   3  -4 425.164  17.927   7
   3   6  -4 396.148  17.249   2
  -3  -6  -4 412.524  19.787   6
  -3  -6  -4 406.416  14.182   1
   6  -3  -4 389.931  17.736   2
   6  -3  -4 414.060  14.293   1
  -3  -6  -4 415.019  19.198   3
  -6   3  -4 411.549  17.140   2
   3  -6  -4 417.236  14.479   1
  -6  -3  -4 396.679  14.208   1
   3  -6  -4 508.242  30.421  10
   6   3  -4 413.969  20.029   5
   3  -6  -4 425.653  18.042  12
   6   3  -4 412.963  17.117   2
   6   3  -4 430.494  19.792  11
  -6  -3  -4 415.382  18.285   3
  -3   6  -4 407.760  16.821   2
   6   3  -4 410.779  20.287   4
  -6  -3  -4 405.634  16.659   2
  -3   6  -4 338.056  22.681  11
   6  -4  -4 2846.13   99.60  10
  -4  -6  -4 2777.00   99.88   6
  -6   4  -4 2824.59   93.17   2
  -4  -6  -4 2781.92   90.01   1
  -4  -6  -4 2813.95   97.33   3
   4   6  -4 2766.40   93.10   2
   6  -4  -4 2843.35   90.19   1
   4   6  -4 2838.11  103.16  11
   6  -4  -4 2780.13   89.30  12
   6   4  -4 2746.10  102.53  11
  -6  -4  -4 2749.15   92.55   2
  -4   6  -4 2759.50  106.29  11
   6   4  -4 2867.93  101.39   5
   4  -6  -4 2866.83   90.27   1
   4  -6  -4 2830.69   89.82  12
  -6  -4  -4 2800.87   96.66   3
  -4   6  -4 2834.52   92.88   2
  -6  -4  -4 2897.44   90.15   1
   6   4  -4 2807.21   93.09   2
   6  -5  -4 34.4115  8.2427  10
  -5  -6  -4 14.2647  5.4108   6
   6  -5  -4 20.0435  2.2213   1
   5   6  -4 27.4390  5.7451   2
  -5  -6  -4 22.6856  2.1819   1
  -6   5  -4 22.6101  5.6146   2
   6  -5  -4 10.5534  5.1525  12
   5   6  -4 29.0671  6.9609  11
  -5   6  -4 25.6533  5.3583   2
   6   5  -4 18.0986  5.7953   5
   6   5  -4 18.1427  6.1227  11
   5  -6  -4 23.9736  7.8672  10
   5  -6  -4 9.90268 5.62776  12
   6   5  -4 21.2974  5.3969   2
  -6  -5  -4 22.3484  2.2323   1
   5  -6  -4 19.8948  2.1949   1
  -6   6  -4 1552.45   52.15   2
  -6  -6  -4 1490.78   49.10   1
   6   6  -4 1492.24   52.64   2
   6  -6  -4 1541.21   56.94  10
   6  -6  -4 1522.12   49.20   1
   6   6  -4 1474.92   58.11  11
   7   0  -4 5.31572 4.42627   2
   0   7  -4 -0.3908  4.4939   2
   0  -7  -4 1.04921 1.26095   1
   7   0  -4 20.2829 13.5952   5
   0  -7  -4 10.6736  7.2228   3
   0   7  -4 1.11994 6.91927  11
  -7   0  -4 -0.9131  3.7569   2
   7   0  -4 2.73678 4.96385  10
  -7   1  -4 139.050   8.605   2
   1   7  -4 131.015   9.489   2
   7  -1  -4 120.511  14.033   5
   7  -1  -4 142.059   9.838   2
   7  -1  -4 137.432  10.649  10
   1   7  -4 146.154  12.729  11
  -1  -7  -4 116.460  11.456   3
  -1  -7  -4 125.921   5.518   1
  -1   7  -4 148.971   9.270   2
  -7  -1  -4 136.901   9.651   3
   1  -7  -4 140.332   9.987  12
   7   1  -4 131.416   9.139   2
   7   1  -4 124.312  13.748   5
   7   1  -4 141.448   9.952  10
   1  -7  -4 143.521   5.843   1
  -1   7  -4 129.618  13.320  11
  -7  -1  -4 132.312   8.564   2
   7  -2  -4 63.5381  9.6829   5
   7  -2  -4 51.0782  6.7394   2
   2   7  -4 45.4308  6.3654   2
  -7   2  -4 48.9564  6.0965   2
  -2  -7  -4 51.4475  3.0343   1
   2   7  -4 50.1963  8.2828  11
   7  -2  -4 40.8766  7.4839  10
  -2  -7  -4 49.5049  9.8587   6
  -2  -7  -4 54.0250  8.0624   3
  -7  -2  -4 50.0692  3.1911   1
  -2   7  -4 51.4167  9.9253  11
  -2   7  -4 46.5528  6.0051   2
   2  -7  -4 46.2068  7.1792  12
   2  -7  -4 50.9535  3.2914   1
   2   7   4 48.1677  7.0495   9
   2  -7  -4 55.9011  9.2636   6
   7   2  -4 51.0609  6.2656   2
  -7  -2  -4 50.5878  6.4930   3
  -7  -2  -4 52.7512  5.7830   2
   2  -7  -4 52.6895  8.2001   8
   7   2  -4 46.9102  7.2079  11
   7   2  -4 60.5657  9.4902   5
  -3  -7  -4 479.159  22.274   6
  -3  -7  -4 449.938  15.159   1
   3   7  -4 440.976  18.771   2
   7  -3  -4 433.957  19.372   2
   3   7  -4 422.589  21.565  11
   7  -3  -4 452.362  21.651  10
  -7   3  -4 454.880  18.440   2
   3  -7  -4 435.298  19.097  12
  -3   7  -4 413.777  17.801   2
  -7  -3  -4 440.518  15.258   1
   7   3  -4 401.625  20.472  11
  -7  -3  -4 419.805  17.876   2
  -3   7  -4 438.431  23.692  11
   7   3  -4 422.318  18.542   2
   3  -7  -4 450.604  15.441   1
   7   3  -4 444.944  21.793   5
   4   7  -4 8.04543 5.14589   2
  -4  -7  -4 -0.1614  1.2007   1
   7  -4  -4 -0.7972  6.3080  10
   7  -4  -4 8.93604 5.45556   2
   7  -4  -4 0.32892 4.68148  12
   4   7  -4 2.28624 5.79111  11
  -7   4  -4 8.10845 5.17598   2
  -4  -7  -4 -6.5517  5.8015   6
   4  -7  -4 1.71407 1.46935   1
  -7  -4  -4 -0.8930  1.2872   1
  -4   7  -4 -6.2483  6.1176  11
   7   4  -4 -6.9621  5.2020   5
   7   4  -4 1.17711 4.93180  11
  -7  -4  -4 5.67282 4.23894   2
   7   4  -4 -0.3351  4.6033   2
   4  -7  -4 -9.4747  5.5543  10
  -4   7  -4 13.9721  4.7625   2
   7   4  -4 -0.9188  6.0013   4
  -7   5  -4 265.616  13.412   2
   7  -5  -4 252.246  17.025  10
  -5  -7  -4 270.168   9.970   1
  -5  -7  -4 296.545  15.261   6
   5   7  -4 281.829  14.043   2
   5   7  -4 247.640  15.980  11
   7   5  -4 266.842  14.003   2
  -5   7  -4 282.809  13.188   2
   5  -7  -4 273.119  15.834  10
   7   5  -4 246.910  14.989  11
  -7  -5  -4 263.354  10.001   1
   5  -7  -4 284.038  10.198   1
   6   7  -4 -1.8328  5.7561  11
  -6  -7  -4 -0.2253  1.1763   1
   6   7  -4 3.54254 4.95571   2
   7  -6  -4 3.58906 6.51224  10
  -7   6  -4 2.45598 4.32471   2
   6  -7  -4 2.46391 5.92144  10
   6  -7  -4 0.74988 1.24509   1
   7   6  -4 3.93904 5.14774   2
  -6   7  -4 7.16889 4.37460   2
  -7  -6  -4 2.09864 1.31021   1
   7   7  -4 18.7476  5.6418   2
  -7   7  -4 9.85005 4.22175   2
  -7  -7  -4 14.7561  1.8557   1
   7  -7  -4 10.3935  5.8716  10
   0   8  -4 3313.03  109.13   2
   8   0  -4 2891.12  120.43   5
  -8   0  -4 3417.18  108.69   2
   0   8  -4 3439.35  122.65  11
   0  -8  -4 3413.01  105.87   1
   8   0  -4 3411.13  109.56   2
   8   0  -4 3216.60  113.60  10
   8  -1  -4 76.4139 10.5645   5
   1   8  -4 76.1744  8.1130   2
  -8   1  -4 67.8489  7.3349   2
   1   8  -4 80.5038 10.7861  11
   8  -1  -4 80.7738  8.2675   2
   8  -1  -4 70.4898  8.5754  10
  -1  -8  -4 73.3910  3.8496   1
   8   1  -4 77.2205  7.7534   2
   8   1  -4 46.5151  9.7882   5
   1  -8  -4 72.7639  3.9959   1
  -8  -1  -4 72.8555  6.8862   2
  -1   8  -4 71.4162 10.9007  11
  -1   8  -4 85.7959  7.8494   2
   2   8  -4 2302.16   86.91  11
   8  -2  -4 2170.98   85.12   5
  -2  -8  -4 2141.10   85.32   6
   8  -2  -4 2396.05   78.48   2
   8  -2  -4 2336.26   82.01  10
   2   8  -4 2488.37   78.49   2
  -2  -8  -4 2229.41   74.24   1
  -8   2  -4 2362.96   77.42   2
  -2   8  -4 2309.30   88.13  11
  -8  -2  -4 2371.33   74.50   1
   8   2  -4 2358.74   77.95   2
  -8  -2  -4 2305.45   76.92   2
   2  -8  -4 2286.23   84.12   6
   2   8   4 2220.45   79.38   9
  -2   8  -4 2408.63   77.41   2
   2  -8  -4 2270.82   74.49   1
   3   8  -4 42.7356  7.9289  11
  -3  -8  -4 43.4183  2.8773   1
   8  -3  -4 54.4633  8.4355  10
  -3  -8  -4 36.9270  8.5303   6
  -8   3  -4 58.6731  6.7822   2
   3   8  -4 44.1591  6.7660   2
   8  -3  -4 61.2486  7.6898   2
   3  -8  -4 47.2038  7.7768   8
   3   8   4 46.4401  7.5477   9
  -3   8  -4 47.4601  6.0330   2
  -8  -3  -4 43.8950  3.1377   1
  -3   8  -4 42.3022  8.8091  11
  -8  -3  -4 55.0315  6.3144   2
   3  -8  -4 48.8117  3.1997   1
   8   3  -4 44.4031  6.7847   2
  -4  -8  -4 1786.96   57.50   1
   4   8  -4 1769.57   67.97  11
   8  -4  -4 1784.49   65.17  10
  -4  -8  -4 1826.76   66.65   6
   8  -4  -4 1857.43   61.83   2
   4   8  -4 1878.76   61.45   2
  -8   4  -4 1827.27   60.58   2
  -8  -4  -4 1756.48   60.25   2
  -4   8  -4 1780.11   60.30   2
  -8  -4  -4 1823.50   57.64   1
  -4   8  -4 1571.40   67.06  11
   4  -8  -4 1684.59   63.55  10
   4   8   4 1723.11   62.61   9
   8   4  -4 1826.55   61.31   2
   4  -8  -4 1770.29   57.60   1
  -5  -8  -4 21.3550  6.3548   6
   5   8  -4 18.2150  6.8693  11
  -5  -8  -4 28.2018  2.3590   1
  -8   5  -4 21.6709  5.0366   2
   8  -5  -4 24.0423  7.2163  10
   5   8  -4 26.0061  6.1598   2
   8  -5  -4 29.0506  6.2459   2
   5  -8  -4 23.3722  2.2544   1
   8   5  -4 33.0646  7.3855   4
  -5   8  -4 20.2140  4.7167   2
  -5   8  -4 11.0251  5.4073  11
   8   5  -4 23.8363  5.8766   2
   5  -8  -4 16.3708  5.9691  10
  -8  -5  -4 21.9790  2.2281   1
   8  -6  -4 1541.00   52.31   2
   6   8  -4 1546.44   52.33   2
  -6  -8  -4 1534.83   48.69   1
  -8   6  -4 1521.15   51.10   2
   8  -6  -4 1510.43   55.20  10
  -8  -6  -4 1498.13   48.75   1
   6  -8  -4 1398.50   54.32  10
   8   6  -4 1403.50   57.62   4
   8   6  -4 1567.61   52.47   2
  -6   8  -4 1477.36   50.97   2
   6  -8  -4 1511.68   48.70   1
   8  -7  -4 11.6525  5.1987  10
  -8   7  -4 5.31599 3.62086   2
   7   8  -4 3.44610 6.99776   4
   8  -7  -4 6.37327 4.36605   2
   7   8  -4 -2.1602  4.5516   2
  -7  -8  -4 2.44557 1.12195   1
  -7   8  -4 3.86986 3.46746   2
   8   7  -4 -3.7722  5.8065   4
   7  -8  -4 6.28441 4.84055  10
   8   7  -4 2.92309 4.62082   2
  -8  -7  -4 2.57245 1.19289   1
   8   8  -4 1348.94   46.25   2
  -8  -8  -4 1367.20   43.48   1
   8  -8  -4 1327.47   48.21  10
  -8   8  -4 1304.91   44.56   2
   8   8  -4 1334.66   51.75   4
   8  -8  -4 1395.76   51.82   8
   8  -8  -4 1359.26   45.95   2
  -9   0  -4 1.97511 5.03739   2
   0   9  -4 -0.2290  4.9238   2
   9   0  -4 7.88555 5.02843  10
   0  -9  -4 -2.2969  6.0868   6
   0  -9  -4 0.91254 1.38760   1
   9   0  -4 -4.3042  4.7749   2
   0   9  -4 1.89047 7.05749  11
   1   9  -4 164.885  14.035  11
  -9   1  -4 145.887  10.074   2
   9  -1  -4 145.085  11.045  10
   9  -1  -4 143.581  10.709   2
   1   9  -4 147.105  11.351   4
   1   9  -4 147.348  10.635   2
  -1  -9  -4 151.265   6.273   1
  -1  -9  -4 138.426  12.865   6
  -1   9  -4 148.078  13.764  11
   9   1  -4 145.735  10.627   2
   1  -9  -4 146.794   6.284   1
  -1   9  -4 157.384  10.383   2
  -9  -1  -4 142.361   9.906   2
   1  -9  -4 142.976  11.844   6
   9  -2  -4 4.13371 5.38868   2
  -2  -9  -4 1.47452 7.05116   6
  -2  -9  -4 1.97283 1.33352   1
   2   9  -4 1.74187 5.25903   2
  -9   2  -4 1.55728 4.83465   2
   9  -2  -4 3.81090 5.88339  10
   2   9  -4 -4.1528  6.5362  11
  -9  -2  -4 1.99263 1.53315   1
  -2   9  -4 0.26538 4.62300   2
   9   2  -4 -1.0135  5.0877   2
   2  -9  -4 3.97763 1.50782   1
   2   9   4 3.33647 5.21689   9
  -2   9  -4 15.9017  7.0840  11
  -9  -2  -4 -4.0300  4.4491   2
   2  -9  -4 -1.6590  5.1287   6
  -3  -9  -4 366.274  20.584   6
  -3  -9  -4 375.210  13.241   1
   9  -3  -4 395.322  19.117  10
   9  -3  -4 382.853  17.893   2
   3   9  -4 355.142  19.797  11
  -9   3  -4 370.082  16.313   2
   3   9  -4 381.142  17.573   2
  -3   9  -4 361.098  16.195   2
  -9  -3  -4 367.752  13.401   1
   3  -9  -4 382.395  13.373   1
   9   3  -4 389.668  17.392   2
  -3   9  -4 377.407  19.845  11
  -9  -3  -4 387.523  16.645   2
  -9   4  -4 -3.5345  4.0143   2
   4   9  -4 2.14518 5.62596  11
  -4  -9  -4 1.00578 6.13828   6
  -4  -9  -4 1.85699 1.28110   1
   9  -4  -4 -0.4337  5.6362  10
   4   9  -4 -3.2778  4.8309   2
   9  -4  -4 -10.501   4.460   2
  -4   9  -4 -7.0560  3.8356   2
   4  -9  -4 -8.6731  4.0871   8
   4  -9  -4 0.56053 1.24941   1
   4   9   4 -5.4904  5.0940   9
  -4   9  -4 14.4187  5.9936  11
  -9  -4  -4 -5.1907  4.2103   2
   9   4  -4 1.33774 4.77552   2
  -9  -4  -4 2.02371 1.28353   1
  -5  -9  -4 285.760  15.491   6
   5   9  -4 302.049  14.365   2
   9  -5  -4 295.665  14.212   2
  -5  -9  -4 293.955  10.291   1
   9  -5  -4 294.107  15.653  10
  -9   5  -4 283.779  12.767   2
   5  -9  -4 248.905  14.700   8
   9   5  -4 303.548  14.218   2
  -9  -5  -4 284.554  10.428   1
   5  -9  -4 268.781  14.177  10
   5  -9  -4 290.482  10.315   1
  -5   9  -4 283.539  12.769   2
   5   9   4 315.207  15.881   9
  -9   6  -4 1.87562 3.24585   2
   9  -6  -4 5.16116 4.15146   2
   6   9  -4 6.09915 4.83676   2
   6   9  -4 3.21883 6.78319   4
  -6  -9  -4 3.10467 1.16815   1
   9  -6  -4 3.55337 4.94758  10
   6   9   4 4.37630 5.52899   9
  -6   9  -4 2.33537 3.54990   2
   6  -9  -4 1.12931 4.35344   8
   6  -9  -4 2.70230 4.34964  10
   9   6  -4 1.79419 4.70584   2
  -9  -6  -4 6.00787 1.32285   1
  -9   7  -4 83.2601  5.3146   2
   9  -7  -4 90.9490  6.7130   2
   9  -7  -4 83.9656  7.4962  10
   7   9  -4 83.1028  9.2142   4
   7   9  -4 86.2950  7.0826   2
   7  -9  -4 84.1393  6.9959  10
   9   7  -4 85.8615  7.7468   4
   7  -9  -4 87.1384  7.6891   8
  -9  -7  -4 90.4405  3.8859   1
   7   9   4 112.886   8.817   9
  -7   9  -4 95.5576  5.7837   2
   9   7  -4 89.2960  7.1146   2
   8   9  -4 8.32030 4.71737   4
   9   8   4 11.2517  4.4780   9
   9  -8  -4 13.6901  3.2772   2
   9  -8  -4 4.27708 3.70323  10
   8   9  -4 0.01948 3.45726   2
   9  -8  -4 14.9734  4.0676   8
   8  -9  -4 11.3533  3.6584  10
   8  -9  -4 5.22119 3.09334   2
   8  -9  -4 8.84078 3.71268   8
   9   8  -4 8.61359 3.50958   2
   8   9   4 2.47098 4.13464   9
   9   8  -4 -2.6120  4.1908   4
   0 -10  -4 1176.60   45.26   6
 -10   0  -4 1118.90   40.92   2
   0  10  -4 1207.13   41.54   2
   0 -10  -4 1166.54   38.25   1
  10   0  -4 1209.40   42.35   2
   0  10  -4 1133.49   47.65  11
 -10   1  -4 55.5105  6.3473   2
   1  10  -4 47.3364  6.5287   2
  -1 -10  -4 37.1591  7.5650   6
  10  -1  -4 55.0600  7.0122  10
  -1 -10  -4 44.6000  2.8373   1
  10  -1  -4 31.2064  6.4198   2
   1  10  -4 46.1907  8.2862  11
 -10  -1  -4 41.3902  3.1997   1
  -1  10  -4 34.2200  5.7285   2
   1 -10  -4 53.4914  7.3757   6
   1 -10  -4 39.4786  2.9399   1
  10   1  -4 48.1931  6.7641   2
  -1  10  -4 43.5411  8.4859  11
 -10  -1  -4 32.2999  5.5005   2
   2  10  -4 1482.47   59.94  11
  10  -2  -4 1521.60   55.88  10
  10  -2  -4 1569.25   53.82   2
 -10   2  -4 1517.80   52.54   2
   2  10  -4 1595.86   53.53   2
  -2 -10  -4 1619.04   59.03   6
   2  10  -4 1582.81   58.91   4
  -2 -10  -4 1510.01   50.04   1
  -2  10  -4 1511.00   59.89  11
   2 -10  -4 1510.92   56.97   6
 -10  -2  -4 1553.23   50.39   1
   2  10   4 1530.65   54.98   9
  10   2  -4 1562.12   53.85   2
   2 -10  -4 1549.83   50.09   1
 -10  -2  -4 1583.31   52.94   2
  -2  10  -4 1563.24   52.73   2
 -10   3  -4 12.1657  4.4001   2
  10  -3  -4 -0.5128  5.2959  10
  10  -3  -4 7.30050 4.95765   2
  -3 -10  -4 11.1432  6.4335   6
   3  10  -4 8.61881 5.15635   2
   3  10  -4 5.18464 6.03244   4
   3 -10  -4 14.9509  1.7664   1
  10   3  -4 17.9726  5.3760   2
   3  10   4 18.5678  5.9801   9
 -10  -3  -4 16.5146  4.6727   2
  -3  10  -4 2.73153 5.43960  11
  -3  10  -4 4.01429 4.13069   2
 -10  -3  -4 22.2672  2.2039   1
  10  -4  -4 1597.38   54.98  10
  -4 -10  -4 1441.42   56.34   6
  10  -4  -4 1529.38   52.29   2
   4  10  -4 1559.07   58.04   4
 -10   4  -4 1502.60   50.69   2
   4  10  -4 1495.89   52.20   2
   4 -10  -4 1467.79   48.83   1
  10   4  -4 1518.39   52.37   2
   4  10   4 1523.99   53.88   9
 -10  -4  -4 1528.22   49.09   1
  10  -5  -4 79.2028  7.5137  10
  10  -5  -4 84.9858  7.0143   2
 -10   5  -4 75.0661  5.2544   2
  -5 -10  -4 66.8563  7.2854   6
   5  10  -4 83.1295  8.9429   4
   5  10  -4 90.2155  7.4134   2
  10  -5  -4 74.8940  7.4419   8
 -10  -5  -4 81.0384  3.7587   1
  10   5  -4 74.7232  7.2303   2
  -5  10  -4 81.3146  5.8165   2
   5  10   4 90.7024  8.6653   9
   6  10  -4 1498.82   50.70   2
   6  10  -4 1537.64   56.67   4
  10  -6  -4 1570.88   53.01  10
  10  -6  -4 1490.18   50.44   2
  10  -6  -4 1490.10   56.47   8
   6  10   4 1516.32   52.54   9
  10   6  -4 1532.95   50.84   2
   6 -10  -4 1386.76   55.72   8
  -6  10  -4 1502.36   49.23   2
 -10  -6  -4 1482.63   48.22   1
  10  -7  -4 41.2402  4.9542  10
  10  -7  -4 36.3509  4.8389   8
   7  10  -4 41.2741  5.9194   4
   7 -10  -4 42.4618  4.7735   8
 -11   0  -4 -0.7807  3.4334   2
  11   0  -4 -2.1056  4.2224   2
   0  11  -4 -5.3654  3.6732   2
   0 -11  -4 -2.0559  4.4334   6
 -11   0  -4 1.02541 1.31657   1
  -1 -11  -4 157.647  10.410   6
   1  11  -4 152.124   8.960   2
 -11   1  -4 146.639   5.937   1
  11  -1  -4 139.541   9.491   2
 -11   1  -4 146.289   7.857   2
 -11  -1  -4 157.780   6.213   1
   1 -11  -4 150.296   9.871   6
  -1  11  -4 158.649   8.573   2
 -11  -1  -4 125.364   8.097   2
  11   1  -4 159.696   9.805   2
 -11   2  -4 -0.3404  2.8637   2
   2  11  -4 0.30662 3.80037   2
  11  -2  -4 5.30812 4.25722   2
  -2 -11  -4 -6.5966  4.3861   6
   2  11   4 4.05955 4.60157   9
  11   2  -4 1.54579 4.21593   2
 -11  -2  -4 1.81979 3.38976   2
   2 -11  -4 3.21569 4.12695   6
 -11  -2  -4 2.78258 1.41317   1
  -2  11  -4 6.17570 3.65949   2
 -11   3  -4 42.6585  3.8515   2
  -3 -11  -4 29.5722  5.9310   6
   3  11  -4 35.5361  5.0704   2
  11  -3  -4 45.6025  5.6594  10
   3  11  -4 41.6415  6.2135   4
  11  -3  -4 37.8939  5.3008   2
  -3  11  -4 39.0981  4.3359   2
   3  11   4 51.9776  6.2349   9
  11   3  -4 41.4449  5.7154   2
 -11  -3  -4 37.8593  2.4980   1
   4  11  -4 11.8961  4.7028   4
  11  -4  -4 7.76820 3.86028   2
  11  -4  -4 3.93554 4.04794  10
   4  11  -4 0.58255 3.54968   2
   4  11   4 0.98551 4.21447   9
  11   4  -4 4.46717 3.95371   2
  -4  11  -4 -1.8461  2.6403   2
 -11  -4  -4 1.32101 1.11951   1
  11  -5  -4 34.8828  4.4991   8
   5  11  -4 41.1617  4.3902   2
   5  11  -4 40.2003  5.4617   4
  11  -5  -4 32.1972  4.0931   2
  11  -5  -4 41.5693  4.9196  10
  11   5  -4 40.6725  4.7953   2
 -11  -5  -4 40.1669  2.2161   1
  12   0  -4 732.904  26.164   2
  12  -1  -4 -1.6718  3.5104   2
 -12   1  -4 -0.0675  0.7970   1
  12   1  -4 0.71169 3.43004   2
 -12  -1  -4 1.18941 1.05531   1
 -12  -2  -4 1353.92   43.17   1
  12   2  -4 1324.04   45.13   2
   0   0  -5 3.43591 3.78460   3
   0   0  -5 -3.7673  4.3463   5
   0   0  -5 -0.2611  3.8636  11
   0  -1  -5 4.70109 4.58654   5
   0   1  -5 3.74292 4.13502  11
   0   1  -5 -3.3228  4.3549   5
   0  -1  -5 0.19651 3.48661   3
   1   0  -5 3.34703 4.39569   5
   1   0  -5 5.98785 4.33393  11
  -1   0  -5 4.48713 3.95127   3
   0  -1  -5 -1.8020  3.7955  11
   1   1  -5 -2.6422  4.0540   5
  -1   1  -5 6.69480 3.88364  11
   1  -1  -5 -1.0443  4.2981   5
   1   1  -5 -1.0788  4.1736  11
  -1   1  -5 3.42393 4.34891   5
   1  -1  -5 -4.5545  3.9889  11
   1  -1  -5 -6.1936  3.2722   3
  -1  -1  -5 -0.5738  3.6409   3
  -2   0  -5 322.287  13.982   3
   2   0  -5 308.061  15.028   5
   2   0  -5 306.354  14.999  11
   0   2  -5 289.420  14.542  11
   0  -2  -5 312.292  13.538   3
   0   2  -5 301.026  14.939   5
   0  -2  -5 303.273  14.643   5
   2  -1  -5 8.75687 4.73612  11
   1   2  -5 1.19436 4.18044   5
   2  -1  -5 2.67029 4.75092   5
  -1  -2  -5 5.18820 3.82501   3
   1   2  -5 8.58970 4.60370  11
  -1   2  -5 3.21160 4.11784  11
   1  -2  -5 -3.2592  4.1647   5
   1  -2  -5 0.02358 3.40466   3
  -2  -1  -5 0.29949 3.93057   3
   2   1  -5 -0.0125  4.4168  11
   2   1  -5 -2.4229  4.2624   5
   2   2  -5 -4.7939  4.1151   5
  -2   2  -5 -4.8390  4.3248   6
  -2  -2  -5 1.09065 4.02282   3
   2   2  -5 -0.7884  4.7613  11
   2  -2  -5 3.84659 4.73841   5
  -2  -2  -5 1.00404 4.22990   6
   3   0  -5 1.73072 4.65944  11
   0   3  -5 3.14980 4.44033   5
  -3   0  -5 4.34740 4.08801   6
   3   0  -5 -5.2558  4.9513   5
  -3   0  -5 5.25227 4.15404   3
   0  -3  -5 5.28606 5.03764   6
   0   3  -5 7.14545 5.02110  11
   0   3  -5 -15.064   4.371   6
   0  -3  -5 5.83043 4.15549   3
  -3   1  -5 1.04452 4.10277   6
   3  -1  -5 5.69651 5.63020   5
  -1  -3  -5 5.90131 4.82516   6
  -1  -3  -5 4.67988 4.24272   3
   1   3  -5 8.82389 4.63182   5
   3  -1  -5 -1.6361  4.6088  11
   1   3  -5 5.14309 4.86476  11
  -1   3  -5 -2.4736  4.5696  11
  -3  -1  -5 4.34310 4.19827   6
   3   1  -5 2.41421 5.27182   5
  -3  -1  -5 2.93697 4.01445   3
   1  -3  -5 2.51507 4.33429   5
   1  -3  -5 8.14082 5.05861   6
   3   1  -5 2.68067 4.78512  11
  -1   3  -5 4.74369 4.70786   6
  -3   2  -5 120.327   9.380   7
  -2  -3  -5 127.774   9.215   6
   2   3  -5 113.944   8.904   5
  -2  -3  -5 99.8740  8.4213   3
   3  -2  -5 106.274   9.274   5
   2   3  -5 112.790   9.257  11
  -3   2  -5 112.573   8.744   6
   2  -3  -5 103.674   8.371   5
  -2   3  -5 118.116   9.145  11
  -2   3  -5 110.821   9.094   6
  -3  -2  -5 114.097   8.655   3
   3   2  -5 117.260   9.399   5
  -3  -2  -5 109.757   8.369   6
   3   2  -5 116.272   9.315  11
   2  -3  -5 105.562   8.738   6
  -3   3  -5 -6.0563  4.6573   7
  -3  -3  -5 -5.3738  4.1734   3
  -3   3  -5 1.12150 4.84228   6
   3   3  -5 -2.4735  5.2074  11
   3  -3  -5 5.34146 4.61503   5
  -3  -3  -5 1.44515 4.44958   6
   3   3  -5 -2.7419  4.2844   5
   0  -4  -5 151.734  11.276   6
   0  -4  -5 137.515   9.864   3
   0   4  -5 136.834  10.752  11
  -4   0  -5 158.282  10.883   7
   4   0  -5 140.205  10.588  11
  -4   0  -5 136.934   9.272   3
  -4   0  -5 115.804   8.571   6
   0   4  -5 134.236   9.190   5
   4   0  -5 152.487  12.068   5
  -4   1  -5 -4.9400  4.7796   7
  -1  -4  -5 0.27746 4.31652   3
   1   4  -5 1.52250 5.35587  11
   4  -1  -5 3.09399 6.36779   5
   1   4  -5 0.89166 4.18453   5
  -4   1  -5 -2.3944  3.8884   6
  -1  -4  -5 1.47186 4.92342   6
  -4  -1  -5 1.89652 3.96403   3
  -1   4  -5 10.7681  5.8760  11
   4   1  -5 -1.1503  4.9300  11
  -4  -1  -5 -2.6203  3.7214   6
   1  -4  -5 -3.6219  5.6098   6
  -4  -1  -5 -1.2617  5.4734   7
   4   1  -5 -5.9694  5.2889   5
   4  -2  -5 177.093   8.783   2
   2   4  -5 193.060  12.343  11
   4  -2  -5 181.377  13.070   5
   4  -2  -5 162.092  11.085  10
  -4   2  -5 190.621  11.024   6
  -2  -4  -5 182.866   6.863   1
  -2  -4  -5 178.819  11.691   6
  -2  -4  -5 178.197  11.058   3
   2   4  -5 156.340   8.477   2
  -4   2  -5 180.066  11.652   7
   2   4  -5 178.867  10.761   5
  -4  -2  -5 190.501  11.178   3
  -4  -2  -5 177.156   6.849   1
   4   2  -5 194.762  12.235  11
   2  -4  -5 172.374   6.990   1
  -4  -2  -5 186.818  10.520   6
   4   2  -5 196.254  12.286   5
   4   2  -5 173.252   8.689   2
   2  -4  -5 182.669  12.059   6
  -2   4  -5 188.836  12.414  11
   3   4  -5 21.1796  6.1144  11
  -4   3  -5 21.0216  6.2279   7
  -3  -4  -5 17.8828  5.4341   3
   4  -3  -5 19.3331  5.9449   5
   3   4  -5 50.4577 10.7764   4
   4  -3  -5 22.9483  2.3005   1
  -3  -4  -5 28.5492  5.7923   6
   4  -3  -5 30.3410  6.3298  10
   4  -3  -5 20.1187  6.8073   8
   3   4  -5 16.7322  4.0361   2
  -3  -4  -5 21.9435  2.0625   1
   3   4  -5 13.4947  5.1210   5
   4  -3  -5 23.3441  4.9077   2
   4   3  -5 30.2276  8.1101   4
   4   3  -5 24.6988  6.2080   5
   3  -4  -5 24.6364  6.5564   8
   4   3  -5 27.7407  4.3519   2
  -4  -3  -5 12.9311  4.9964   3
   3  -4  -5 20.0312  2.2742   1
   4   3  -5 21.2259  6.2909  11
  -4  -3  -5 25.7427  2.2370   1
  -4  -3  -5 25.5072  5.3949   6
   3  -4  -5 18.1905  5.7608  10
   4   4  -5 -5.7213  8.7112   4
   4  -4  -5 3.43654 6.60262  10
   4   4  -5 -2.2716  5.4187  11
   4   4  -5 2.51023 4.10646   2
   4  -4  -5 0.92946 1.50322   1
  -4  -4  -5 1.71445 1.22775   1
  -4  -4  -5 0.02428 4.46757   6
  -4  -4  -5 4.85536 5.00623   3
   4   4  -5 5.68396 4.75321   5
  -4   4  -5 -5.6602  4.5638   7
   5   0  -5 4.35195 7.71718   5
   5   0  -5 3.80170 3.72740   2
   0  -5  -5 1.68166 1.16349   1
   5   0  -5 2.81430 4.56522  10
  -5   0  -5 1.15673 4.24428   3
   0  -5  -5 0.96445 7.08857   6
   5   0  -5 4.00469 5.14249  11
   0  -5  -5 -2.2746  5.0797   3
  -5   0  -5 0.28151 1.34366   1
   0   5  -5 -1.2808  6.0702  11
  -5   0  -5 5.36376 5.32408   7
   0   5  -5 -5.4081  3.4464   2
  -5   1  -5 61.4933  7.9499   7
   1   5  -5 65.2900  5.9049   2
   5  -1  -5 72.1467 10.9479   5
   1   5  -5 73.2342  8.9813  11
   1   5  -5 65.7596  6.9357   5
   5  -1  -5 71.3917  5.9359   2
   1   5  -5 52.2737  9.9922   4
   5  -1  -5 73.4727  8.0280  10
  -1  -5  -5 65.5208  7.7899   3
  -1  -5  -5 65.2022  8.5479   6
  -1  -5  -5 61.4462  3.3575   1
  -5  -1  -5 65.8005  3.5475   1
   1  -5  -5 62.5902  9.7350   6
  -5  -1  -5 64.6517  6.6815   6
  -1   5  -5 77.0968  6.1029   2
   1  -5  -5 62.6771  3.4957   1
   5   1  -5 56.2166  7.7296  11
  -1   5  -5 65.7781  9.5997  11
   5   1  -5 85.9954 10.3159   5
   5   1  -5 63.6327  5.6676   2
  -5  -1  -5 56.9724  6.8116   3
   2   5  -5 -6.2184  3.8960   5
   2   5  -5 0.64487 3.71106   2
   2   5  -5 10.6026  6.1014  11
   5  -2  -5 10.7275  5.9913   8
   5  -2  -5 2.75410 5.26298  10
  -2  -5  -5 -5.9628  4.6153   3
   5  -2  -5 11.3274  7.1726   5
   2   5  -5 -8.9257  9.4070   4
  -5   2  -5 4.68632 5.47291   7
  -2  -5  -5 0.49393 1.14369   1
   5  -2  -5 1.01156 1.39637   1
   5  -2  -5 8.07961 4.12983   2
  -2  -5  -5 -0.0415  5.2393   6
  -5  -2  -5 1.41393 4.20360   3
   5   2  -5 0.94170 5.35739  11
   5   2  -5 0.60552 5.99290   4
  -5  -2  -5 0.47112 1.28974   1
  -5  -2  -5 2.33858 4.14380   6
  -2   5  -5 12.0272  7.1281  11
   2  -5  -5 11.8308  6.9064   6
   5   2  -5 3.07491 5.72257   5
   5   2  -5 -1.8422  3.4922   2
   2  -5  -5 -4.0522  5.3865   8
   2  -5  -5 2.34307 1.39848   1
  -2   5  -5 2.59383 4.17091   2
  -3  -5  -5 9.74774 1.64459   1
   5  -3  -5 7.40462 1.74303   1
   5  -3  -5 20.0504  7.0648  10
  -3  -5  -5 15.0743  5.3394   3
   5  -3  -5 7.13206 4.71703   2
  -5   3  -5 10.0742  5.4382   7
   3   5  -5 5.39032 4.40235   5
   3   5  -5 8.72153 5.70686  11
   3   5  -5 7.79273 4.26089   2
   3   5  -5  8.2706 12.6926   4
  -3  -5  -5 22.0684  5.8534   6
   5   3  -5 12.5889  4.3282   2
  -5  -3  -5 6.81147 4.87552   3
   3  -5  -5 14.2291  7.2199   8
  -5  -3  -5 19.3984  5.0942   6
  -5  -3  -5 13.0884  1.8321   1
   5   3  -5 9.52209 5.99217  11
   3  -5  -5 11.8558  1.9691   1
  -3   5  -5 18.5824  8.9037  11
   5   3  -5 3.50615 5.40154   5
   5   3  -5 10.0591  7.1029   4
  -3   5  -5 10.3204  4.5570   2
   3  -5  -5 8.44738 7.38820  10
   4   5  -5 20.4871  5.5468   5
   5  -4  -5 20.4506  8.1803  10
  -5   4  -5 7.87206 5.39877   7
  -4  -5  -5 19.3136  5.9635   6
   5  -4  -5 11.4817  1.9035   1
   4   5  -5 -1.3902 11.5546   4
  -5   4  -5 7.97095 4.67088   2
   4   5  -5 16.4435  4.7507   2
  -4  -5  -5 16.4452  5.3351   3
   4   5  -5 14.4401  6.4488  11
  -4  -5  -5 15.5688  1.9260   1
  -5  -4  -5 15.6751  5.4101   3
   4  -5  -5 32.6400 11.3133  10
   5   4  -5 8.34496 6.11509  11
  -5  -4  -5 14.9575  1.9233   1
   5   4  -5 16.4168  6.2714   5
  -4   5  -5 22.3576  5.0214   2
   5   4  -5 18.5030  8.6877   4
  -4   5  -5 21.0833  5.8721   7
   5   4  -5 22.3730  5.0845   2
   4  -5  -5 22.0797  2.3410   1
  -5  -4  -5 19.4269  5.1522   6
   5   5  -5 -5.2422  4.4064   2
  -5   5  -5 0.55491 4.38387   2
  -5   5  -5 -5.6735  4.1844   7
   5  -5  -5 -5.3259  8.0481  10
   5   5  -5 2.27059 5.61038  11
   5   5  -5 1.84341 5.00082   5
  -5  -5  -5 0.95477 1.32647   1
   5   5  -5 7.57405 9.14410   4
  -5  -5  -5 -1.2475  4.8134   6
   5  -5  -5 0.87137 1.38215   1
  -6   0  -5 150.845   6.196   1
   6   0  -5 131.511  10.444  10
   0  -6  -5 161.856  17.032   6
   0   6  -5 141.419   8.671   2
   0  -6  -5 159.729  13.153   3
   0   6  -5 127.932  12.808  11
   0   6  -5 118.260  11.046   4
   6   0  -5 147.882  17.002   5
   6   0  -5 140.296   9.001   2
   0  -6  -5 138.300   5.892   1
   6  -1  -5 2.52183 4.13962   2
   1   6  -5 6.80307 7.21013   4
  -1  -6  -5 -0.2233  1.0946   1
  -1  -6  -5 5.03716 5.97543   3
  -1  -6  -5 -14.670   6.904   6
   6  -1  -5 -5.9658  8.2999   5
   6  -1  -5 -11.760   4.849   8
   1   6  -5 -1.1708  6.2750  11
   1   6  -5 7.26448 4.41810   2
   6  -1  -5 -0.5329  5.6146  10
   6   1  -5 -0.4984  5.3492  11
  -6  -1  -5 -0.3447  1.4343   1
   1  -6  -5 -1.4221  1.2413   1
  -6  -1  -5 6.98231 4.55657   3
  -1   6  -5 -4.9406  7.1825  11
  -1   6  -5 -0.6401  3.9609   2
   1  -6  -5 -3.3596  4.9641   8
   6   1  -5 3.20626 7.47242   5
   1  -6  -5 3.31578 8.82963   6
   6   1  -5 -3.1868  3.7796   2
   6  -2  -5 101.829   8.124   2
   6  -2  -5 113.776  11.232   8
  -2  -6  -5 95.0286  4.6304   1
   2   6  -5 107.668  10.549  11
  -6   2  -5 106.344   9.490   7
  -2  -6  -5 95.6865  9.8164   3
   2   6  -5 101.904   7.826   2
   2   6  -5 86.5721 12.8363   4
   6  -2  -5 96.8426 10.0259  10
   6  -2  -5 104.572   4.742   1
   6  -2  -5 113.613  12.347   5
  -2  -6  -5 99.3456 10.9331   6
   2  -6  -5 106.435  11.576   6
   2  -6  -5 98.0157  4.8891   1
  -6  -2  -5 96.3799  8.7055   3
  -6  -2  -5 117.275   7.316   2
  -2   6  -5 117.841   7.671   2
   2  -6  -5 110.185  10.821   8
   6   2  -5 84.8468  9.4908  11
   6   2  -5 121.730   8.056   2
   6   2  -5 104.936  10.981   5
  -6  -2  -5 100.920   4.818   1
  -2   6  -5 106.512  13.240  11
   6  -3  -5 70.7790  7.2770   2
  -6   3  -5 67.8763  7.8622   7
  -6   3  -5 75.0651  6.6271   2
  -3  -6  -5 69.3911  3.6540   1
  -3  -6  -5 70.5647  8.9136   6
   3   6  -5 62.5431  8.8287  11
   6  -3  -5 64.2541  3.6371   1
   3   6  -5 80.5537 16.8468   4
   6  -3  -5 76.2826  9.8748  10
   3   6  -5 81.6735  7.1046   2
   3  -6  -5 65.3729  3.9181   1
  -3   6  -5 66.9976  6.2934   2
   6   3  -5 85.7251  9.5073   5
   3  -6  -5 60.5229 10.0720   8
   6   3  -5 70.2337  9.0642   4
  -6  -3  -5 65.2052  3.7205   1
  -3   6  -5 58.4750 14.5068  11
   6   3  -5 64.4354  8.5947  11
   6   3  -5 69.4167  6.7933   2
   4   6  -5 103.000  22.342   4
   6  -4  -5 75.8163  4.1985   1
   4   6  -5 86.6363  7.7460   2
  -6   4  -5 81.0517  8.0378   7
   6  -4  -5 75.4069  8.1129   2
  -4  -6  -5 82.3974  8.8517   6
   4   6  -5 67.1404  9.3532  11
  -6   4  -5 87.0162  7.0007   2
  -4  -6  -5 93.7794  4.2789   1
   6  -4  -5 80.1622 10.8626  10
  -4   6  -5 76.7071  7.8437   7
  -6  -4  -5 88.0295  4.3164   1
   4  -6  -5 82.0668 11.2413   8
   6   4  -5 71.8131 10.0227   4
   4  -6  -5 140.340  20.584  10
   6   4  -5 71.9220  9.4085  11
   6   4  -5 82.3653  9.2474   5
   6   4  -5 92.2892  7.6227   2
  -4   6  -5 79.0406  6.7626   2
   4  -6  -5 82.1309  4.3785   1
  -6   5  -5 35.4523  5.5240   2
   6  -5  -5 26.0543  2.5716   1
  -5  -6  -5 28.7150  2.5169   1
  -5  -6  -5 24.1183  6.0580   6
   5   6  -5 16.5583 10.5119   4
  -6   5  -5 29.4530  5.7044   7
   5   6  -5 29.6712  5.7612   2
   6  -5  -5 37.5520  9.0538  10
   5   6  -5 22.7093  6.7644  11
   6  -5  -5 33.7317  6.7435   2
   6   5  -5 18.1952  6.6958  11
  -5   6  -5 30.6897  5.4360   2
   6   5  -5 27.1833  5.9416   2
   6   5  -5 26.6229  8.9043   4
   5  -6  -5 21.7770  9.1877  10
  -6  -5  -5 27.2740  2.5080   1
   5  -6  -5 30.7937  2.6589   1
   6   6  -5 8.83717 8.31931   4
  -6   6  -5 4.67707 3.96524   2
   6   6  -5 -5.8693  4.3896   2
  -6  -6  -5 -0.5708  1.2865   1
   6  -6  -5 1.69346 1.43577   1
   6  -6  -5 -3.3425  6.2314  10
   6   6  -5 -10.130   5.510  11
   0   7  -5 -7.0655  7.2154  11
   0   7  -5 3.98238 3.97968   2
  -7   0  -5 -2.3664  1.4937   1
   0  -7  -5  4.8256 18.0621   6
   7   0  -5 0.54281 4.97118  10
   0  -7  -5 -1.4818  1.2875   1
  -7   0  -5 -4.7595  3.8701   2
   7   0  -5 16.0465 21.3131   5
   0   7  -5 -10.004   5.206   4
   7   0  -5 -3.3835  4.2529   2
  -1  -7  -5 137.092   5.994   1
   1   7  -5 141.579   9.405   2
   7  -1  -5 143.013   9.680   2
   7  -1  -5 147.909  11.843  10
  -7   1  -5 145.899   8.689   2
  -1  -7  -5 186.975  18.921   6
   1   7  -5 140.526  13.183  11
   1   7  -5 135.989  12.136   4
   7  -1  -5 133.688  15.873   5
  -1   7  -5 122.323   8.467   2
   1  -7  -5 126.739  14.430   6
  -7  -1  -5 134.851   8.539   2
   7   1  -5 136.330   9.382   2
  -7  -1  -5 145.204   6.309   1
  -1   7  -5 160.321  14.893  11
   1  -7  -5 141.138   6.122   1
   7   1  -5 161.732  16.635   5
   7  -2  -5 12.9356  5.5178   2
  -7   2  -5 3.02204 4.55338   2
  -2  -7  -5 8.99411 1.67144   1
   7  -2  -5 -1.2371  6.1958   8
  -2  -7  -5 1.02264 7.78738   6
   7  -2  -5 4.96381 6.88684  10
   2   7  -5 11.9214  6.9750  11
   7  -2  -5 -2.8379  7.1433   5
   2   7  -5 5.50018 7.50268   4
   2   7  -5 11.4740  5.0825   2
   2  -7  -5 5.71886 1.78538   1
  -7  -2  -5 6.73780 1.82412   1
  -7  -2  -5 7.87697 4.18300   2
  -2   7  -5 5.14393 8.77094  11
   7   2  -5 9.64492 7.13653   5
   2  -7  -5 7.62320 7.35151   6
  -2   7  -5 7.93298 4.03023   2
   2  -7  -5 -1.9870  6.3000   8
   7   2  -5 2.54994 4.57027   2
   3   7  -5 20.8668  5.6341   2
   7  -3  -5 17.1572  5.7963   2
  -3  -7  -5 14.1638  7.6448   6
   3   7  -5 14.3248  7.1483  11
   7  -3  -5 11.6685  7.5604  10
  -3  -7  -5 13.6970  1.9188   1
   3   7  -5 0.10175 8.33787   4
  -7   3  -5 13.3295  4.5430   2
   7   3  -5 17.3692  6.3692  11
  -3   7  -5 12.3313  4.3288   2
   7   3  -5 15.2067  5.1211   2
   3  -7  -5 9.37945 1.95700   1
  -7  -3  -5 15.3308  2.1188   1
  -3   7  -5 18.1410  9.6092  11
   3  -7  -5 24.5579  7.7430   8
  -7   4  -5 1.03986 4.29122   2
  -4  -7  -5 4.21221 1.45302   1
  -4  -7  -5 7.53003 6.10152   6
   7  -4  -5 9.04804 5.54865   2
   4   7  -5 -1.8310  6.0338  11
   4   7  -5 7.91511 5.12234   2
   4   7  -5 -3.8027  9.8118   4
   7  -4  -5 -0.9281  7.2974  10
   7   4  -5 2.47518 4.78205   2
   4  -7  -5 1.20040 1.48213   1
   4  -7  -5 16.9889  7.6621   8
  -4   7  -5 0.35091 3.89454   2
   7   4  -5 8.11249 5.80452  11
  -7  -4  -5 0.42932 1.36100   1
   4  -7  -5 -2.0622  6.8322  10
   7   4  -5 2.50180 6.35983   4
   7  -5  -5 54.7170  7.2677   2
   7  -5  -5 59.2688  9.2511  10
  -5  -7  -5 53.7464  3.2875   1
  -5  -7  -5 48.5885  7.2378   6
  -7   5  -5 46.7243  5.3073   2
   5   7  -5 57.1067  8.5477  11
   5   7  -5 46.8105  6.6495   2
   5   7  -5 52.6883 11.2151   4
  -5   7  -5 56.4213  5.5024   2
  -7  -5  -5 51.1032  3.2383   1
   5  -7  -5 45.7915  7.9960  10
   7   5  -5 66.1170  7.1247   2
   5  -7  -5 47.8962  3.2774   1
   7   5  -5 47.1959  7.7631  11
   5  -7  -5 53.3137  9.2177   8
   7   5  -5 61.0185  9.5540   4
   7  -6  -5 9.62954 5.08285   2
  -7   6  -5 7.44358 3.29464   2
   6   7  -5 -2.1611  7.5854   4
   7  -6  -5 3.80138 5.89083   8
  -6  -7  -5 9.75319 1.73617   1
   7  -6  -5 11.6805  6.4285  10
   6   7  -5 20.3030  5.1172   2
   6   7  -5 -0.9680  5.8362  11
   7   6  -5 3.47638 7.04690   4
   6  -7  -5 2.16131 5.98908   8
   7   6  -5 9.23540 4.95090   2
   6  -7  -5 3.69564 5.36223  10
   6  -7  -5 9.64136 1.64332   1
  -7  -6  -5 9.08511 1.70069   1
  -6   7  -5 0.69390 3.30716   2
   7   6  -5 13.8391  6.0013  11
   7  -7  -5 3.18287 4.16589   2
   7   7  -5 1.30399 6.84149   4
  -7  -7  -5 0.13517 1.16835   1
   7  -7  -5 5.57225 5.55621   8
   7  -7  -5 -8.5807  4.9511  10
   7   7  -5 8.04692 4.64543   2
   0  -8  -5 18.1704  2.2362   1
   0   8  -5 15.7800  4.9071   2
  -8   0  -5 14.5213  2.4969   1
   8   0  -5 14.7444  5.5751   2
   0   8  -5 15.2558  8.9730  11
  -8   0  -5 19.1227  5.0406   2
   0  -8  -5 13.5485  8.7505   6
   8  -1  -5 68.8696  8.8561  10
   1   8  -5 66.2146  8.5914   4
  -8   1  -5 79.4484  6.6065   2
   1   8  -5 68.5092  7.0819   2
  -1  -8  -5 72.5407  3.9622   1
   8  -1  -5 68.1034  7.7146   2
   1   8  -5 81.7369 11.3067  11
  -1  -8  -5 64.3839 11.5238   6
   1  -8  -5 66.1308  4.0096   1
   8   1  -5 77.4501  7.5205   2
  -8  -1  -5 73.5961  4.3797   1
  -1   8  -5 53.9958 10.8847  11
  -1   8  -5 78.7783  6.7748   2
  -8  -1  -5 82.5366  6.9640   2
   1  -8  -5 73.6961 10.1266   6
   8  -2  -5 32.6128  7.9876  10
   2   8  -5 20.1854  5.5736   2
   8  -2  -5 16.0722  5.7161   2
  -8   2  -5 19.6436  4.9271   2
   2   8  -5 30.9267  8.1339  11
   8  -2  -5 16.5460  6.7724   8
  -2  -8  -5 23.9134  9.0700   6
  -2  -8  -5 21.8414  2.2867   1
   2   8  -5 18.1297  6.9438   4
  -2   8  -5 26.2258  8.8898  11
  -2   8  -5 23.7520  4.5789   2
  -8  -2  -5 27.4000  2.7350   1
   2  -8  -5 21.1975  2.4277   1
   8   2  -5 27.2784  5.7008   2
  -8  -2  -5 21.5641  4.9402   2
   2  -8  -5 15.0614  6.8241   6
   8  -3  -5 2.50958 5.38923   2
  -8   3  -5 2.45325 4.22559   2
   3   8  -5 6.17910 6.77270   4
   3   8  -5 0.76902 4.89054   2
   3   8  -5 3.15492 6.56478  11
  -3  -8  -5 0.06319 1.21489   1
   8  -3  -5 -0.8768  6.0874   8
  -3  -8  -5 -3.5269  6.6243   6
   8  -3  -5 1.45174 6.96381  10
   3  -8  -5 -1.6848  1.3499   1
   8   3  -5 -2.2605  4.4991   2
  -3   8  -5 -1.6548  6.3496  11
   3  -8  -5 12.0745  6.3777   8
  -3   8  -5 -2.2054  3.5636   2
  -8  -3  -5 1.10973 1.48875   1
   4   8  -5 91.1543  8.0628   2
   8  -4  -5 82.3630 10.1522   8
   4   8  -5 86.4439 10.9109   4
  -4  -8  -5 85.1845  4.1076   1
   8  -4  -5 67.5054  9.7809  10
  -4  -8  -5 68.0275  9.2668   6
   8  -4  -5 71.9779  8.0130   2
  -8   4  -5 70.8328  5.9065   2
   4   8  -5 98.9259 10.4676  11
   4  -8  -5 88.4128  4.2240   1
   8   4  -5 70.0826  7.5262   2
  -8  -4  -5 77.4035  4.1462   1
   4   8   5 71.6938  8.4965   9
   4  -8  -5 95.8723  9.7431   8
  -4   8  -5 73.4707  5.8966   2
  -4   8  -5 56.7105  8.1454  11
  -5  -8  -5 45.0235  2.9337   1
   5   8  -5 41.0196  7.7197  11
  -5  -8  -5 41.0367  7.0592   6
   8  -5  -5 44.7224  8.3544  10
   5   8  -5 32.4836  8.6724   4
   5   8  -5 33.5750  5.8104   2
   8  -5  -5 32.8531  6.0098   2
   8  -5  -5 38.3634  7.6445   8
   8   5  -5 41.4820  6.0144   2
  -8  -5  -5 39.2803  2.8462   1
  -5   8  -5 34.7837  4.2521   2
   5  -8  -5 42.7779  2.8569   1
   5  -8  -5 38.9520  6.5081  10
   5  -8  -5 43.4911  7.2787   8
   8   5  -5 40.3530  7.4371   4
   5   8   5 38.9053  7.2112   9
   8  -6  -5 -2.9980  5.1760   8
   6   8  -5 5.72593 4.45444   2
   8  -6  -5 1.14657 4.14379   2
   8  -6  -5 -0.0764  5.1883  10
   6   8  -5 4.24687 7.22990   4
  -6  -8  -5 2.62067 1.24330   1
   6  -8  -5 -0.5364  4.5200  10
   8   6  -5 1.67180 4.31881   2
   6  -8  -5 -1.5327  4.8097   8
   6   8   5 8.91472 5.40295   9
   8   6  -5 3.70200 5.90752   4
  -8  -6  -5 1.11521 1.26037   1
   6  -8  -5 -0.3572  1.1591   1
   8  -7  -5 45.9519  6.4721  10
   8  -7  -5 45.9352  6.6076   8
  -7  -8  -5 46.1508  2.6492   1
   7   8  -5 41.4643  7.8864   4
   7   8  -5 40.5498  5.2374   2
   8  -7  -5 44.5523  4.9761   2
  -8  -7  -5 42.8940  2.6365   1
   7  -8  -5 42.0211  5.9087  10
   7  -8  -5 38.0704  4.7441   2
   8   7  -5 40.3837  5.1947   2
   7  -8  -5 34.5660  6.0473   8
   7   8   5 48.7945  6.8631   9
   8   7  -5 47.6574  7.3482   4
   8   8  -5 1.75900 3.20760   2
  -8  -8  -5 -1.2484  0.8755   1
   8   8  -5 1.60886 5.22478   4
   8  -8  -5 -1.7885  3.4550  10
   8  -8  -5 -0.0949  2.6255   2
   8   8   5 -5.7192  4.0419   9
   8  -8  -5 -1.7722  3.7442   8
  -9   0  -5 -0.9497  1.5576   1
   0  -9  -5 1.46021 1.41702   1
   0   9  -5 6.28086 4.09124   2
   9   0  -5 0.32601 4.76675   2
   0   9  -5 5.03823 7.30009  11
   0  -9  -5 -2.4530  6.2509   6
  -9   1  -5 10.0139  1.9366   1
  -1  -9  -5 15.3448  1.9967   1
   1   9  -5 23.1819  6.5469   4
   1   9  -5 22.0830  8.4066  11
   1   9  -5 13.7872  4.7290   2
  -1  -9  -5 16.1850  7.8328   6
   9  -1  -5 12.8845  5.8649  10
   9  -1  -5 19.1285  5.5473   2
  -9  -1  -5 18.7100  2.4621   1
   1  -9  -5 18.9783  2.2280   1
  -1   9  -5 14.9643  4.1826   2
  -1   9  -5 17.9165  8.0680  11
   1  -9  -5 18.1313  6.5996   6
   9   1  -5 22.8793  5.8119   2
   9  -2  -5 5.11243 6.08227  10
   2   9  -5 -0.7910  5.6698   4
   2   9  -5 -3.3512  6.5800  11
   2   9  -5 -5.1675  4.1890   2
  -2  -9  -5 0.63047 1.30085   1
  -2  -9  -5 0.48279 7.21873   6
   9  -2  -5 -5.8806  4.8317   2
  -2   9  -5 -3.3480  3.4343   2
   2  -9  -5 0.40455 1.44414   1
   2  -9  -5 -0.6291  5.2602   6
  -2   9  -5 1.31675 7.09558  11
  -9  -2  -5 -1.3691  1.6058   1
   9   2  -5 -0.8957  4.6686   2
   9  -3  -5 27.6430  5.6977   2
   9  -3  -5 28.7790  7.4864  10
   9  -3  -5 22.9311  6.8263   8
  -3  -9  -5 26.2474  2.3667   1
   3   9  -5 28.6263  7.4053  11
  -3  -9  -5 24.1234  7.7082   6
   3   9  -5 21.7937  7.0265   4
   3   9  -5 23.6539  5.5567   2
  -3   9  -5 20.0608  6.4685  11
  -3   9  -5 24.5442  3.9045   2
   9   3  -5 33.0703  5.9503   2
  -9  -3  -5 28.0105  2.6346   1
   3  -9  -5 30.1966  2.4993   1
   9  -4  -5 -1.1247  5.6381   8
   4   9  -5 -5.1241  5.9453   4
   9  -4  -5 3.43848 6.01713  10
   4   9  -5 -1.9008  4.4388   2
  -4  -9  -5 6.83794 5.99647   6
   9  -4  -5 -1.7409  4.6461   2
  -4  -9  -5 -1.6455  1.1319   1
  -9  -4  -5 1.30886 1.37327   1
   4   9   5 8.77264 5.34365   9
   4  -9  -5 -0.7745  1.1730   1
  -4   9  -5 -1.2085  2.8532   2
   9   4  -5 2.40248 4.43546   2
   4  -9  -5 3.59565 4.54946   8
   5   9  -5 13.7929  6.8179   4
  -5  -9  -5 18.7918  1.8745   1
   5   9  -5 12.8188  4.6821   2
   9  -5  -5 17.3033  4.7370   2
  -5  -9  -5 12.2867  5.2011   6
   9  -5  -5 17.7242  6.0070   8
   9  -5  -5 10.7901  6.0054  10
   5  -9  -5 15.1896  1.6950   1
  -9  -5  -5 11.7670  1.6921   1
   5  -9  -5 14.5892  4.9910   8
   5   9   5 19.1135  6.0544   9
   9   5  -5 13.2870  4.9169   2
   6   9  -5 109.448   7.274   2
   6   9  -5 99.7247  9.9046   4
   9  -6  -5 118.602   9.120  10
   9  -6  -5 105.771   8.895   8
  -6  -9  -5 113.012   4.573   1
   9  -6  -5 102.765   7.028   2
   6  -9  -5 98.3620  7.5725  10
  -9  -6  -5 109.965   4.579   1
   6  -9  -5 106.109   6.583   2
   6   9   5 117.522   9.501   9
   9   6  -5 110.575   7.280   2
   6  -9  -5 96.9083  8.3520   8
   7   9  -5 108.177   9.196   4
   9  -7  -5 95.7252  5.5657   2
   9  -7  -5 93.4729  7.5768   8
  -7  -9  -5 91.8350  3.8788   1
   9  -7  -5 86.9941  7.2543  10
   7  -9  -5 87.9503  6.7481  10
   7  -9  -5 104.908   7.469   8
   9   7  -5 84.7839  7.3127   4
   7  -9  -5 90.6478  5.3551   2
   7   9   5 101.411   7.959   9
   9   7  -5 105.433   6.169   2
  -9  -7  -5 97.5458  3.9525   1
   0 -10  -5 41.1804  7.2090   6
  10   0  -5 38.3625  6.2406   2
   0 -10  -5 47.3062  3.0237   1
   0  10  -5 49.2650  4.9243   2
 -10   0  -5 47.2952  3.1506   1
   1  10  -5 5.43666 3.95533   2
  -1 -10  -5 9.20937 5.86072   6
  10  -1  -5 9.99095 4.88430   2
 -10   1  -5 8.26517 1.60564   1
  -1 -10  -5 13.0594  1.8281   1
   1 -10  -5 10.1705  5.2967   6
 -10  -1  -5 11.4604  2.0647   1
  10   1  -5 12.7034  4.9837   2
  -1  10  -5 10.8166  3.6223   2
   1 -10  -5 11.6709  1.7522   1
  -2 -10  -5 18.5498  6.5428   6
   2  10  -5 12.2675  4.1500   2
   2  10  -5 17.5213  5.8992   4
  10  -2  -5 19.1268  5.1288   2
  -2 -10  -5 16.4721  1.8120   1
   2 -10  -5 11.6012  4.7443   6
  -2  10  -5 11.1182  3.3061   2
  10   2  -5 16.2779  4.8049   2
 -10  -2  -5 14.8635  2.0614   1
   2 -10  -5 14.7031  1.7731   1
   3  10  -5 65.3826  7.6704   4
  -3 -10  -5 56.2128  3.0481   1
  -3 -10  -5 50.1279  7.6513   6
  10  -3  -5 60.3308  6.0230   2
  10  -3  -5 41.4076  6.7316  10
   3  10  -5 60.4732  5.4233   2
 -10  -3  -5 55.5999  3.4398   1
  10   3  -5 51.3808  6.1323   2
   3 -10  -5 61.8553  3.1580   1
  10  -4  -5 0.30339 4.50822   8
  10  -4  -5 -1.1223  4.4400  10
   4  10  -5 7.70224 5.46673   4
   4  10  -5 1.12248 3.50820   2
  10  -4  -5 2.53205 3.60356   2
  -4 -10  -5 1.71118 1.11458   1
  -4 -10  -5 0.81645 5.08016   6
   4 -10  -5 1.37966 1.04250   1
 -10  -4  -5 2.39292 1.28843   1
  10   4  -5 2.67490 4.13224   2
   5  10  -5 104.165   8.813   4
  10  -5  -5 101.945   7.957  10
  10  -5  -5 98.9507  8.0255   8
  10  -5  -5 97.8023  6.2384   2
  -5 -10  -5 97.2805  4.1389   1
   5  10  -5 100.251   6.057   2
  10   5  -5 107.043   6.867   2
 -10  -5  -5 103.197   4.308   1
   5  10   5 111.905   8.350   9
  10  -6  -5 13.3681  3.8690  10
   6  10  -5 10.6050  4.9327   4
  10  -6  -5 12.7219  3.8000   8
 -10  -6  -5 13.9414  1.3879   1
 -11   0  -5 -0.0150  1.1681   1
  11   0  -5 0.39867 3.53820   2
   0 -11  -5 0.04139 0.95133   1
   0 -11  -5 -5.3698  3.5338   6
  11  -1  -5 13.7042  4.1758   2
  -1 -11  -5 20.2423  4.8377   6
 -11   1  -5 12.1444  1.4835   1
   1 -11  -5 16.1370  4.1110   6
 -11  -1  -5 17.2635  1.8209   1
  11   1  -5 12.0080  3.9665   2
   1 -11  -5 15.2111  1.4838   1
  -2 -11  -5 -4.4574  3.7810   6
  11  -2  -5 -0.4860  3.2754   2
   2 -11  -5 3.26283 0.97603   1
  11   2  -5 1.34365 3.64005   2
 -11  -2  -5 2.60943 1.31952   1
   3  11  -5 12.6986  4.4479   4
  11  -3  -5 8.17705 3.09430   2
  11   3  -5 10.9533  3.7463   2
   3 -11  -5 15.5803  1.3227   1
 -11  -3  -5 16.6618  1.6986   1
   4  11  -5 9.66150 4.09403   4
 -11  -4  -5 10.9044  1.3443   1
   0   0  -6 194.443  10.997   6
   0   0  -6 135.952  10.832   5
   0   1  -6 -5.1856  4.0340  11
  -1   0  -6 9.08789 4.97695   7
   1   0  -6 -1.6076  4.4862  11
   1   0  -6 6.07657 4.82300   6
   0   1  -6 -8.8829  4.5432   5
   1   0  -6 5.16691 5.01881   5
  -1   0  -6 -1.0197  4.0362   3
   0   1  -6 1.06371 4.75460   6
   0  -1  -6 -5.0477  3.6444   3
   0  -1  -6 0.80138 4.67262   5
  -1   0  -6 2.00148 4.16880   6
   0  -1  -6 6.81774 4.75137   6
  -1   1  -6 145.098  10.388   6
  -1  -1  -6 149.527  10.388   6
   1   1  -6 170.514  11.184   5
   1   1  -6 149.362  10.199  11
  -1  -1  -6 150.345   9.658   3
   1  -1  -6 153.491  10.505   6
  -1   1  -6 146.408  10.677   7
   1   1  -6 169.688  10.851   6
   1  -1  -6 153.276  11.046   5
   2   0  -6 3596.85  125.14   6
  -2   0  -6 3535.79  121.00   3
   0   2  -6 3539.39  128.26  11
  -2   0  -6 3471.21  124.81   6
   0   2  -6 3650.58  125.41   6
   0   2  -6 3675.64  126.85   5
   2   0  -6 3640.00  128.58  11
  -2   0  -6 3498.51  119.16   7
   2   0  -6 3687.50  127.38   5
   0  -2  -6 3552.62  125.21   6
   2  -1  -6 4.92487 5.55065   5
  -1  -2  -6 8.58583 4.91170   6
   1   2  -6 3.10602 5.24880   6
  -2   1  -6 12.8861  5.8234   7
   1   2  -6 -2.1969  4.8564  11
   1   2  -6 1.38880 4.65624   5
  -1  -2  -6 4.68245 4.42077   3
   2  -1  -6 -0.5360  4.8473   6
  -2   1  -6 3.35808 4.87306   6
   2   1  -6 4.53223 5.09114  11
   2   1  -6 3.60689 5.16637   5
  -1   2  -6 14.2442  5.1812   6
   1  -2  -6 3.79909 5.07596   6
   2   1  -6 8.06160 5.40454   6
  -2  -1  -6 -0.8162  4.3687   6
   1  -2  -6 0.74262 5.09985   5
  -2  -1  -6 2.93545 5.18245   7
  -2  -1  -6 -3.5403  4.1556   3
   2  -2  -6 5499.62  201.70   5
  -2  -2  -6 5964.42  199.34   6
  -2  -2  -6 5991.01  192.76   3
  -2  -2  -6 5897.71  188.93   7
   2  -2  -6 5854.63  199.29   6
  -2   2  -6 5650.07  189.81   7
   2   2  -6 5846.97  201.76   5
   2   2  -6 5881.27  199.63   6
   2   2  -6 5799.47  204.85  11
  -2  -2  -6 5424.77  183.29   1
   2  -2  -6 5509.77  193.34  10
  -2   2  -6 6049.41  199.53   6
   3   0  -6 -1.4472  5.9710   5
  -3   0  -6 8.99916 4.85966   3
  -3   0  -6 2.88121 4.51134   6
   3   0  -6 -5.1146  5.1241  11
  -3   0  -6 3.27361 5.71261   7
   0  -3  -6 -0.5809  1.1128   1
   0  -3  -6 -0.6173  5.3765   6
   0   3  -6 -4.3292  4.7601  11
   0   3  -6 -8.2072  5.2235   6
   0   3  -6 -1.1776  4.6595   5
   1   3  -6 391.115  19.167   5
   3  -1  -6 433.480  20.963   5
  -3   1  -6 400.047  19.461   8
  -1  -3  -6 431.241  21.572   4
   3  -1  -6 403.138  18.301  10
   1   3  -6 410.166  22.470   4
   1   3  -6 383.641  19.591  11
  -1  -3  -6 394.610  13.916   1
  -3   1  -6 418.982  19.148   7
  -3   1  -6 411.297  18.509   6
  -1  -3  -6 394.114  18.392   3
  -1  -3  -6 409.316  19.254   6
   1  -3  -6 399.507  19.498   6
  -3  -1  -6 404.825  18.285   6
  -1   3  -6 362.822  18.797  11
   3   1  -6 412.081  20.159   5
  -3  -1  -6 398.534  18.334   3
   1  -3  -6 410.748  19.551   8
   3   1  -6 382.414  19.440  11
  -3  -1  -6 418.654  18.713   7
   1  -3  -6 408.077  14.091   1
  -1   3  -6 425.425  19.415   6
   2   3  -6 248.276  14.522  11
   3  -2  -6 238.395  14.931   5
   2   3  -6 247.761  17.253   4
   3  -2  -6 235.751  13.937   8
   2   3  -6 229.988  13.661   5
   3  -2  -6 230.226  13.278  10
  -3   2  -6 228.181  14.222   7
  -3   2  -6 247.098  13.946   8
  -3   2  -6 247.803  13.406   6
  -2  -3  -6 232.175  13.581   6
  -2  -3  -6 227.838   8.540   1
  -2  -3  -6 242.498  13.445   3
  -2  -3  -6 218.724  12.878   8
   2  -3  -6 222.563  14.006   8
  -3  -2  -6 227.733  12.971   3
   2  -3  -6 228.538   8.781   1
   3   2  -6 213.422  13.736   5
  -3  -2  -6 234.669   8.614   1
  -3  -2  -6 253.832  17.467   4
   2  -3  -6 199.671  12.468  10
  -3  -2  -6 229.574  13.293   8
   3   2  -6 216.494  14.028  11
  -3  -2  -6 233.701  13.488   6
  -2   3  -6 255.978  13.891   8
   3   2  -6 226.685  15.511   4
   2  -3  -6 236.096  13.820   6
  -2   3  -6 225.487  13.806   6
  -3   3  -6 765.477  30.014   7
   3   3  -6 707.859  31.557  11
  -3  -3  -6 720.033  30.928   8
   3  -3  -6 740.049  29.745  10
  -3   3  -6 741.511  30.660   6
   3   3  -6 756.846  31.479   5
   3  -3  -6 733.527  32.159   8
  -3  -3  -6 753.748  30.181   3
   3   3  -6 840.339  34.959   4
  -3  -3  -6 740.714  30.522   6
  -3  -3  -6 749.933  24.866   1
   3  -3  -6 729.625  25.069   1
  -4   0  -6 3217.66  109.42   3
   4   0  -6 3341.14  116.38   5
   4   0  -6 2948.15  115.72   4
   0   4  -6 3210.20  116.53  11
   4   0  -6 3183.08  116.23  11
   0  -4  -6 3254.15  102.40   1
   0  -4  -6 3463.90  114.42   6
   4   0  -6 3180.83  117.62   8
  -4   0  -6 2953.00  116.90   4
   0  -4  -6 3173.34  117.65   8
  -4   0  -6 3191.92  108.04   7
  -4   0  -6 3316.95  118.16   8
  -4   0  -6 3165.45  112.24   6
   0   4  -6 3262.57  118.24   4
  -1  -4  -6 126.450  11.095   6
   1   4  -6 133.932  10.640   5
   1   4  -6 136.375  11.420  11
  -1  -4  -6 142.163  10.173   8
   4  -1  -6 148.440  10.934  10
  -1  -4  -6 152.844  11.232   3
  -4   1  -6 142.727  10.373   6
  -4   1  -6 162.987  12.096   7
   4  -1  -6 156.291  13.627   5
   4  -1  -6 155.026  11.340   8
  -1  -4  -6 136.767   5.887   1
   1   4  -6 161.178  15.139   4
  -1   4  -6 145.809  12.222   4
   4   1  -6 129.338  11.632   5
   1  -4  -6 152.502  11.518   8
   1  -4  -6 139.683   6.034   1
  -4  -1  -6 133.833   9.730   6
   1  -4  -6 153.197  12.413   6
   1  -4  -6 143.973  12.616   4
  -1   4  -6 166.638  12.015  11
   4   1  -6 116.281  10.753  11
  -4  -1  -6 135.501  10.886   8
  -4  -1  -6 149.651  11.593   7
  -4  -1  -6 146.209  10.269   3
  -4  -1  -6 149.025   5.985   1
   4   1  -6 131.989  11.107   4
  -2  -4  -6 2122.60   85.23   8
   2   4  -6 2203.47   83.43   5
   2   4  -6 2279.32   85.66  11
   4  -2  -6 2372.92   85.63   5
   4  -2  -6 2273.92   86.47   8
  -4   2  -6 2334.31   79.43   7
   4  -2  -6 2285.53   80.65  10
  -2  -4  -6 2358.20   73.84   1
   2   4  -6 2429.93   89.70   4
  -4   2  -6 2277.52   82.17   6
  -2  -4  -6 2271.31   80.43   3
  -2  -4  -6 2322.08   83.07   6
   4   2  -6 2288.91   85.88   4
   2  -4  -6 2289.16   86.92   8
   2  -4  -6 2293.23   83.38   6
   4   2  -6 2311.97   84.47   5
  -4  -2  -6 2395.65   73.92   1
  -4  -2  -6 2354.16   80.39   3
   2  -4  -6 2234.59   85.54   4
  -4  -2  -6 2296.84   85.90   8
   4   2  -6 2263.98   85.39  11
   2  -4  -6 2342.23   74.04   1
  -4  -2  -6 2232.13   81.93   6
   3   4  -6 -0.2863  5.2578   5
  -3  -4  -6 13.0088  1.8686   1
   4  -3  -6 12.0757  2.0486   1
   3   4  -6 21.1753 11.5773   4
   3   4  -6 11.2392  6.7566  11
  -4   3  -6 22.2204  6.5051   7
  -3  -4  -6 8.49419 5.43444   3
  -3  -4  -6 12.4848  5.8998   6
   4  -3  -6 16.4246  7.2104   8
   4  -3  -6 16.0731  6.8626  10
  -4  -3  -6 19.4852  5.9332   3
  -3   4  -6 4.46783 5.88462   7
  -4  -3  -6 8.33269 5.32454   6
   3  -4  -6 7.63288 6.31352  10
   3  -4  -6 13.6967  2.2003   1
   4   3  -6 16.0472  6.7761  11
   4   3  -6 14.7151  6.1339   5
   3  -4  -6 4.17943 6.41379   8
   4   3  -6 9.07554 8.45833   4
  -4  -3  -6 14.4999  1.9997   1
   4  -4  -6 1504.51   50.38   1
   4   4  -6 1679.21   64.05   4
  -4  -4  -6 1512.63   50.23   1
   4  -4  -6 1655.09   63.91   8
   4   4  -6 1536.59   59.01   5
  -4   4  -6 1512.16   55.22   7
  -4  -4  -6 1526.02   57.54   6
   4  -4  -6 1511.15   57.91  10
   4   4  -6 1537.46   60.11  11
   0   5  -6 -4.3361  7.0854   4
   0  -5  -6 2.33168 7.41595   6
   0  -5  -6 -0.6661  1.2964   1
   0  -5  -6 -0.5216  4.6608   8
  -5   0  -6 -4.2260  5.8216   7
   5   0  -6 -13.362   7.676   5
   0   5  -6 10.1419  6.8002  11
  -5   0  -6 -5.9652  4.3773   6
   1   5  -6 86.6359  8.4875   5
  -5   1  -6 114.638  10.324   7
  -1  -5  -6 91.9317  4.6008   1
   1   5  -6 107.582  13.279   4
   5  -1  -6 108.312  13.038   5
   1   5  -6 99.3897 10.9724  11
  -1  -5  -6 91.5582 10.6298   6
  -5   1  -6 99.4121  8.5867   6
  -1  -5  -6 107.790  10.334   3
   5  -1  -6 112.910  10.178  10
   5  -1  -6 106.691  10.005   8
  -1  -5  -6 93.9186  8.7575   8
   5   1  -6 102.199   9.599   4
   1  -5  -6 115.000  10.853   8
  -5  -1  -6 99.1186  8.9978   3
  -5  -1  -6 102.053   4.888   1
   5   1  -6 98.1716 10.1513  11
   1  -5  -6 91.9766 11.6322   6
   5   1  -6 124.664  12.553   5
   1  -5  -6 95.5612  4.8589   1
  -1   5  -6 112.033  10.428   4
  -1   5  -6 125.608  12.460  11
  -5  -1  -6 102.067   8.499   6
   5  -2  -6 6.86550 6.10370  10
  -2  -5  -6 -0.5358  5.1165   3
  -2  -5  -6 0.61334 6.25693   6
   2   5  -6 7.74288 5.53237   5
  -5   2  -6 3.49572 5.34578   6
   2   5  -6  5.3435 10.2408   4
   5  -2  -6 -0.4076  7.0417   5
  -5   2  -6 2.60706 6.00566   7
   2   5  -6 19.2060  6.9359  11
  -2  -5  -6 7.27744 1.64520   1
   5  -2  -6 13.7646  6.5312   8
   5   2  -6 15.2683  6.9108   4
   2  -5  -6 4.84077 6.96433   6
   5   2  -6 6.80489 6.23655   5
  -5  -2  -6 4.73861 1.70459   1
   2  -5  -6 12.3080  6.4284   8
   2  -5  -6 4.61777 1.77806   1
  -5  -2  -6 6.40106 4.79277   6
   5   2  -6 9.12760 6.03092  11
  -2   5  -6 3.53744 8.18702  11
   3   5  -6 159.443  13.599  11
   3   5  -6 166.432  11.593   5
   3   5  -6 163.363  19.542   4
  -3  -5  -6 126.446  11.344   6
   5  -3  -6 147.429  13.191  10
  -5   3  -6 139.581  11.493   7
  -3  -5  -6 161.207   6.505   1
   5  -3  -6 151.584   8.979   2
   5  -3  -6 162.536  14.627   8
   5  -3  -6 155.810   6.528   1
   5   3  -6 150.330  12.081   5
   3  -5  -6 148.271  14.084   8
   5   3  -6 153.324  13.648   4
   3  -5  -6 148.641   6.662   1
   5   3  -6 147.315   8.288   2
   5   3  -6 156.716  12.967  11
  -5  -3  -6 150.144  10.648   6
  -3   5  -6 150.893  11.462   7
  -5  -3  -6 161.456   6.583   1
  -4  -5  -6 4.77249 1.58156   1
   5  -4  -6 5.79031 4.56732   2
   5  -4  -6 -2.7748 10.9631   8
   5  -4  -6 4.27103 1.67829   1
  -4  -5  -6 4.50201 5.53862   6
   4   5  -6 5.15249 6.16329  11
   4   5  -6 2.28937 5.27247   5
   5  -4  -6 17.4021  8.9076  10
  -5   4  -6 5.07627 5.51521   7
   4   5  -6  0.6282 12.6740   4
  -5  -4  -6 4.81542 1.60708   1
   5   4  -6 4.03175 8.39358   4
  -4   5  -6 1.10811 5.19307   7
  -5  -4  -6 3.30943 4.78073   6
   4  -5  -6 -2.9857  4.4457   2
   4  -5  -6 1.24778 1.63446   1
   5   4  -6 -1.5221  5.3276   5
   4  -5  -6 -10.051   9.730  10
   4  -5  -6 17.8076  9.4961   8
   5   4  -6 0.36078 3.62652   2
   5   4  -6 8.25928 6.62521  11
   5  -5  -6 358.750  25.814   8
   5  -5  -6 420.088  25.884  10
   5  -5  -6 374.823  13.011   1
   5   5  -6 344.539  19.610  11
  -5   5  -6 350.328  17.151   7
  -5  -5  -6 363.703  12.920   1
   5   5  -6 338.362  14.568   2
  -5  -5  -6 361.935  17.810   6
   5  -5  -6 325.870  15.509   2
   5   5  -6 349.717  23.075   4
   0   6  -6 4225.93  158.00   4
   6   0  -6 4304.55  141.27   2
   6   0  -6 4488.10  161.91   5
   0  -6  -6 4328.28  139.67   1
   0  -6  -6 4131.33  159.38   8
  -6   0  -6 4304.50  139.93   1
   0   6  -6 4631.99  159.97  11
   0  -6  -6 4705.57  158.77   6
   1   6  -6 30.9902  9.1744   4
   6  -1  -6 26.0056 10.6470   5
  -1  -6  -6 41.5336  9.7415   6
  -1  -6  -6 33.0480  2.8518   1
   6  -1  -6 36.1302  5.2180   2
   6  -1  -6 43.1589  7.6494   8
   6  -1  -6 27.9272  7.1974  10
   1   6  -6 34.6034  8.9248  11
  -1   6  -6 37.6008 10.2200  11
   1  -6  -6 47.0598  8.2963   8
   1  -6  -6 40.8683 10.3989   6
   6   1  -6 35.0325 10.4777   5
  -6  -1  -6 34.0607  3.0776   1
   6   1  -6 33.5268  4.6875   2
   1  -6  -6 36.3282  3.0932   1
   6  -2  -6 2220.31   74.39   2
   6  -2  -6 2350.46   81.17  10
  -2  -6  -6 2217.54   83.30   6
   6  -2  -6 2215.18   86.29   8
  -2  -6  -6 2261.00   72.58   1
   2   6  -6 2345.27   85.52  11
  -6   2  -6 2250.57   77.98   7
   6  -2  -6 2199.88   85.10   5
   2   6  -6 2177.46   87.18   4
   6   2  -6 2222.79   74.06   2
   6   2  -6 2130.95   83.70   4
   6   2  -6 2200.43   84.55   5
   2  -6  -6 2244.98   72.80   1
   2  -6  -6 2265.80   86.84   8
  -2   6  -6 2575.44   90.02  11
  -6  -2  -6 2322.76   72.82   1
   2  -6  -6 2142.10   83.08   6
   6   2  -6 2234.71   84.46  11
   3   6  -6 44.6260 15.4028   4
  -6   3  -6 19.0159  6.2457   7
  -3  -6  -6 27.8695  7.3034   6
  -3  -6  -6 31.6829  2.7779   1
   6  -3  -6 54.1509  9.9588  10
   6  -3  -6 34.0048  2.7185   1
   6  -3  -6 28.8487  5.6010   2
   6  -3  -6 27.2454  9.7340   8
   3   6  -6 38.2374  8.4506  11
   3  -6  -6 25.8975  8.6089   8
  -3   6  -6 25.7221  6.3256   7
   6   3  -6 31.1680  5.1026   2
   6   3  -6 25.8259  7.1655  11
  -6  -3  -6 33.1996  2.8546   1
   6   3  -6 27.0078  7.8172   4
   3  -6  -6 26.5932  2.7948   1
   6  -4  -6 2378.01   89.42  10
  -4  -6  -6 2486.10   79.45   1
   6  -4  -6 2414.98   81.84   2
   4   6  -6 2282.60   80.65   2
  -6   4  -6 2395.94   84.03   7
   6  -4  -6 2548.09   79.41   1
   6  -4  -6 2639.35  101.76   8
   4   6  -6 2454.50   92.41  11
  -4  -6  -6 2407.69   89.10   6
  -4   6  -6 2368.86   84.17   7
   6   4  -6 2527.14   92.43  11
   4  -6  -6 2579.96   79.64   1
   4  -6  -6 2373.10   95.63   8
   6   4  -6 2500.31   81.15   2
   6   4  -6 2581.06   93.12   4
  -6  -4  -6 2552.04   79.54   1
  -5  -6  -6 40.0874  6.8974   6
   6  -5  -6 42.4141 11.8661   8
  -6   5  -6 42.4421  6.5534   7
   5   6  -6 41.2867  5.1877   2
   6  -5  -6 37.7802  5.8848   2
   5   6  -6 35.5520 11.8709   4
   6  -5  -6 52.8909 10.1420  10
  -5  -6  -6 47.2451  3.3181   1
   6  -5  -6 46.2313  3.1417   1
   5   6  -6 50.3773  8.6691  11
   6   5  -6 44.9097  5.4855   2
  -6  -5  -6 49.2205  3.3093   1
   6   5  -6 54.5192 10.3700   4
   5  -6  -6 56.3458  6.4269   2
   5  -6  -6 43.8959 10.2698   8
   6   5  -6 41.0194  8.2105  11
   5  -6  -6 50.1948  3.3483   1
  -5   6  -6 54.1567  6.8929   7
   5  -6  -6 39.9588 11.1829  10
   6   6  -6 1326.27   46.25   2
  -6  -6  -6 1428.21   44.86   1
   6  -6  -6 1329.88   46.63   2
   6  -6  -6 1432.85   44.85   1
   6  -6  -6 1358.90   52.39  10
   6  -6  -6 1393.73   56.20   8
   6   6  -6 1321.59   55.44   4
  -7   0  -6 1.83750 2.14706   1
   0   7  -6 -2.9330  5.5587   4
   0   7  -6 -8.8939  7.8048  11
   0  -7  -6 -0.8140  1.5051   1
   0  -7  -6 11.4754 14.4403   6
   7   0  -6 1.76919 4.59801   2
   1   7  -6 711.818  33.583   4
   7  -1  -6 814.487  33.144  10
  -1  -7  -6 771.365  26.451   1
   7  -1  -6 806.398  28.710   2
  -1  -7  -6 902.273  42.112   6
   1   7  -6 845.787  36.247  11
  -7  -1  -6 814.983  26.813   1
  -1   7  -6 708.266  36.433  11
   1  -7  -6 794.019  26.611   1
   1  -7  -6 746.726  34.142   8
   1  -7  -6 752.317  35.800   6
   7   1  -6 796.136  28.410   2
  -2  -7  -6 3.42701 1.56855   1
  -2  -7  -6 6.68411 8.38637   6
   7  -2  -6 9.64223 4.86643   2
   2   7  -6 0.43187 7.17763   4
   2   7  -6 9.33070 7.62793  11
   7  -2  -6 -4.1981  5.9913   8
   7  -2  -6 6.33151 7.38714  10
  -2   7  -6 19.2281 10.6080  11
   2  -7  -6 4.84155 1.85378   1
   2  -7  -6 2.83245 7.24830   6
   2  -7  -6 23.2310  7.4577   8
  -7  -2  -6 6.26925 2.00193   1
   7   2  -6 4.54601 4.40059   2
  -3  -7  -6 42.0383  3.1427   1
  -3  -7  -6 51.8169  9.0935   6
   7  -3  -6 45.8194  6.0654   2
   3   7  -6 68.8979  9.8268  11
   7  -3  -6 40.3889  8.9793  10
   3   7  -6 46.9364 10.5593   4
   7  -3  -6 36.5766  9.3095   8
   7   3  -6 31.9960  7.6835  11
   7   3  -6 54.2355  8.3226   4
  -7  -3  -6 44.1506  3.3216   1
  -3   7  -6 50.1935  7.0283   7
   3  -7  -6 38.6609  3.2773   1
   7   3  -6 52.3341  5.9788   2
   3  -7  -6 60.0622  9.7714   8
  -4  -7  -6 30.3312  7.2415   6
  -4  -7  -6 33.7292  2.7909   1
   4   7  -6 41.4333  8.5236  11
   7  -4  -6 30.3433  8.9818  10
   7  -4  -6 39.4699  5.8533   2
   7  -4  -6 53.4418 10.0790   8
   4   7  -6 42.4941 11.7683   4
   4  -7  -6 36.9967  8.4983   8
   7   4  -6 31.6587  7.9033   4
  -4   7  -6 39.5330  6.2923   7
   7   4  -6 32.5605  7.3944  11
   7   4  -6 26.8831  5.0302   2
  -7  -4  -6 32.5464  2.7837   1
   4  -7  -6 28.4144  2.6808   1
   7  -5  -6 167.630  13.689  10
   5   7  -6 160.544  13.100  11
  -5  -7  -6 174.157  11.638   6
  -5  -7  -6 173.936   6.729   1
   5   7  -6 143.049   8.312   2
   7  -5  -6 153.767   9.406   2
   7  -5  -6 140.865  13.759   8
   5   7  -6 120.684  14.346   4
   5  -7  -6 131.667  11.568  10
   5  -7  -6 155.582   8.930   2
   7   5  -6 148.086   8.919   2
   5  -7  -6 158.067  13.770   8
  -7  -5  -6 171.746   6.732   1
   7   5  -6 163.306  12.894  11
   7   5  -6 164.358  13.223   4
   5  -7  -6 165.118   6.654   1
   7  -6  -6 1.27204 6.09533   8
   6   7  -6 -0.5702  7.4438   4
   7  -6  -6 4.36948 5.81353  10
  -6  -7  -6 0.19237 1.25157   1
   7  -6  -6 3.71372 3.68938   2
   6  -7  -6 3.77550 5.22518  10
   6  -7  -6 -1.1415  1.2028   1
   6  -7  -6 -7.5697  5.5257   8
   7   6  -6 0.82870 6.55406   4
   6  -7  -6 0.30245 3.30266   2
   7   6  -6 -0.4084  3.6032   2
  -7  -6  -6 0.25782 1.18699   1
   7  -7  -6 123.833  10.157   8
   7   7  -6 122.503  11.202   4
   7  -7  -6 116.557   9.391  10
  -7  -7  -6 130.829   5.261   1
   8   0  -6 1479.18   48.44   2
   0  -8  -6 1387.90   56.17   6
  -8   0  -6 1268.95   46.50   1
   0  -8  -6 1487.63   46.31   1
   0   8  -6 1450.35   57.82  11
  -1  -8  -6 48.2139 10.9042   6
   1   8  -6 67.5856 10.8029  11
   1   8  -6 56.2978  8.1889   4
  -1  -8  -6 58.0625  3.6928   1
   8  -1  -6 59.9029  6.3340   2
   8   1  -6 65.0645  6.3480   2
   1  -8  -6 63.7143  9.6838   6
   1  -8  -6 62.2907  3.8270   1
  -1   8  -6 69.0027 11.4556  11
  -8  -1  -6 63.3495  4.1198   1
   8  -2  -6 858.392  32.636   2
   2   8  -6 924.468  39.498  11
  -2  -8  -6 806.428  38.722   6
   8  -2  -6 957.447  37.505  10
  -2  -8  -6 925.246  30.348   1
   2   8  -6 865.577  37.613   4
   8   2  -6 930.560  32.453   2
   2  -8  -6 927.272  30.477   1
  -8  -2  -6 959.627  30.784   1
   2  -8  -6 918.607  38.178   8
   2  -8  -6 928.079  36.947   6
  -2   8  -6 871.388  39.936  11
   8  -3  -6 48.3522  8.9289  10
   3   8  -6 35.8718  8.4326  11
  -3  -8  -6 40.2677  8.6419   6
   8  -3  -6 64.2000  9.1694   8
  -3  -8  -6 40.1793  3.0066   1
   8  -3  -6 34.7448  5.5691   2
   3   8  -6 38.6619  8.4092   4
   3  -8  -6 40.3860  3.1165   1
  -8  -3  -6 49.9800  3.2894   1
   3  -8  -6 45.0111  7.9853   8
   8   3  -6 38.9992  5.6971   2
  -3   8  -6 30.8942  5.9836   7
  -4  -8  -6 2507.85   77.21   1
   8  -4  -6 2569.91   85.98  10
   8  -4  -6 2432.04   91.50   8
   8  -4  -6 2329.69   79.03   2
   4   8  -6 2327.12   89.50  11
   4   8  -6 2262.87   89.88   4
  -4  -8  -6 2377.77   87.08   6
   4  -8  -6 2436.41   77.15   1
   4  -8  -6 2304.14   90.35   8
   8   4  -6 2373.34   78.81   2
  -8  -4  -6 2459.22   77.30   1
   5   8  -6 5.54876 7.16622   4
  -5  -8  -6 3.93054 5.33688   6
   8  -5  -6 -0.4369  3.4721   2
   8  -5  -6 4.05280 5.95216   8
   8  -5  -6 -1.8728  5.7725  10
  -5  -8  -6 -0.4435  1.1849   1
   8   5  -6 0.89134 5.47721   4
   5  -8  -6 -0.1459  1.1881   1
  -8  -5  -6 1.33671 1.38169   1
   5  -8  -6 -4.3009  4.8569   8
   8   5  -6 6.36526 3.73540   2
   8  -6  -6 1415.67   50.04  10
  -6  -8  -6 1424.78   44.46   1
   8  -6  -6 1445.45   53.53   8
   6   8  -6 1270.47   53.34   4
   6   8   6 1370.21   48.37   9
   6  -8  -6 1409.43   53.15   8
   8   6  -6 1338.69   52.15   4
  -8  -6  -6 1384.38   44.41   1
   6  -8  -6 1274.99   48.77  10
  -7  -8  -6 7.28293 1.23307   1
   7   8  -6 11.7075  5.7925   4
   8  -7  -6 3.69015 4.05721  10
   8  -7  -6 6.52334 4.17420   8
   7  -8  -6 8.78001 4.32141   8
   7   8   6 13.0865  4.4098   9
  -8  -7  -6 11.2557  1.3333   1
   7  -8  -6 8.39343 3.78611  10
   8   7  -6 6.86417 5.18493   4
   9   0  -6 -0.5688  4.1267   2
   0  -9  -6 -0.3348  5.7368   6
   0   9  -6 -0.0943  6.8524  11
  -9   0  -6 -1.8780  1.3773   1
   0  -9  -6 -0.3484  1.3932   1
  -1  -9  -6 56.8759  3.3517   1
   1   9  -6 51.7810  7.3204   4
   9  -1  -6 47.3593  5.7672   2
   1   9  -6 55.8310  9.2404  11
  -1  -9  -6 45.6625  8.3800   6
   1  -9  -6 56.9189  7.5050   6
  -9  -1  -6 42.5548  3.5117   1
   9   1  -6 47.5039  5.5948   2
  -1   9  -6 42.1138  8.5819  11
   1  -9  -6 58.0954  3.4284   1
  -2  -9  -6 2.42427 6.54485   6
  -2  -9  -6 9.61793 1.75104   1
   9  -2  -6 11.9202  4.3181   2
   2   9  -6 10.7914  5.8309   4
  -9  -2  -6 14.5877  2.2284   1
  -2   9  -6 16.2072  4.9975   7
   2  -9  -6 11.5370  1.7945   1
   2  -9  -6 8.68153 5.24271   6
   9   2  -6 11.2902  4.2331   2
   9  -3  -6 14.5350  4.1784   2
  -3  -9  -6 20.4939  6.8077   6
   9  -3  -6 23.2616  5.9887   8
   9  -3  -6 29.9994  6.7985  10
   3   9  -6 14.0954  6.2346   4
  -3  -9  -6 16.9766  1.9460   1
   3  -9  -6 13.7538  1.8415   1
   9   3  -6 12.8765  4.2077   2
  -9  -3  -6 14.9961  2.1414   1
   4   9  -6 5.89616 5.98347   4
   9  -4  -6 -1.3134  4.9212   8
  -4  -9  -6 1.45902 1.27292   1
   9  -4  -6 -0.0782  3.1259   2
  -4  -9  -6 6.20110 5.85453   6
   9  -4  -6 2.41959 5.32738  10
   4  -9  -6 1.54267 1.17399   1
  -9  -4  -6 0.52824 1.34672   1
   4  -9  -6 -2.7008  4.2194   8
   9  -5  -6 295.125  14.486  10
  -5  -9  -6 272.803  14.233   6
   5   9  -6 269.949  15.367   4
  -5  -9  -6 292.114  10.033   1
   9  -5  -6 289.800  14.756   8
   5  -9  -6 266.631  14.008   8
   5  -9  -6 282.166   9.907   1
  -9  -5  -6 279.026  10.055   1
  -6  -9  -6 49.5320  2.5193   1
   9  -6  -6 42.1327  5.6000  10
   6   9  -6 41.1193  6.6312   4
   9  -6  -6 53.3126  5.8830   8
  -9  -6  -6 49.5240  2.5766   1
   6  -9  -6 43.4106  5.3330   8
   0 -10  -6 2125.05   64.88   1
 -10   0  -6 1881.36   64.71   1
   0 -10  -6 2052.90   72.53   6
  -1 -10  -6 331.985  11.285   1
  -1 -10  -6 328.814  16.102   6
   1 -10  -6 314.971  11.188   1
 -10  -1  -6 302.832  11.362   1
   1 -10  -6 311.836  15.064   6
  -2 -10  -6 1286.96   49.40   6
   2  10  -6 1347.36   49.77   4
  -2 -10  -6 1333.53   42.79   1
 -10  -2  -6 1312.06   43.00   1
   2 -10  -6 1316.65   42.70   1
   3  10  -6 19.6990  5.5283   4
  -3 -10  -6 17.0104  1.7448   1
  -3 -10  -6 16.8882  5.6349   6
   3 -10  -6 18.5350  1.6842   1
 -10  -3  -6 18.2621  1.9824   1
  -4 -10  -6 1267.06   41.84   1
   4  10  -6 1368.83   48.99   4
   4 -10  -6 1275.88   41.73   1
   0   0  -7 1.39303 6.39252   4
   0   0  -7 -2.8397  5.4822   6
   0   0  -7 -10.422   4.703   7
   0   0  -7 6.77849 4.81636   8
   0   1  -7 -1.5353  4.2057   8
   0   1  -7 4.11044 5.68983   6
   0  -1  -7 -0.5657  5.4927   6
  -1   0  -7 2.47503 5.28563   6
   0  -1  -7 -0.6510  4.3281   8
   1   0  -7 -5.4509  5.1367   6
   0  -1  -7 -10.795   6.368   4
  -1   0  -7 2.22966 4.46484   8
  -1   0  -7 -0.0326  5.2823   7
  -1   0  -7 -12.000   6.653   4
   1   0  -7 0.36094 6.23143   4
   1   0  -7 -0.1793  5.1486  11
   0   1  -7 2.23844 5.61410   7
   1   0  -7 0.53089 5.92762   5
   1   0  -7 -4.1229  4.2796   8
   0   1  -7 -2.6682  6.5445   4
  -1  -1  -7 -9.1560  6.1615   4
   1   1  -7 -9.9991  5.4154   6
   1   1  -7 -5.9970  4.9047  11
   1  -1  -7 7.16260 4.81419   8
   1   1  -7 1.97141 5.79244   5
  -1  -1  -7 -4.4649  4.3160   8
  -1   1  -7 4.28165 5.47925   6
  -1   1  -7 4.16251 7.16344   4
  -1   1  -7 5.22127 5.02471   8
   1  -1  -7 2.68052 5.46053   6
   1   1  -7 -9.1876  5.7766   4
  -1   1  -7 1.46106 6.00272   7
   1   1  -7 4.98154 4.59528   8
   1  -1  -7 -10.170   5.262   5
  -1  -1  -7 2.43564 5.39018   6
  -1  -1  -7 1.05510 5.22594   7
   1  -1  -7 4.37854 6.87379   4
   2   0  -7 62.8407  9.1758   5
   2   0  -7 49.8061  8.3171   4
  -2   0  -7 58.3993  8.1986   7
   2   0  -7 61.3120  7.6692   8
  -2   0  -7 58.9336  7.9584   6
   0   2  -7 68.5444  8.6604   6
   0   2  -7 65.9275 10.1857   4
   2   0  -7 62.6576  8.0825   6
   0   2  -7 58.8032  7.6962  11
   0   2  -7 73.5002  7.7722   8
   0  -2  -7 70.3512  8.6557   6
   2   0  -7 46.6546  7.6398  11
   0  -2  -7 78.6706 10.3749   4
   0  -2  -7 59.9619  7.6577   8
  -2   0  -7 51.3668  9.4673   4
  -2   0  -7 73.9447  8.4372   8
  -2   1  -7 30.7128  6.3328   8
   2  -1  -7 16.9115  7.3392   5
   2  -1  -7 29.2207  6.7827   6
   1   2  -7 24.3797  5.8555   8
   1   2  -7 26.7106  7.1871   6
  -1  -2  -7 35.3035  8.9538   4
   2  -1  -7 29.0272  6.4862   8
   1   2  -7 28.1245  6.9357   5
  -1  -2  -7 25.1386  6.1031   8
  -2   1  -7 23.8790  6.6142   6
   1   2  -7 24.2000  9.0446   4
  -2   1  -7 28.9291  8.2449   4
  -2   1  -7 27.3491  7.0704   7
   1   2  -7 22.1566  6.6205  11
   2  -1  -7 26.0160  7.7844   4
  -1  -2  -7 17.4915  6.3982   6
   1  -2  -7 14.8039  6.3967   5
   2   1  -7 22.4264  6.6743   6
  -2  -1  -7 33.4389  6.7715   7
   1  -2  -7 42.1074  6.7327   8
   1  -2  -7 25.7827  7.7139   4
   2   1  -7 22.8866  6.3440  11
   2   1  -7 24.9699  7.1689   5
   2   1  -7 24.5477  5.9069   8
  -1   2  -7 20.8314  6.7264   6
  -2  -1  -7 24.9714  6.1321   8
  -1   2  -7 36.1802  7.7624   7
   2   1  -7 30.6816  7.8293   4
  -2  -1  -7 20.5043  6.2202   6
  -1   2  -7 29.8211  6.3169   8
  -2  -1  -7 19.6031  8.8056   4
   1  -2  -7 25.8214  6.8749   6
  -2  -1  -7 24.3836  6.1508   3
  -1   2  -7 18.0494  7.9073   4
   2   2  -7 5.78533 4.28558   8
   2   2  -7 3.80421 5.72529   5
  -2   2  -7 -0.0757  5.7185   6
  -2  -2  -7 -5.0081  4.6947   3
   2   2  -7 3.18759 5.84513  11
   2   2  -7 1.89477 6.16488   6
   2  -2  -7 -0.8006  4.9600   8
  -2  -2  -7 3.73438 4.84899   8
   2  -2  -7 5.56283 6.48929   4
   2   2  -7 1.58966 7.54508   4
   2  -2  -7 -1.2568  5.8074   6
  -2  -2  -7 -6.8978  8.0976   4
  -2   2  -7 -2.7467  4.9202   8
  -2   2  -7 3.59489 7.26057   4
  -2   2  -7 8.94942 6.41248   7
  -2  -2  -7 2.58760 5.56630   6
   2  -2  -7 -0.3169  6.2787   5
   0   3  -7 1.98641 4.89167   8
   0   3  -7 -4.5582  5.8225  11
   0  -3  -7 5.71132 5.01376   8
  -3   0  -7 11.7955  8.0879   4
   0  -3  -7 1.13724 6.46171   6
   0   3  -7 -5.2433  8.1933   4
  -3   0  -7 1.04190 5.05350   8
   0  -3  -7 -0.1758  1.3571   1
   3   0  -7 -3.0725  6.4849   5
   3   0  -7 -1.6796  6.0115   4
  -3   0  -7 2.66112 6.08981   7
   3   0  -7 -6.2377  4.4460   8
   0  -3  -7 2.31430 7.82104   4
   3   0  -7 3.39749 5.77850  11
  -3   0  -7 10.2661  5.5680   6
  -1  -3  -7 -3.7249  7.6515   4
  -1  -3  -7 -2.3425  4.5836   8
   3  -1  -7 -3.6528  6.8713   5
  -3   1  -7 12.8772  7.5704   4
  -3   1  -7 -0.9292  5.4334   6
   1   3  -7 4.41742 5.40105   5
   1   3  -7 5.25798 6.19443  11
   1   3  -7 0.74503 8.63883   4
   3  -1  -7 -7.8473  4.5669   8
  -3   1  -7 -0.8803  5.2941   8
   3  -1  -7 -6.5947  6.1448   4
  -1  -3  -7 2.13615 1.33248   1
  -3   1  -7 10.4617  6.7058   7
  -1  -3  -7 -3.9098  5.6607   6
   3   1  -7 14.7487  7.2145   4
  -3  -1  -7 9.00334 5.34636   8
  -3  -1  -7 -3.4778  5.5655   7
   1  -3  -7 -1.9123  6.5045   6
   1  -3  -7 1.51535 5.22492   8
   1  -3  -7 -2.7779  6.9888   4
  -3  -1  -7 -10.812   7.562   4
  -3  -1  -7 -3.5914  5.0640   6
  -3  -1  -7 -5.3488  4.7493   3
   3   1  -7 0.60893 5.66504  11
  -1   3  -7 -0.4704  4.8881   8
   1  -3  -7 0.71000 1.50301   1
   3   1  -7 -8.4389  4.1997   8
   3   1  -7 -0.9467  6.1964   5
  -1   3  -7 6.34940 7.16321   4
  -3   2  -7 61.8177  9.2397   4
   2   3  -7 51.3608 11.2935   4
  -3   2  -7 67.2395  8.4192   6
  -2  -3  -7 50.4780  7.7039   3
  -2  -3  -7 57.0549  3.4573   1
   2   3  -7 47.9945  8.7847  11
  -2  -3  -7 67.1956  9.0144   6
   3  -2  -7 58.9994  8.5997   8
  -3   2  -7 58.4352  9.0382   7
   2   3  -7 55.7972  8.3508   5
   3  -2  -7 62.5228  8.9196   4
   3  -2  -7 51.5612  9.2002   5
  -2  -3  -7 70.7651  7.9245   8
   2  -3  -7 61.9224  8.5965   8
  -3  -2  -7 56.5928  8.1195   6
  -2   3  -7 46.3425  8.4628   7
   3   2  -7 49.5676  9.5112   4
   2  -3  -7 56.2660  8.4139   6
   2  -3  -7 64.2669  9.8547   4
  -3  -2  -7 59.2283  3.5276   1
  -2   3  -7 59.6477  9.3242   4
   2  -3  -7 58.9216  3.7722   1
   3   2  -7 55.5393  8.7218  11
  -3  -2  -7 61.5714  8.0535   8
   3   2  -7 61.4916  8.9680   5
  -3  -3  -7 -4.2025  5.6858   6
   3  -3  -7 3.70454 6.93458   4
  -3  -3  -7 -1.5898  1.2878   1
   3  -3  -7 0.52037 1.68341   1
   3   3  -7 1.62518 6.06060   5
   3   3  -7 -5.3950  6.2153  11
   3   3  -7 6.04215 9.28423   4
  -3  -3  -7 6.86769 5.33941   8
   3  -3  -7 -3.7348  5.9420   8
  -3   3  -7 -1.0856  6.3255   7
  -4   0  -7 50.3122  9.8449   4
  -4   0  -7 36.2913  7.2044   8
  -4   0  -7 42.1480  7.0963   6
   0  -4  -7 34.3677  8.6114   6
  -4   0  -7 47.7053  8.4809   7
   4   0  -7 55.3173  7.5088   8
   0  -4  -7 38.5609  7.2133   8
   0  -4  -7 44.5763  3.2181   1
   4   0  -7 61.9024 10.7660   5
   4   0  -7 33.6844  7.5426   4
   0   4  -7 55.1114  9.3729  11
   0   4  -7 45.3329  9.9997   4
  -1  -4  -7 15.7282  5.5620   8
  -1  -4  -7 14.0358  1.9685   1
  -4   1  -7 12.0629  7.0800   7
   4  -1  -7 15.3613  8.5224   5
   1   4  -7 6.07660 7.19214  11
  -1  -4  -7 5.68776 6.68957   6
  -4   1  -7 13.3314  5.8883   6
   4  -1  -7 13.0924  5.7758   8
   1   4  -7 11.1680  5.7651   5
   4  -1  -7 12.7463  6.8279   4
   1   4  -7 13.4125  9.9149   4
  -1   4  -7 22.0044  7.9783   4
   1  -4  -7 12.6022  6.1863   8
   4   1  -7 -1.7128  6.2205  11
   4   1  -7 6.05926 7.29399   5
   4   1  -7 13.4368  7.1231   4
  -4  -1  -7 10.7968  5.8860   8
   1  -4  -7 11.3526  7.4490   6
   1  -4  -7 10.9823  1.9991   1
  -4  -1  -7 4.46673 5.43906   6
   2   4  -7 122.326  10.998   5
  -2  -4  -7 90.0129  9.2213   8
   4  -2  -7 98.8988 10.6539   8
   2   4  -7 97.8529 11.0897  11
   2   4  -7 100.598  15.188   4
  -2  -4  -7 99.6732  4.8582   1
  -4   2  -7 108.156  11.011   7
   4  -2  -7 114.609  12.533   5
  -2  -4  -7 103.718  10.634   6
  -4   2  -7 122.020  10.231   6
   4   2  -7 86.1882 10.5194   5
  -2   4  -7 99.7935 10.4685   7
  -4  -2  -7 109.318  10.195   8
   2  -4  -7 87.9753 10.7284   6
   4   2  -7 90.6254 10.8518   4
   4   2  -7 100.144  10.785  11
   2  -4  -7 104.131  11.076   8
  -4  -2  -7 110.168  10.005   6
  -4  -2  -7 101.530   4.947   1
   2  -4  -7 92.9979  5.0009   1
  -4   3  -7 3.37402 6.28992   7
   4  -3  -7 5.76461 6.17610  10
   4  -3  -7 6.62305 6.88772   8
  -3  -4  -7 0.92883 1.44329   1
   4  -3  -7 1.82682 1.53367   1
   3   4  -7  8.2238 11.6865   4
  -3  -4  -7 -2.7442  5.3864   6
   3   4  -7 7.38663 7.25580  11
  -3  -4  -7 1.87197 5.14331   8
   4   3  -7 7.49161 7.05663  11
  -3   4  -7 5.98735 6.18337   7
  -4  -3  -7 -6.7547  4.6819   8
  -4  -3  -7 0.72953 1.49530   1
   3  -4  -7 0.46975 5.85304  10
   3  -4  -7 1.59062 1.72865   1
   4   3  -7 -0.7878  8.3722   4
   3  -4  -7 5.35636 7.25863   8
  -4  -3  -7 2.33896 5.57366   6
   4   4  -7 0.14506 6.38470  11
   4  -4  -7 -0.9845  1.5159   1
   4   4  -7  2.0697 10.7805   4
   4  -4  -7 -8.1213  7.2774  10
  -4  -4  -7 3.96023 5.91667   6
   4  -4  -7 4.50135 8.79558   8
  -4   4  -7 3.69108 5.71035   7
  -4  -4  -7 0.23608 1.47814   1
   0   5  -7 -1.9838  7.2531  11
   0  -5  -7 -1.3897  1.5036   1
   0   5  -7 7.73438 7.69578   4
   0  -5  -7 -2.8182  7.8931   6
  -5   0  -7 -3.6321  5.1538   6
   0  -5  -7 3.04777 5.14729   8
   5   0  -7 -0.6876  6.0998   4
  -1  -5  -7 20.9076  6.1646   8
   1   5  -7 29.7310 10.3834   4
   1   5  -7 21.1756  8.7575  11
   5  -1  -7 22.3938  6.6698   8
  -1  -5  -7 16.8753  2.3238   1
  -5   1  -7 22.7166  6.0142   6
  -1  -5  -7 19.0447  8.0158   6
  -5   1  -7 21.7779  7.5367   7
  -5  -1  -7 23.9638  6.1665   6
   1  -5  -7 20.6931  2.4850   1
  -1   5  -7 13.6595  7.1444   4
   1  -5  -7 18.0210  6.9109   8
   1  -5  -7 11.6565  8.4662   6
   5   1  -7 25.5402  7.2712   4
  -1   5  -7 28.2293  8.8949  11
   5  -2  -7 1.30881 6.61964   8
   2   5  -7 -6.5908 10.6052   4
  -5   2  -7 8.67873 6.52857   7
  -2  -5  -7 4.02321 6.62219   6
  -2  -5  -7 3.50911 1.59136   1
   2   5  -7 4.12480 7.71857  11
  -5  -2  -7 8.70143 1.94997   1
   2  -5  -7 2.69419 7.23246   6
  -5  -2  -7 0.10467 5.13449   6
   5   2  -7 1.86340 6.52873   4
   2  -5  -7 2.72932 7.04388   8
   5   2  -7 10.2083  6.9582  11
  -2   5  -7 11.1169  6.3697   7
   2  -5  -7 3.74258 1.85710   1
   5  -3  -7 21.2664  8.6850   8
  -5   3  -7 10.8695  6.4530   7
   5  -3  -7 13.9566  7.7483  10
  -3  -5  -7 8.06274 1.94723   1
   5  -3  -7 10.7010  1.9826   1
   3   5  -7 18.7405 14.8265   4
   3   5  -7 13.2241  7.6107  11
  -3  -5  -7 2.77975 5.96927   6
   5   3  -7 25.6449  8.6316   4
  -5  -3  -7 10.7516  2.0157   1
  -3   5  -7 13.9539  6.1315   7
   3  -5  -7 2.14337 8.34419   8
  -5  -3  -7 5.34578 5.65311   6
   3  -5  -7 6.35411 1.95360   1
   5   3  -7 10.1018  6.8051  11
  -4  -5  -7 9.35383 1.88739   1
   4   5  -7 15.3237  7.2853  11
   5  -4  -7  3.5688 11.7033   8
   5  -4  -7 5.56337 1.77045   1
   5  -4  -7 1.74569 9.87551  10
  -5   4  -7 5.12752 5.75172   7
  -4  -5  -7 17.1514  6.2470   6
   4   5  -7 16.1070 14.0910   4
  -4   5  -7 6.93066 5.80595   7
   4  -5  -7 1.12549 9.31377   8
  -5  -4  -7 8.77938 5.29871   6
   5   4  -7 11.1324  8.9355   4
   5   4  -7 10.1371  6.7448  11
  -5  -4  -7 9.14859 1.83370   1
   4  -5  -7 -4.6029  9.3832  10
   4  -5  -7 3.92449 1.69186   1
   5   5  -7 2.56554 9.31975   4
   5  -5  -7 0.55780 1.47650   1
  -5   5  -7 -1.3863  5.1630   7
   5   5  -7 -1.6863  6.0901  11
   5  -5  -7 15.7942 18.3763  10
   5  -5  -7  3.1573 11.5902   8
  -5  -5  -7 1.26027 1.52042   1
  -5  -5  -7 8.52006 5.24095   6
   0  -6  -7 127.248  11.349   8
   0   6  -7 105.878  11.065   4
   0   6  -7 124.766  13.762  11
   0  -6  -7 149.402  17.465   6
   0  -6  -7 124.585   5.855   1
   6  -1  -7 8.45510 6.06579   8
  -1  -6  -7 13.6494  9.7384   6
  -1  -6  -7 7.48621 1.87221   1
   1   6  -7 9.79592 8.41416  11
   1   6  -7 9.75217 8.00344   4
   1  -6  -7 11.6728  2.1677   1
  -1   6  -7 13.3054  9.6719  11
   1  -6  -7 7.52695 6.86098   8
  -6  -1  -7 6.50401 2.18520   1
   1  -6  -7 0.45480 8.38029   6
   2   6  -7 19.0212 10.0344   4
  -2  -6  -7 26.5593  2.6497   1
   6  -2  -7 24.9802  7.6205   8
   2   6  -7 26.1786  9.0719  11
  -2  -6  -7 25.3335  8.5686   6
  -2   6  -7 17.8798  6.4677   7
  -6  -2  -7 27.4177  2.8165   1
   2  -6  -7 35.4146  8.9155   8
   2  -6  -7 22.9538  7.9869   6
   6   2  -7 32.9571  7.6881   4
   2  -6  -7 25.0685  2.7491   1
  -6   3  -7 30.5218  6.9413   7
  -3  -6  -7 41.6909  3.1807   1
   6  -3  -7 46.7280  9.2397  10
   6  -3  -7 46.4529 10.0896   8
   3   6  -7 31.7892 14.9001   4
  -3  -6  -7 30.1536  8.1593   6
   3   6  -7 49.0851  8.9667  11
  -3   6  -7 44.7519  7.1157   7
   6   3  -7 43.2497  8.2765  11
   6   3  -7 43.1849  8.4655   4
   3  -6  -7 38.9834  3.2920   1
   3  -6  -7 43.9486  9.9474   8
  -6  -3  -7 51.8877  3.4113   1
  -4  -6  -7 25.3936  6.8126   6
   6  -4  -7 30.0867  2.5522   1
   6  -4  -7 53.8507 14.0165   8
   4   6  -7 45.9280 22.9409   4
  -6   4  -7 30.2082  6.5507   7
   4   6  -7 21.4039  7.6405  11
   6  -4  -7 19.9015  9.0689  10
  -4  -6  -7 35.4088  2.9386   1
   6   4  -7 28.2090  8.4478   4
  -4   6  -7 37.0672  6.4790   7
   6   4  -7 35.8407  7.9887  11
  -6  -4  -7 33.7453  2.8564   1
   4  -6  -7 29.6644  2.6715   1
   4  -6  -7 26.0804  9.1147   8
   5   6  -7 5.36810 6.24077  11
  -6   5  -7 -1.3159  4.8700   7
  -5  -6  -7 -0.4402  5.0703   6
  -5  -6  -7 4.48543 1.62484   1
   5   6  -7 -1.5184  9.7725   4
   6  -5  -7 1.24207 1.38935   1
   6  -5  -7 4.59086 9.96423   8
   6  -5  -7 2.32637 8.08076  10
   6   5  -7 4.05818 5.91555  11
   5  -6  -7 6.19431 7.85081  10
   6   5  -7 -0.8651  7.2949   4
  -6  -5  -7 -0.3847  1.4191   1
   5  -6  -7 3.28409 1.51807   1
  -5   6  -7 3.27810 4.97368   7
   5  -6  -7 -2.9344  7.6481   8
   6   6  -7 -6.9841  7.0471   4
   6  -6  -7 2.26062 6.62485   8
  -6  -6  -7 -0.0044  1.2953   1
   6  -6  -7 -1.3794  5.7745  10
   6  -6  -7 -1.9433  1.0983   1
  -6   6  -7 -0.2175  4.0318   7
   0   7  -7 5.68931 5.48668   4
   0   7  -7 -1.9865  8.4395  11
   0  -7  -7 1.99172 1.57920   1
   0  -7  -7  5.9612 12.6851   6
  -1  -7  -7 68.9158 18.0800   6
  -1  -7  -7 78.3673  4.2635   1
   1   7  -7 60.8822 11.3335  11
   1   7  -7 64.8217  9.1186   4
   1  -7  -7 68.4135  9.0386   8
  -1   7  -7 86.7261 14.3917  11
  -7  -1  -7 65.1363  4.5621   1
   1  -7  -7 90.5957 11.9308   6
   1  -7  -7 70.4569  4.2110   1
   2   7  -7 12.5617  7.7395   4
  -2  -7  -7 7.45270 8.85015   6
   7  -2  -7 5.31718 6.44122   8
  -2  -7  -7 10.8166  1.9379   1
   2   7  -7 16.5628  8.6954  11
   2  -7  -7 13.8304  2.1758   1
  -2   7  -7 17.0625  6.0580   7
  -7  -2  -7 6.87759 2.02609   1
   2  -7  -7 16.3891  7.0301   8
   2  -7  -7 -0.4527  6.8221   6
   3   7  -7 -11.063   6.049  11
   3   7  -7 4.50174 8.64418   4
   7  -3  -7 3.87844 6.83510   8
  -3  -7  -7 0.98944 1.47765   1
  -3  -7  -7 3.78349 6.96601   6
   3  -7  -7 3.90278 6.80866   8
   3  -7  -7 0.94834 1.49247   1
   7   3  -7 -0.7166  5.8820   4
  -3   7  -7 7.46767 5.13538   7
  -7  -3  -7 3.34825 1.71024   1
  -4  -7  -7 9.20655 1.75049   1
   4   7  -7 3.33733 6.32123  11
  -4  -7  -7 11.5717  6.1201   6
   7  -4  -7 2.76544 6.84577  10
   7  -4  -7 14.1102  7.8151   8
   4   7  -7 -7.5561  9.2732   4
   4  -7  -7 6.12803 6.97999   8
   4  -7  -7 12.7789  1.8173   1
  -4   7  -7 9.04285 5.03632   7
  -7  -4  -7 11.8506  1.9652   1
   7   4  -7 2.82108 5.85370   4
   5   7  -7 4.87651 8.45113   4
  -5  -7  -7 10.8860  5.5859   6
   7  -5  -7 13.4070  6.9064  10
  -5  -7  -7 11.3237  1.7108   1
   7  -5  -7 15.5320  6.9812   8
  -5   7  -7 11.7978  4.5729   7
   5  -7  -7 20.3596  7.0318   8
  -7  -5  -7 12.4897  1.8620   1
   5  -7  -7 11.3437  1.7442   1
   7   5  -7 9.10384 6.46341   4
   7  -6  -7 10.2746  5.0322  10
   7  -6  -7 9.55669 5.44282   8
   6   7  -7 2.04297 6.61397   4
  -6  -7  -7 5.98569 1.31866   1
   6  -7  -7 6.99915 4.58372  10
   6  -7  -7 8.85776 5.66086   8
   7   6  -7 3.06049 5.94102   4
  -7  -6  -7 2.27459 1.27392   1
   7   7  -7 -4.9061  4.9923   4
   7  -7  -7 -0.0574  4.3007   8
  -7  -7  -7 0.85173 0.90359   1
   0  -8  -7 -0.0822  1.4819   1
   0   8  -7 4.71910 7.29826  11
   0  -8  -7 4.13305 7.08795   6
  -1  -8  -7 44.9858 10.3851   6
   1   8  -7 20.1336  6.3722   4
   1   8  -7 25.4405  8.3537  11
  -1  -8  -7 35.9197  2.8197   1
   1  -8  -7 37.5093  2.9844   1
   1  -8  -7 33.5229  7.3091   6
  -8  -1  -7 25.2333  2.9633   1
   2   8  -7 14.0029  6.2035   4
  -2  -8  -7 3.63943 1.56060   1
  -2  -8  -7 0.35181 7.34518   6
   2  -8  -7 5.18079 5.12869   8
   2  -8  -7 7.42443 5.72033   6
   2  -8  -7 7.36037 1.81634   1
  -8  -2  -7 2.68180 1.78368   1
  -2   8  -7 20.1206  5.4570   7
  -3  -8  -7 6.16501 6.40627   6
   3   8  -7 0.12844 5.87975   4
   8  -3  -7 6.49191 5.97666   8
  -3  -8  -7 3.98410 1.47728   1
   3  -8  -7 0.13563 5.19607   8
  -8  -3  -7 2.75702 1.65749   1
  -3   8  -7 3.10553 4.47530   7
   3  -8  -7 6.93067 1.62136   1
   4   8  -7 40.1585  7.8777   4
  -4  -8  -7 35.6255  2.6472   1
  -4  -8  -7 32.4314  6.7836   6
   8  -4  -7 42.6240  7.5316   8
   4  -8  -7 38.8736  6.8444   8
  -8  -4  -7 44.6345  2.9655   1
   4  -8  -7 39.4584  2.7091   1
   5   8  -7 11.1856  6.3650   4
  -5  -8  -7 5.92882 5.12270   6
  -5  -8  -7 7.87913 1.40311   1
   8  -5  -7 13.6432  5.5038   8
   5  -8  -7 15.7963  5.2330   8
  -8  -5  -7 8.89278 1.54385   1
   5  -8  -7 8.60274 1.37835   1
   8   5  -7 3.55070 4.96026   4
   6   8  -7 -0.2689  5.4150   4
   8  -6  -7 3.63981 4.13730   8
  -6  -8  -7 4.73994 1.10971   1
   8   6  -7 1.65472 4.38786   4
  -8  -6  -7 4.64356 1.19975   1
   6  -8  -7 8.99762 4.21294   8
   0  -9  -7 0.81253 1.34330   1
   0  -9  -7 -3.8500  4.7142   6
  -1  -9  -7 2.96408 5.61739   6
  -1  -9  -7 2.41654 1.40466   1
  -9  -1  -7 -0.0645  1.2575   1
  -1   9  -7 -3.5708  4.1258   7
   1  -9  -7 -1.2793  1.2259   1
   1  -9  -7 -5.6863  4.0936   6
  -2  -9  -7 -0.3063  5.3370   6
  -2  -9  -7 -0.7707  1.1277   1
   2   9  -7 -0.6597  4.5659   4
  -9  -2  -7 0.52911 1.39232   1
  -2   9  -7 5.42082 4.08625   7
   2  -9  -7 -0.7342  1.1161   1
  -3  -9  -7 28.5597  6.3305   6
   3   9  -7 20.2921  5.5045   4
  -3  -9  -7 25.2293  2.0897   1
   3  -9  -7 19.8774  1.8560   1
  -9  -3  -7 20.8994  2.1910   1
   9  -4  -7 -0.4701  4.0073   8
   4   9  -7 2.59770 4.85808   4
  -4  -9  -7 2.64158 1.08360   1
   4  -9  -7 1.05604 1.01426   1
   4  -9  -7 -1.7439  3.2399   8
  -9  -4  -7 2.74919 1.27843   1
   5   9  -7 12.4921  4.7126   4
   9  -5  -7 9.89458 3.84191   8
  -5  -9  -7 12.2721  1.3885   1
  -9  -5  -7 12.1418  1.4315   1
   0 -10  -7 30.7429  2.0888   1
  -1 -10  -7 1.94194 1.06149   1
   1 -10  -7 3.88602 1.11744   1
  -2 -10  -7 3.14724 1.09569   1
   2 -10  -7 0.69159 0.91753   1
   0   0  -8 4069.13  141.46   6
   0   0  -8 3910.07  146.54   4
   0   0  -8 4017.83  147.03   8
  -1   0  -8 -1.0707  6.1057   6
   0  -1  -8 1.28374 5.39469   8
   0  -1  -8 1.97553 7.65065   4
   0   1  -8 5.64076 5.52986   8
   0   1  -8 8.82730 6.52119   6
  -1   0  -8 12.5594  6.3257   7
   0  -1  -8 14.7723  7.2052   6
  -1   0  -8 -7.4437  7.5443   4
   1   0  -8 -1.0750  5.2485   8
   0   1  -8 -12.144   5.897   7
   1   0  -8 -3.7432  6.2210   6
   0   1  -8 7.33820 8.76434   4
  -1   0  -8 5.17602 5.69976   8
   1   0  -8 -2.2217  7.9484   4
  -1   1  -8 260.779  16.206   7
  -1  -1  -8 281.071  19.329   4
  -1   1  -8 314.896  19.864   4
   1   1  -8 299.300  19.753   4
   1   1  -8 278.601  16.997   6
   1   1  -8 258.296  15.873   8
   1  -1  -8 299.375  17.226   8
  -1   1  -8 281.093  16.942   6
   1  -1  -8 241.837  17.172   4
  -1  -1  -8 303.281  17.043   8
   1  -1  -8 261.855  16.649   6
  -1  -1  -8 285.166  17.136   6
  -1   1  -8 288.098  16.680   8
   0   2  -8 2763.69  107.26   8
   0   2  -8 2924.13  109.22   4
   2   0  -8 2673.40  103.19   6
   2   0  -8 2890.27  107.50   4
   0   2  -8 3023.46  100.19   7
   2   0  -8 2983.91  108.03   8
  -2   0  -8 2864.99  103.58   6
   0  -2  -8 2923.42  108.18   8
   0  -2  -8 2911.11  104.24   6
  -2   0  -8 2849.42  108.39   4
  -2   0  -8 2823.05   98.37   7
   0  -2  -8 2809.21  107.76   4
   0   2  -8 2939.17  104.28   6
  -2   0  -8 2985.02  108.27   8
  -2   1  -8 114.017  11.238   8
   2  -1  -8 116.973  11.403   6
  -2   1  -8 127.835  11.779   7
   1   2  -8 136.651  12.892   7
   1   2  -8 104.789  10.818  11
  -1  -2  -8 125.382  11.094   8
  -1  -2  -8 127.103  14.031   4
   1   2  -8 120.872  14.881   4
   2  -1  -8 116.692  11.893   4
   2  -1  -8 126.120  11.656   8
  -2   1  -8 119.472  12.893   4
   1   2  -8 124.445  10.739   8
   1   2  -8 124.335  12.035   6
  -2   1  -8 99.6385 10.6518   6
  -1  -2  -8 118.066  11.628   6
  -1   2  -8 116.821  11.591   6
  -2  -1  -8 128.266  11.776   6
   2   1  -8 112.599  10.418   8
   1  -2  -8 131.344  13.109   4
  -2  -1  -8 108.687  13.692   4
  -1   2  -8 131.695  12.738   7
   1  -2  -8 111.515  11.730   6
   1  -2  -8 145.875  12.219   8
  -2  -1  -8 138.364  11.863   8
   2   1  -8 116.012  13.119   4
   2   1  -8 136.166  11.554  11
  -1   2  -8 140.576  14.794   4
   2   1  -8 96.4633 10.8443   6
  -2  -1  -8 116.726  10.437   7
  -1   2  -8 145.432  11.975   8
  -2   2  -8 2327.57   90.04   4
  -2  -2  -8 2440.56   87.08   6
   2  -2  -8 2386.03   90.48   8
  -2  -2  -8 2438.57   91.94   4
   2   2  -8 2232.32   89.01   8
  -2   2  -8 2331.35   86.76   6
   2   2  -8 2597.37   92.23   4
  -2   2  -8 2399.18   90.05   8
  -2  -2  -8 2498.90   90.55   8
   2  -2  -8 2326.62   86.90   6
   2   2  -8 2247.40   88.74  11
   2  -2  -8 2366.63   89.63   4
  -2   2  -8 2348.00   83.57   7
   0   3  -8 4.28684 5.12900   8
  -3   0  -8 3.08010 5.78804   8
   3   0  -8 6.18461 5.65915   8
   0   3  -8 2.42738 8.30992   7
   3   0  -8 -5.5746  6.9800   4
  -3   0  -8 1.57718 6.20117   6
  -3   0  -8 11.1657  6.9521   7
   0   3  -8 -4.1550  9.3435   4
   0  -3  -8 -6.2680  5.3840   8
   0  -3  -8 -3.5891  7.1057   6
   0  -3  -8 -9.5268  8.0148   4
  -3   0  -8 0.47242 8.46855   4
  -3   1  -8 310.939  17.546   6
  -3   1  -8 300.259  19.862   4
  -3   1  -8 313.123  18.256   8
   1   3  -8 326.307  18.718  11
  -1  -3  -8 322.641  17.902   8
  -1  -3  -8 330.336  19.134   6
   3  -1  -8 288.970  18.468   4
   1   3  -8 312.342  17.209   8
   3  -1  -8 328.251  18.313   8
  -3   1  -8 315.790  18.221   7
   1   3  -8 343.958  23.083   4
  -1   3  -8 316.173  20.830   4
  -1   3  -8 346.047  20.090   7
   3   1  -8 330.760  20.095   4
   1  -3  -8 305.776  20.159   4
   3   1  -8 304.879  17.155   8
   1  -3  -8 339.770  18.799   8
   1  -3  -8 322.832  19.622   6
  -3  -1  -8 344.935  18.341   6
  -3  -1  -8 334.261  21.876   4
  -3  -1  -8 368.626  19.012   8
   3  -2  -8 -8.5250  6.6403   4
  -2  -3  -8 3.19378 1.71644   1
  -3   2  -8 2.32880 7.36221   4
  -2  -3  -8 8.19215 6.99910   6
   3  -2  -8 3.67548 6.01022   8
  -2  -3  -8 -0.7050  5.6224   8
  -3   2  -8 0.54438 6.19014   6
   2   3  -8  8.6395 11.3348   4
  -3   2  -8 4.49752 7.12954   7
   2   3  -8 0.94104 7.13010  11
  -2   3  -8 5.76103 7.82466   7
   2  -3  -8 2.79015 6.77106   6
  -3  -2  -8 10.8212  6.1957   8
   3   2  -8 5.38367 8.73730   4
  -3  -2  -8 5.58351 6.44084   6
  -2   3  -8 -0.4421  7.5185   4
   2  -3  -8 -1.7392  6.0392   8
   2  -3  -8 6.60423 8.04545   4
   3   2  -8 5.04780 6.98024  11
   3  -3  -8 89.1161 11.2074   8
   3   3  -8 86.3837 14.4348   4
   3  -3  -8 100.800  11.513   4
   3   3  -8 78.3459 10.4833  11
  -3   3  -8 78.4687 10.1682   7
  -3  -3  -8 87.2628 10.0645   6
  -3  -3  -8 73.8218  4.3688   1
  -3  -3  -8 85.0061  9.4238   8
   4   0  -8 1300.52   54.49   8
  -4   0  -8 1391.17   52.87   6
   0  -4  -8 1426.67   55.38   6
   0  -4  -8 1340.26   45.30   1
   0   4  -8 1373.58   56.74   4
   0  -4  -8 1488.04   55.95   8
   4   0  -8 1384.72   54.92   4
  -4   1  -8 39.4000  7.5847   6
  -1  -4  -8 54.7791  8.1420   8
  -1  -4  -8 52.5116  3.7188   1
   1   4  -8 63.5642 13.0372   4
   4  -1  -8 52.8124  8.9795   4
   4  -1  -8 42.2005  7.6647   8
  -1  -4  -8 61.5825  9.6972   6
   1   4  -8 59.8397  9.7679  11
  -4   1  -8 51.9127  9.0549   7
  -4   1  -8 36.8682  9.3111   4
  -1   4  -8 52.1708  9.8485   7
   1  -4  -8 43.9987  9.7078   6
   1  -4  -8 54.2934  3.7670   1
  -4  -1  -8 40.4289  7.7452   6
   4   1  -8 55.5210  9.6519   4
  -1   4  -8 50.1567 10.0691   4
   1  -4  -8 50.9947  8.8722   8
  -4  -1  -8 40.1695  7.9171   8
  -2  -4  -8 1701.35   65.77   6
   2   4  -8 1759.78   68.28  11
  -2  -4  -8 1759.44   67.67   8
   4  -2  -8 1701.53   66.80   4
  -4   2  -8 1707.10   63.02   7
   4  -2  -8 1695.92   68.56   8
  -2  -4  -8 1768.77   56.83   1
   2   4  -8 1834.23   73.35   4
  -4  -2  -8 1783.32   65.33   6
   2  -4  -8 1823.87   69.72   8
  -4  -2  -8 1780.47   67.75   8
  -2   4  -8 1774.87   63.62   7
  -2   4  -8 1600.39   66.93   4
   2  -4  -8 1688.65   56.73   1
   2  -4  -8 1753.66   66.52   6
   4   2  -8 1851.11   68.83   4
   4   2  -8 1732.73   67.59  11
  -3  -4  -8 55.6824  8.7081   6
  -3  -4  -8 70.0925  8.5328   8
   3   4  -8 66.1751 15.2356   4
  -4   3  -8 47.8650  8.7134   7
   4  -3  -8 49.9988  9.6064   8
  -3  -4  -8 56.9389  3.6800   1
   3   4  -8 68.8504 10.2680  11
  -4  -3  -8 63.7098  3.9601   1
  -3   4  -8 56.7381  8.5708   7
  -4  -3  -8 55.9173  8.1435   8
  -4  -3  -8 53.3173  8.2265   6
   4   3  -8 64.8324 12.4588   4
   3  -4  -8 62.2774  3.7261   1
   3  -4  -8 77.7858 11.3043   8
   4   3  -8 59.8609  9.6297  11
  -4  -4  -8 3314.55  111.50   1
   4  -4  -8 3243.71  111.24   1
   4   4  -8 3695.25  131.56   4
  -4  -4  -8 3387.46  123.36   6
  -4   4  -8 3450.45  117.60   7
   4  -4  -8 3994.96  134.99   8
   0  -5  -8 11.0365  9.7168   6
  -5   0  -8 -10.609   4.816   6
   5   0  -8 4.58627 7.12213   4
   0  -5  -8 -0.6735  1.5007   1
   0  -5  -8 -4.8739  5.5151   8
   0   5  -8 3.65471 7.36893   4
   5  -1  -8 184.088  12.996   8
  -1  -5  -8 153.666  12.417   8
   1   5  -8 160.695  15.068  11
  -1  -5  -8 170.317  15.980   6
   1   5  -8 134.383  15.216   4
  -5   1  -8 155.792  11.694   6
  -1  -5  -8 150.001   6.820   1
   1  -5  -8 163.778   6.934   1
  -5  -1  -8 158.510  11.970   6
   5   1  -8 169.059  13.614   4
   1  -5  -8 165.265  15.165   6
   1  -5  -8 157.004  13.617   8
  -1   5  -8 156.073  13.176   4
  -1   5  -8 158.018  13.361   7
  -2  -5  -8 6.12006 1.79953   1
   2   5  -8 20.2502  8.6791  11
   5  -2  -8 2.36598 6.30515   8
  -2  -5  -8 21.2214  7.7712   6
  -2  -5  -8 11.0617  5.8748   8
  -5   2  -8 -11.898   5.896   7
   2   5  -8 22.8521 11.6299   4
   2  -5  -8 7.29475 7.32062   8
   2  -5  -8 5.24198 7.27554   6
  -2   5  -8 3.54060 6.40758   7
   2  -5  -8 3.85949 1.73587   1
   5   2  -8 5.75142 6.78069   4
  -5  -2  -8 10.0990  5.6736   6
   3   5  -8 120.945  19.056   4
  -3  -5  -8 148.206  12.036   6
  -3  -5  -8 134.828   5.928   1
   5  -3  -8 126.643  14.005   8
   3   5  -8 131.756  13.089  11
  -5   3  -8 136.837  11.308   7
   3  -5  -8 149.329  14.692   8
  -5  -3  -8 121.395  10.621   6
  -5  -3  -8 122.097   5.827   1
   3  -5  -8 124.381   5.718   1
   5   3  -8 138.817  13.479   4
  -3   5  -8 128.474  11.071   7
  -4  -5  -8 191.163  12.787   6
  -4  -5  -8 172.325   7.090   1
  -5   4  -8 180.216  11.824   7
   5  -4  -8 202.782  21.800   8
   4   5  -8 173.110  19.764   4
   4   5  -8 173.081  14.192  11
   5   4  -8 166.067  13.745  11
  -5  -4  -8 171.433   7.173   1
  -4   5  -8 175.744  11.963   7
   5   4  -8 161.635  15.014   4
  -5  -4  -8 196.031  12.204   6
   4  -5  -8 143.226  16.322   8
   4  -5  -8 161.222   6.861   1
   5  -5  -8 393.739  26.819   8
  -5   5  -8 376.445  17.044   7
  -5  -5  -8 383.145  13.389   1
   5   5  -8 365.623  22.073   4
  -5  -5  -8 372.729  18.008   6
   5  -5  -8 364.023  13.025   1
   0   6  -8 2469.70   90.91  11
   0   6  -8 2240.08   86.60   4
   0  -6  -8 2351.56   88.48   8
   0  -6  -8 2284.87   75.13   1
  -1  -6  -8 -0.7601 11.0019   6
   1   6  -8 10.0866  9.3942  11
   6  -1  -8 6.42607 5.80126   8
  -1  -6  -8 10.4873  2.0154   1
  -1  -6  -8 12.9102  6.0216   8
   1   6  -8 10.9612  8.0706   4
   1  -6  -8 10.3972  6.5784   8
   1  -6  -8 10.1334  2.0345   1
   1  -6  -8 3.16894 8.36616   6
  -1   6  -8 16.7139  6.7629   7
   6  -2  -8 1520.92   60.56   8
  -2  -6  -8 1640.27   60.59   6
  -2  -6  -8 1505.51   49.42   1
   2   6  -8 1530.21   60.99  11
   2   6  -8 1501.80   61.03   4
  -2   6  -8 1510.05   54.39   7
   2  -6  -8 1555.35   57.87   6
   6   2  -8 1429.77   58.19   4
   2  -6  -8 1498.43   61.01   8
   2  -6  -8 1481.38   49.41   1
  -3  -6  -8 381.895  19.557   6
   3   6  -8 381.635  26.272   4
  -3  -6  -8 364.050  12.818   1
   6  -3  -8 368.762  21.733   8
  -6  -3  -8 347.147  12.858   1
   3  -6  -8 340.196  12.632   1
  -3   6  -8 376.520  17.412   7
   6   3  -8 335.477  18.797   4
   3  -6  -8 310.893  20.725   8
  -4  -6  -8 1937.36   71.86   6
   4   6  -8 2218.40   84.63   4
  -4  -6  -8 1984.86   63.53   1
   6  -4  -8 1927.57   79.08   8
   4  -6  -8 1969.10   63.36   1
   4  -6  -8 1880.42   76.96   8
  -4   6  -8 1963.35   67.68   7
   6   4  -8 1968.41   74.64   4
  -6  -4  -8 1928.45   63.52   1
   5   6  -8 12.2638  8.1945   4
  -5  -6  -8 6.45170 5.09753   6
   6  -5  -8 -7.2477  6.7331   8
  -5  -6  -8 6.49848 1.53571   1
  -5   6  -8 13.4806  4.4886   7
   6   5  -8 2.98683 7.07398   4
  -6  -5  -8 10.3880  1.7764   1
   5  -6  -8 10.4026  1.5338   1
   5  -6  -8 6.52829 6.68751   8
  -6  -6  -8 819.105  26.460   1
   6  -6  -8 792.362  33.433   8
   6   6  -8 782.081  33.477   4
   0  -7  -8 3.44909 9.35047   6
   0  -7  -8 -0.2064  1.5131   1
   0   7  -8 4.83479 5.50292   4
   1   7  -8 177.063  12.602   4
  -1  -7  -8 209.465  23.707   6
  -1  -7  -8 166.500   6.774   1
  -1   7  -8 144.455  11.160   7
   1  -7  -8 159.392  13.772   6
   1  -7  -8 151.683  12.254   8
   1  -7  -8 152.825   6.696   1
   7  -2  -8 37.0574  7.3641   8
   2   7  -8 32.9323  7.9682   4
  -2  -7  -8 41.5924  3.0747   1
  -2  -7  -8 31.6122  9.6271   6
   2  -7  -8 43.8140  7.7554   8
   2  -7  -8 46.1158  3.0499   1
  -2   7  -8 55.0595  7.3173   7
   3   7  -8 268.342  16.844   4
  -3  -7  -8 287.358  16.477   6
   7  -3  -8 271.812  16.615   8
  -3  -7  -8 286.081  10.215   1
  -3   7  -8 299.330  13.918   7
   3  -7  -8 272.705  10.016   1
   7   3  -8 282.272  15.144   4
  -7  -3  -8 255.014  10.209   1
   3  -7  -8 267.329  16.381   8
   4   7  -8 0.12423 7.13455   4
   7  -4  -8 -6.1524  5.3797   8
  -4  -7  -8 0.82224 5.49331   6
  -4  -7  -8 -1.6944  1.1754   1
  -4   7  -8 1.72695 4.41252   7
  -7  -4  -8 2.04437 1.39981   1
   4  -7  -8 -0.7369  1.1130   1
   7   4  -8 1.93399 5.26394   4
   4  -7  -8 1.36174 5.41062   8
   7  -5  -8 200.703  12.640   8
   5   7  -8 158.807  12.802   4
  -5  -7  -8 200.553   7.384   1
  -7  -5  -8 209.536   7.558   1
   5  -7  -8 203.606   7.226   1
   5  -7  -8 194.542  12.376   8
   7   5  -8 176.052  11.787   4
  -5   7  -8 186.427   9.812   7
  -6  -7  -8 3.16635 1.03914   1
   7  -6  -8 1.82915 3.84862   8
   6   7  -8 -3.8226  5.3025   4
   6  -7  -8 4.65201 3.95978   8
   7   6  -8 7.01282 4.82876   4
  -7  -6  -8 4.54357 1.15587   1
   0   8  -8 2315.36   77.19   7
   0  -8  -8 2301.30   72.92   1
   0  -8  -8 2175.14   81.93   6
   1   8  -8 51.0944  6.4545   4
  -1  -8  -8 40.3153  8.3653   6
  -1  -8  -8 50.7492  3.1620   1
  -1   8  -8 51.1165  6.6198   7
   1  -8  -8 52.6262  6.9581   6
   1  -8  -8 50.4235  3.1519   1
  -2  -8  -8 1118.90   48.93   6
   2   8  -8 1270.18   48.96   4
  -2  -8  -8 1339.29   41.87   1
   2  -8  -8 1336.73   41.77   1
  -2   8  -8 1346.04   45.28   7
   2  -8  -8 1248.90   49.27   8
  -3  -8  -8 60.9102  7.9033   6
   8  -3  -8 61.9325  7.1176   8
  -3  -8  -8 70.9646  3.4338   1
   3   8  -8 63.6265  7.7249   4
   3  -8  -8 68.2291  3.2564   1
  -8  -3  -8 51.8456  3.2861   1
  -3   8  -8 71.5196  6.4660   7
   3  -8  -8 69.6769  7.0023   8
  -4  -8  -8 1341.46   43.31   1
   8  -4  -8 1349.39   51.28   8
   4   8  -8 1302.41   50.78   4
   4  -8  -8 1378.56   43.20   1
   4  -8  -8 1345.82   50.83   8
  -8  -4  -8 1316.24   43.42   1
   0  -9  -8 1.30565 1.16683   1
  -1  -9  -8 85.5652  3.6922   1
   1  -9  -8 74.6365  3.5202   1
  -2  -9  -8 2.02858 1.08236   1
   2  -9  -8 0.67511 0.92446   1
   0   0  -9 0.44964 6.63353   6
   0   0  -9 -9.6314  8.6062   4
   0   0  -9 -0.8878  5.8871   8
  -1   0  -9 -4.3416  5.6161   8
   0   1  -9 -12.566   8.873   4
   0  -1  -9 -8.6688  6.9450   6
   1   0  -9 -6.7759  5.5897   8
  -1   0  -9 3.44019 9.39138   4
   1   0  -9 8.37770 7.31405   6
  -1   0  -9 -2.1472  5.9175   7
   0   1  -9 6.83874 5.96017   8
   1   0  -9 -3.6024  8.2956   4
   0  -1  -9 -5.7621  5.9017   8
  -1   0  -9 0.94458 7.00439   6
   0   1  -9 -5.0484  6.5945   6
   0   1  -9 -2.2836  6.9201   7
   0  -1  -9 -5.5499  9.1289   4
  -1  -1  -9 3.65952 9.13247   4
   1  -1  -9 1.51303 5.95037   8
   1  -1  -9 -4.6333  7.3162   6
   1   1  -9 -8.9773  6.3681   6
  -1   1  -9 7.78993 7.40373   7
  -1   1  -9 6.93428 6.97052   6
  -1  -1  -9 -0.8595  6.1298   8
   1   1  -9 2.89125 5.73872   8
  -1   1  -9 -3.4579  8.9551   4
   1   1  -9  7.9424 10.1543   4
   1  -1  -9 -9.7103  8.0171   4
  -1  -1  -9 -10.263   6.867   6
  -1   1  -9 4.86592 6.19846   8
  -2   0  -9 70.6680 12.2926   4
   0  -2  -9 61.5325 11.4658   4
   2   0  -9 79.2526 11.2622   4
   2   0  -9 64.0634  9.6905   6
  -2   0  -9 64.0169  9.3717   8
   0   2  -9 86.2475 14.3443   4
  -2   0  -9 67.5366  9.8739   6
   0   2  -9 69.3181  9.1607   8
   2   0  -9 56.3239  8.5532   8
   0  -2  -9 61.9764 10.3706   6
   0   2  -9 75.4241 11.1225   7
  -2   0  -9 71.1815  9.1900   7
   0  -2  -9 74.7526  9.5602   8
  -1  -2  -9 174.552  14.595   6
  -1  -2  -9 143.335  12.951   8
  -2   1  -9 177.603  13.817   6
  -2   1  -9 147.056  13.210   7
   1   2  -9 198.339  19.305   4
   2  -1  -9 144.329  12.910   8
   1   2  -9 164.121  12.541   8
   1   2  -9 199.191  15.622   7
   2  -1  -9 141.555  14.180   4
  -2   1  -9 173.260  16.058   4
   2  -1  -9 155.232  13.341   6
  -2   1  -9 135.240  12.531   8
   1  -2  -9 176.061  15.424   4
   2   1  -9 179.874  12.998   8
   1  -2  -9 164.397  14.364   6
  -1   2  -9 167.878  14.291   7
  -2  -1  -9 164.439  13.939   6
  -1   2  -9 173.796  16.134   4
  -2  -1  -9 159.609  16.135   4
  -1   2  -9 151.403  12.546   8
  -2  -1  -9 163.945  13.578   8
   2   1  -9 186.153  17.348   4
   1  -2  -9 133.229  12.677   8
  -2  -2  -9 -4.9257  6.2982   6
   2   2  -9 2.82597 5.41255   8
  -2   2  -9 10.2498  9.1734   4
   2  -2  -9 -5.5365  7.2062   6
   2  -2  -9 -8.0727  7.2185   4
   2   2  -9 20.6101 11.5765   4
  -2   2  -9 13.3004  8.1994   7
   2  -2  -9 1.99702 5.99061   8
  -2  -2  -9 7.20231 6.43490   8
   0  -3  -9 8.02572 7.90063   6
   0  -3  -9 -4.0783  5.6728   8
   3   0  -9 -1.9876  5.2777   8
   0   3  -9 -2.1226 10.6794   4
   3   0  -9 -4.3706  7.2463   4
   0   3  -9 -11.667   8.796   7
  -3   0  -9 2.87324 6.37246   6
  -3   1  -9 16.8916  7.0336   6
   1   3  -9 18.2059 11.8728   4
   1   3  -9 12.3615  9.6165   7
   3  -1  -9 19.6587  8.1305   4
  -3   1  -9 20.5147  9.1635   4
  -1  -3  -9 10.8903  6.5748   8
  -1  -3  -9 6.96357 7.80862   6
   3  -1  -9 21.6668  6.7608   8
  -3   1  -9 24.9886  8.0129   7
  -1   3  -9 -1.8625  8.3374   7
   1  -3  -9 18.9072  7.3227   8
  -3  -1  -9 23.5643  6.7337   8
  -3  -1  -9 25.9229  7.6637   6
   3   1  -9 15.9846  5.9307   8
  -1   3  -9 12.6708  9.5289   4
   1  -3  -9 12.4506  8.5240   6
   3   1  -9 10.8911  9.5800   4
  -3   2  -9 7.84810 7.71173   7
  -2  -3  -9 -4.2649  6.5220   6
   2   3  -9  4.6239 12.1957   4
  -2  -3  -9 17.8526  6.3439   8
   2   3  -9 14.5738  9.4414   7
   3  -2  -9 10.6381  6.4317   8
  -3   2  -9 6.18078 7.79691   4
   3  -2  -9 4.37620 7.45857   4
   2  -3  -9 7.39761 7.09869   8
   2  -3  -9 16.5585  7.7620   6
  -3  -2  -9 6.66573 5.76555   8
   3   2  -9 17.5916  9.9518   4
  -2   3  -9 6.74704 8.15657   7
  -3  -2  -9 8.84423 6.80759   6
  -2   3  -9 8.69706 8.24026   4
   3   3  -9 -6.5582 10.9500   4
  -3  -3  -9 1.98127 6.24950   6
  -3  -3  -9 1.52411 5.50537   8
   3  -3  -9 -7.8759  6.5502   8
  -3   3  -9 0.08531 7.08737   7
   3   3  -9 -6.2677  6.6585  11
   0  -4  -9 19.5885  7.0751   8
   0   4  -9 15.3763  9.1846   7
   0   4  -9 38.9325 10.8072   4
  -4   0  -9 21.9235  6.9858   6
   4   0  -9 16.4707  7.4656   4
   4   0  -9 13.2799  5.7442   8
   0  -4  -9 15.2717  9.0208   6
   4  -1  -9 77.9496 10.1193   4
   1   4  -9 79.0956 14.0410   4
  -1  -4  -9 78.0310  9.6671   8
  -4   1  -9 89.7264  9.5889   6
   4  -1  -9 66.2724  9.2653   8
   1   4  -9 89.0190 12.5165   7
  -1  -4  -9 93.5205 11.9660   6
  -1   4  -9 103.028  12.324   4
  -4  -1  -9 81.0429  9.4415   6
  -1   4  -9 76.0974 11.0293   7
   4   1  -9 85.0591 11.7842   4
   1  -4  -9 80.7986 11.7409   6
   1  -4  -9 86.7963 10.7599   8
   4  -2  -9 35.3554  8.0284   8
  -2  -4  -9 48.2579  7.7131   8
  -2  -4  -9 38.7411  3.2624   1
   2   4  -9 48.3174 13.7243   4
   2   4  -9 18.7990  8.1411  11
   2   4  -9 45.1859 11.4912   7
  -2  -4  -9 49.3906  8.4839   6
   4  -2  -9 19.1140  7.8584   4
  -4   2  -9 44.7221  8.5293   7
   2  -4  -9 38.9588  8.8027   6
  -2   4  -9 25.7275  7.9088   7
  -2   4  -9 37.1269  7.7596   4
   4   2  -9 39.4977  9.9979   4
   2  -4  -9 29.1030  8.6670   8
  -4  -2  -9 46.7467  7.9995   6
  -3  -4  -9 172.206   7.448   1
   3   4  -9 184.478  17.504   7
   4  -3  -9 184.338  15.829   8
  -3  -4  -9 177.645  12.973   6
  -4   3  -9 196.647  13.332   7
   3   4  -9 201.452  21.348   4
  -3  -4  -9 171.260  12.486   8
   4   3  -9 159.615  15.945   4
  -3   4  -9 174.283  13.327   7
   3  -4  -9 192.418  16.702   8
  -4  -3  -9 193.427  12.914   6
   4  -4  -9 -6.8324 10.0921   8
  -4  -4  -9 3.29372 5.80526   6
  -4   4  -9 -8.3344  4.9540   7
   4   4  -9 23.9441 10.7313   4
  -4  -4  -9 0.89247 1.54635   1
   0  -5  -9 -8.0241  5.5843   8
   0   5  -9 10.7520  7.4758   7
   0  -5  -9 0.97795 1.65468   1
   0  -5  -9 7.08772 9.64784   6
   5   0  -9 5.45238 6.18249   4
  -5   0  -9 0.66222 5.50342   6
   0   5  -9 -6.5519  7.0161   4
  -1  -5  -9 0.73660 5.70529   8
   5  -1  -9 9.72291 6.13008   8
   1   5  -9 5.04970 7.83658   7
   1   5  -9 0.30026 8.40389   4
  -1  -5  -9 4.86901 1.75408   1
  -1  -5  -9 6.15480 9.72998   6
  -5  -1  -9 -7.0555  5.0484   6
   1  -5  -9 16.7626  8.5463   6
   1  -5  -9 11.6348  6.9368   8
  -1   5  -9 7.71991 7.46513   7
  -1   5  -9 6.95166 7.15107   4
   5   1  -9 13.7982  7.3280   4
   1  -5  -9 7.44111 1.80966   1
  -2  -5  -9 72.6198  3.9708   1
   5  -2  -9 74.7083  9.6767   8
   2   5  -9 67.8009 12.2585   7
  -2  -5  -9 55.8064  9.6363   6
   2   5  -9 57.4635 13.4127   4
  -2  -5  -9 67.9658  8.3284   8
   2  -5  -9 61.4433  3.6174   1
  -2   5  -9 80.6899  8.9847   7
   5   2  -9 76.6969 10.2476   4
   2  -5  -9 71.9693 10.4708   8
  -5  -2  -9 68.5211  8.0660   6
   5  -3  -9 18.4378  8.4632   8
  -3  -5  -9 17.4243  6.5475   6
   3   5  -9 36.8883 16.7834   4
  -3  -5  -9 15.4211  2.1456   1
   5   3  -9 23.1342  8.1799   4
  -5  -3  -9 15.4113  5.6575   6
   3  -5  -9 12.4112  7.9641   8
  -3   5  -9 13.7826  5.9595   7
   4   5  -9  7.9632 11.7483   4
   5  -4  -9 12.7914 12.8170   8
  -4  -5  -9 2.16493 1.45771   1
  -4  -5  -9 -4.3108  5.1602   6
  -5  -4  -9 -0.9767  1.4362   1
   5   4  -9 2.27294 7.25871   4
  -4   5  -9 -4.0129  4.3596   7
   4  -5  -9 -1.4394  8.2702   8
  -5  -4  -9 6.86740 5.16368   6
  -5  -5  -9 1.48974 1.32231   1
   5   5  -9 1.73706 7.02488   4
   5  -5  -9 -2.8361  6.9769   8
   0  -6  -9 136.588   5.928   1
   0  -6  -9 162.289  16.291   6
   0   6  -9 135.231  11.097   7
   0   6  -9 137.472  11.243   4
   0  -6  -9 142.827  11.754   8
  -1  -6  -9 68.9858  8.2617   8
   1   6  -9 73.6481  9.0717   7
  -1  -6  -9 132.861  18.978   6
  -1  -6  -9 68.0820  3.8191   1
   1   6  -9 69.7838  9.2049   4
   1  -6  -9 81.1162  9.5900   8
   1  -6  -9 66.5108  3.7607   1
  -1   6  -9 72.3645  8.4425   7
   1  -6  -9 75.7761  9.7479   6
   2   6  -9 34.1256  8.0864   7
  -2  -6  -9 37.5341  9.9129   6
  -2  -6  -9 40.8558  2.8841   1
   6  -2  -9 52.9234  7.9448   8
   2   6  -9 44.0890  9.1302   4
   6   2  -9 38.3536  7.8280   4
  -2   6  -9 27.8673  5.9430   7
   2  -6  -9 33.4106  2.5725   1
   2  -6  -9 32.4094  7.8535   8
  -3  -6  -9 4.98753 1.55404   1
   3   6  -9 2.07762 9.39840   4
  -3  -6  -9 2.20378 5.99514   6
   6  -3  -9 7.28376 6.20433   8
  -3   6  -9 7.69404 4.86626   7
   6   3  -9 6.28215 6.11661   4
   3  -6  -9 6.28039 6.15594   8
   3  -6  -9 5.74726 1.43422   1
  -4  -6  -9 3.99376 1.36314   1
   4   6  -9 2.69140 8.72552   4
   6  -4  -9 20.2010  6.7630   8
   6   4  -9 -0.9081  5.6012   4
   4  -6  -9 8.99044 5.78854   8
  -6  -4  -9 4.05284 1.48241   1
  -4   6  -9 3.73743 3.91354   7
   4  -6  -9 2.92529 1.07807   1
   6  -5  -9 27.7043  5.7891   8
   5   6  -9 30.3983  6.8735   4
   6   5  -9 18.0195  5.9577   4
   5  -6  -9 34.5498  5.9747   8
   0   7  -9 -0.2006  4.7746   7
   0  -7  -9 -0.2501  1.2541   1
   0  -7  -9 9.56687 6.44274   6
  -1  -7  -9 -8.1198  7.9521   6
   1   7  -9 4.83225 5.10760   4
  -1  -7  -9 7.71226 1.54400   1
   1   7  -9 4.02269 4.68387   7
  -1   7  -9 0.78979 4.27807   7
   1  -7  -9 7.71594 4.86845   8
   1  -7  -9 6.52349 1.43137   1
  -2  -7  -9 40.4855  2.5778   1
  -2  -7  -9 24.3654  7.6102   6
   2   7  -9 41.6391  6.1170   7
   2   7  -9 30.7054  6.1625   4
   2  -7  -9 33.7038  2.2482   1
  -2   7  -9 39.3736  5.7525   7
   2  -7  -9 29.5665  6.0728   8
  -3  -7  -9 17.5541  1.7318   1
   3   7  -9 13.7411  5.7665   4
   7  -3  -9 5.36486 4.65495   8
   3  -7  -9 15.6971  1.5537   1
   3  -7  -9 8.75210 4.78190   8
   0   0 -10 671.414  31.055   8
   0   0 -10 657.568  30.804   6
   0   0 -10 722.435  34.991   4
  -1   0 -10 7.69470 7.28648   6
   0  -1 -10  6.6405 10.1410   4
   1   0 -10 -6.0521  9.8787   4
  -1   0 -10 -12.247  10.174   4
   0  -1 -10 -2.6678  5.9202   8
  -1   0 -10 -5.5917  5.9554   8
   1   0 -10 5.58936 6.31832   8
   0  -1 -10 -2.9658  7.4573   6
   0   1 -10  3.0874 11.1068   4
   0   1 -10 4.22777 6.01434   8
  -1   1 -10 178.228  13.763   7
  -1   1 -10 165.872  17.028   4
  -1  -1 -10 152.113  13.691   6
   1  -1 -10 151.056  12.913   8
   1   1 -10 154.706  12.727   8
   1  -1 -10 142.577  13.737   6
   1  -1 -10 166.963  15.889   4
   1   1 -10 193.693  18.334   4
  -1  -1 -10 140.125  12.807   8
  -2   0 -10 1951.35   73.16   6
   2   0 -10 1896.72   75.53   8
   0   2 -10 1998.84   70.89   7
   0   2 -10 1937.87   78.69   4
   0  -2 -10 1958.08   76.32   8
   2   0 -10 1990.28   76.90   4
   0  -2 -10 2048.00   74.75   6
   2  -1 -10 25.0133  7.4318   8
  -2   1 -10 43.2947 11.8808   4
   2  -1 -10 47.5053 10.2300   4
  -1  -2 -10 52.2088  8.7105   8
   1   2 -10 34.4323 12.2820   4
  -1  -2 -10 49.3790  9.6576   6
  -1   2 -10 45.7953  9.7334   7
   1  -2 -10 50.4601  9.5547   6
   1  -2 -10 33.7448  8.2152   8
  -2  -1 -10 38.6600  8.3942   6
  -1   2 -10 38.8433 11.8124   4
  -2  -1 -10 39.2705  7.7101   8
   2   1 -10 36.3690  7.3144   8
   2   1 -10 47.8308 11.7177   4
  -2  -2 -10 2412.57   94.56   8
   2   2 -10 2693.49   97.70   4
  -2  -2 -10 2474.48   91.14   6
  -2   2 -10 2596.62   95.05   4
  -2   2 -10 2423.07   87.31   7
   2  -2 -10 2480.32   95.04   8
  -3   0 -10 -0.3670  6.0665   6
   0  -3 -10 -0.9741  6.2952   8
   0   3 -10 6.51608 8.75735   7
   3   0 -10 5.24097 5.69539   8
   3   0 -10 -2.5224  7.7589   4
   0  -3 -10 0.07461 8.06450   6
   0   3 -10 0.52667 9.66618   4
   3  -1 -10 185.453  14.432   4
   1   3 -10 178.392  15.568   7
  -1  -3 -10 192.265  15.296   6
   1   3 -10 212.574  18.902   4
  -1  -3 -10 182.736  13.729   8
   3  -1 -10 179.032  13.440   8
  -3  -1 -10 197.754  13.472   6
   1  -3 -10 195.375  14.675   8
  -1   3 -10 167.416  15.256   4
  -1   3 -10 170.795  14.773   7
   1  -3 -10 154.490  14.556   6
   3   1 -10 165.782  12.453   8
   3   1 -10 202.971  16.134   4
   3  -2 -10 8.69258 6.10799   8
   2   3 -10 27.2602 13.0437   4
  -2  -3 -10 3.39332 5.70755   8
  -2  -3 -10 1.68090 6.43782   6
   3   2 -10 7.33666 9.25277   4
  -2   3 -10 14.2533  7.6349   7
   2  -3 -10 12.1035  7.1945   8
  -2   3 -10 1.75663 7.26416   4
  -3  -2 -10 8.41795 6.35559   6
   3  -3 -10 415.561  22.911   8
  -3  -3 -10 396.440  20.150   6
   3   3 -10 473.964  27.290   4
  -3   3 -10 425.301  20.251   7
   4   0 -10 2278.14   83.11   4
   0   4 -10 2279.54   83.98   4
   0  -4 -10 2228.22   83.21   6
   0  -4 -10 2197.92   84.73   8
   0   4 -10 2070.92   78.08   7
   4   0 -10 2267.27   83.54   8
   1   4 -10 2.18001 9.64742   4
   1   4 -10 -8.2857  7.9526   7
  -1  -4 -10 5.85389 8.61994   6
  -1  -4 -10 -6.6338  5.4280   8
   4  -1 -10 -4.5762  5.4821   8
   4  -1 -10 -12.444   6.312   4
   4   1 -10 -1.2262  6.7821   4
  -1   4 -10 -4.4632  6.7498   7
   1  -4 -10 1.38921 7.61813   6
  -4  -1 -10 -0.8191  5.5160   6
  -1   4 -10 -13.381   6.312   4
   1  -4 -10 0.02699 6.24474   8
  -2  -4 -10 1727.36   66.21   6
  -2  -4 -10 1753.29   67.92   8
   4  -2 -10 1824.70   69.01   8
   2   4 -10 1777.96   73.11   4
  -4  -2 -10 1737.17   64.80   6
  -2   4 -10 1822.94   62.75   7
   2  -4 -10 1811.89   69.78   8
   4   2 -10 1767.10   67.92   4
   3   4 -10 22.5938 14.8982   4
  -3  -4 -10 18.9875  6.1309   6
   4  -3 -10 28.9498  9.0504   8
   4   3 -10 38.0484  9.4697   4
  -4  -3 -10 22.8791  5.9177   6
   3  -4 -10 24.0586  9.0729   8
  -3   4 -10 21.5710  5.8988   7
   4   4 -10 777.664  36.990   4
   4  -4 -10 977.332  44.917   8
   5   0 -10 11.4959  6.1226   4
   0  -5 -10 2.18372 5.62524   8
   0   5 -10 0.64079 5.89739   7
   0   5 -10 -7.5842  5.4515   4
   1   5 -10 145.751  12.529   4
  -1  -5 -10 155.328  11.312   8
   1   5 -10 142.541  12.479   7
  -1  -5 -10 156.972  17.079   6
   5  -1 -10 148.358  11.149   8
   5   1 -10 163.771  11.767   4
   1  -5 -10 140.958  12.040   8
  -1   5 -10 148.446  10.801   7
  -2  -5 -10 2.89204 4.58529   8
   2   5 -10 -10.531   8.485   4
   5  -2 -10 0.53850 5.20652   8
   2  -5 -10 6.86897 6.05395   8
  -2   5 -10 0.89313 4.63060   7
   5   2 -10 -1.1247  5.4530   4
   5  -3 -10 137.871  11.504   8
   3  -5 -10 136.381  11.473   8
   5   3 -10 148.924  11.048   4
   1   6 -10 10.6675  4.8563   4
   1  -6 -10 14.1010  5.2795   8
   0   1 -11 10.2431 10.5318   4
   1   0 -11 -6.6948  4.3804   8
   0  -1 -11 0.73920 5.04515   8
   1   1 -11 -2.8000 10.4065   4
   1  -1 -11 -2.1775  5.0263   8
   2   0 -11 150.692  13.688   4
   2   0 -11 157.493  10.729   8
   0  -2 -11 133.838  11.183   8
   0   2 -11 146.278  14.951   4
   2  -1 -11 1.29084 5.13870   8
   1   2 -11  6.7941 10.4642   4
   1  -2 -11 0.64347 5.42591   8
   2   1 -11 -3.3684  9.1337   4
   2   2 -11  0.3304 10.0108   4
   2  -2 -11 -7.9691  5.2903   8
   0  -3 -11 -3.4443  5.2266   8
   0   3 -11 -8.8496  7.2848   4
   3  -1 -11 -3.7022  4.8374   8
   1   3 -11 0.83078 9.16018   4
   1  -3 -11 3.77335 5.69255   8
   3   1 -11 -2.3391  6.9626   4
  -1   3 -11 2.22875 6.07709   4
   0   0   0    0.00    0.00   0
;
_shelx_hkl_checksum              17723
#END Tags that were not found in dictionaries
loop_
_space_group_symop_operation_xyz
'x, y, z'
'-x, -y, z'
'-y, x, z+1/2'
'y, -x, z+1/2'
'-x+1/2, y+1/2, -z'
'x+1/2, -y+1/2, -z'
'y+1/2, x+1/2, -z+1/2'
'-y+1/2, -x+1/2, -z+1/2'
'-x, -y, -z'
'x, y, -z'
'y, -x, -z-1/2'
'-y, x, -z-1/2'
'x-1/2, -y-1/2, z'
'-x-1/2, y-1/2, z'
'-y-1/2, -x-1/2, z-1/2'
'y-1/2, x-1/2, z-1/2'
loop_
_atom_site_label
_atom_site_type_symbol
_atom_site_fract_x
_atom_site_fract_y
_atom_site_fract_z
_atom_site_U_iso_or_equiv
_atom_site_adp_type
_atom_site_occupancy
_atom_site_site_symmetry_order
_atom_site_calc_flag
_atom_site_refinement_flags_posn
_atom_site_refinement_flags_adp
_atom_site_refinement_flags_occupancy
U1 U 0.0000 0.0000 0.2500 0.0110(2) Uani 1 4 d S T P
Ba1 Ba 0.0000 0.5000 0.2500 0.0166(3) Uani 1 4 d S T P
P1 P 0.03580(14) 0.23145(13) 0.0000 0.0124(3) Uani 1 2 d S T P
S1 S 0.22663(9) 0.07075(8) 0.32694(10) 0.0141(3) Uani 1 1 d . . .
S2 S 0.13411(12) 0.07490(12) 0.0000 0.0129(3) Uani 1 2 d S T P
S3 S 0.13836(13) 0.37840(14) 0.0000 0.0159(4) Uani 1 2 d S T P
loop_
_atom_site_aniso_label
_atom_site_aniso_U_11
_atom_site_aniso_U_22
_atom_site_aniso_U_33
_atom_site_aniso_U_23
_atom_site_aniso_U_13
_atom_site_aniso_U_12
U1 0.0133(2) 0.0133(2) 0.0065(3) 0.000 0.000 0.000
Ba1 0.0191(4) 0.0191(4) 0.0116(6) 0.000 0.000 -0.00007(19)
P1 0.0138(7) 0.0151(7) 0.0081(7) 0.000 0.000 0.0005(6)
S1 0.0155(5) 0.0164(5) 0.0105(5) 0.0029(3) -0.0005(4) -0.0011(4)
S2 0.0140(8) 0.0162(8) 0.0086(7) 0.000 0.000 0.0016(5)
S3 0.0147(7) 0.0163(8) 0.0167(9) 0.000 0.000 -0.0022(6)
loop_
_atom_type_symbol
_atom_type_description
_atom_type_scat_dispersion_real
_atom_type_scat_dispersion_imag
_atom_type_scat_source
P P 0.2955 0.4335 'International Tables Vol C Tables 4.2.6.8 and 6.1.1.4'
S S 0.3331 0.5567 'International Tables Vol C Tables 4.2.6.8 and 6.1.1.4'
Ba Ba -1.0456 8.4617 'International Tables Vol C Tables 4.2.6.8 and 6.1.1.4'
U U -4.3638 13.4090 'International Tables Vol C Tables 4.2.6.8 and 6.1.1.4'
loop_
_geom_angle_atom_site_label_1
_geom_angle_atom_site_label_2
_geom_angle_atom_site_label_3
_geom_angle
_geom_angle_site_symmetry_1
_geom_angle_site_symmetry_3
S1 U1 S1 94.197(11) . 11_556
S1 U1 S1 148.61(4) . 2
S1 U1 S1 94.197(11) 11_556 2
S1 U1 S1 94.198(11) . 12_556
S1 U1 S1 148.61(4) 11_556 12_556
S1 U1 S1 94.197(11) 2 12_556
S1 U1 S2 71.10(3) . .
S1 U1 S2 83.89(3) 11_556 .
S1 U1 S2 139.95(3) 2 .
S1 U1 S2 70.43(3) 12_556 .
S1 U1 S2 139.95(3) . 9
S1 U1 S2 70.43(3) 11_556 9
S1 U1 S2 71.10(3) 2 9
S1 U1 S2 83.89(3) 12_556 9
S2 U1 S2 70.64(4) . 9
S1 U1 S2 83.89(3) . 3
S1 U1 S2 139.95(3) 11_556 3
S1 U1 S2 70.43(3) 2 3
S1 U1 S2 71.10(3) 12_556 3
S2 U1 S2 131.74(3) . 3
S2 U1 S2 131.74(3) 9 3
S1 U1 S2 70.43(3) . 11_556
S1 U1 S2 71.10(3) 11_556 11_556
S1 U1 S2 83.89(3) 2 11_556
S1 U1 S2 139.95(3) 12_556 11_556
S2 U1 S2 131.74(3) . 11_556
S2 U1 S2 131.74(3) 9 11_556
S2 U1 S2 70.64(4) 3 11_556
S3 Ba1 S3 99.49(5) 7_455 9_565
S3 Ba1 S3 80.71(5) 7_455 15_666
S3 Ba1 S3 175.22(5) 9_565 15_666
S3 Ba1 S3 175.22(5) 7_455 .
S3 Ba1 S3 80.71(5) 9_565 .
S3 Ba1 S3 99.49(5) 15_666 .
S3 Ba1 S1 121.95(3) 7_455 12_556
S3 Ba1 S1 96.25(3) 9_565 12_556
S3 Ba1 S1 79.70(3) 15_666 12_556
S3 Ba1 S1 62.65(3) . 12_556
S3 Ba1 S1 96.25(3) 7_455 14_665
S3 Ba1 S1 121.95(3) 9_565 14_665
S3 Ba1 S1 62.65(3) 15_666 14_665
S3 Ba1 S1 79.70(3) . 14_665
S1 Ba1 S1 120.82(3) 12_556 14_665
S3 Ba1 S1 79.70(3) 7_455 11_566
S3 Ba1 S1 62.65(3) 9_565 11_566
S3 Ba1 S1 121.95(3) 15_666 11_566
S3 Ba1 S1 96.25(3) . 11_566
S1 Ba1 S1 153.41(3) 12_556 11_566
S1 Ba1 S1 66.01(3) 14_665 11_566
S3 Ba1 S1 62.65(3) 7_455 13_565
S3 Ba1 S1 79.70(3) 9_565 13_565
S3 Ba1 S1 96.25(3) 15_666 13_565
S3 Ba1 S1 121.95(3) . 13_565
S1 Ba1 S1 66.01(3) 12_556 13_565
S1 Ba1 S1 153.41(3) 14_665 13_565
S1 Ba1 S1 120.82(3) 11_566 13_565
S3 Ba1 Ba1 40.35(2) 7_455 9_566
S3 Ba1 Ba1 139.65(2) 9_565 9_566
S3 Ba1 Ba1 40.35(2) 15_666 9_566
S3 Ba1 Ba1 139.65(2) . 9_566
S1 Ba1 Ba1 103.294(17) 12_556 9_566
S1 Ba1 Ba1 76.706(17) 14_665 9_566
S1 Ba1 Ba1 103.294(17) 11_566 9_566
S1 Ba1 Ba1 76.706(17) 13_565 9_566
S3 Ba1 Ba1 139.65(2) 7_455 9_565
S3 Ba1 Ba1 40.35(2) 9_565 9_565
S3 Ba1 Ba1 139.65(2) 15_666 9_565
S3 Ba1 Ba1 40.35(2) . 9_565
S1 Ba1 Ba1 76.706(17) 12_556 9_565
S1 Ba1 Ba1 103.294(17) 14_665 9_565
S1 Ba1 Ba1 76.706(17) 11_566 9_565
S1 Ba1 Ba1 103.294(17) 13_565 9_565
Ba1 Ba1 Ba1 180.0 9_566 9_565
S3 P1 S1 110.65(6) . 3_554
S3 P1 S1 110.65(6) . 12_556
S1 P1 S1 109.19(9) 3_554 12_556
S3 P1 S2 112.96(9) . .
S1 P1 S2 106.60(5) 3_554 .
S1 P1 S2 106.60(5) 12_556 .
P1 S1 U1 94.50(5) 11_556 .
P1 S1 Ba1 91.24(5) 11_556 11_556
U1 S1 Ba1 137.19(3) . 11_556
P1 S2 U1 88.30(4) . 9
P1 S2 U1 88.30(4) . .
U1 S2 U1 109.36(4) 9 .
P1 S3 Ba1 94.14(5) . 9_565
P1 S3 Ba1 94.14(5) . .
Ba1 S3 Ba1 99.29(5) 9_565 .
loop_
_geom_bond_atom_site_label_1
_geom_bond_atom_site_label_2
_geom_bond_distance
_geom_bond_site_symmetry_2
U1 S1 2.7474(10) .
U1 S1 2.7474(10) 11_556
U1 S1 2.7474(10) 2
U1 S1 2.7474(10) 12_556
U1 S2 2.9599(8) .
U1 S2 2.9599(8) 9
U1 S2 2.9599(8) 3
U1 S2 2.9599(8) 11_556
Ba1 S3 3.1692(11) 7_455
Ba1 S3 3.1692(11) 9_565
Ba1 S3 3.1692(11) 15_666
Ba1 S3 3.1692(11) .
Ba1 S1 3.2324(10) 12_556
Ba1 S1 3.2324(10) 14_665
Ba1 S1 3.2324(10) 11_566
Ba1 S1 3.2324(10) 13_565
Ba1 Ba1 4.8302(3) 9_566
Ba1 Ba1 4.8302(3) 9_565
P1 S3 1.996(2) .
P1 S1 2.0511(13) 3_554
P1 S1 2.0511(13) 12_556
P1 S2 2.059(2) .
S1 P1 2.0510(13) 11_556
S1 Ba1 3.2325(10) 11_556
S2 U1 2.9599(8) 9
S3 Ba1 3.1692(11) 9_565
