#------------------------------------------------------------------------------
#$Date: 2016-03-24 00:18:40 +0200 (Thu, 24 Mar 2016) $
#$Revision: 179530 $
#$URL: svn://www.crystallography.net/cod/cif/4/34/27/4342744.cif $
#------------------------------------------------------------------------------
#
# This file is available in the Crystallography Open Database (COD),
# http://www.crystallography.net/
#
# All data on this site have been placed in the public domain by the
# contributors.
#
data_4342744
loop_
_publ_author_name
'Mesbah, Adel'
'Prakash, Jai'
'Beard, Jessica C.'
'Leb\`egue, S\'ebastien'
'Malliakas, Christos D.'
'Ibers, James A.'
_publ_section_title
;
 Syntheses, Crystal Structures, Optical and Theoretical Studies of the
 Actinide Thiophosphates SrU(PS4)2, BaU(PS4)2, and SrTh(PS4)2.
;
_journal_issue                   6
_journal_name_full               'Inorganic chemistry'
_journal_page_first              2970
_journal_page_last               2975
_journal_paper_doi               10.1021/acs.inorgchem.5b00071
_journal_volume                  54
_journal_year                    2015
_chemical_formula_sum            'P2 S8 Sr U'
_chemical_formula_weight         644.07
_chemical_name_common            SrUP2S8
_space_group_crystal_system      tetragonal
_space_group_IT_number           135
_space_group_name_Hall           '-P 4c 2ab'
_space_group_name_H-M_alt        'P 42/m b c'
_symmetry_space_group_name_Hall  '-P 4c 2ab'
_symmetry_space_group_name_H-M   'P 42/m b c'
_atom_sites_solution_primary     direct
_atom_sites_solution_secondary   difmap
_audit_creation_method           SHELXL-2014/6
_cell_angle_alpha                90
_cell_angle_beta                 90
_cell_angle_gamma                90
_cell_formula_units_Z            4
_cell_length_a                   10.9717(2)
_cell_length_b                   10.9717(2)
_cell_length_c                   9.5734(2)
_cell_measurement_reflns_used    4889
_cell_measurement_temperature    100(2)
_cell_measurement_theta_max      30.40
_cell_measurement_theta_min      3.71
_cell_volume                     1152.43(4)
_computing_cell_refinement       'Bruker SAINT'
_computing_data_collection       'Bruker APEX2'
_computing_data_reduction        'Bruker SAINT'
_computing_molecular_graphics    'Bruker SHELXTL'
_computing_publication_material  'Bruker SHELXTL'
_computing_structure_refinement  'SHELXL-2014/6 (Sheldrick, 2014)'
_computing_structure_solution    'SHELXL-2012/1 (Sheldrick, 2012)'
_diffrn_ambient_temperature      100(2)
_diffrn_measured_fraction_theta_full 0.996
_diffrn_measured_fraction_theta_max 0.998
_diffrn_measurement_device_type  'Bruker APEX-II CCD'
_diffrn_measurement_method       '\f and \w scans'
_diffrn_radiation_type           MoK\a
_diffrn_radiation_wavelength     0.71073
_diffrn_reflns_av_R_equivalents  0.0253
_diffrn_reflns_av_unetI/netI     0.0092
_diffrn_reflns_Laue_measured_fraction_full 0.996
_diffrn_reflns_Laue_measured_fraction_max 0.998
_diffrn_reflns_limit_h_max       15
_diffrn_reflns_limit_h_min       -15
_diffrn_reflns_limit_k_max       15
_diffrn_reflns_limit_k_min       -15
_diffrn_reflns_limit_l_max       8
_diffrn_reflns_limit_l_min       -13
_diffrn_reflns_number            14645
_diffrn_reflns_point_group_measured_fraction_full 0.996
_diffrn_reflns_point_group_measured_fraction_max 0.998
_diffrn_reflns_theta_full        25.242
_diffrn_reflns_theta_max         30.532
_diffrn_reflns_theta_min         3.714
_diffrn_source                   'fine-focus sealed tube'
_exptl_absorpt_coefficient_mu    20.331
_exptl_absorpt_correction_T_max  0.73216
_exptl_absorpt_correction_T_min  0.29529
_exptl_absorpt_correction_type   numerical
_exptl_absorpt_process_details   'face indexed (SADABS; Sheldrick, 2012/1)'
_exptl_crystal_colour            Orange
_exptl_crystal_density_diffrn    3.712
_exptl_crystal_density_meas      ?
_exptl_crystal_density_method    'not measured'
_exptl_crystal_description       Needle
_exptl_crystal_F_000             1152
_exptl_crystal_size_max          0.144
_exptl_crystal_size_mid          0.031
_exptl_crystal_size_min          0.023
_refine_diff_density_max         0.675
_refine_diff_density_min         -0.555
_refine_diff_density_rms         0.137
_refine_ls_extinction_coef       0.00019(5)
_refine_ls_extinction_expression Fc^*^=kFc[1+0.001xFc^2^\l^3^/sin(2\q)]^-1/4^
_refine_ls_extinction_method     SHELXL
_refine_ls_goodness_of_fit_ref   1.281
_refine_ls_hydrogen_treatment    undef
_refine_ls_matrix_type           full
_refine_ls_number_parameters     34
_refine_ls_number_reflns         930
_refine_ls_number_restraints     0
_refine_ls_restrained_S_all      1.281
_refine_ls_R_factor_all          0.0178
_refine_ls_R_factor_gt           0.0126
_refine_ls_shift/su_max          0.000
_refine_ls_shift/su_mean         0.000
_refine_ls_structure_factor_coef Fsqd
_refine_ls_weighting_details
'w=1/[\s^2^(Fo^2^)+(0.0127P)^2^] where P=(1.0000Fo^2^+0.0000Fc^2^)'
_refine_ls_weighting_scheme      calc
_refine_ls_wR_factor_gt          0.0279
_refine_ls_wR_factor_ref         0.0296
_reflns_Friedel_coverage         0.000
_reflns_number_gt                805
_reflns_number_total             930
_reflns_threshold_expression     'I > 2\s(I)'
_cod_data_source_file            ic5b00071_si_001.cif
_cod_data_source_block           SrUP2S8
_cod_depositor_comments
;
The following automatic conversions were performed:

'_exptl_crystal_density_meas' value 'not measured' was changed to '?'
- the value is perceived as not measured.

Automatic conversion script
Id: cif_fix_values 3143 2015-03-26 13:38:13Z robertas 
;
_cod_original_cell_volume        1152.43(5)
_cod_database_code               4342744
#BEGIN Tags that were not found in dictionaries:
_shelx_space_group_comment
;
The symmetry employed for this shelxl refinement is uniquely defined
by the following loop, which should always be used as a source of
symmetry information in preference to the above space-group names.
They are only intended as comments.
;
_shelxl_version_number           2014/6
_shelx_res_file
;
TITL SrU(PS4)2 in P42/mbc after abs correction and str. tidy
CELL 0.71073 10.9717 10.9717 9.5734 90 90 90
ZERR 4 0.0002 0.0002 0.0002 0 0 0
LATT 1
SYMM -Y,+X,0.5+Z
SYMM -X,-Y,+Z
SYMM +Y,-X,0.5+Z
SYMM 0.5+X,0.5-Y,-Z
SYMM 0.5-X,0.5+Y,-Z
SYMM 0.5+Y,0.5+X,0.5-Z
SYMM 0.5-Y,0.5-X,0.5-Z

SFAC P S Sr U
UNIT 8 32 4 4

L.S. 4
PLAN  20
TEMP -173.21

BOND
fmap 2
ACTA
OMIT 1 1 0
OMIT 1 2 0

WGHT    0.012700    0.000000    0.000000    0.000000    0.000000    1.000000
EXTI    0.000195
FVAR       0.18155
U1    4    0.000000    0.000000    0.250000    10.25000    0.00511    0.00511 =
         0.00362    0.00000    0.00000    0.00000
SR1   3    0.000000    0.500000    0.250000    10.25000    0.00709    0.00709 =
         0.00532    0.00000    0.00000   -0.00018
P1    1    0.035250    0.237172    0.000000    10.50000    0.00576    0.00603 =
         0.00340    0.00000    0.00000    0.00048
S1    2    0.231537    0.071437    0.324911    11.00000    0.00658    0.00883 =
         0.00576    0.00257   -0.00007   -0.00081
S2    2    0.135779    0.078301    0.000000    10.50000    0.00605    0.00677 =
         0.00438    0.00000    0.00000    0.00109
S3    2    0.136595    0.388647    0.000000    10.50000    0.00743    0.00660 =
         0.00755    0.00000    0.00000   -0.00089
HKLF 4

REM  SrU(PS4)2 in P42/mbc after abs correction and str. tidy
REM R1 =  0.0126 for     805 Fo > 4sig(Fo)  and  0.0178 for all     930 data
REM     34 parameters refined using      0 restraints

END

WGHT      0.0127      0.9600

REM Highest difference peak  0.675,  deepest hole -0.555,  1-sigma level  0.137
Q1    1   0.0000  0.0000  0.1375  10.50000  0.05    0.68
Q2    1   0.1335  0.4045 -0.1176  11.00000  0.05    0.50
Q3    1   0.0436  0.2490 -0.1200  11.00000  0.05    0.49
Q4    1   0.1412  0.0865 -0.1296  11.00000  0.05    0.43
Q5    1  -0.0347  0.2531 -0.0568  11.00000  0.05    0.42
Q6    1   0.0763  0.3122 -0.0415  11.00000  0.05    0.40
Q7    1   0.1102  0.1727  0.0840  11.00000  0.05    0.39
Q8    1   0.0000  0.5000  0.2145  10.50000  0.05    0.37
Q9    1   0.1241  0.0202  0.3514  11.00000  0.05    0.36
Q10   1   0.0899 -0.0407  0.0326  11.00000  0.05    0.35
Q11   1   0.0929 -0.0317  0.1998  11.00000  0.05    0.35
Q12   1  -0.0429  0.1068 -0.0609  11.00000  0.05    0.34
Q13   1   0.0169  0.6026  0.3746  11.00000  0.05    0.33
Q14   1   0.1327  0.4805  0.0630  11.00000  0.05    0.33
Q15   1   0.2155  0.0420  0.3593  11.00000  0.05    0.33
Q16   1   0.1325  0.0366  0.2742  11.00000  0.05    0.31
Q17   1   0.0666 -0.0640  0.1860  11.00000  0.05    0.30
Q18   1   0.2447  0.4344  0.0449  11.00000  0.05    0.30
Q19   1   0.1587  0.1078 -0.0434  11.00000  0.05    0.30
Q20   1   0.0790  0.0273  0.1130  11.00000  0.05    0.30
;
_shelx_res_checksum              65509
_shelx_hkl_file
;
  -1   0   0 -8.8479 0.56224   4
   0  -1   0 -9.3444 0.48271   4
   0   1   0 -8.4832 0.48801   4
   1   0   0 -10.539 0.67518   4
  -1   1   0 -0.9994 0.86341   4
   1  -1   0 -1.8167 1.00745   4
   1   1   0 0.86646 1.06422   4
   2   0   0 5905.21 86.6132   4
   0   2   0 5833.18 85.6666   4
   0  -2   0 6254.01 85.8386   4
  -2   0   0 5744.35 86.5507   4
  -2   1   0 0.47440 1.97518   4
   2   1   0 -2.0112 1.90399   4
   1  -2   0 -0.1289 1.77620   4
  -2  -1   0 -0.5318 1.87904   4
  -1   2   0 -1.1548 1.79948   4
   2  -1   0 1.65802 2.15511   4
  -2   2   0 1271.61 20.9915   4
   2  -2   0 1249.23 20.9407   4
   2   2   0 1265.53 20.8202   4
   3   0   0 2.08047 2.51794   4
  -3   0   0 -3.3447 2.38809   4
   0   3   0 0.43822 1.83090   4
  -1   3   0 687.390 12.2660   4
  -3  -1   0 676.041 13.1785   4
   3   1   0 663.887 13.2928   4
   1  -3   0 684.836 12.2761   4
  -1  -3   0 670.406 12.7234   2
   3   1   0 672.166 12.7314   2
  -3   1   0 669.836 13.3959   4
   3  -1   0 656.401 12.7219   2
   1  -3   0 674.269 12.7205   2
   3   2   0 919.625 16.4771   2
  -2  -3   0 916.314 16.4809   2
   3  -2   0 894.924 16.8541   4
   2  -3   0 921.268 16.3169   4
  -2   3   0 913.233 16.4400   4
  -3  -2   0 911.826 16.6277   4
  -3   2   0 896.257 16.9155   4
   3  -3   0 218.924 7.40307   4
  -3   3   0 213.050 7.29053   4
   3   3   0 237.330 7.31485   4
  -4   0   0 4343.79 67.8619   4
   0  -4   0 4449.08 66.9422   2
   4   0   0 4582.52 67.1002   2
   0   4   0 4454.82 66.1162   4
   4   0   0 4442.83 68.0476   4
  -4  -1   0 337.550 9.46935   4
  -1  -4   0 358.332 9.10153   2
  -4   1   0 357.842 9.77719   4
   4   1   0 358.758 9.07397   2
   4   1   0 367.864 9.82536   4
   1  -4   0 365.486 9.11480   2
   1  -4   0 361.844 8.46985   4
  -1   4   0 359.327 8.43017   4
   4  -1   0 358.661 9.79488   4
   4  -1   0 356.465 9.20469   2
   2  -4   0 6045.25 89.8659   4
  -4  -2   0 6064.95 90.8993   4
   2  -4   0 5988.72 90.3211   2
  -2  -4   0 6157.10 90.3911   2
   4  -2   0 6091.15 91.1334   4
   4  -2   0 5973.04 90.2999   2
   4   2   0 6151.12 90.3928   2
  -2   4   0 6051.02 89.9979   4
   4   2   0 6206.99 91.1781   4
  -4   2   0 5979.21 91.1390   4
  -3   4   0 5.68281 2.89258   4
   4  -3   0 6.45879 3.01305   2
   4  -3   0 18.7892 3.52146   4
   4   3   0 8.58253 2.92641   2
   4   3   0 10.2537 3.08650   4
  -4   3   0 0.78337 2.87004   4
   3  -4   0 10.0449 2.94486   4
   3  -4   0 0.31382 2.72154   2
   3   4   0 9.82444 2.85901   4
  -3  -4   0 8.39950 3.03100   2
  -4   4   0 7018.93 104.453   4
   4  -4   0 6998.50 104.155   4
   4  -4   0 6758.51 103.737   2
   4   4   0 6979.36 103.919   4
  -5   0   0 0.56902 2.84407   4
   5   0   0 1.26637 3.04696   4
   0  -5   0 2.43093 2.53603   2
   0   5   0 -5.6210 2.08483   4
   5   0   0 -3.5651 2.42244   2
  -1   5   0 1340.34 22.5058   4
   5  -1   0 1307.25 23.3118   2
   1  -5   0 1304.76 22.2730   4
   5   1   0 1263.85 23.2346   2
   1  -5   0 1325.05 23.4149   2
  -1  -5   0 1319.59 23.3971   2
   5  -1   0 1295.94 24.2635   4
  -5   1   0 1284.61 24.2462   4
   5   1   0 1286.53 24.0628   4
   1   5   0 1296.24 22.1768   4
  -5  -1   0 1300.69 24.1567   4
   2  -5   0 13.2901 3.22563   2
  -5   2   0 14.3534 3.54126   4
   2  -5   0 17.6633 2.98149   4
  -5  -2   0 13.7928 3.36593   4
  -2  -5   0 16.6620 3.25379   2
   5   2   0 20.2303 3.80218   4
   5  -2   0 10.8769 3.17163   2
   5  -2   0 11.6329 3.48966   4
  -2   5   0 16.4941 3.05602   4
   5   2   0 16.3863 3.34060   2
  -5   3   0 829.399 17.9098   4
   3  -5   0 833.097 16.6486   4
   5   3   0 832.141 17.8170   4
  -3  -5   0 845.471 17.4093   2
   5   3   0 847.798 17.3245   2
  -5  -3   0 825.981 17.5247   1
  -3   5   0 855.699 17.0689   4
   3   5   0 840.171 17.5775   1
   3  -5   0 841.177 17.2751   2
   5  -3   0 853.177 17.3873   2
   5   3   0 784.606 17.3548   1
   5  -3   0 868.652 17.9716   4
   5  -3   0 828.424 17.5667   1
   3  -5   0 825.629 17.6152   1
  -3   5   0 838.174 17.5635   1
   5  -4   0 30.2264 4.34167   4
   5   4   0 25.8694 3.94955   4
  -5   4   0 38.9850 4.76099   1
   4  -5   0 38.9033 4.63977   1
  -5  -4   0 31.4424 4.36354   1
  -4  -5   0 28.1411 4.22507   2
   5  -4   0 33.0344 4.56306   1
   5   4   0 24.9531 4.10440   1
  -4  -5   0 26.5450 4.24282   1
   4   5   0 31.4663 3.99181   4
   4  -5   0 32.5746 3.99555   4
   5  -4   0 37.4097 4.30202   2
  -5   4   0 28.4189 4.18988   4
  -4   5   0 30.9964 4.37960   1
  -4   5   0 30.2920 4.10022   4
   4   5   0 29.1490 4.39758   1
   4  -5   0 26.5753 4.05589   2
  -5   5   0 328.711 10.6430   4
   5  -5   0 316.453 10.3848   2
  -5   5   0 316.932 10.6170   1
   5   5   0 301.312 10.3055   1
   5  -5   0 320.036 10.3249   4
  -5  -5   0 292.203 10.1454   2
   5   5   0 307.633 10.2673   4
   5  -5   0 272.163 10.0463   1
   6   0   0 925.783 19.1107   2
   6   0   0 959.586 19.5426   1
  -6   0   0 972.505 20.2605   4
   0   6   0 940.507 17.8046   4
  -6   0   0 1002.44 19.6768   1
   0  -6   0 974.947 19.3599   2
   0  -6   0 990.102 19.5130   1
   6   0   0 947.573 20.1477   4
   0   6   0 968.367 19.4045   1
   6   1   0 82.6383 6.08599   1
   6  -1   0 85.3966 6.19551   4
  -1   6   0 75.8953 5.03434   4
  -6   1   0 84.7033 6.11898   4
   1  -6   0 74.9858 5.53124   1
  -1   6   0 74.6516 5.79778   1
   6  -1   0 77.9317 5.73980   1
   1  -6   0 77.7835 5.68862   2
   6   1   0 77.8839 5.78712   2
  -6  -1   0 66.7163 5.35647   1
  -1  -6   0 78.6144 5.83670   1
   6   1   0 76.7060 5.94908   4
  -1  -6   0 81.4647 5.82331   2
   1  -6   0 75.7929 4.98650   4
  -6   1   0 81.2268 6.07406   1
   1   6   0 69.2423 4.79688   4
   6  -1   0 73.1073 5.76491   2
   1   6   0 79.2657 5.98600   1
  -6  -1   0 77.8790 6.14082   4
  -6   2   0 3788.03 60.8815   4
   6   2   0 3755.68 59.4240   2
   2  -6   0 3818.18 58.4136   4
   6  -2   0 3766.36 59.6297   2
   2  -6   0 3636.05 59.8046   1
   6  -2   0 3768.84 59.9386   1
   2   6   0 3848.74 59.9882   1
   6   2   0 3746.78 60.5664   4
  -2  -6   0 3792.41 59.4929   2
  -2   6   0 3731.73 58.4495   4
  -2   6   0 3648.28 59.7946   1
   6  -2   0 3856.25 60.7358   4
   2  -6   0 3802.21 59.4906   2
  -6  -2   0 3674.55 59.8472   1
  -6  -2   0 3756.36 60.3995   4
  -6   2   0 3850.56 60.1419   1
   2  -6   0 3706.82 59.9243   1
  -2  -6   0 3871.39 60.0591   1
   6   2   0 3651.65 59.7506   1
   6  -3   0 87.1717 6.19157   2
  -3  -6   0 74.4030 6.07250   1
   6   3   0 83.9269 6.14331   1
   3  -6   0 81.1471 6.48994   1
  -3   6   0 87.5983 6.39548   1
  -6  -3   0 73.2536 5.97871   1
  -3   6   0 75.8539 5.79563   4
   3  -6   0 76.9763 5.99507   2
   3  -6   0 75.2148 5.52512   4
   6   3   0 77.2289 5.98879   2
  -3  -6   0 69.5954 5.57122   2
  -6  -3   0 80.4490 6.23281   4
   3   6   0 73.5973 6.03015   1
   6  -3   0 73.3083 5.80516   1
  -6   3   0 77.2208 5.99238   1
   6   3   0 69.5248 5.90864   4
   6  -3   0 83.6921 6.52047   4
  -6   3   0 74.6304 6.14168   4
  -4  -6   0 2706.58 45.1930   2
   6  -4   0 2690.28 45.6687   1
  -6   4   0 2677.01 45.8696   4
   6   4   0 2550.13 44.7130   2
   4  -6   0 2645.53 45.2956   1
   4   6   0 2687.54 45.5637   1
  -4  -6   0 2748.97 45.8081   1
   6  -4   0 2750.35 45.2948   2
   4  -6   0 2686.72 45.2434   2
   4   6   0 2722.03 44.2985   4
   4  -6   0 2715.69 44.3991   4
   6   4   0 2676.12 45.6058   4
   6   4   0 2654.60 45.3150   1
  -6  -4   0 2725.90 45.5473   1
  -6   4   0 2630.19 45.4824   1
  -4   6   0 2691.03 45.4679   1
  -4   6   0 2649.53 44.5747   4
  -6   5   0 69.6789 6.31181   1
  -6   5   0 65.2997 6.05596   4
   6  -5   0 70.5473 6.04200   2
   5  -6   0 73.5616 5.92399   4
  -6  -5   0 70.6236 6.39192   1
   5  -6   0 64.1714 6.03860   1
  -5  -6   0 58.7237 6.00964   1
  -5   6   0 67.5000 6.31400   1
   6  -5   0 66.5086 6.14776   1
  -5   6   0 62.7276 5.64771   4
   5  -6   0 58.2956 5.54726   2
   5   6   0 69.3252 5.83583   4
  -5  -6   0 67.0852 6.14708   2
   5   6   0 86.3069 6.67812   1
   6   5   0 51.2551 5.63756   1
   6  -6   0 3252.60 54.7840   1
   6  -6   0 3243.57 54.2959   2
  -6   6   0 3144.82 54.4607   1
  -6  -6   0 3264.26 54.1992   2
  -6   6   0 3140.92 54.1857   4
   6   6   0 3241.86 54.6163   1
  -6  -6   0 3219.96 54.6329   1
   7   0   0 1.12011 3.33698   1
   0  -7   0 0.61492 3.07338   1
  -7   0   0 1.91112 3.44105   1
  -7   0   0 -3.2172 3.18259   4
   7   0   0 -3.8061 2.98515   2
   0  -7   0 -3.4295 2.98261   2
   0   7   0 -4.7828 3.16005   1
   0   7   0 -3.1117 2.43191   4
  -1  -7   0 66.5780 5.42725   2
   7  -1   0 64.4008 5.54636   2
   7   1   0 73.6082 5.71847   2
  -7   1   0 80.0756 6.53578   4
  -7  -1   0 73.9818 6.18331   1
   7  -1   0 65.5477 5.56976   1
   1  -7   0 78.5506 5.81153   2
   1  -7   0 71.6990 5.94038   1
   1   7   0 80.3821 5.48042   4
  -1  -7   0 72.8984 5.95109   1
  -7   1   0 77.5980 6.08004   1
  -1   7   0 88.6279 5.43910   4
   7   1   0 62.9508 5.71176   1
   1   7   0 73.2236 5.94712   1
  -1   7   0 81.6119 6.31906   1
  -7  -1   0 80.5619 6.29670   4
   2   7   0 14.7209 3.25536   4
   2  -7   0 14.9704 3.87954   2
  -7  -2   0 21.7114 4.45393   1
   7   2   0 20.3897 4.12933   1
  -7   2   0 14.6362 4.19793   4
   2  -7   0 18.2073 4.22630   1
  -7  -2   0 12.7546 4.01395   4
  -2  -7   0 21.3603 4.42700   1
   2  -7   0 17.0313 3.42884   4
  -2   7   0 20.5295 3.63743   4
   7   2   0 18.4120 3.91107   2
   7  -2   0 16.1995 3.79890   2
   2   7   0 19.6484 4.20936   1
  -2  -7   0 16.3985 3.78670   2
  -7   2   0 18.5396 4.30731   1
   2  -7   0 13.2309 4.01474   1
   7  -2   0 18.3059 4.23473   1
  -2   7   0 21.6772 4.28963   1
  -3   7   0 1003.88 20.2099   4
  -3  -7   0 1000.82 21.5292   1
  -3   7   0 1008.36 21.5770   1
   3   7   0 990.399 21.5366   1
   7   3   0 942.376 20.9604   2
  -7  -3   0 1012.79 21.6234   1
   7   3   0 1003.69 21.5514   1
   7  -3   0 988.862 21.1991   2
   3  -7   0 1004.71 19.9797   4
  -7   3   0 1006.25 22.2264   4
   3  -7   0 976.550 21.0615   2
  -3  -7   0 1023.61 21.2207   2
   3  -7   0 1011.94 21.5513   1
  -7  -3   0 990.943 21.4929   4
  -7   3   0 974.611 21.5957   1
  -4  -7   0 77.4604 6.33415   2
   4  -7   0 77.5022 6.59247   1
   4   7   0 81.4453 6.27264   4
   4   7   0 85.7933 7.06518   1
  -4   7   0 80.0208 6.70969   1
  -7   4   0 86.6796 7.08076   1
  -4   7   0 85.5136 6.58140   4
   4  -7   0 81.7334 6.53029   2
  -4  -7   0 77.9836 6.86869   1
   7  -4   0 84.6407 6.94700   1
   7   4   0 76.1248 6.69080   1
   7   4   0 87.5463 6.58592   2
   4  -7   0 79.0211 6.02583   4
  -7  -4   0 65.0508 6.36671   1
   7  -4   0 81.3604 6.22319   2
  -7  -5   0 523.761 15.2860   1
   5  -7   0 553.454 15.0873   2
  -5  -7   0 550.491 15.3774   2
   7  -5   0 545.452 15.4678   1
   5  -7   0 524.315 15.3825   1
  -5   7   0 567.236 15.0351   4
  -5   7   0 504.000 15.1821   1
   5   7   0 529.477 15.4011   1
  -7   5   0 525.014 15.2603   1
   7  -5   0 525.172 15.0289   2
  -5  -7   0 530.373 15.2065   1
   7   6   0 10.2254 4.94031   1
  -7   6   0 4.63122 4.47304   1
   6   7   0 22.9740 5.20447   1
  -7  -6   0 23.2134 5.07800   2
  -6  -7   0 18.6744 4.78697   2
   6  -7   0 17.4526 4.89108   2
  -6   7   0 21.1322 5.12412   1
   7  -6   0 10.8228 4.56980   2
  -6  -7   0 17.4005 5.11088   1
   6  -7   0 18.8832 5.22631   1
  -7  -6   0 19.8591 4.99594   1
   7  -6   0 10.3657 4.55255   1
  -7   7   0 519.460 16.6188   1
   7  -7   0 561.609 16.8467   1
  -7  -7   0 533.703 16.5329   1
   7   7   0 547.694 16.7773   1
   7  -7   0 550.817 16.3003   2
  -7  -7   0 535.075 16.3644   2
   0   8   0 3929.93 64.1799   1
   0  -8   0 4040.68 63.5436   2
   0  -8   0 3850.52 63.8340   1
   8   0   0 3940.31 63.4813   2
   0   8   0 3944.95 61.1171   4
  -8   0   0 3815.99 63.9027   1
   8   0   0 3864.94 63.9370   1
  -1   8   0 96.3383 7.26505   1
  -8   1   0 96.6703 7.30500   1
  -1  -8   0 100.449 7.18900   2
   8  -1   0 95.1320 7.28571   1
   1  -8   0 113.136 7.59449   1
   8   1   0 106.089 7.42612   2
   8  -1   0 106.659 7.43413   2
  -8  -1   0 99.1362 7.30875   1
   1   8   0 106.124 6.22378   4
  -1  -8   0 107.518 7.61427   1
  -1   8   0 104.398 6.29822   4
   8   1   0 105.136 7.65638   1
   1   8   0 103.397 7.82858   1
   1  -8   0 119.934 7.66628   2
   2   8   0 5515.12 83.1902   4
   2   8   0 5475.37 86.0656   1
   8  -2   0 5407.00 85.4624   2
   8   2   0 5374.36 85.7521   1
   2  -8   0 5498.30 85.3284   2
   8  -2   0 5400.33 85.9266   1
  -8   2   0 5423.73 85.9943   1
  -8  -2   0 5520.70 86.0367   1
   8   2   0 5413.87 85.1613   2
   2  -8   0 5393.70 85.9799   1
  -2  -8   0 5329.86 85.7453   1
  -2  -8   0 5356.62 85.1301   2
   2  -8   0 5494.60 83.3666   4
  -2   8   0 5487.72 83.5869   4
  -2   8   0 5411.27 85.8213   1
   2  -8   0 5377.66 85.7938   1
   8  -3   0 87.2226 7.08605   2
  -3  -8   0 110.536 7.85764   1
  -8  -3   0 100.714 7.61938   1
   3   8   0 101.560 7.82252   1
  -3   8   0 117.635 7.13293   4
   3  -8   0 116.638 7.78016   2
   3  -8   0 116.899 7.26711   4
  -3   8   0 104.613 7.77851   1
   8   3   0 99.3682 7.53516   2
   3  -8   0 108.457 7.71716   1
   8  -3   0 98.2349 7.53981   1
   8   3   0 96.5408 7.51850   1
  -8   3   0 118.294 8.25390   1
  -3  -8   0 94.0142 7.22009   2
   8  -4   0 1311.93 26.8890   2
   8   4   0 1269.06 26.9414   1
  -8  -4   0 1313.12 27.3831   1
   4  -8   0 1243.11 26.5538   2
  -4   8   0 1275.48 25.5614   4
   4   8   0 1292.96 27.2702   1
   8   4   0 1262.83 26.6408   2
  -8   4   0 1277.91 27.0217   1
   4   8   0 1310.46 25.9201   4
   4  -8   0 1268.79 27.0428   1
   8  -4   0 1276.52 26.9807   1
  -4  -8   0 1274.51 27.0498   1
  -4  -8   0 1288.76 26.6179   2
  -8   5   0 23.8350 5.39427   1
   5   8   0 18.8274 5.23787   1
  -5  -8   0 17.4971 4.90034   2
  -5   8   0 29.7922 5.52148   1
   8   5   0 24.6586 5.56899   1
   5  -8   0 19.6757 4.83677   2
   8  -5   0 18.7970 5.24819   1
  -8  -5   0 29.3476 5.54383   1
   5  -8   0 19.9927 5.23438   1
  -5  -8   0 14.9071 5.17477   1
   8  -5   0 20.8135 4.86107   2
   6  -8   0 1873.07 36.1352   2
   8   6   0 1862.68 36.5376   1
   8  -6   0 1869.66 36.0762   2
  -8   6   0 1832.15 36.7440   1
  -6  -8   0 1868.39 36.1216   2
   8  -6   0 1782.11 36.5906   1
   6   8   0 1817.62 36.6443   1
  -6  -8   0 1815.97 36.4980   1
   6  -8   0 1886.24 36.7516   1
  -8  -6   0 1860.68 36.8352   1
   8  -7   0 44.1263 7.00277   1
   8  -7   0 40.2420 6.41064   2
   7  -8   0 62.4414 7.74403   1
  -7  -8   0 44.5544 6.99018   1
  -7  -8   0 45.0131 6.78391   2
   8   7   0 42.1679 6.99836   1
  -8  -7   0 48.7924 6.46372   2
   7   8   0 41.9274 6.83497   1
   7  -8   0 51.6197 6.89258   2
  -7   8   0 51.2952 7.18366   1
  -8  -7   0 54.9474 7.29366   1
  -8   7   0 50.1796 7.01032   1
  -8   8   0 949.212 24.9207   1
   8  -8   0 973.498 24.4051   2
   8   8   0 937.140 24.3258   1
  -8  -8   0 957.541 24.7985   1
  -8  -8   0 942.890 24.1400   2
   8  -8   0 984.517 25.0138   1
   9   0   0 -0.2873 4.03254   1
  -9   0   0 -3.2210 4.05245   1
   9   0   0 4.14910 4.00962   2
   0  -9   0 7.81998 4.44860   1
   0   9   0 0.66295 4.42394   1
   0  -9   0 0.02196 3.65252   2
   1  -9   0 726.188 18.8797   1
  -1   9   0 753.758 19.2868   1
   9   1   0 788.943 19.5427   1
   9  -1   0 759.367 19.2632   1
   9   1   0 784.250 19.1697   2
  -9   1   0 803.577 19.6347   1
  -1  -9   0 728.322 18.7445   2
   9  -1   0 763.677 19.1016   2
   1   9   0 759.076 19.3827   1
  -1  -9   0 758.995 19.1481   1
  -9  -1   0 776.563 19.5371   1
   1  -9   0 765.438 19.0062   2
   9   2   0 84.0762 7.09056   2
  -2  -9   0 79.7357 7.30611   1
   2  -9   0 90.1896 7.70926   1
  -9   2   0 80.8419 7.40869   1
  -2   9   0 86.5159 7.62424   1
   9   2   0 96.9962 7.93236   1
   9  -2   0 80.5362 7.34909   1
   2  -9   0 82.4082 7.02269   2
  -2  -9   0 83.5895 7.11802   2
  -9  -2   0 73.8673 7.13727   1
   9  -2   0 87.0853 7.19322   2
   2   9   0 97.9830 8.01741   1
   2  -9   0 89.7237 7.94303   1
  -3  -9   0 1153.57 24.6841   2
  -9   3   0 1083.64 25.1020   1
  -3  -9   0 1075.64 24.7876   1
   3  -9   0 1161.08 24.9515   2
   9  -3   0 1119.23 24.9172   2
   3  -9   0 1110.49 25.3760   1
  -9  -3   0 1082.20 25.1081   1
   3   9   0 1118.01 25.4184   1
  -3   9   0 1081.09 25.1246   1
   9   3   0 1170.02 25.8702   1
   9   3   0 1143.13 24.8770   2
   4  -9   0 3.11682 4.32707   2
  -4  -9   0 -1.1967 3.98291   2
  -9  -4   0 12.7461 5.21721   1
   9  -4   0 -3.6668 4.31318   1
   9   4   0 -0.4591 4.86555   1
   9  -4   0 2.76687 4.46316   2
   9   4   0 -0.9848 4.37065   2
  -4   9   0 -0.0822 4.79484   1
   4   9   0 5.35322 4.89773   1
  -9   4   0 2.91182 4.65165   1
  -4  -9   0 9.08541 4.94201   1
   4  -9   0 -0.3712 4.52106   1
  -5  -9   0 234.496 11.5665   1
  -9  -5   0 219.766 11.8454   1
  -5  -9   0 223.972 11.1557   2
   9  -5   0 220.915 11.6533   1
   9   5   0 223.753 11.3466   2
  -9   5   0 222.102 11.4660   1
   5   9   0 234.829 12.0492   1
   9   5   0 252.144 11.8083   1
  -5   9   0 257.483 12.5300   1
   9  -5   0 234.754 11.3564   2
   5  -9   0 233.948 11.4892   2
   5  -9   0 208.952 11.2627   1
   9  -6   0 37.6015 6.41758   2
  -9   6   0 39.7121 6.75151   1
   6   9   0 38.9779 7.02552   1
  -6   9   0 42.7261 7.06936   1
  -6  -9   0 31.1565 6.38587   1
   9  -6   0 38.2471 6.88236   1
  -6  -9   0 36.9093 6.31863   2
   6  -9   0 45.3394 6.70592   2
   9   6   0 34.3999 6.80835   1
  -9  -6   0 35.3620 6.78779   1
   6  -9   0 26.8572 6.32702   1
   9   7   0 109.832 9.65010   1
  -7  -9   0 90.0372 9.05945   1
   7  -9   0 110.507 9.91203   1
  -9   7   0 93.3482 9.31470   1
  -9  -7   0 108.624 9.16630   2
  -7   9   0 100.117 9.50492   1
   9  -7   0 91.6192 9.22660   1
   7   9   0 117.618 9.99648   1
   9  -7   0 150.943 10.6996   2
   7  -9   0 104.272 9.10455   2
  -9  -7   0 103.190 9.48777   1
  -7  -9   0 87.1777 8.61626   2
   9  -8   0 104.226 9.39429   2
   8  -9   0 108.651 9.56428   2
   8   9   0 105.603 10.2290   1
   8  -9   0 112.011 10.4705   1
  -8  -9   0 104.523 9.19573   2
  -9   8   0 97.3712 10.0501   1
   9   8   0 111.775 10.3153   1
  -9  -8   0 113.581 10.2356   1
   9  -8   0 101.695 10.0042   1
  -8   9   0 113.582 10.3117   1
  -9  -8   0 102.946 9.47139   2
  -8  -9   0 119.571 10.4924   1
  -9  -9   0 46.0884 7.87285   2
  -9  -9   0 35.8695 8.01787   1
   9  -9   0 40.2760 7.88001   1
   9  -9   0 36.5337 7.21749   2
  -9   9   0 34.1066 7.55381   1
   9   9   0 39.3197 8.15027   1
  10   0   0 1050.49 24.7561   1
 -10   0   0 1020.83 24.4121   1
   0 -10   0 1042.62 24.3008   1
   0  10   0 1042.26 24.5589   1
   0 -10   0 1031.24 24.0666   2
  10   0   0 982.192 23.6482   2
   1  10   0 672.370 19.1062   1
  10   1   0 689.204 18.7693   2
 -10  -1   0 666.353 18.8706   1
  10  -1   0 663.122 18.8482   1
   1 -10   0 690.666 18.6517   2
  -1 -10   0 684.666 18.6314   2
   1 -10   0 675.750 18.8719   1
   1 -10   0 673.297 19.0715   1
  10  -1   0 677.255 18.7504   2
  -1  10   0 659.293 19.2090   1
 -10   1   0 643.571 18.8252   1
  10   1   0 668.617 18.8434   1
  -2 -10   0 1770.80 35.4286   1
  10   2   0 1703.19 35.3698   1
   2  10   0 1825.82 36.1017   1
  10  -2   0 1787.25 35.1113   2
   2 -10   0 1730.43 35.5057   1
   2 -10   0 1745.94 35.5385   1
  -2  10   0 1757.34 35.6201   1
  -2 -10   0 1752.86 34.7926   2
 -10   2   0 1774.56 35.7007   1
  10   2   0 1734.32 34.8918   2
   2 -10   0 1728.91 34.8052   2
 -10  -2   0 1759.45 35.6921   1
  10  -2   0 1748.31 35.5628   1
   3  10   0 30.4551 6.55426   1
  -3 -10   0 38.2858 6.01364   2
  10   3   0 28.6211 5.86182   2
  10  -3   0 30.6232 5.84443   2
 -10   3   0 25.8090 6.22331   1
 -10  -3   0 40.8003 6.84392   1
  -3 -10   0 26.9314 6.17554   1
  -3  10   0 28.4906 6.51783   1
  10  -3   0 28.5544 6.24189   1
   3 -10   0 27.9839 5.57209   2
   3 -10   0 32.3526 6.17934   1
  10   3   0 32.0334 6.45289   1
   4 -10   0 1386.42 30.2476   2
  10   4   0 1466.52 30.7192   2
  -4 -10   0 1409.13 30.9677   1
 -10  -4   0 1380.17 31.1914   1
   4 -10   0 1420.28 31.2262   1
   4  10   0 1433.62 31.1865   1
  -4  10   0 1366.08 31.1723   1
  10  -4   0 1381.89 30.4817   2
  -4 -10   0 1410.72 30.2654   2
  10   4   0 1388.15 31.1474   1
  10  -4   0 1408.93 31.0498   1
 -10   4   0 1432.08 31.0933   1
 -10  -5   0 74.9399 8.46248   1
  -5 -10   0 69.6333 7.83045   2
  10   5   0 65.4008 7.59160   2
   5 -10   0 83.2547 8.24091   2
  -5  10   0 69.5176 8.39682   1
   5 -10   0 64.2604 8.15200   1
  10  -5   0 72.5700 8.37795   1
 -10   5   0 57.0148 8.07327   1
  -5 -10   0 70.0723 8.43280   1
  10  -5   0 76.4389 8.10617   2
  10   5   0 82.8356 8.78401   1
   5  10   0 77.3944 8.60639   1
   6 -10   0 2741.13 51.0235   2
   6  10   0 2723.07 51.7710   1
 -10  -6   0 2836.38 51.9980   1
  -6 -10   0 2705.93 50.8592   2
   6 -10   0 2759.26 51.9272   1
  10  -6   0 2700.73 51.6885   1
  -6 -10   0 2778.63 51.9653   1
  -6  10   0 2752.03 51.9148   1
  10  -6   0 2694.17 50.9925   2
 -10   6   0 2729.08 52.0367   1
  10   6   0 2707.11 51.7299   1
 -10  -7   0 267.294 13.7359   2
  -7 -10   0 264.911 13.8205   1
 -10   7   0 287.793 14.2943   1
  -7  10   0 265.351 14.1487   1
   7  10   0 279.532 14.5993   1
   7 -10   0 284.796 14.3993   1
   7 -10   0 303.665 14.1375   2
  10  -7   0 248.652 13.5553   2
  -7 -10   0 252.884 13.4339   2
  10   7   0 260.425 13.8954   1
 -10  -7   0 288.836 14.3760   1
  10  -7   0 286.240 14.5162   1
 -10   8   0 1620.47 36.6743   1
 -10  -8   0 1593.47 35.7943   2
   8 -10   0 1597.30 36.6448   1
  -8 -10   0 1534.97 35.0586   2
  10   8   0 1601.02 36.3699   1
  10  -8   0 1636.34 36.7675   1
  -8 -10   0 1669.79 36.6024   1
 -10  -8   0 1572.72 36.3893   1
  -8  10   0 1569.50 36.6359   1
   8  10   0 1647.92 36.5095   1
  10  -8   0 1592.66 35.6266   2
   8 -10   0 1578.61 35.2531   2
  10  -9   0 2.05775 5.73137   2
   9  10   0 -0.4048 6.18303   1
   9 -10   0 12.2178 6.31004   2
   9 -10   0 12.6048 6.69991   1
  10   9   0 5.08472 6.41746   1
 -10  -9   0 -3.3938 5.68011   2
  -9  10   0 -8.8949 5.85413   1
  -9 -10   0 -1.0926 6.67027   1
 -10   9   0 -5.5575 6.58760   1
 -10  -9   0 -4.3012 6.45136   1
  10  -9   0 -1.4307 6.19497   1
  -9 -10   0 5.44505 5.61678   2
  10  10   0 1089.61 30.3670   1
 -10 -10   0 1078.62 30.1552   1
 -10  10   0 1082.37 30.1022   1
 -10 -10   0 1124.44 29.1697   2
  10 -10   0 1087.76 30.1477   1
  10 -10   0 1090.69 29.1438   2
   0 -11   0 -1.6699 5.05471   1
   0 -11   0 0.15384 4.44689   2
   0  11   0 -6.6043 4.95116   1
  11   0   0 0.86646 5.06293   1
  11   0   0 1.84979 4.58450   2
 -11   0   0 -2.0650 5.17207   1
  11  -1   0 85.0543 8.81034   1
  11  -1   0 78.8930 8.02135   2
  11   1   0 76.6558 7.88602   2
  11   1   0 86.3591 8.85556   1
 -11   1   0 94.6559 9.20997   1
   1 -11   0 77.9980 8.10430   2
  -1 -11   0 84.6065 8.32330   2
   1 -11   0 89.3839 8.78297   1
   1 -11   0 72.7145 8.34936   1
 -11  -1   0 93.9886 8.91917   1
   1  11   0 98.3886 9.34354   1
  -1 -11   0 80.8983 8.44488   1
  -1  11   0 79.4324 8.88978   1
  11  -2   0 3.31986 5.37829   1
 -11  -2   0 -1.2310 5.25051   1
   2  11   0 0.37729 5.47449   1
  11   2   0 -4.1509 4.83113   1
 -11   2   0 1.42416 5.17463   1
  -2  11   0 8.58300 5.66869   1
  -2 -11   0 -1.7451 5.10559   1
  -2 -11   0 -3.6200 4.39466   2
  11  -2   0 1.97097 5.01751   2
   2 -11   0 -1.5815 4.63761   2
  11   2   0 11.6206 5.41678   2
   2 -11   0 -0.4824 5.43147   1
  11   3   0 94.6143 8.60561   2
   3 -11   0 98.0585 8.88863   2
  11  -3   0 106.523 9.12579   2
  11  -3   0 85.0717 9.14456   1
   3 -11   0 92.0438 8.93109   1
 -11   3   0 102.809 9.71246   1
  11   3   0 113.853 9.96579   1
 -11  -3   0 121.949 10.1513   1
   3  11   0 88.2507 9.26312   1
  -3 -11   0 110.228 9.73780   1
  -3  11   0 109.932 9.80902   1
  -3 -11   0 105.835 9.29788   2
  -4 -11   0 12.5035 6.19351   1
 -11   4   0 21.4268 6.88324   1
  11   4   0 9.51822 5.71365   2
  11  -4   0 21.9557 6.52948   1
   4 -11   0 9.15532 5.64501   2
  11   4   0 21.5958 6.94423   1
   4  11   0 2.08272 6.08595   1
   4 -11   0 19.6239 6.57062   1
  -4  11   0 20.6251 6.86493   1
 -11  -4   0 26.9720 6.83018   1
  -4 -11   0 15.6953 5.87305   2
  11  -4   0 15.4547 5.87150   2
  -5  11   0 369.904 16.4708   1
  -5 -11   0 395.104 15.5601   2
  -5 -11   0 418.491 16.7280   1
 -11   5   0 393.588 16.1915   1
  11  -5   0 432.443 16.7466   1
  11   5   0 383.019 16.1634   1
   5  11   0 441.022 17.0324   1
  11   5   0 380.718 15.6703   2
 -11  -5   0 380.355 16.4762   1
   5 -11   0 399.261 16.0165   2
  11  -5   0 382.859 15.6791   2
   5 -11   0 410.146 16.2680   1
 -11   6   0 69.8404 8.81639   1
  11  -6   0 72.4903 8.48842   2
   6 -11   0 47.1417 8.11758   1
  11  -6   0 71.1411 9.11026   1
  -6  11   0 64.0199 9.00269   1
  -6 -11   0 60.4046 8.70449   1
 -11  -6   0 70.7718 9.31461   1
  -6 -11   0 63.2391 8.21865   2
   6  11   0 61.9636 8.74873   1
   6 -11   0 60.9582 8.24612   2
  11   6   0 58.4444 8.59428   1
  11  -7   0 906.061 25.5865   1
  11  -7   0 916.181 25.2881   2
  -7 -11   0 917.881 26.1044   1
   7  11   0 911.450 25.9565   1
   7 -11   0 916.413 26.4374   1
   7 -11   0 887.563 25.1263   2
  -7 -11   0 919.530 25.0701   2
  -7  11   0 908.660 26.1116   1
  11   7   0 883.987 26.0127   1
 -11   7   0 926.238 26.0917   1
 -11  -7   0 903.416 25.0659   2
  11  -8   0 18.9860 7.46475   1
  11   8   0 17.1567 7.50497   1
   8 -11   0 20.0120 7.49257   1
  11  -8   0 33.8757 7.62476   2
  -8  11   0 25.3305 7.97956   1
 -11  -8   0 9.14230 7.05854   1
   8 -11   0 21.8856 6.95445   2
 -11   8   0 26.3523 7.91170   1
 -11  -8   0 20.2016 7.06737   2
  -8 -11   0 35.8056 8.24999   1
   8  11   0 41.2126 8.48604   1
  -8 -11   0 20.2568 6.97835   2
  -9  11   0 608.758 22.2533   1
   9  11   0 592.944 21.9484   1
  11  -9   0 582.185 21.8843   1
 -11  -9   0 586.793 21.0171   2
   9 -11   0 591.558 21.8321   1
  11   9   0 583.041 21.6028   1
 -11   9   0 570.017 21.8753   1
   9 -11   0 580.564 21.1133   2
  -9 -11   0 551.506 21.4877   1
  -9 -11   0 585.542 21.0334   2
  11  -9   0 605.528 21.3433   2
 -11  -9   0 627.733 22.3781   1
 -10  11   0 76.6082 11.0531   1
 -11  10   0 93.3052 11.4336   1
 -11 -10   0 100.806 10.8548   2
 -11 -10   0 92.6610 11.5340   1
 -10 -11   0 108.552 11.7276   1
 -10 -11   0 105.561 10.9379   2
  10 -11   0 105.085 11.0201   2
  11 -10   0 103.535 10.8416   2
  11 -11   0 157.607 13.2453   2
 -11 -11   0 138.905 12.4813   2
  12   0   0 1652.93 35.9640   2
  12   0   0 1663.05 36.3408   1
 -12   0   0 1710.75 36.6813   1
   0  12   0 1793.80 37.3786   1
   0 -12   0 1673.48 36.2790   1
   0 -12   0 1639.03 35.6536   2
  12   1   0 26.9521 7.14851   1
  -1 -12   0 46.3621 7.29410   2
  12   1   0 29.5728 6.74928   2
   1 -12   0 32.3452 7.07378   1
 -12   1   0 29.3368 7.57620   1
   1  12   0 31.5353 7.31025   1
   1 -12   0 35.6436 6.94597   2
  12  -1   0 23.1194 7.20139   1
   1 -12   0 26.3161 6.86067   1
  12  -1   0 39.0433 6.99997   2
  -1  12   0 46.9415 7.99893   1
  -1 -12   0 44.9057 7.59420   1
 -12  -1   0 30.6329 7.28835   1
  12  -2   0 1488.49 33.3509   2
   2 -12   0 1512.64 33.4212   2
 -12   2   0 1505.97 34.3974   1
  -2  12   0 1500.69 34.0518   1
  12   2   0 1501.85 33.2851   2
  12   2   0 1473.81 34.0475   1
  -2 -12   0 1517.07 34.0240   1
  -2 -12   0 1477.99 33.1467   2
   2 -12   0 1458.24 33.8032   1
 -12  -2   0 1476.66 33.8622   1
   2  12   0 1451.04 33.9104   1
  12  -2   0 1547.62 34.3752   1
 -12  -3   0 279.801 14.6604   1
  -3 -12   0 300.039 15.0998   1
  12  -3   0 258.274 14.0079   2
   3  12   0 266.528 14.6336   1
   3 -12   0 253.875 13.5845   2
  -3  12   0 271.489 14.5103   1
 -12   3   0 271.488 14.4095   1
  12  -3   0 271.873 14.5168   1
  12   3   0 273.107 14.6017   1
   3 -12   0 296.253 14.3514   1
  -3 -12   0 233.043 13.2541   2
  12   3   0 247.244 13.3784   2
  -4 -12   0 1716.27 37.1170   2
  12  -4   0 1647.81 37.6625   1
   4  12   0 1770.91 38.7051   1
   4 -12   0 1700.16 37.3008   2
  12  -4   0 1754.09 37.4143   2
  -4  12   0 1739.50 38.5450   1
  -4 -12   0 1706.65 38.3411   1
  12   4   0 1623.30 36.7791   2
 -12  -4   0 1734.01 38.1657   1
  12   4   0 1766.49 38.3234   1
 -12   4   0 1769.38 38.4797   1
   4 -12   0 1758.45 38.3988   1
   5 -12   0 4.32858 5.97274   2
  -5 -12   0 -4.1068 5.67924   2
 -12  -5   0 14.2504 6.88909   1
  -5  12   0 -0.2822 6.54893   1
   5  12   0 2.54223 6.65018   1
  12   5   0 4.19029 6.39970   1
  12  -5   0 5.92616 5.96904   2
  -5 -12   0 12.3855 6.92436   1
   5 -12   0 0.63549 6.00471   1
  12   5   0 5.73737 5.97240   2
 -12   5   0 3.17181 6.54523   1
  12  -5   0 7.26072 6.56560   1
 -12   6   0 1510.08 35.9007   1
  12  -6   0 1531.92 35.0213   2
   6  12   0 1457.42 35.4289   1
  -6 -12   0 1489.36 34.4231   2
  12   6   0 1533.23 35.9710   1
  -6  12   0 1504.31 36.1248   1
   6 -12   0 1483.96 35.6792   1
   6 -12   0 1515.54 34.9317   2
 -12  -6   0 1502.17 35.9019   1
  12  -6   0 1510.16 35.8386   1
  -6 -12   0 1531.11 35.8046   1
  -7 -12   0 8.87219 6.53996   2
  -7 -12   0 1.12583 6.94989   1
  12   7   0 -0.8956 6.92500   1
   7  12   0 -2.9421 6.89574   1
 -12   7   0 -5.5700 6.74926   1
 -12  -7   0 -4.7066 6.41633   1
  12  -7   0 5.72590 7.19552   1
  12  -7   0 4.58754 6.28810   2
  -7  12   0 2.66551 7.09533   1
   7 -12   0 7.88719 6.67183   1
 -12  -7   0 -1.9313 6.30044   2
   7 -12   0 -3.9627 5.85905   2
   8 -12   0 1088.90 29.4748   2
 -12  -8   0 1146.40 30.8801   1
  -8 -12   0 1085.21 29.2476   2
   8 -12   0 1069.82 30.3302   1
 -12   8   0 1068.03 30.2783   1
  -8  12   0 1125.32 30.7945   1
  12  -8   0 1040.04 30.1206   1
  -8 -12   0 1030.37 29.7205   1
  12  -8   0 1022.85 28.9302   2
 -12  -8   0 1097.17 29.4420   2
  12   8   0 1085.15 30.1070   1
   8  12   0 1034.93 29.9065   1
 -12  -9   0 264.154 16.8900   1
  12  -9   0 302.301 16.5919   2
 -12  -9   0 325.691 16.8107   2
 -12   9   0 266.428 17.0122   1
  -9 -12   0 246.872 15.4536   2
   9 -12   0 291.204 16.4862   2
  -9 -12   0 293.637 17.3048   1
  -9  12   0 274.777 17.0943   1
 -10 -12   0 669.757 23.7788   2
 -12 -10   0 703.575 24.3198   2
  12 -10   0 718.348 24.6862   2
  10 -12   0 715.108 24.4001   2
  13   0   0 -4.8288 5.66386   2
   0  13   0 -0.6758 6.64088   1
   0 -13   0 -0.9082 6.41900   1
 -13   0   0 10.2183 6.49878   1
   0 -13   0 -2.3377 6.04866   1
   0 -13   0 9.14089 6.16777   2
  13   0   0 3.34029 6.28460   1
  -1  13   0 1006.79 27.6067   1
   1 -13   0 1005.14 27.5622   1
  13  -1   0 992.106 26.7081   2
   1 -13   0 1005.58 26.6061   2
 -13   1   0 994.542 27.6029   1
  13   1   0 1010.31 27.3028   1
  13  -1   0 1035.33 27.6831   1
   1  13   0 1019.58 27.6749   1
 -13  -1   0 976.302 27.0688   1
  -1 -13   0 1028.80 27.4027   1
   1 -13   0 1022.77 27.5760   1
  -1 -13   0 963.655 26.3188   2
  13   1   0 1035.64 27.0039   2
  13  -2   0 -7.4010 5.77050   1
  -2  13   0 -17.723 6.20087   1
   2 -13   0 -8.9545 5.86610   1
 -13  -2   0 -5.6683 6.39137   1
  -2 -13   0 1.48277 6.70303   1
   2  13   0 6.59200 7.01172   1
  13   2   0 -0.4621 6.23770   1
  -2 -13   0 -3.1105 5.59534   2
  13   2   0 -1.3947 5.68697   2
  13  -2   0 -7.2559 5.36669   2
   2 -13   0 2.91704 5.84859   2
 -13   2   0 -2.4436 6.25242   1
  13   3   0 171.394 13.2073   1
  -3  13   0 167.362 12.9969   1
  13   3   0 153.478 11.8212   2
  -3 -13   0 176.069 13.0071   2
   3 -13   0 204.168 13.1582   2
  -3 -13   0 157.335 12.4777   1
 -13  -3   0 196.229 13.7975   1
   3 -13   0 176.716 13.5812   1
  13  -3   0 173.953 12.7415   2
 -13   3   0 189.789 13.4763   1
  13  -3   0 181.199 13.6105   1
   3  13   0 187.772 14.1084   1
  -4 -13   0 -3.0128 6.11920   2
  13   4   0 17.8742 7.62059   1
 -13   4   0 8.73868 7.44085   1
   4 -13   0 30.9780 7.86644   1
  13  -4   0 27.2733 8.05632   1
   4 -13   0 12.0081 6.65747   2
  13  -4   0 15.5600 6.77056   2
  13   4   0 27.1747 7.35911   2
 -13  -4   0 33.5025 8.39465   1
   4  13   0 25.8847 7.93761   1
  -4 -13   0 28.5344 8.22801   1
  -4  13   0 11.7360 7.76969   1
 -13  -5   0 161.675 13.1550   1
  -5 -13   0 167.529 12.9275   2
   5 -13   0 138.944 12.3505   1
 -13   5   0 127.323 12.3714   1
  13  -5   0 143.160 11.7420   2
  -5 -13   0 128.019 12.3691   1
  13   5   0 144.858 12.1570   2
  -5  13   0 128.044 12.2904   1
  13   5   0 152.195 12.7840   1
  13  -5   0 149.287 12.6188   1
   5 -13   0 146.026 11.9539   2
   5  13   0 147.768 12.9463   1
  13   6   0 0.65475 7.12456   1
  13  -6   0 4.74491 7.34485   1
   6 -13   0 5.13837 7.14573   1
 -13   6   0 -5.8870 7.12285   1
   6  13   0 11.2500 7.74913   1
   6 -13   0 -5.6991 6.03935   2
  -6 -13   0 5.45733 6.34370   2
  -6  13   0 0.07239 6.57387   1
  -6 -13   0 -10.607 6.34861   1
  13  -6   0 -4.6444 6.08323   2
 -13  -6   0 -0.1291 6.48619   1
  -7 -13   0 154.723 12.2922   2
   7 -13   0 117.082 12.6992   1
   7  13   0 117.386 12.5617   1
  -7 -13   0 129.806 12.7055   1
 -13  -7   0 160.826 12.9870   2
  -7  13   0 140.635 12.9866   1
   7 -13   0 130.069 11.8437   2
 -13  -7   0 133.098 12.8255   1
  13  -7   0 132.655 12.0756   2
 -13   7   0 144.314 13.5050   1
  -8  13   0 14.3426 9.05228   1
 -13   8   0 9.66664 8.21949   1
 -13  -8   0 14.5436 7.54513   2
  -8 -13   0 13.5190 6.96420   2
   8 -13   0 22.8292 7.85291   2
  13  -8   0 19.9187 7.49296   2
 -13  -8   0 23.6857 9.26846   1
   0 -14   0 1695.31 38.5879   2
   0 -14   0 1707.79 39.6294   1
  14   0   0 1689.99 38.6591   2
   0 -14   0 1723.92 39.7460   1
 -14   0   0 1665.66 39.3762   1
  14   0   0 1708.84 39.6770   1
   0  14   0 1709.77 40.0355   1
   1 -14   0 -4.6044 6.62575   1
  14   1   0 4.24319 6.47742   2
 -14  -1   0 5.18263 7.14175   1
  -1 -14   0 2.33525 6.31177   2
  14  -1   0 9.46923 6.76175   2
   1 -14   0 1.74832 6.15982   2
   1  14   0 6.11388 6.73106   1
  -1 -14   0 8.72446 7.04436   1
  14   1   0 -2.8326 6.77945   1
  -1  14   0 -2.3081 6.91289   1
  14  -1   0 5.54066 7.26446   1
 -14   1   0 5.29632 7.32284   1
   1 -14   0 11.6254 7.38618   1
  14   2   0 933.341 28.0294   1
  14  -2   0 984.311 27.7380   2
  -2 -14   0 1005.37 28.5582   1
   2 -14   0 952.322 26.9393   2
 -14  -2   0 963.176 28.0408   1
 -14   2   0 1014.25 28.5288   1
  14  -2   0 981.106 28.5348   1
  -2 -14   0 1007.88 27.5084   2
   2  14   0 963.859 28.5099   1
  14   2   0 995.360 27.5321   2
  -2  14   0 979.580 28.6165   1
   2 -14   0 973.582 28.2491   1
  14   3   0 -22.965 6.86394   1
 -14  -3   0 -2.7533 7.03768   1
  -3  14   0 -4.3137 6.90175   1
   3 -14   0 -1.1122 6.12911   2
  -3 -14   0 11.4106 6.74691   2
  14  -3   0 -4.6266 7.12619   1
 -14   3   0 -6.8398 6.68014   1
   3 -14   0 -5.3472 6.72576   1
  14  -3   0 6.43086 6.54545   2
  -3 -14   0 9.45535 7.44586   1
  14   3   0 -3.5537 6.15673   2
   3  14   0 2.86093 7.60853   1
  14   4   0 925.337 27.7876   1
  14  -4   0 879.202 27.7739   1
   4 -14   0 907.835 27.6562   1
  14  -4   0 891.791 26.8680   2
   4  14   0 916.983 28.0690   1
 -14   4   0 916.599 28.0416   1
  -4 -14   0 856.286 26.3694   2
  -4 -14   0 914.373 27.9601   1
   4 -14   0 978.728 27.3529   2
 -14  -4   0 928.630 27.9297   1
  14   4   0 921.908 26.6041   2
  -4  14   0 980.777 28.5275   1
   5  14   0 29.3593 9.03423   1
  -5 -14   0 21.5878 8.33399   1
  -5  14   0 16.4896 8.28511   1
  14  -5   0 18.5205 7.68513   2
 -14  -5   0 22.3067 8.47274   1
 -14   5   0 14.2195 8.51345   1
  -5 -14   0 20.1368 7.45158   2
   5 -14   0 16.7341 7.44517   2
  -6  14   0 600.226 25.0129   1
 -14   6   0 559.706 23.0913   1
  14  -6   0 633.766 22.5881   2
 -14  -6   0 569.198 22.9774   1
   6 -14   0 589.957 22.0451   2
  -6 -14   0 633.938 22.5810   2
  14  -7   0 -2.6994 6.91986   2
 -14  -7   0 5.88649 7.37794   2
  -7 -14   0 -8.4199 6.51061   2
   7 -14   0 1.22522 7.08303   2
 -15   0   0 -2.4295 6.87438   1
   0  15   0 0.22457 7.63835   1
  15   0   0 17.4927 7.41194   2
   0 -15   0 -3.4665 6.51459   2
   1 -15   0 81.9705 10.4338   2
  -1  15   0 90.9462 11.8304   1
 -15   1   0 76.6198 11.1378   1
  15   1   0 79.4251 10.5759   2
 -15  -1   0 100.054 11.8128   1
  -1 -15   0 67.2962 9.93311   2
   1  15   0 75.5071 10.9344   1
  15  -1   0 85.9839 10.4584   2
 -15   2   0 6.95043 7.57294   1
   2 -15   0 -1.6488 6.45029   2
 -15  -2   0 3.60719 7.76195   1
  15   2   0 -1.3980 6.61773   2
  -2  15   0 -4.1189 7.63605   1
  15  -2   0 4.93867 6.68427   2
  -2 -15   0 2.67231 6.67518   2
 -15  -3   0 107.278 12.3381   1
  15   3   0 82.0909 10.6869   2
 -15   3   0 67.8002 10.9709   1
   3 -15   0 91.9172 10.6406   2
  -3 -15   0 80.8842 10.4193   2
  15  -3   0 99.7371 10.9529   2
  15   4   0 12.8942 7.65915   2
   4 -15   0 23.1434 8.33089   2
  -4 -15   0 6.19234 7.07383   2
  15  -4   0 5.26863 7.02058   2
   0   0   1 -2.5494 0.52556   4
   0  -1  -1 -6.0841 1.22932   4
   1   0  -1 -8.1746 1.15673   4
  -1   0   1 -6.7968 0.91110   4
   0   1   1 -5.5163 0.92880   4
   1  -1  -1 -7.3407 1.50925   4
   1  -1   1 -4.6583 1.26377   4
  -1   1  -1 -9.6566 1.02958   4
  -1  -1   1 -7.1476 1.01435   4
   1   1  -1 -4.1697 1.15446   4
  -1   1   1 -8.5146 1.21885   4
  -2   0  -1 493.350 9.82097   4
  -2   0   1 492.929 9.80443   4
   0   2   1 496.458 9.56687   4
   2   0  -1 490.846 9.82661   4
   2   0   1 495.004 9.83209   4
  -2   1  -1 34.5223 2.92671   4
   2  -1  -1 36.4434 3.29118   4
  -1   2   1 33.2774 2.90504   4
   1  -2   1 30.8709 2.54148   4
   2  -1  -1 34.7269 3.08049   2
  -2  -1   1 32.3838 2.70490   4
   1   2  -1 26.6010 2.40163   4
  -1  -2  -1 36.2309 3.07688   2
   2   1  -1 24.6841 2.61450   4
  -2   1   1 32.2767 2.99201   4
   2  -1   1 32.8487 2.84614   4
   1  -2  -1 40.7643 3.62000   4
   1  -2  -1 26.4842 2.42026   2
  -1   2  -1 33.7343 2.64276   4
   2   1  -1 31.4286 2.56340   2
  -2  -2   1 -4.2960 1.77546   4
   2  -2  -1 0.16620 2.02576   2
   2   2  -1 0.85271 2.16770   4
  -2  -2  -1 0.73164 2.00012   2
  -2   2   1 0.12299 2.35922   4
   2  -2   1 -1.4931 2.04971   4
  -2   2  -1 1.01924 2.10901   4
   2  -2  -1 -1.7461 2.28528   4
  -3   0  -1 -4.9229 2.33755   4
   0   3  -1 -4.3977 1.32774   4
   3   0  -1 -4.4651 2.01960   2
   3   0  -1 -5.8890 2.42225   4
  -3   0   1 -2.9855 2.39109   4
   0   3   1 -3.7756 2.20169   4
   0  -3  -1 -3.2387 2.04859   2
   3   0   1 -2.3192 2.48593   4
   3   1   1 -3.9603 2.51609   4
  -3  -1   1 -3.4441 2.41418   4
  -1  -3  -1 -3.5570 2.16588   2
   3  -1  -1 -1.1922 2.24473   2
   3  -1  -1 -4.8002 2.57175   4
  -3   1  -1 -0.6232 2.55329   4
   1  -3   1 -4.6735 1.65351   4
  -1   3   1 -4.4850 2.29145   4
  -3   1   1 -3.0191 2.53062   4
   3   1  -1 -0.8963 2.26952   2
   3  -1   1 -6.5522 2.43410   4
   1  -3  -1 -3.1943 2.39094   4
  -3  -1  -1 -3.3711 2.25182   4
  -1   3  -1 -1.1084 1.77416   4
   3   1  -1 -3.8039 2.45633   4
   1  -3  -1 -3.3596 2.11565   2
   3   2   1 278.521 8.12564   4
  -3   2  -1 280.991 7.96930   4
   3  -2  -1 291.655 7.64916   2
  -2  -3  -1 281.402 7.44062   2
   2   3  -1 284.357 6.93597   4
  -2   3   1 277.991 7.95882   4
  -3  -2   1 281.841 7.45053   4
   2  -3   1 293.589 7.07686   4
   3  -2  -1 280.900 8.36070   4
   3   2  -1 294.040 7.81848   4
   2  -3  -1 292.178 7.95417   4
  -2   3  -1 288.571 7.15810   4
   3   2  -1 294.734 7.61997   2
   3  -2   1 282.124 7.84078   4
  -3   2   1 272.355 8.24948   4
   2  -3  -1 294.889 7.63098   2
   3  -3   1 -4.7744 2.35747   4
  -3  -3  -1 -6.9649 2.37526   2
   3  -3  -1 -4.2936 2.70018   4
  -3   3  -1 -4.1514 2.51565   4
   3   3  -1 -6.3487 2.40251   4
  -3   3   1 -7.6632 2.54044   4
   3   3   1 -6.0488 2.47365   2
   3  -3  -1 -3.6465 2.44441   2
   3  -3   1 -1.0172 2.57061   2
   0   4   1 230.437 7.08750   4
  -4   0   1 231.579 7.84748   4
   4   0  -1 253.585 7.28736   2
   4   0   1 236.049 8.02902   4
  -4   0  -1 222.266 7.73898   4
   0   4  -1 235.258 5.56225   4
   4   0  -1 244.586 8.02727   4
   4   0   1 238.164 7.19242   2
   0  -4   1 250.905 7.13262   2
   0  -4  -1 232.461 7.10269   2
  -4   1  -1 -3.7288 2.63832   4
   4  -1  -1 -1.0187 2.81287   4
   4  -1  -1 -1.0038 2.45426   2
   1  -4   1 -4.3737 1.83288   4
  -1   4   1 0.06455 2.48679   4
   1  -4   1 -1.4785 2.50613   2
   4   1   1 -2.4600 2.41649   2
  -4  -1   1 -2.1533 2.76289   4
  -1  -4  -1 -4.0838 2.39152   2
   4   1   1 0.00904 2.93052   4
  -1  -4   1 0.29932 2.56122   2
   4  -1   1 -2.5357 2.69496   4
  -1   4  -1 0.23861 1.98603   4
  -4  -1  -1 -2.6910 2.61146   4
   1  -4  -1 -3.7843 2.39970   4
   4  -1   1 0.57458 2.55326   2
   4   1  -1 -0.5736 2.77790   4
   4   1  -1 -8.9045 2.19193   2
   1  -4  -1 0.70336 2.61287   2
  -4   1   1 -1.2620 2.70811   4
   2  -4   1 410.192 10.1856   2
   4  -2  -1 417.331 9.96730   2
   4  -2  -1 413.195 10.8250   4
  -4  -2   1 409.048 10.1722   4
  -2  -4  -1 415.340 9.90271   2
  -2   4   1 405.138 10.1560   4
   4   2   1 402.646 10.0507   2
   2   4  -1 427.166 8.97918   4
   2  -4   1 417.556 9.04855   4
   4   2   1 407.734 10.7574   4
  -4   2  -1 410.278 10.5721   4
   4   2  -1 404.598 9.99851   2
  -2  -4   1 415.987 10.2255   2
  -2   4  -1 414.691 9.23094   4
  -4   2   1 408.146 10.9078   4
   4  -2   1 398.631 10.0145   2
   2  -4  -1 401.535 10.1318   4
   2  -4  -1 423.108 10.0364   2
   4  -2   1 413.567 10.4781   4
   4   2  -1 419.862 10.4306   4
  -4  -3   1 -0.8113 2.44518   4
   3  -4   1 -0.7805 2.53075   2
   3  -4   1 -1.3649 2.34970   4
   4   3   1 2.46712 2.79875   2
   4   3   1 -2.9182 2.78768   4
   4  -3  -1 0.87386 3.05385   4
   3   4  -1 -0.4453 2.54311   4
  -3   4   1 0.87095 2.80621   4
  -4   3  -1 -2.7376 2.58391   4
  -3  -4  -1 -0.1688 2.64998   2
   4  -3  -1 1.36412 2.62252   2
   3  -4  -1 -0.1976 2.81098   4
   4   3  -1 -2.2943 2.91495   4
   4  -3   1 -2.0238 2.56413   2
   4  -3   1 -1.3759 2.55688   4
  -3   4  -1 0.59825 2.50929   4
  -4   3   1 5.18543 3.07554   4
   3  -4  -1 -1.2375 2.56597   2
   4  -4  -1 -1.1402 2.90347   1
   4  -4  -1 -0.6180 2.64993   2
   4   4  -1 1.10224 2.79719   4
   4   4  -1 0.22964 2.90666   1
  -4   4  -1 -6.0785 2.78656   1
  -4   4   1 -5.0142 2.71247   4
   4  -4   1 1.55815 2.70525   2
  -4  -4  -1 1.10008 3.03261   1
  -4   4  -1 -2.0674 2.62424   4
   4   4   1 -4.6389 2.53620   4
   4  -4  -1 -4.3840 2.66044   4
  -4  -4  -1 1.88448 2.70186   2
   4  -4   1 0.58554 2.62890   4
   0  -5   1 -1.9385 2.60759   2
  -5   0   1 -0.9864 2.86737   4
   0  -5  -1 -1.9018 2.59997   2
   0   5  -1 -3.4073 1.76381   4
   5   0  -1 -2.1595 2.62373   2
   0   5   1 -4.7297 2.41219   4
  -5   0  -1 -2.6785 2.77686   4
   5   0   1 -2.6803 2.86384   4
   5   0  -1 -1.8439 2.96320   4
   5   0   1 1.03651 2.73355   2
  -5  -1   1 59.2841 4.89586   4
  -1   5   1 43.5696 4.02385   4
  -1  -5  -1 48.7413 4.20897   2
   5   1   1 56.3112 4.56569   2
   1   5  -1 53.9287 3.61501   4
   5  -1  -1 57.5869 5.11426   4
   5   1   1 54.6519 4.98899   4
  -5   1  -1 44.6000 4.47804   4
  -5   1  -1 54.5558 4.77237   1
   5  -1  -1 53.5077 4.25328   2
   1  -5   1 54.0655 3.69864   4
   1  -5   1 57.0666 4.42898   2
   1  -5  -1 52.2313 4.32304   2
  -1  -5   1 60.0370 4.52163   2
   5   1  -1 50.4974 4.66356   4
  -5   1   1 52.6051 4.95343   4
   1   5   1 49.5431 3.93591   4
   5  -1   1 48.0313 4.47045   2
  -5  -1  -1 58.6624 4.76443   1
   1  -5  -1 50.5604 4.07327   4
  -5  -1  -1 49.1797 4.78693   4
  -1   5  -1 48.9659 3.90746   4
   5   1  -1 54.9514 4.38384   2
   5  -1   1 46.5568 4.53513   4
  -5  -2   1 1.49545 2.69446   4
   2   5  -1 1.18620 3.09789   1
  -5   2  -1 -0.6899 3.04759   4
   2  -5   1 -2.7877 2.07749   4
   5  -2  -1 -3.5003 2.62520   2
   5   2   1 0.92092 3.07685   4
   5  -2  -1 -0.2368 2.99988   4
  -2  -5  -1 -6.3032 2.37658   2
  -5   2  -1 -0.4720 2.89645   1
   5  -2  -1 -0.2870 2.98971   1
  -2  -5  -1 -2.2082 2.79967   1
   5   2   1 -1.2896 2.80532   2
   2  -5   1 -1.3916 2.79387   2
  -2   5   1 -2.5246 2.66041   4
   5   2  -1 -1.1609 2.89320   1
   5   2  -1 -1.0851 2.58342   2
   2  -5  -1 -0.4207 2.84937   1
   5  -2   1 2.36170 3.00484   4
   2  -5  -1 -2.6250 2.78041   1
  -2  -5   1 -4.9677 2.54079   2
  -2   5  -1 -0.0568 2.21722   4
   2  -5  -1 0.64939 2.65565   4
   5   2  -1 -1.7562 2.96730   4
   2  -5  -1 -2.9262 2.41504   2
  -2   5  -1 -1.8739 2.99349   1
  -5  -2  -1 0.13116 3.03664   1
   5  -2   1 -0.9776 2.59745   2
  -5   2   1 -1.8562 2.97776   4
   3   5  -1 12.8741 2.95062   4
  -3  -5  -1 5.58165 2.74997   2
   5  -3  -1 8.58077 3.47655   4
  -3  -5  -1 9.02341 3.35385   1
   5   3   1 9.29772 3.26342   2
  -3   5   1 8.83951 3.12425   4
  -5  -3   1 9.54791 3.14453   4
   3  -5   1 10.1158 2.84146   4
  -5   3  -1 9.36717 3.53308   4
   5   3   1 8.89247 3.36038   4
   3   5  -1 12.1495 3.55292   1
  -5   3  -1 6.81330 3.24910   1
   5  -3  -1 3.31488 2.89410   2
   5  -3  -1 10.0630 3.40740   1
   3  -5   1 11.3215 3.25127   2
  -3   5  -1 10.8902 2.98544   4
  -3   5  -1 6.36577 3.27962   1
   5   3  -1 8.82503 3.54114   1
   3  -5  -1 2.48811 2.93881   2
   5   3  -1 7.70800 3.33488   4
   3  -5  -1 4.41951 2.86053   4
   3  -5  -1 9.67991 3.36136   1
  -3  -5   1 0.79207 3.01993   2
  -5   3   1 7.44229 3.29353   4
   5   3  -1 7.16685 3.01040   2
   5  -3   1 6.02705 3.14716   4
  -5  -3  -1 5.36362 3.25235   1
   5  -3   1 8.12611 3.11148   2
  -4  -5  -1 7.10839 3.27973   2
   5   4   1 8.30330 3.43520   4
   4   5  -1 17.6388 3.98802   1
   5  -4  -1 12.9862 3.71352   4
   5   4   1 7.12522 3.28984   2
   4  -5   1 13.8968 3.30837   4
   4  -5   1 9.07788 3.38518   2
   5  -4  -1 9.87232 3.31307   2
  -5  -4   1 12.0761 3.71300   1
   4  -5   1 17.4080 3.81732   1
  -4  -5  -1 9.73866 3.53261   1
   5  -4  -1 14.6505 3.83689   1
   4   5  -1 12.2486 3.10402   4
  -4   5   1 7.53052 3.40167   4
  -5   4  -1 17.1510 3.92066   1
   5   4   1 12.1893 3.58852   1
  -5   4  -1 11.3477 3.52585   4
  -4   5   1 6.99508 3.51941   1
   5  -4   1 17.9954 3.71807   4
   4  -5  -1 9.89514 3.61217   1
   4   5   1 10.0589 3.31313   4
   4   5   1 14.9323 3.90729   1
  -4   5  -1 12.3739 3.83311   1
  -4  -5   1 18.7433 4.02963   1
   5   4  -1 8.20603 3.47525   4
   4  -5  -1 12.7587 3.44292   4
   4  -5  -1 8.84896 3.33000   2
  -4  -5   1 12.1085 3.49482   2
   5   4  -1 9.72680 3.55464   1
  -5   4   1 12.9996 3.82938   4
   5  -4   1 15.4992 3.77202   1
  -5   4   1 15.5362 3.95068   1
  -4   5  -1 10.4857 3.31937   4
  -5  -4  -1 7.83579 3.43270   1
   5  -4   1 16.0329 3.65052   2
  -5   5   1 -6.3611 2.87607   4
  -5  -5   1 -5.0303 3.09290   1
  -5   5  -1 0.89279 3.18721   4
   5  -5   1 0.74917 3.17769   2
   5   5   1 1.34928 3.31097   4
   5   5   1 -1.7781 3.43174   1
  -5   5  -1 -3.1288 3.22206   1
   5   5  -1 1.10608 3.10292   4
  -5   5   1 -1.4007 3.54284   1
   5  -5  -1 -0.1664 2.96154   2
   5  -5   1 -1.4804 2.88942   4
   5   5  -1 6.56207 3.56283   1
  -5  -5  -1 -2.5813 3.03069   2
   5  -5   1 0.85198 3.45705   1
   5  -5  -1 0.57027 3.17993   1
  -5  -5  -1 -0.2268 3.15851   1
   5  -5  -1 -5.3871 2.84754   4
   6   0   1 440.674 11.6048   2
  -6   0   1 466.923 12.7594   4
   0  -6  -1 445.014 11.6324   2
   0   6  -1 463.965 12.1243   1
   0   6   1 446.531 11.2229   4
   0  -6   1 482.670 11.8430   2
   6   0  -1 467.395 12.8974   4
   6   0  -1 432.012 11.9016   1
  -6   0  -1 443.301 12.4464   4
   0   6  -1 452.372 9.69857   4
   6   0   1 440.951 12.5310   4
   6   0  -1 453.995 11.6659   2
  -6   0  -1 458.400 12.1593   1
   1   6  -1 4.39316 3.27692   1
   6  -1  -1 5.02168 3.29921   1
  -1  -6  -1 0.44767 2.64836   2
   1  -6   1 -1.1872 2.00928   4
  -6   1  -1 -0.0957 3.25127   1
   1  -6   1 -0.2836 2.88967   2
   6   1   1 1.63642 2.80830   2
  -6   1  -1 0.69444 3.08152   4
   1   6  -1 -2.4921 1.97276   4
   6   1   1 4.12335 3.37519   4
   6  -1  -1 -2.8910 2.60463   2
  -1   6   1 -4.9682 2.40525   4
  -6  -1   1 -4.5944 2.72336   4
  -1  -6  -1 -2.5221 3.02592   1
   6  -1  -1 -0.3901 3.07467   4
   6   1  -1 -1.1366 2.81759   2
   6   1  -1 -2.9694 3.03112   4
   6  -1   1 3.59302 2.87579   2
   1  -6  -1 -1.6497 2.57372   4
  -6  -1  -1 6.53014 3.26389   1
   6   1  -1 -0.9530 3.11196   1
  -6   1   1 3.15077 3.29730   4
   1  -6  -1 0.75834 3.05569   1
   1   6   1 1.80694 2.63868   4
  -6  -1  -1 -0.1925 3.09561   4
  -1   6  -1 -0.6979 2.17127   4
   6  -1   1 1.14041 3.01474   4
  -1  -6   1 2.72686 2.77857   2
  -1   6  -1 0.14067 3.16189   1
   1  -6  -1 1.83776 2.87777   2
  -2  -6  -1 129.029 6.77694   2
  -6   2  -1 128.432 7.39947   4
  -6   2  -1 139.176 7.39956   1
   2  -6   1 132.912 5.53672   4
   2  -6   1 141.625 7.09491   2
  -6  -2   1 136.677 7.22216   4
  -2  -6  -1 130.233 6.88941   1
   2  -6   1 135.046 6.91221   1
  -2   6   1 131.544 6.65478   4
   6   2   1 131.696 6.92264   2
   6  -2  -1 132.774 6.90995   1
   6  -2  -1 138.181 7.73015   4
  -6  -2   1 145.208 7.29537   1
   6   2   1 146.943 7.94043   4
   6  -2  -1 128.482 6.73748   2
   6   2   1 121.255 6.75495   1
   2   6  -1 137.982 7.08657   1
  -2   6   1 142.001 7.28897   1
   6  -2   1 148.942 6.86204   2
   2  -6  -1 130.228 6.73578   4
  -2  -6   1 114.686 6.57729   1
   2  -6  -1 156.924 7.26094   1
   2  -6  -1 130.350 6.81555   2
   6   2  -1 129.803 6.99377   1
   6  -2   1 140.507 7.54689   4
   6   2  -1 126.278 6.69761   2
  -6   2   1 132.419 7.75718   4
  -2   6  -1 137.816 5.88487   4
  -6   2   1 140.751 6.91712   1
  -2  -6   1 147.142 7.04911   2
   6   2  -1 131.063 7.73433   4
   2  -6  -1 141.116 6.94840   1
   2   6   1 139.742 7.03341   1
  -6  -2  -1 145.660 7.31202   1
  -6  -2  -1 123.842 7.17007   4
  -2   6  -1 134.676 7.04036   1
   6  -2   1 134.404 6.93254   1
   3   6  -1 153.030 6.34392   4
   6   3   1 152.928 7.42753   1
   3  -6   1 150.291 7.52744   2
  -6   3  -1 148.024 7.89991   4
   3  -6   1 140.643 7.51759   1
   3   6  -1 144.461 7.37504   1
  -3  -6  -1 168.134 7.38457   2
   6   3   1 150.643 8.20853   4
  -3   6   1 166.194 7.81043   1
   6  -3  -1 146.460 7.43864   1
   3  -6   1 150.124 6.26621   4
  -3   6   1 138.895 7.32647   4
  -6   3  -1 146.867 7.60414   1
   6   3   1 152.532 7.31969   2
   6  -3  -1 155.320 7.33292   2
  -6  -3   1 142.238 7.34673   4
  -6  -3   1 149.348 7.67668   1
  -3  -6  -1 137.432 7.29276   1
   6  -3   1 143.822 7.29056   2
   3  -6  -1 147.723 7.19799   4
  -3   6  -1 153.580 7.43006   1
   3  -6  -1 158.031 7.55003   1
   6  -3   1 145.738 7.52831   1
   6   3  -1 158.653 7.87629   4
   6   3  -1 150.466 7.70881   1
   6   3  -1 146.805 7.30036   2
  -3  -6   1 144.129 7.57881   1
  -6   3   1 153.704 7.50056   1
   3   6   1 154.697 7.49757   1
   3  -6  -1 152.015 7.33378   2
  -6  -3  -1 149.637 7.64890   1
   6  -3   1 152.104 7.70171   4
  -3   6  -1 151.720 6.62768   4
  -3  -6   1 139.646 7.35282   2
  -6   3   1 157.053 8.11644   4
  -6  -4   1 137.649 7.56806   1
   4   6  -1 164.892 7.20637   4
   4   6  -1 155.667 7.81298   1
   4  -6   1 159.829 7.05313   4
  -4   6   1 145.459 7.65982   4
  -4  -6  -1 151.896 7.55170   2
   6  -4  -1 153.813 7.72456   2
  -6   4  -1 159.346 8.07094   1
   6   4   1 166.712 8.11523   1
   4  -6   1 150.771 7.73344   2
  -4   6   1 151.752 7.83333   1
  -6   4  -1 152.572 8.21901   4
  -4  -6  -1 149.040 8.14638   1
   4  -6   1 162.319 7.92392   1
   6   4   1 168.520 8.06081   2
   4  -6  -1 150.782 7.49885   2
  -4   6  -1 128.525 6.89593   4
  -4  -6   1 161.284 8.14872   1
   4  -6  -1 158.025 7.90156   1
   6  -4   1 153.059 7.75867   2
   6   4  -1 147.447 7.96043   1
   4   6   1 140.730 7.76731   1
   6   4  -1 157.464 8.09662   4
  -6  -4  -1 148.992 7.82765   1
  -6   4   1 143.337 8.23675   4
  -4   6  -1 146.607 7.74318   1
  -4  -6   1 173.892 8.20307   2
   6  -4   1 148.783 7.92358   4
   4  -6  -1 136.635 7.51541   4
  -6   4   1 156.930 7.95805   1
   6  -4   1 154.719 8.13368   1
   5  -6   1 17.0328 3.69840   4
  -6  -5   1 22.4973 4.65038   1
   5  -6   1 26.1240 4.47316   1
  -5   6   1 9.03051 4.09975   1
  -6   5  -1 25.2281 4.79761   1
   6  -5  -1 15.1718 3.92993   2
   5  -6   1 14.3625 3.89872   2
  -5   6   1 19.5064 4.23327   4
  -5  -6  -1 19.3569 4.19941   2
   6   5   1 15.4143 4.14839   1
   5   6  -1 19.9963 4.31843   1
  -5  -6  -1 11.5647 4.13673   1
  -6   5  -1 14.0642 4.17121   4
   6  -5  -1 11.6486 4.19443   1
   5   6  -1 29.2263 4.16680   4
   5  -6  -1 17.6535 4.14218   2
  -5   6  -1 14.1608 3.89108   4
   5  -6  -1 14.0692 4.21783   1
  -6   5   1 15.5495 4.16154   4
   6  -5   1 16.4844 4.28427   1
  -5  -6   1 11.9903 4.02676   2
   6  -5   1 14.6951 4.04703   2
  -6  -5  -1 17.5847 4.39200   1
   5   6   1 19.8988 4.43570   1
  -6  -5  -1 19.3698 4.15588   2
   6   5  -1 22.0275 4.38586   1
  -6   5   1 24.3727 4.66324   1
  -5   6  -1 16.9593 4.37961   1
   6   5  -1 19.6288 4.27797   4
  -5  -6   1 33.4139 5.01660   1
  -6   6  -1 -0.3647 3.76617   1
   6   6  -1 -0.7558 3.72019   1
   6  -6  -1 -7.3575 3.52257   1
   6   6   1 -1.8360 3.91239   1
   6  -6  -1 4.74954 3.66329   2
  -6  -6  -1 -0.6087 3.88608   1
   6  -6   1 -0.7709 3.74716   1
  -6  -6   1 -3.6258 3.62788   1
  -6   6   1 1.10373 3.91989   1
   6  -6   1 2.45684 3.70281   2
  -6   6  -1 -2.4501 3.54261   4
  -6  -6   1 5.77223 3.80644   2
  -6  -6  -1 -1.1570 3.69270   2
   0  -7   1 -3.1183 3.03050   1
  -7   0   1 -1.4316 3.43976   4
   7   0  -1 -2.1737 2.91511   2
   0  -7   1 -2.7681 2.77742   2
   0   7  -1 1.71487 2.23232   4
   0  -7  -1 2.05108 3.25877   1
   7   0  -1 -5.4241 3.03143   1
  -7   0  -1 -3.5499 3.14985   4
   0   7  -1 -3.6741 3.27643   1
   7   0   1 4.91584 3.20083   2
   7   0   1 -0.3595 3.44563   1
  -7   0   1 -1.0638 3.35639   1
   0   7   1 -0.8636 3.51087   1
   0  -7  -1 -3.7244 2.80292   2
  -7   0  -1 -4.3058 3.01931   1
   0   7   1 -5.3880 2.55575   4
   7   1   1 121.895 7.15308   2
  -1   7   1 117.403 7.10697   1
  -7   1  -1 119.719 7.16410   1
  -1  -7  -1 121.568 6.89343   2
   7  -1  -1 125.883 6.97644   2
   7   1   1 127.835 7.33151   1
  -1  -7  -1 116.518 7.02316   1
  -7   1  -1 127.915 7.88276   4
   1   7  -1 125.275 7.27916   1
  -1   7   1 126.655 6.56798   4
  -7  -1   1 113.369 7.47001   4
   1  -7   1 117.448 6.97274   1
   1   7  -1 137.501 5.49776   4
  -7  -1   1 128.776 7.23982   1
   7  -1  -1 121.576 7.30487   1
   1  -7   1 129.028 7.23201   2
   7  -1   1 121.800 7.13368   2
  -7   1   1 138.450 8.03621   4
  -7  -1  -1 123.401 7.82355   4
   7  -1   1 121.560 7.42110   1
  -7   1   1 119.822 7.20075   1
  -1   7  -1 120.018 7.17158   1
  -1   7  -1 129.439 5.63509   4
  -1  -7   1 119.118 7.17107   1
   1  -7  -1 114.205 6.96801   2
   7   1  -1 118.000 7.07867   2
  -1  -7   1 121.306 7.09896   2
  -7  -1  -1 128.964 7.45806   1
   1   7   1 134.183 6.82845   4
   1   7   1 119.135 7.20748   1
   1  -7  -1 121.321 6.99277   1
   7   1  -1 116.696 7.05366   1
  -7  -2   1 24.3753 4.55141   1
   7  -2  -1 33.9829 4.97175   1
   2  -7   1 27.0239 4.82921   1
   2  -7   1 30.5264 4.63302   2
  -2   7   1 26.1801 4.73285   1
  -2  -7  -1 32.0084 4.71899   1
   7   2   1 32.4721 4.64660   2
   7  -2  -1 28.4675 4.51910   2
   2   7  -1 25.5799 4.83447   1
  -2   7   1 28.1996 4.14148   4
   2  -7   1 29.0656 4.82302   1
  -7   2  -1 26.3198 4.70647   4
  -7  -2   1 25.8211 4.38089   4
  -2  -7  -1 23.1432 4.14447   2
  -7   2  -1 31.9472 4.79020   1
   2  -7   1 31.4731 3.55424   4
   7   2   1 33.8069 4.80881   1
   2   7  -1 29.5537 3.39438   4
   7  -2   1 33.3302 4.78746   1
  -2  -7   1 32.7045 4.75685   1
   2  -7  -1 39.0765 5.00298   1
   2  -7  -1 26.2977 3.96743   4
   2   7   1 29.6937 4.88890   1
  -7  -2  -1 32.0863 4.93953   1
  -2   7  -1 27.6663 3.58564   4
  -2  -7   1 29.4558 4.46758   2
  -7   2   1 26.2171 4.60862   4
  -7   2   1 37.0141 5.12145   1
  -2   7  -1 28.2633 4.76381   1
   7   2  -1 22.8286 4.38878   1
  -7  -2  -1 31.2611 4.68141   4
   2  -7  -1 27.6956 4.27470   2
   7   2  -1 27.5492 4.30137   2
   2   7   1 28.3889 4.14543   4
   7  -2   1 29.7886 4.41909   2
   2  -7  -1 28.0803 4.66853   1
   7  -3  -1 8.50484 3.71286   2
   3  -7   1 8.50976 3.57797   2
   7  -3  -1 5.24373 3.62896   1
  -3  -7  -1 3.06114 3.31412   2
  -7  -3   1 2.27197 3.84064   1
  -3   7   1 4.63709 3.79382   1
   3  -7   1 6.23115 2.83608   4
  -7   3  -1 9.97250 4.24159   4
   3  -7   1 4.91455 3.67436   1
   7   3   1 4.95663 3.60011   2
   7   3   1 1.83192 3.81664   1
  -7  -3   1 1.58414 3.61943   4
   3   7  -1 2.68083 3.74733   1
  -7   3  -1 3.22974 3.85324   1
  -3  -7  -1 6.66076 3.88705   1
   3   7  -1 9.30290 2.91765   4
  -3   7   1 13.4692 3.77371   4
   3  -7  -1 5.93460 3.46708   2
   7   3  -1 9.92962 3.75911   2
  -7  -3  -1 9.94505 4.04333   1
   3   7   1 4.07110 3.59828   1
  -3   7  -1 4.33009 3.78810   1
   7  -3   1 9.21199 3.68760   2
  -3   7  -1 9.41212 3.15207   4
   3  -7  -1 4.16701 3.51305   1
   7   3  -1 0.43680 3.69259   1
   7  -3   1 8.24376 3.92975   1
  -7   3   1 6.14731 3.76479   1
  -3  -7   1 4.85578 3.57013   2
   3  -7  -1 3.95639 3.32949   4
  -3  -7   1 9.46869 3.88927   1
  -4   7   1 3.40625 3.67732   1
   7  -4  -1 3.59124 3.45605   2
   4  -7   1 1.97164 3.71820   1
  -7  -4   1 1.10891 3.67563   1
  -4  -7  -1 1.27686 3.49982   2
  -4  -7  -1 1.66753 3.96532   1
  -7   4  -1 2.16847 3.75139   4
   4   7  -1 -3.7442 3.52460   1
   7   4   1 5.71262 3.90297   1
   4  -7   1 0.50005 3.30586   2
   4  -7   1 -1.0850 2.86606   4
  -7   4  -1 -8.5760 3.19517   1
  -7  -4   1 5.13575 3.44963   4
   7  -4  -1 4.47688 3.69480   1
   4   7  -1 -1.5570 2.86790   4
  -4   7   1 4.85665 3.55831   4
   7   4   1 -0.2267 3.58275   2
  -4  -7   1 2.55808 3.59766   1
   7  -4   1 -0.8868 3.31843   2
  -7   4   1 -3.0562 3.31805   1
  -4   7  -1 -1.4274 3.62481   1
   7   4  -1 -4.2314 3.50191   1
   7   4  -1 2.04286 3.33926   2
  -4   7  -1 1.88768 3.13508   4
   4  -7  -1 -1.5038 3.19989   2
  -4  -7   1 -6.0400 3.12090   2
  -7  -4  -1 4.88373 3.91113   1
   7  -4   1 0.43265 3.63717   1
   4  -7  -1 3.06066 3.84802   1
   4   7   1 -0.7236 3.59885   1
  -5   7   1 23.8245 5.04433   1
   7   5   1 31.1669 5.04695   2
   5  -7   1 28.2986 4.44522   4
   5   7  -1 28.0659 5.31501   1
  -7   5  -1 22.5737 4.80885   1
  -5  -7  -1 28.0410 4.73918   2
   7   5   1 34.6060 5.30866   1
   5  -7   1 24.9333 4.75408   2
  -7  -5   1 24.9577 5.04975   1
   7  -5  -1 27.4715 5.17251   1
   5   7  -1 37.2056 4.74775   4
  -5  -7  -1 32.5585 5.44719   1
   7  -5  -1 22.6892 4.62021   2
   5  -7   1 23.6053 5.05202   1
  -7   5   1 17.7827 4.82745   1
  -5   7  -1 37.7341 5.54077   1
   7  -5   1 21.9823 4.75785   2
  -5  -7   1 33.1320 5.15081   2
   7   5  -1 19.8858 4.76809   1
   5  -7  -1 30.1554 4.81425   2
   5  -7  -1 37.9889 5.50401   1
  -7  -5  -1 19.8146 4.86435   1
  -5  -7   1 27.3158 5.22635   1
   7  -5   1 30.2100 5.21883   1
   5   7   1 30.5254 5.39341   1
  -5   7  -1 18.0428 4.16992   4
  -6   7   1 5.42448 4.61093   1
  -7   6  -1 21.5865 5.30708   1
   6  -7   1 29.4222 5.22583   2
   6  -7   1 28.9022 5.51789   1
  -6  -7  -1 21.9941 5.14740   1
   7  -6  -1 14.3458 4.45556   2
   6   7  -1 11.5781 4.84075   1
  -6  -7  -1 20.7311 4.92160   2
  -7  -6   1 18.1577 5.02483   1
   7  -6  -1 11.9377 4.78534   1
   7   6   1 11.4813 4.85663   1
   6   7   1 29.3569 5.63535   1
   7   6  -1 18.2419 5.08400   1
  -6  -7   1 21.7467 5.16323   1
   7  -6   1 18.2603 4.70807   2
  -7   6   1 10.0994 4.58675   1
   6  -7  -1 9.67559 4.44086   1
  -7  -6  -1 16.0493 4.79258   1
  -7  -6  -1 22.3490 4.82154   2
   7  -6   1 14.6927 4.86840   1
  -6   7  -1 3.59155 4.20039   4
  -6  -7   1 18.4614 5.10279   2
   6  -7  -1 22.9297 4.88467   2
  -6   7  -1 9.21500 4.75852   1
   7  -7   1 -0.6321 4.32162   1
  -7  -7   1 -5.0613 3.95688   2
   7  -7  -1 -6.9236 4.25305   1
  -7   7  -1 -3.5087 4.38783   1
   7  -7  -1 -0.0971 4.33105   2
   7  -7   1 -3.0448 4.28589   2
   7   7   1 -3.4637 4.20531   1
   7   7  -1 4.97189 4.82615   1
  -7  -7   1 6.73245 4.90510   1
  -7   7   1 0.85549 4.55110   1
  -7  -7  -1 -1.3042 4.29187   2
  -7  -7  -1 0.98942 4.40638   1
   8   0   1 13.7404 4.32160   1
   0   8  -1 20.3154 4.61718   1
  -8   0   1 25.5585 4.99072   1
   0  -8   1 13.3465 3.97205   2
  -8   0  -1 17.5873 4.40989   1
   8   0  -1 14.2614 3.92077   2
   0   8   1 16.1405 4.58923   1
   8   0   1 11.8257 4.00968   2
   0  -8  -1 13.0487 4.02199   1
   0   8  -1 16.8390 3.09820   4
   0  -8   1 14.8999 4.24665   1
   0  -8  -1 8.77042 3.83040   2
   0   8   1 6.21303 3.33602   4
   8   0  -1 13.9573 4.27511   1
   8   1   1 143.495 8.00425   2
   8  -1  -1 127.005 7.95551   1
  -8  -1   1 122.456 8.01079   1
  -1  -8  -1 138.425 7.97874   1
   1  -8   1 123.514 7.87073   2
   1  -8   1 132.432 7.94079   1
  -1   8   1 131.008 8.32504   1
   1   8  -1 134.216 6.11331   4
   1  -8   1 126.521 7.76338   1
  -8   1  -1 142.340 8.61049   1
  -1   8   1 129.823 7.24287   4
   8  -1  -1 116.458 7.65438   2
   8   1   1 122.721 7.64225   1
  -1  -8  -1 142.949 7.94696   2
   1   8  -1 132.419 8.11830   1
  -8  -1  -1 129.292 8.02247   1
   8  -1   1 131.912 7.89886   2
  -1   8  -1 136.167 6.36291   4
   1   8   1 122.088 7.80269   1
   1  -8  -1 130.829 8.11277   1
  -1  -8   1 139.603 8.12688   2
   8   1  -1 118.441 7.60511   2
   1  -8  -1 117.904 7.70544   2
   1   8   1 132.989 7.29215   4
  -1  -8   1 125.893 8.07609   1
   8   1  -1 105.006 7.75255   1
  -8   1   1 123.094 7.80244   1
   8  -1   1 145.967 8.42956   1
  -8  -2   1 10.2440 4.26199   1
   8  -2  -1 7.05453 3.83801   2
   2  -8   1 11.6508 4.14302   1
  -2  -8  -1 11.7087 3.96177   2
  -2  -8  -1 14.4734 4.49467   1
  -2   8   1 10.2511 3.48350   4
   8   2   1 11.1718 4.15485   1
   8  -2  -1 6.04973 4.01480   1
  -2   8   1 8.03602 4.24755   1
   2   8  -1 16.2851 4.72144   1
   2  -8   1 3.92249 4.02834   1
  -8   2  -1 6.50379 4.36340   1
   2  -8   1 12.1286 4.15133   2
   8   2   1 12.0523 4.19620   2
   8  -2   1 10.8333 4.31394   1
   2  -8  -1 11.7665 4.35516   1
  -8   2   1 7.92819 4.27996   1
   8  -2   1 22.9191 4.68499   2
  -2  -8   1 8.74247 4.21478   1
   2   8   1 10.5244 3.50319   4
  -2  -8   1 10.6149 4.17315   2
  -2   8  -1 7.91265 4.32949   1
   2   8   1 8.59993 4.28299   1
  -8  -2  -1 6.94733 4.10409   1
   8   2  -1 2.99744 3.85864   1
   2  -8  -1 6.99536 3.67264   2
   2  -8  -1 18.0971 4.60788   1
  -2   8  -1 8.25252 3.08042   4
   8   2  -1 12.6709 3.89249   2
   8   3   1 3.77444 3.83282   2
   3  -8   1 1.54925 3.58605   2
  -8  -3   1 0.86685 4.00564   1
   3  -8   1 1.94360 3.85222   1
  -3  -8  -1 0.19106 3.94396   1
  -3  -8  -1 -1.2927 3.27962   2
   8  -3  -1 -0.1050 3.75189   1
  -3   8   1 -4.9636 3.63477   1
   8  -3  -1 6.26236 3.84397   2
   8   3   1 13.3772 4.52648   1
  -8   3  -1 0.74184 3.88788   1
  -3   8   1 3.31097 3.54138   4
   3   8  -1 6.06623 4.05884   1
   3  -8  -1 4.42617 4.10540   1
  -3   8  -1 9.53220 4.26875   1
   8   3  -1 4.22702 3.66410   2
   8  -3   1 6.88720 4.15112   1
   8  -3   1 -0.5296 3.44187   2
  -3  -8   1 -0.6894 3.73466   2
   3  -8  -1 -0.7385 3.24114   2
   3   8   1 5.60904 4.08687   1
   8   3  -1 2.08143 4.20992   1
  -3  -8   1 -4.1353 3.80146   1
  -8   3   1 10.2938 4.38075   1
  -3   8  -1 -3.9055 2.91378   4
  -8  -3  -1 1.99241 3.90106   1
   8   4   1 141.712 8.94251   1
  -4   8   1 161.693 9.05618   1
  -8   4  -1 161.333 9.47629   1
   8   4   1 159.459 9.05455   2
  -8  -4   1 138.449 9.09180   1
   8  -4  -1 158.942 8.94533   2
   8  -4  -1 150.055 9.20980   1
   4   8  -1 143.410 9.16036   1
   4  -8   1 133.393 9.10881   1
  -4  -8  -1 148.139 8.49939   2
  -4  -8  -1 149.258 9.30562   1
   8   4  -1 149.283 9.05113   1
  -8  -4  -1 147.295 9.03513   1
  -4   8  -1 156.799 9.77848   1
   4   8   1 154.320 9.35149   1
   8  -4   1 147.069 9.13982   1
   8   4  -1 155.657 8.74180   2
  -4  -8   1 137.117 8.73606   2
   8  -4   1 149.533 8.87202   2
  -8   4   1 152.484 9.43591   1
   4  -8  -1 148.545 9.35241   1
  -4   8  -1 153.670 8.12068   4
  -4  -8   1 140.950 9.17123   1
   4  -8  -1 154.729 8.92561   2
  -5  -8  -1 59.0381 6.35131   2
   5   8  -1 47.3822 6.47994   1
   8   5   1 54.5812 6.82854   1
  -5   8   1 69.9862 7.15248   1
  -8  -5   1 60.6838 6.86155   1
  -8   5  -1 53.8727 6.82178   1
  -5  -8  -1 56.4571 6.82142   1
   8   5   1 56.0887 6.61552   2
   5  -8   1 50.6836 6.50669   1
   5  -8   1 45.6372 5.99462   2
   8  -5  -1 42.1494 5.81598   2
   8  -5  -1 56.9281 6.89314   1
   5  -8  -1 55.1950 6.18771   2
   8   5  -1 51.4970 6.60257   1
  -5  -8   1 59.0197 6.50975   2
  -8   5   1 48.5646 6.58835   1
  -5   8  -1 53.4649 6.75211   1
   5   8   1 55.9693 6.70787   1
   8  -5   1 50.6812 6.59750   1
  -8  -5  -1 47.6679 6.45574   1
   5  -8  -1 61.1632 6.97054   1
   8  -5   1 63.6616 6.83586   2
  -5  -8   1 47.6660 6.35173   1
  -8   6  -1 3.51316 5.07043   1
   8  -6  -1 1.08346 4.21738   2
   8  -6  -1 -10.391 4.33669   1
   6   8  -1 8.85440 4.93982   1
  -6  -8  -1 -2.5195 4.01537   2
  -8  -6   1 0.06941 4.49385   1
   8   6   1 -1.9474 4.55518   1
  -6   8   1 4.42045 4.82332   1
   6  -8   1 1.51209 4.26848   2
  -6  -8  -1 1.62171 4.57504   1
   6  -8   1 2.78187 4.60421   1
  -6   8  -1 10.4293 5.18465   1
   6  -8  -1 4.16920 4.53573   1
  -6  -8   1 -2.4562 4.52247   1
   8   6  -1 -3.9528 4.17904   1
  -6  -8   1 2.48317 4.69223   2
   6  -8  -1 2.13443 4.44024   2
   8  -6   1 -3.8912 4.11237   2
  -8  -6  -1 8.30978 4.63474   2
   8  -6   1 -2.7937 4.67334   1
  -8  -6  -1 -2.8557 4.45088   1
   6   8   1 -7.2737 4.62779   1
  -8   6   1 8.85907 5.02972   1
  -8  -7   1 98.6005 8.79601   1
  -7  -8  -1 122.690 9.41428   2
   7  -8   1 132.417 9.90728   2
  -8   7  -1 113.572 9.27506   1
   8  -7  -1 143.183 9.73805   2
   7  -8   1 126.035 9.66117   1
   8  -7  -1 103.212 8.91797   1
  -8  -7   1 117.847 9.26362   2
   7   8  -1 125.745 9.60285   1
   8   7   1 120.928 9.68254   1
  -7   8   1 126.662 9.90165   1
  -7  -8  -1 120.567 9.60465   1
   7   8   1 135.641 10.2266   1
  -7  -8   1 126.866 9.80231   1
   7  -8  -1 117.240 8.87689   2
  -7  -8   1 104.608 8.71980   2
  -8  -7  -1 120.980 9.68988   1
  -8   7   1 140.528 10.2736   1
   8  -7   1 113.604 9.27384   1
  -8  -7  -1 110.902 8.67517   2
   7  -8  -1 128.050 9.95335   1
  -7   8  -1 118.489 9.60777   1
   8   7  -1 111.985 9.36001   1
   8  -7   1 133.915 10.1641   2
   8  -8   1 -0.8791 4.67227   2
   8  -8  -1 5.64576 5.79950   1
  -8  -8   1 -7.6380 4.73815   2
  -8   8  -1 1.19637 5.60638   1
   8   8   1 1.46972 5.44734   1
  -8  -8  -1 7.29662 5.15824   2
  -8  -8   1 -2.1957 4.87160   1
  -8   8   1 2.94496 5.31715   1
   8  -8   1 -6.6440 4.88579   1
   8   8  -1 -1.7279 5.21863   1
  -8  -8  -1 13.6241 5.77385   1
   8  -8  -1 -3.3435 4.79173   2
   0  -9  -1 6.71647 3.88788   2
   0  -9   1 -2.5029 3.94700   1
   9   0  -1 0.07037 3.69434   2
   0   9  -1 2.67223 4.47308   1
   0   9   1 -0.3772 3.83830   1
  -9   0   1 -1.2585 4.15231   1
   0  -9   1 1.74533 3.79664   2
   0   9   1 -3.6185 3.23109   4
   9   0   1 1.94661 3.96817   2
   0  -9  -1 -1.4524 4.06388   1
   9   0  -1 8.64285 4.55032   1
   9   0   1 0.69726 4.36592   1
  -9   0  -1 -0.4445 4.29937   1
   9   1   1 3.67196 3.93568   2
  -1  -9  -1 0.60775 3.71828   2
  -1  -9  -1 12.3174 4.71424   1
   9   1   1 12.0769 4.60148   1
   1  -9   1 8.92406 4.47594   1
   1  -9   1 11.9445 4.65584   1
  -9  -1   1 5.90673 4.32438   1
   1   9  -1 1.06218 4.22094   1
   9  -1  -1 13.2737 4.95956   1
  -1   9   1 8.96684 3.78148   4
   1  -9   1 5.44235 4.00736   2
   9  -1  -1 11.1517 4.22982   2
  -9   1  -1 7.70958 4.45222   1
  -1   9   1 7.23546 4.57864   1
  -9   1   1 2.49820 4.40757   1
   1   9   1 4.04768 4.52604   1
  -1  -9   1 5.01769 4.15334   2
   1  -9  -1 -1.6494 3.83353   1
   1   9   1 5.59226 3.72386   4
   9   1  -1 4.63906 4.40853   1
   9   1  -1 1.12800 3.93011   2
   9  -1   1 7.93682 4.63759   1
  -1  -9   1 7.98913 4.13349   1
  -1   9  -1 4.74177 4.28541   1
   9  -1   1 10.5848 4.44231   2
  -9  -1  -1 11.7086 4.58245   1
   1  -9  -1 -2.8078 3.73577   2
  -9   2  -1 26.6260 5.55573   1
   2   9  -1 15.8501 5.10763   1
   2  -9   1 20.6774 5.28654   1
   9   2   1 10.9002 4.72739   1
  -2   9   1 13.0791 4.95214   1
   9   2   1 20.0037 4.95537   2
   9  -2  -1 19.9807 4.83368   2
   2  -9   1 19.4942 5.20849   1
  -2  -9  -1 16.8488 4.99788   1
   2  -9   1 22.8388 5.04325   2
  -9  -2   1 24.6831 5.38064   1
   9  -2  -1 26.1215 5.32822   1
  -2  -9  -1 19.9406 4.58737   2
  -2   9   1 21.1765 4.53790   4
  -2  -9   1 19.7933 4.82464   2
   9   2  -1 20.5623 4.87852   2
   2  -9  -1 14.6316 4.70177   2
   9  -2   1 15.4894 4.84918   2
   9   2  -1 14.5552 4.67014   1
  -9  -2  -1 32.0054 5.84327   1
  -9   2   1 12.8780 4.96919   1
   2  -9  -1 22.8458 5.13308   1
  -2   9  -1 19.1854 5.03903   1
   2   9   1 19.6897 5.25304   1
   9  -2   1 21.2152 5.31935   1
  -2  -9   1 20.2317 5.07689   1
   2  -9  -1 20.7088 5.06881   1
   2   9   1 19.8766 4.45113   4
  -9  -3   1 65.2859 7.08181   1
   9   3   1 52.3812 6.26198   2
   3   9  -1 58.4929 6.88223   1
  -3  -9  -1 48.4878 6.43699   1
   9  -3  -1 49.0115 6.54520   1
   3  -9   1 52.6661 6.31669   2
  -3   9   1 50.6970 6.69532   1
  -3  -9  -1 56.3233 6.29980   2
   9  -3  -1 41.9563 6.10583   2
   9   3   1 54.9510 6.97669   1
   3  -9   1 45.6972 6.42364   1
  -9   3  -1 58.9163 7.01441   1
   9  -3   1 64.0815 7.05344   1
  -3   9  -1 50.8264 6.66339   1
  -9   3   1 59.9769 7.01823   1
  -3  -9   1 51.2164 6.16358   2
   3  -9  -1 48.9791 6.35597   1
   3  -9  -1 55.8319 6.24395   2
   3   9   1 54.0688 6.80955   1
  -3  -9   1 56.0358 6.76479   1
  -9  -3  -1 46.7842 6.55762   1
   9  -3   1 49.9418 6.11929   2
   9   3  -1 56.5733 6.20988   2
   9   3  -1 52.8422 6.77557   1
   4  -9   1 8.61557 4.75455   1
  -9  -4   1 -4.8878 4.56600   1
   9   4   1 -1.5754 4.56050   1
  -9   4  -1 12.6919 5.06800   1
   4   9  -1 2.19198 4.80808   1
  -4  -9  -1 6.27833 4.48712   2
   9  -4  -1 1.57151 4.18663   2
   4  -9   1 3.19430 4.22620   2
  -4   9   1 4.23924 4.52666   1
  -4  -9  -1 3.76423 4.67342   1
   9   4   1 5.53436 4.41213   2
   9  -4  -1 -9.5877 4.21917   1
   9  -4   1 8.89880 4.76602   1
   9   4  -1 0.73626 4.57844   1
   9   4  -1 4.51994 4.32017   2
  -9   4   1 6.57409 4.85641   1
  -4  -9   1 1.74701 4.45160   1
  -4  -9   1 7.89608 4.67011   2
  -4   9  -1 4.09662 4.72136   1
   4   9   1 2.79191 4.86066   1
   4  -9  -1 -0.0794 4.15337   2
  -9  -4  -1 4.39260 5.09961   1
   9  -4   1 2.27771 4.39173   2
   4  -9  -1 5.99784 4.65456   1
   9  -5  -1 19.8479 5.59820   1
  -9   5  -1 4.74754 5.23773   1
  -5  -9  -1 18.8360 5.89264   1
   9  -5  -1 10.8954 4.85394   2
   5  -9   1 16.5625 5.33766   1
  -5   9   1 16.5369 5.72777   1
   5  -9   1 14.6891 5.25970   2
   9   5   1 26.0260 6.09335   1
   9   5   1 20.6894 5.48123   2
  -5  -9  -1 17.4944 5.03225   2
   5   9  -1 11.3360 5.42839   1
  -9  -5   1 18.6958 5.54320   1
  -9  -5  -1 11.5259 5.65039   1
   5  -9  -1 19.9299 5.08248   2
   9  -5   1 9.16329 5.11016   1
  -5  -9   1 6.93349 4.78088   2
   5   9   1 21.1561 6.08822   1
   9  -5   1 18.9264 5.23064   2
   5  -9  -1 19.5637 5.66938   1
  -5  -9   1 24.6640 6.11531   1
   9   5  -1 3.97697 5.07964   1
  -9   5   1 14.5830 5.64664   1
  -5   9  -1 13.0976 5.66683   1
  -6  -9  -1 223.718 12.2751   1
  -9  -6   1 238.149 12.1660   1
   9  -6  -1 218.906 11.4857   2
   6  -9   1 236.771 11.8779   2
   6   9  -1 224.933 12.0317   1
  -6  -9  -1 224.716 11.3713   2
  -9   6  -1 233.589 12.3474   1
   9   6   1 242.870 12.0172   1
   6  -9   1 230.366 12.1571   1
   9  -6  -1 247.409 12.6602   1
  -6  -9   1 227.968 11.6766   2
  -6   9  -1 216.626 12.4432   1
   6   9   1 205.550 11.9972   1
   9  -6   1 247.199 12.1305   2
   6  -9  -1 224.564 12.2539   1
   9  -6   1 243.457 12.4346   1
  -9   6   1 246.129 12.6237   1
  -9  -6  -1 212.608 11.4103   2
   6  -9  -1 211.586 11.3989   2
   9   6  -1 229.462 12.1021   1
  -6  -9   1 238.862 12.4911   1
  -9  -6  -1 231.724 11.9754   1
   9  -7  -1 107.851 9.73952   1
   7  -9   1 106.454 9.72333   1
   7  -9   1 115.191 9.51010   2
  -9  -7   1 112.194 9.93018   1
  -7  -9  -1 104.604 9.58122   1
  -9   7  -1 106.025 9.80006   1
  -7  -9  -1 113.663 9.15474   2
  -9  -7   1 117.718 9.64010   2
   9  -7  -1 114.277 9.18014   2
  -7   9   1 125.210 10.4625   1
   9   7   1 115.607 9.88397   1
   7   9  -1 107.160 9.86655   1
   7   9   1 101.726 9.57882   1
  -7   9  -1 118.224 9.86646   1
   7  -9  -1 113.555 10.0074   1
  -9  -7  -1 102.650 9.58438   1
   9   7  -1 116.749 9.98608   1
  -7  -9   1 105.689 9.24689   2
   9  -7   1 111.220 9.31055   2
   7  -9  -1 104.458 8.98293   2
  -7  -9   1 98.8939 9.54027   1
   9  -7   1 110.225 9.77715   1
  -9  -7  -1 101.878 8.92948   2
  -9   7   1 109.160 9.92237   1
  -9  -8   1 6.81701 6.13226   1
  -8  -9  -1 7.50064 5.13621   2
   9  -8  -1 6.42179 6.28049   1
   8  -9   1 15.6895 6.48394   1
   9  -8  -1 1.78996 5.01618   2
   9   8   1 11.6617 6.62087   1
  -9  -8   1 13.1801 6.14984   2
   8   9  -1 17.0119 6.68563   1
   8  -9   1 14.5436 5.93541   2
  -8  -9  -1 6.59634 6.03340   1
  -8   9   1 12.1411 6.57591   1
  -9   8  -1 4.31231 6.02083   1
  -9  -8  -1 11.9525 5.73794   2
  -9  -8  -1 7.87149 5.92537   1
  -9   8   1 6.30152 6.11350   1
  -8  -9   1 11.8372 6.12004   2
   9  -8   1 0.78227 6.15155   1
  -8   9  -1 7.37934 6.48584   1
   9   8  -1 11.2125 6.02771   1
  -8  -9   1 12.1055 6.13358   1
   8  -9  -1 10.2189 6.23685   1
   8   9   1 19.7309 6.69971   1
   8  -9  -1 3.50981 5.33435   2
   9  -8   1 8.68725 5.64338   2
  -9  -9  -1 1.67829 5.22077   2
   9  -9   1 -1.1959 5.56482   2
   9   9  -1 4.13379 6.04400   1
   9  -9  -1 2.39325 6.06972   1
  -9  -9   1 9.51834 5.91537   2
  -9   9  -1 -5.4529 6.08077   1
  -9  -9   1 1.79296 6.04984   1
  -9   9   1 4.74758 6.26534   1
  -9  -9  -1 -9.3417 5.60575   1
   9  -9  -1 -5.7594 4.89308   2
  10   0   1 85.6379 7.66789   2
   0 -10  -1 106.555 8.23264   2
  10   0  -1 93.6339 8.30157   1
   0 -10   1 92.8810 8.09350   1
   0 -10   1 72.3604 7.51323   2
   0 -10  -1 95.3464 8.34879   1
   0  10  -1 77.0697 7.84579   1
   0  10   1 94.1070 8.42288   1
  10   0   1 88.3007 8.00722   1
 -10   0  -1 86.1797 8.25027   1
  10   0  -1 71.4231 7.14779   2
 -10   0   1 93.9441 8.25848   1
   1 -10   1 26.6122 5.58409   2
   1  10  -1 17.1962 5.44732   1
  10   1   1 17.4546 5.53673   1
  10   1   1 18.6931 5.15811   2
   1 -10   1 41.4713 6.27669   1
  10  -1  -1 17.9698 5.84747   1
  -1 -10  -1 22.6756 5.25658   2
  -1  10   1 20.5615 5.85888   1
 -10  -1   1 22.7664 5.67534   1
   1 -10   1 27.1934 5.96734   1
  -1 -10  -1 24.9798 5.59096   1
  10  -1  -1 28.5125 5.48993   2
 -10   1  -1 19.2625 5.55541   1
  10  -1   1 25.5345 5.78916   1
   1 -10  -1 22.9500 5.57616   1
  -1 -10   1 32.0496 5.73736   1
   1  10   1 22.7208 6.04180   1
  10  -1   1 23.5791 5.48003   2
  -1 -10   1 25.2247 5.50508   2
  -1  10  -1 20.9348 5.69350   1
 -10   1   1 27.8973 6.02997   1
   1 -10  -1 26.4106 5.94958   1
   1 -10  -1 26.5022 5.62530   2
  10   1  -1 21.4860 5.31819   2
  10   1  -1 22.9070 5.69988   1
 -10  -1  -1 16.1198 5.42911   1
   2 -10   1 44.5550 6.68739   1
  -2  10   1 51.5718 6.84313   1
  -2 -10  -1 38.2264 6.30965   1
   2  10  -1 42.3940 6.72788   1
  10   2   1 32.7508 6.22942   1
   2 -10   1 30.3637 5.75028   2
 -10  -2   1 32.7259 6.23715   1
  10  -2  -1 42.9636 6.30608   2
  10  -2  -1 46.5992 6.85015   1
 -10   2  -1 39.5899 6.71682   1
  -2 -10  -1 37.1966 5.96791   2
  10   2   1 37.9339 6.12691   2
  10   2  -1 36.2267 6.18521   1
  10  -2   1 38.9673 6.04468   2
   2 -10  -1 30.1525 6.13751   1
   2 -10  -1 42.2064 6.22279   2
  -2 -10   1 32.5832 6.32459   1
   2  10   1 52.0478 7.03251   1
  10  -2   1 31.1764 6.30657   1
 -10   2   1 41.6414 6.71049   1
  10   2  -1 33.7180 5.81130   2
  -2  10  -1 47.0633 6.80998   1
 -10  -2  -1 44.1560 6.71076   1
   2 -10  -1 29.0903 6.12184   1
  -2 -10   1 36.1804 5.95405   2
 -10  -3   1 42.7021 6.85253   1
  -3 -10  -1 44.1617 6.25696   2
   3  10  -1 42.3775 7.15420   1
 -10   3  -1 47.1393 7.24408   1
  10   3   1 45.4355 7.00399   1
  10  -3  -1 37.4322 6.10859   2
  10  -3  -1 44.0317 6.86975   1
  -3 -10  -1 56.0517 7.39082   1
   3 -10   1 34.9139 6.51665   1
  -3  10   1 32.1662 6.64307   1
  10   3   1 33.6994 6.25720   2
   3 -10   1 33.1229 6.05897   2
  -3 -10   1 38.4292 6.23807   2
  10   3  -1 40.4673 6.78290   1
 -10  -3  -1 34.6088 6.80477   1
 -10   3   1 65.7708 7.71943   1
   3 -10  -1 47.1235 7.05872   1
   3 -10  -1 29.7979 5.64587   2
  10  -3   1 51.5410 7.10754   1
  -3 -10   1 49.0541 6.92773   1
  -3  10  -1 36.4249 6.67740   1
  10  -3   1 40.9303 6.55835   2
  10   3  -1 41.5841 6.34868   2
   3  10   1 53.9483 7.47817   1
  -4  10   1 39.5823 7.00421   1
  10  -4  -1 56.9837 7.59831   1
  10   4   1 56.3781 7.08614   2
   4 -10   1 47.3744 6.52252   2
   4 -10   1 52.0980 7.43227   1
  10  -4  -1 37.7991 6.46379   2
   4  10  -1 46.4522 7.30823   1
  -4 -10  -1 40.2527 6.28878   2
  -4 -10  -1 29.3519 6.36607   1
 -10  -4   1 45.8162 7.15659   1
  10   4   1 39.2161 7.01393   1
 -10   4  -1 43.1311 7.13601   1
  10  -4   1 46.1275 6.64362   2
 -10   4   1 57.4483 7.68144   1
   4 -10  -1 54.8041 7.37593   1
  -4 -10   1 61.0444 7.66398   1
  -4  10  -1 45.5610 7.18404   1
  10   4  -1 54.5465 6.68951   2
   4 -10  -1 46.2362 6.72045   2
   4  10   1 54.9225 7.82422   1
  10   4  -1 61.3625 7.76739   1
  10  -4   1 47.9839 7.10970   1
 -10  -4  -1 42.9839 7.08787   1
  -4 -10   1 43.7463 6.65713   2
  10   5   1 196.441 11.4657   2
   5 -10   1 215.615 12.4057   1
   5  10  -1 180.419 12.0166   1
  -5 -10  -1 180.860 12.0056   1
  10  -5  -1 209.444 11.8971   1
  -5  10   1 201.819 11.8679   1
 -10  -5   1 188.265 12.0347   1
  10  -5  -1 186.849 11.1483   2
  10   5   1 197.485 11.9325   1
  -5 -10  -1 193.767 11.3416   2
 -10   5  -1 203.487 11.8385   1
   5 -10   1 206.375 11.6970   2
 -10   5   1 199.648 12.0068   1
   5 -10  -1 217.938 11.7971   1
   5 -10  -1 198.022 11.2629   2
  10   5  -1 215.159 12.3427   1
  10  -5   1 204.971 12.2889   1
  10  -5   1 185.684 11.6958   2
  -5 -10   1 228.826 12.6380   1
 -10  -5  -1 194.914 12.2716   1
  -5 -10   1 210.701 11.8941   2
  -5  10  -1 192.966 11.6459   1
   5  10   1 207.073 12.3586   1
   6 -10   1 8.04157 5.92640   1
  -6  10   1 15.3606 6.45157   1
 -10   6  -1 19.7430 6.60267   1
  10  -6  -1 19.3447 5.80071   2
   6  10  -1 8.19682 6.10220   1
 -10  -6   1 7.47067 6.06062   1
  -6 -10  -1 8.08812 6.25105   1
  10  -6  -1 24.7687 6.55546   1
   6 -10   1 23.9344 5.99901   2
  10   6   1 20.8171 6.66267   1
  -6 -10  -1 17.3903 5.71344   2
  -6 -10   1 16.9277 6.42239   1
  10   6  -1 22.4809 6.52206   1
  10  -6   1 32.7327 6.75823   1
  -6  10  -1 24.5049 6.83511   1
   6 -10  -1 21.7900 5.87581   2
 -10  -6  -1 10.6054 6.36164   1
  10  -6   1 14.5302 5.90504   2
   6 -10  -1 23.3838 6.55893   1
 -10   6   1 19.1085 6.39250   1
  -6 -10   1 14.8270 6.12575   2
   6  10   1 32.6876 6.90336   1
   7  10  -1 18.8547 7.00706   1
  10   7   1 16.6234 7.14270   1
   7 -10   1 18.6070 6.17789   2
   7 -10   1 27.1423 7.48077   1
  -7 -10  -1 10.2461 6.26316   1
  10  -7  -1 11.9194 6.55586   1
  10  -7  -1 13.0871 5.88716   2
  -7  10   1 13.6589 6.75407   1
  -7 -10  -1 27.4044 6.38907   2
 -10  -7   1 31.7261 7.16381   1
 -10   7  -1 7.30451 6.31854   1
   7 -10  -1 15.0324 5.84232   2
  -7 -10   1 23.7909 6.47831   2
  -7  10  -1 17.9259 6.96205   1
  -7 -10   1 12.7931 6.46127   1
  10  -7   1 15.4132 6.40191   1
 -10   7   1 14.2037 6.46847   1
   7  10   1 17.6738 6.58201   1
  10  -7   1 14.2646 6.21592   2
   7 -10  -1 22.0474 7.22955   1
  10   7  -1 19.0113 6.79653   1
 -10  -7  -1 11.9361 6.24006   1
 -10  -7  -1 11.9582 5.78525   2
   8 -10   1 49.7832 8.23010   2
  -8 -10  -1 69.6573 9.09560   1
 -10   8  -1 54.5848 8.83744   1
  -8 -10  -1 53.2105 7.80795   2
   8  10  -1 54.8780 9.01410   1
  -8  10   1 61.3006 8.83565   1
 -10  -8   1 66.3033 9.06477   1
  10  -8  -1 60.8466 8.29642   2
  10  -8  -1 65.6130 9.24843   1
 -10  -8   1 52.9164 7.99284   2
  -8 -10   1 67.6746 8.91168   1
 -10  -8  -1 68.2947 9.03611   1
  -8 -10   1 57.7798 8.15638   2
   8 -10  -1 52.8732 7.96850   2
  -8  10  -1 54.5551 8.73145   1
 -10  -8  -1 60.2152 8.10077   2
 -10   8   1 59.5965 8.94393   1
  10   8  -1 51.9914 8.71860   1
   8 -10  -1 78.1045 9.53489   1
  10  -9  -1 10.0263 7.30524   1
 -10   9  -1 1.49686 6.69223   1
  -9 -10  -1 -9.5296 6.14680   1
 -10  -9   1 -5.7191 6.15496   2
  10  -9  -1 3.89187 5.70876   2
   9  10  -1 3.89390 6.37670   1
  -9 -10  -1 -4.5245 5.41176   2
   9 -10  -1 5.29534 6.55050   1
 -10  -9  -1 -3.9755 5.55048   2
  -9 -10   1 -2.8430 6.02980   2
  -9  10  -1 -4.9758 6.52484   1
 -10  -9  -1 2.19757 6.40740   1
  10   9  -1 7.46605 6.43307   1
   9 -10  -1 7.18686 5.77552   2
 -10  10  -1 -0.4316 7.21643   1
  10  10  -1 -11.867 6.40388   1
 -10 -10  -1 -4.5604 6.28405   1
 -10 -10  -1 2.02913 6.04173   2
  10 -10  -1 1.78865 6.25550   2
  10 -10  -1 11.2983 7.81151   1
  11   0   1 -2.4110 4.85773   2
   0  11  -1 -6.0683 5.14929   1
 -11   0   1 2.62855 5.17144   1
   0  11   1 -1.8035 5.33143   1
   0 -11   1 -6.9601 4.57467   1
  11   0  -1 3.73043 5.13405   1
   0 -11  -1 5.99932 5.14432   1
  11   0   1 1.04370 4.98022   1
   0 -11  -1 -6.4506 4.35949   2
 -11   0  -1 0.97841 5.42089   1
  11   0  -1 7.41340 4.95635   2
   0 -11   1 3.06670 4.75910   2
   1 -11   1 22.0763 6.20259   1
   1 -11   1 22.1346 6.23089   1
   1 -11   1 29.4241 6.18279   2
  -1  11   1 20.2699 6.26595   1
  11   1   1 18.7073 5.92795   2
 -11   1  -1 27.2833 6.86124   1
  11   1   1 17.1852 6.19847   1
   1  11  -1 17.6437 6.60822   1
  11  -1  -1 23.7323 5.64423   2
  -1 -11  -1 12.6977 5.47903   2
  11  -1  -1 26.4745 6.60302   1
  -1 -11  -1 23.1303 6.24588   1
 -11  -1   1 17.9058 6.11878   1
 -11   1   1 14.1586 5.85916   1
   1 -11  -1 19.1201 5.93100   1
  11  -1   1 20.7658 6.00433   2
  -1 -11   1 29.2035 6.45988   1
 -11  -1  -1 22.4690 6.27681   1
  11  -1   1 39.9252 6.90389   1
  -1 -11   1 24.4196 6.10145   2
  -1  11  -1 14.4313 6.17563   1
   1 -11  -1 18.8278 5.43435   2
   1  11   1 23.5373 6.43686   1
  11   1  -1 8.18117 5.61566   1
   1 -11  -1 16.1669 6.00461   1
  11   1  -1 24.7956 6.05949   2
 -11   2  -1 18.5139 6.18990   1
  11  -2  -1 7.07923 5.07507   2
  -2 -11  -1 3.94917 5.15499   1
 -11  -2   1 6.98653 5.59646   1
  -2  11   1 -2.0335 5.36485   1
  11   2   1 6.48572 5.17448   2
   2 -11   1 4.55181 5.12777   2
   2  11  -1 14.8462 6.00788   1
   2 -11   1 10.1817 5.33402   1
  11   2   1 1.83434 5.48964   1
  11  -2  -1 4.39864 5.34331   1
  -2 -11  -1 -3.0324 4.60264   2
  11   2  -1 4.81223 5.54113   1
 -11   2   1 6.05594 5.77902   1
  -2  11  -1 0.25861 5.51966   1
  11  -2   1 6.62177 5.21642   2
   2 -11  -1 0.04471 5.12306   1
  -2 -11   1 4.38173 5.18508   1
  -2 -11   1 1.72485 4.70468   2
   2 -11  -1 6.30879 5.37430   1
   2 -11  -1 2.06921 4.75559   2
  11  -2   1 9.02976 5.64588   1
 -11  -2  -1 7.22764 5.33093   1
  11   2  -1 8.55104 5.12819   2
   2  11   1 11.2030 5.91431   1
   3 -11   1 4.80725 5.29861   2
 -11   3  -1 10.6572 6.11777   1
  11  -3  -1 8.95656 5.40422   2
  11   3   1 10.5884 6.19070   1
  -3 -11  -1 4.63755 5.62540   1
   3 -11   1 16.9364 6.02728   1
  11  -3  -1 6.37953 5.64221   1
   3  11  -1 23.4809 6.93751   1
  11   3   1 11.1333 5.57903   2
 -11  -3   1 14.0920 6.10459   1
  -3  11   1 13.8903 6.19406   1
  -3 -11  -1 7.04488 5.11789   2
  -3 -11   1 10.8405 5.36606   2
  -3 -11   1 15.2595 5.84069   1
  -3  11  -1 7.82623 5.87042   1
   3  11   1 5.05718 5.89299   1
 -11   3   1 8.46341 6.11900   1
   3 -11  -1 10.2802 5.60124   1
  11  -3   1 7.40284 5.52598   2
  11   3  -1 9.91603 5.36407   2
   3 -11  -1 4.15253 4.62545   2
  11   3  -1 4.78009 5.99733   1
 -11  -3  -1 5.55124 5.87706   1
  11  -3   1 5.72263 5.68898   1
  11   4   1 23.2863 6.93484   1
 -11   4  -1 21.8937 6.51486   1
   4  11  -1 16.4883 6.53524   1
   4 -11   1 10.9950 6.39939   1
   4 -11   1 15.4555 5.64338   2
  -4 -11  -1 20.6913 6.95175   1
  11   4   1 14.4315 5.81518   2
  -4  11   1 12.6527 6.37411   1
  11  -4  -1 4.06529 6.10140   1
  11  -4  -1 9.88230 5.60783   2
  -4 -11  -1 17.2672 5.63300   2
 -11  -4   1 19.0225 6.46202   1
  11  -4   1 16.6710 6.39408   1
  11   4  -1 20.2607 6.91344   1
   4  11   1 11.1418 6.38459   1
  -4 -11   1 4.39671 5.77604   1
   4 -11  -1 0.67273 5.16325   2
 -11  -4  -1 8.87936 6.25013   1
  11   4  -1 4.48225 5.19298   2
  11  -4   1 17.8778 6.04485   2
  -4 -11   1 15.2776 6.05155   2
   4 -11  -1 14.7322 6.46212   1
 -11   4   1 10.0075 6.29246   1
  -4  11  -1 13.7810 6.38064   1
   5  11  -1 6.15570 6.41952   1
 -11   5  -1 6.72597 6.46953   1
  11   5   1 -2.8482 6.18350   1
 -11  -5   1 7.31550 6.34750   1
  -5  11   1 5.95366 6.17809   1
  -5 -11  -1 -2.9002 5.81659   1
  11  -5  -1 2.04675 5.83870   1
   5 -11   1 2.36223 5.57304   2
  11  -5  -1 0.71983 5.37213   2
   5 -11   1 9.12593 6.08807   1
  -5 -11  -1 7.36515 5.46972   2
  11   5   1 4.61707 5.54458   2
  11   5  -1 -5.8344 5.55583   1
  -5  11  -1 3.77034 6.30214   1
  -5 -11   1 -4.2095 5.06859   2
   5 -11  -1 6.42271 5.33226   2
 -11  -5  -1 -3.6900 5.71936   1
 -11   5   1 2.21164 6.44757   1
  -5 -11   1 -0.5042 5.97079   1
   5 -11  -1 -14.086 4.88816   1
   5  11   1 -0.8066 6.10123   1
  11  -5   1 -0.9138 6.05209   1
  11  -5   1 2.78708 5.52335   2
  -6 -11  -1 1.63533 6.20577   1
  11  -6  -1 -7.0614 5.93677   1
   6 -11   1 4.98256 5.36070   2
  -6  11   1 4.08332 6.79150   1
  -6 -11  -1 -0.5503 5.17619   2
 -11  -6   1 5.99372 6.14468   1
  11  -6  -1 -0.2477 5.07902   2
 -11   6  -1 0.30752 5.99215   1
   6  11  -1 5.15377 6.26751   1
 -11  -6  -1 -5.7682 6.12680   1
  11   6  -1 -0.3787 6.04863   1
  11  -6   1 1.18677 5.48193   2
   6  11   1 -6.0995 6.44169   1
  -6  11  -1 4.72147 6.83443   1
   6 -11  -1 -3.5293 4.92177   2
 -11   6   1 -5.8383 6.01203   1
  -6 -11   1 3.38047 5.40879   2
  -6 -11   1 7.74906 6.80543   1
   6 -11  -1 13.1884 6.78127   1
  -7 -11  -1 6.80856 6.35428   1
  11  -7  -1 -5.4636 5.21311   2
  -7 -11  -1 -5.1802 5.16286   2
   7  11  -1 2.01160 6.27728   1
  11  -7  -1 0.96441 5.97574   1
 -11   7  -1 0.58972 6.49394   1
 -11  -7   1 5.61722 6.92321   1
  11   7  -1 2.02538 6.56640   1
  -7  11  -1 -4.0521 6.06293   1
 -11  -7  -1 -5.2312 5.41371   2
   7 -11  -1 1.16539 5.89690   1
   7 -11  -1 7.90264 5.87090   2
 -11  -7  -1 -2.7404 6.07597   1
  -7 -11   1 1.05513 5.82718   2
 -11   7   1 1.97584 6.51017   1
   8  11  -1 39.5590 8.26317   1
  -8 -11  -1 17.2525 6.27069   2
  11  -8  -1 30.6023 7.38614   2
 -11   8  -1 17.6157 7.67128   1
  -8 -11  -1 47.8964 8.56933   1
 -11  -8   1 24.6355 7.54488   2
  11  -8  -1 35.0465 8.18251   1
  -8  11  -1 38.4111 8.47334   1
   8 -11  -1 38.3035 7.65089   2
  11   8  -1 31.3479 8.36651   1
   8 -11  -1 34.2834 8.16855   1
 -11  -8  -1 29.8371 8.16589   1
 -11  -8  -1 48.0878 8.11707   2
  -8 -11   1 28.5873 7.62810   2
  -9 -11  -1 8.32948 6.45025   2
 -11   9  -1 -1.4044 7.00444   1
  11  -9  -1 -0.3619 6.22734   2
  11  -9  -1 0.41904 6.62832   1
   9  11  -1 1.90391 7.50066   1
  -9 -11  -1 -0.4077 6.96200   1
  11   9  -1 4.61502 7.58660   1
   9 -11  -1 -3.4718 6.41916   1
  -9  11  -1 2.56141 6.97198   1
 -11  -9  -1 9.99192 7.72913   1
 -11  -9  -1 5.30987 6.13878   2
   9 -11  -1 10.8469 6.45071   2
  11 -10  -1 6.59780 7.44146   1
  11 -10  -1 3.67237 6.30253   2
 -11  10  -1 -0.8418 7.34850   1
 -10 -11  -1 1.85321 6.00556   2
  10  11  -1 -4.6484 7.15905   1
 -10 -11  -1 7.27462 7.53298   1
 -11 -10  -1 1.74728 5.83511   2
  10 -11  -1 -11.636 6.91258   1
 -11 -10  -1 2.13366 7.26549   1
  11  10  -1 1.92743 7.53826   1
  10 -11  -1 1.22293 6.09879   2
 -10  11  -1 1.80664 7.51725   1
  11 -11  -1 -0.0871 7.51645   1
  11 -11  -1 1.41326 6.82988   2
  11  11  -1 -3.3485 8.02125   1
 -11 -11  -1 -3.3427 6.50365   2
 -11 -11  -1 -6.4786 7.61977   1
 -11  11  -1 -12.264 6.91689   1
   0  12  -1 126.277 10.7296   1
   0  12   1 121.564 10.7584   1
   0 -12   1 126.824 10.5261   1
   0 -12   1 154.307 11.2223   2
  12   0  -1 152.483 11.2067   1
 -12   0   1 133.485 10.9424   1
  12   0   1 119.119 10.0138   2
   0 -12  -1 125.890 10.3272   1
 -12   0  -1 141.650 11.1622   1
   0 -12   1 122.619 10.6554   1
  12   0  -1 148.534 10.9730   2
  12   0   1 135.659 10.9845   1
   0 -12  -1 105.218 9.33487   2
   1 -12   1 1.78808 5.44962   2
   1 -12   1 2.82480 5.60002   1
  -1  12   1 3.07737 5.71519   1
  12  -1  -1 4.53628 6.21953   1
  -1 -12  -1 2.64367 6.12598   1
  12  -1  -1 2.78808 5.26166   2
   1 -12   1 14.0696 6.42694   1
  12   1   1 12.9554 6.37157   1
  12   1   1 6.81543 5.76409   2
 -12   1  -1 6.87316 6.11390   1
  -1 -12  -1 7.51339 5.33414   2
   1  12  -1 3.57206 6.02515   1
 -12  -1   1 9.99691 6.38835   1
   1 -12  -1 13.9740 6.36587   1
   1 -12  -1 4.14922 5.25972   2
  -1 -12   1 -5.0326 5.18018   2
  -1  12  -1 4.99951 6.32217   1
   1 -12  -1 4.90013 5.95951   1
  12   1  -1 2.36778 5.60637   1
 -12  -1  -1 -5.5638 5.75268   1
  12  -1   1 -4.9318 5.50656   1
   1  12   1 7.27017 6.47528   1
  -1 -12   1 -3.2024 5.37772   1
  12  -1   1 2.09758 5.25920   2
  12   1  -1 -0.7970 5.16216   2
 -12   1   1 -4.8298 5.57520   1
   2  12  -1 9.38435 6.39861   1
  -2 -12  -1 -1.0454 4.97595   2
  12   2   1 32.7619 7.25162   1
   2 -12   1 -1.9050 6.02922   1
  -2  12   1 6.19433 6.71444   1
  12  -2  -1 3.58663 5.14598   2
 -12   2  -1 9.19536 6.46303   1
  -2 -12  -1 7.23798 6.14843   1
 -12  -2   1 10.1204 6.32185   1
  12   2   1 6.03169 5.65983   2
  12  -2  -1 10.1899 6.50321   1
   2 -12   1 10.3430 5.79286   2
  12   2  -1 14.6222 5.67497   2
   2  12   1 9.55946 7.04647   1
 -12   2   1 16.8936 6.87016   1
  -2  12  -1 21.1309 6.55324   1
  -2 -12   1 10.9263 6.12147   1
  12  -2   1 11.5805 6.25167   2
  12  -2   1 7.02634 6.26959   1
  12   2  -1 3.02058 6.10658   1
   2 -12  -1 16.1919 5.71002   2
 -12  -2  -1 12.8202 6.52874   1
   2 -12  -1 9.33714 6.03999   1
  -2 -12   1 15.6842 6.08736   2
  12   3   1 116.638 10.3401   2
  -3 -12  -1 151.464 11.3984   2
  12  -3  -1 126.160 10.4160   2
 -12  -3   1 120.754 10.8255   1
   3  12  -1 113.235 10.8280   1
  -3 -12  -1 115.919 10.7899   1
  12  -3  -1 113.709 10.8864   1
 -12   3  -1 126.027 11.1132   1
  -3  12   1 121.848 10.9657   1
  12   3   1 121.266 10.9894   1
   3 -12   1 127.663 10.9685   1
   3 -12   1 127.784 10.3505   2
  12   3  -1 134.668 10.4444   2
  -3  12  -1 126.802 10.8730   1
  12  -3   1 143.711 12.0553   1
  -3 -12   1 129.839 11.0437   1
 -12   3   1 180.878 12.0096   1
  12  -3   1 115.688 10.4522   2
   3 -12  -1 132.729 10.9493   1
   3  12   1 131.727 10.9754   1
 -12  -3  -1 137.539 11.1459   1
  -3 -12   1 118.152 10.4139   2
   3 -12  -1 112.001 9.97888   2
  12   3  -1 114.429 11.0410   1
  12   4   1 4.49118 5.74443   2
 -12  -4   1 10.0901 6.53285   1
   4 -12   1 4.43382 5.50485   2
  -4 -12  -1 12.1516 5.80133   2
  -4 -12  -1 21.7428 7.19512   1
  -4  12   1 9.27688 6.60789   1
  12  -4  -1 1.41586 6.04094   1
   4  12  -1 10.1866 6.99188   1
  12  -4  -1 12.8940 6.03684   2
 -12   4  -1 6.39728 6.51087   1
  -4 -12   1 20.3008 6.35656   2
  12   4  -1 8.59463 5.87310   2
   4 -12  -1 6.59001 5.65331   2
   4  12   1 21.9078 6.96980   1
 -12  -4  -1 3.37737 6.49563   1
  -4 -12   1 6.53675 6.79730   1
 -12   4   1 11.0526 6.85190   1
   4 -12  -1 1.66442 6.02282   1
  12  -4   1 17.4866 6.51306   2
  -4  12  -1 -0.4677 6.64537   1
  12   4  -1 13.5565 7.02053   1
 -12  -5   1 50.3637 8.83798   1
   5  12  -1 59.2790 9.40051   1
  -5 -12  -1 61.4028 8.14877   2
  12  -5  -1 39.9078 8.03626   1
  -5 -12  -1 54.9360 8.90952   1
   5 -12   1 55.2439 9.33924   2
  12  -5  -1 44.9346 7.71500   2
 -12   5  -1 55.7604 9.19711   1
 -12   5   1 52.9556 9.23785   1
   5 -12  -1 55.8758 8.56746   1
 -12  -5  -1 51.3546 8.75908   1
  12   5  -1 68.1128 9.26032   1
   5 -12  -1 66.0956 8.21420   2
  -5  12  -1 49.3379 8.40134   1
  -5 -12   1 51.8998 8.25346   2
  -6 -12  -1 9.46711 6.21635   2
 -12   6  -1 20.0816 7.35807   1
  12  -6  -1 21.6887 6.76513   2
  12  -6  -1 31.3091 7.99584   1
  -6 -12  -1 22.8393 7.85262   1
   6  12  -1 9.98408 7.08034   1
  12   6  -1 23.5199 7.77241   1
 -12  -6  -1 26.3363 7.94965   1
   6 -12  -1 20.1230 7.35623   1
  -6  12  -1 29.0066 8.01237   1
   6 -12  -1 20.7895 6.63194   2
  -6 -12   1 16.3094 7.25822   2
  12  -7  -1 -4.9204 5.44777   2
 -12   7  -1 -4.9377 6.17935   1
  -7 -12  -1 8.63155 7.39822   1
   7  12  -1 -11.335 6.80908   1
  12  -7  -1 5.30188 7.01464   1
  -7 -12  -1 -0.4439 5.88553   2
  -7  12  -1 4.27809 7.20918   1
  12   7  -1 6.69009 7.45438   1
   7 -12  -1 1.75190 6.00023   2
 -12  -7  -1 -0.8337 6.34168   1
 -12  -7  -1 0.36458 5.78530   2
   7 -12  -1 -13.971 5.90201   1
  -8 -12  -1 5.81840 6.43695   2
  -8 -12  -1 -11.778 6.52042   1
  12  -8  -1 7.33174 7.29159   1
   8  12  -1 5.31742 7.55555   1
  12  -8  -1 2.97025 6.37534   2
 -12   8  -1 -5.9875 6.77005   1
  12   8  -1 -8.6945 7.22577   1
  -8  12  -1 -4.7560 6.69545   1
   8 -12  -1 0.36194 6.01285   2
 -12  -8  -1 0.81710 6.22845   2
   8 -12  -1 1.57536 7.17382   1
 -12  -8  -1 -10.084 6.72468   1
  12  -9  -1 24.6177 7.73594   2
 -12   9  -1 10.1768 7.92989   1
  -9 -12  -1 11.0342 7.84442   1
  -9 -12  -1 16.4576 7.01396   2
   9  12  -1 22.1357 8.73556   1
  12  -9  -1 14.4099 8.00745   1
 -12  -9  -1 8.31162 7.21733   2
   9 -12  -1 19.0514 7.56171   2
   9 -12  -1 8.84267 7.96563   1
 -12  -9  -1 4.67135 7.20667   1
  -9  12  -1 12.8032 8.14372   1
  12   9  -1 23.0395 8.49262   1
  10  12  -1 -2.2588 7.70345   1
 -10 -12  -1 -1.1385 7.54858   1
  12 -10  -1 -12.223 6.85070   1
 -12  10  -1 1.54050 7.51357   1
  12 -10  -1 -1.4581 6.40225   2
 -10 -12  -1 -0.5656 6.28243   2
  12  10  -1 -3.3576 8.09523   1
  10 -12  -1 -1.3394 7.11746   1
 -12 -10  -1 1.40086 7.90444   1
 -10  12  -1 0.38710 7.29923   1
  10 -12  -1 -3.3725 5.94529   2
 -12 -10  -1 7.78816 6.66866   2
  13   0  -1 0.42044 5.73722   2
   0 -13   1 -3.6161 5.66220   2
   0 -13  -1 3.79056 6.31640   1
 -13   0   1 2.07815 6.45978   1
   0 -13  -1 -3.8867 5.81979   1
  13   0  -1 9.82902 6.61816   1
   0  13  -1 0.15560 6.73986   1
   0 -13  -1 -0.8702 5.33476   2
 -13   0  -1 -1.3954 6.26840   1
 -13   1  -1 139.805 11.8930   1
   1 -13   1 102.424 10.2463   2
  -1 -13  -1 118.531 10.7741   1
 -13  -1   1 126.233 11.6839   1
   1  13  -1 113.108 11.0540   1
  -1 -13  -1 136.798 10.7800   2
  13  -1  -1 125.493 10.7561   2
  13  -1  -1 145.331 12.0518   1
  -1 -13   1 126.069 10.9580   2
  13   1  -1 136.112 11.6002   1
   1 -13  -1 117.677 11.0646   1
 -13   1   1 113.367 11.0978   1
   1 -13  -1 118.383 11.0767   1
 -13  -1  -1 136.632 11.7800   1
  -1  13  -1 125.555 11.3716   1
  13   1  -1 139.083 10.9327   2
   1 -13  -1 132.749 10.6688   2
  13  -2  -1 19.2108 6.57447   2
  13  -2  -1 1.82705 6.66676   1
 -13   2  -1 1.34777 6.91951   1
   2 -13   1 16.7838 6.74661   2
  -2 -13  -1 18.8592 7.10882   1
   2  13  -1 4.52873 7.28311   1
  -2 -13  -1 16.8334 6.52034   2
  -2 -13   1 2.66703 5.99966   2
 -13  -2  -1 11.6513 6.96913   1
  13   2  -1 11.4007 7.16726   1
  13   2  -1 15.0013 6.28525   2
  -2  13  -1 4.24455 6.81799   1
   2 -13  -1 -2.0196 6.30566   1
   2 -13  -1 1.44089 5.30384   2
 -13   3  -1 1.59096 6.70837   1
  13  -3  -1 4.28436 5.77175   2
   3  13  -1 15.4229 7.31352   1
  13  -3  -1 5.35376 6.99057   1
  -3 -13  -1 8.55657 6.95931   1
  -3 -13  -1 17.2131 6.61558   2
  13   3  -1 12.2658 7.19699   1
  -3 -13   1 11.5563 6.49218   2
 -13  -3  -1 17.2765 7.25466   1
   3 -13  -1 6.44402 5.88499   2
  13   3  -1 16.8427 6.34722   2
   3 -13  -1 9.18442 6.81942   1
  -3  13  -1 22.9790 7.47576   1
   4  13  -1 15.2256 7.04902   1
  -4 -13  -1 13.0021 7.22892   1
 -13   4  -1 -4.0545 6.55337   1
  13  -4  -1 0.84966 5.87626   2
  -4 -13  -1 4.47092 6.09027   2
  13  -4  -1 18.2818 7.56027   1
   4 -13  -1 18.5489 7.57953   1
  -4  13  -1 -1.0252 6.93888   1
   4 -13  -1 1.19009 5.99137   2
  13   4  -1 0.83230 7.00334   1
  13   4  -1 4.12346 6.06403   2
 -13  -4  -1 10.3828 7.03878   1
  -5 -13  -1 15.7709 6.54710   2
  13  -5  -1 22.7177 7.05385   2
   5  13  -1 13.4852 7.76284   1
  13  -5  -1 25.2778 7.95279   1
  -5 -13  -1 27.0281 8.39813   1
 -13   5  -1 5.65965 6.63857   1
  -5  13  -1 18.8397 7.56933   1
  13   5  -1 20.7904 7.78003   1
   5 -13  -1 18.1706 7.11746   1
 -13  -5  -1 9.07459 7.71965   1
   5 -13  -1 18.3917 6.68771   2
  13  -6  -1 -6.3082 5.78841   2
  -6 -13  -1 5.38856 5.97648   2
   6  13  -1 11.9497 8.07161   1
  -6 -13  -1 6.60044 7.30520   1
 -13   6  -1 5.37404 7.53813   1
  13  -6  -1 11.4624 7.06912   1
   6 -13  -1 3.09512 6.24863   2
 -13  -6  -1 7.51205 7.68233   1
  13   6  -1 6.48320 7.06165   1
   6 -13  -1 7.77528 7.38533   1
  -6  13  -1 15.1855 8.05267   1
   7  13  -1 17.1096 8.15473   1
 -13   7  -1 30.0035 8.78266   1
  13  -7  -1 12.2102 7.85415   1
  -7 -13  -1 18.0339 8.23870   1
  -7 -13  -1 11.3984 6.93364   2
  13  -7  -1 16.2886 7.04984   2
  13   7  -1 22.2179 8.12755   1
 -13  -7  -1 7.70740 6.76753   2
   7 -13  -1 23.1502 8.04823   1
 -13  -7  -1 6.44684 7.41323   1
   7 -13  -1 5.30884 6.90210   2
  -7  13  -1 37.6069 9.23515   1
  -8 -13  -1 -3.2156 7.29390   1
  13  -8  -1 2.97210 7.99775   1
   8  13  -1 -9.7096 7.28884   1
 -13   8  -1 -6.4643 7.76672   1
  13  -8  -1 -4.0406 6.51915   2
  -8 -13  -1 1.71446 6.45137   2
   8 -13  -1 -0.0460 6.34792   2
   8 -13  -1 0.68959 7.31599   1
  -8  13  -1 11.7134 7.95143   1
 -13  -8  -1 4.43782 8.27271   1
  13   8  -1 15.4418 8.55613   1
 -13  -8  -1 10.6450 7.15287   2
   0  14  -1 52.5897 9.56781   1
 -14   0  -1 36.4194 8.82542   1
  14   0  -1 58.7555 9.63159   1
  14   0  -1 57.8662 8.90449   2
   0 -14  -1 54.1982 8.31564   2
   0 -14  -1 55.2527 9.36046   1
   0 -14  -1 53.7231 9.48452   1
 -14   1  -1 4.22366 7.06520   1
  14  -1  -1 -6.5316 5.86488   2
   1  14  -1 9.58375 7.31781   1
  -1 -14  -1 -9.7115 5.55877   2
  -1 -14  -1 -4.6745 6.18050   1
  14  -1  -1 4.30483 6.71068   1
  14   1  -1 1.54738 6.98282   1
   1 -14  -1 -1.8223 6.75663   1
   1 -14  -1 6.08940 6.13085   2
 -14  -1  -1 6.65032 7.35919   1
   1 -14  -1 4.45091 7.31842   1
  14   1  -1 -13.227 5.38402   2
  -1  14  -1 -8.1855 6.69668   1
  -2 -14  -1 22.9113 7.18813   2
  -2 -14  -1 0.48431 7.09022   1
 -14   2  -1 19.4350 8.11180   1
  14  -2  -1 11.3193 7.81089   1
  14  -2  -1 19.3351 6.85631   2
   2  14  -1 13.7196 7.58611   1
   2 -14  -1 6.55990 7.23613   1
   2 -14  -1 16.3674 6.48382   2
  -2  14  -1 11.4994 7.37050   1
  14   2  -1 24.7751 8.38190   1
 -14  -2  -1 14.2496 7.35720   1
  14   2  -1 16.5424 7.04038   2
  -3 -14  -1 2.01754 6.33555   2
  14  -3  -1 -0.2104 7.62504   1
  14  -3  -1 6.97713 6.42008   2
  -3 -14  -1 4.09252 7.22762   1
 -14   3  -1 31.3253 8.88347   1
   3  14  -1 1.58561 7.81912   1
 -14  -3  -1 22.1038 8.28284   1
   3 -14  -1 14.4464 7.60762   1
  14   3  -1 -5.0766 6.18215   2
  14   3  -1 19.3232 8.05096   1
  -3  14  -1 8.66748 7.39947   1
   3 -14  -1 26.5374 7.51136   2
  14  -4  -1 8.66470 7.79746   1
   4  14  -1 20.3432 8.42615   1
 -14   4  -1 8.17154 7.87010   1
  14  -4  -1 9.92637 6.83382   2
  -4 -14  -1 21.9960 7.50987   2
  -4 -14  -1 22.1442 8.29869   1
  14   4  -1 9.18225 6.67255   2
  -4  14  -1 28.0628 8.75703   1
  14   4  -1 30.2940 8.60638   1
 -14  -4  -1 6.54785 7.65692   1
   4 -14  -1 25.7691 8.19245   1
   4 -14  -1 16.1544 6.94725   2
   5  14  -1 13.4338 7.95868   1
  -5 -14  -1 4.17535 6.75863   2
  14  -5  -1 -3.5221 6.08173   2
  -5 -14  -1 9.67673 7.52315   1
  14  -5  -1 1.94010 7.43322   1
 -14   5  -1 14.9514 8.28053   1
 -14  -5  -1 16.2397 8.29537   1
  14   5  -1 1.10654 7.25456   1
   5 -14  -1 9.18577 7.19960   1
  -5  14  -1 9.75546 8.23660   1
   5 -14  -1 10.7074 6.66947   2
  14  -6  -1 2.78739 7.37816   1
   6  14  -1 15.9143 8.48851   1
  -6 -14  -1 9.95588 7.17178   2
  -6 -14  -1 8.31889 7.69487   1
  14  -6  -1 14.4893 7.37621   2
 -14   6  -1 8.29245 8.19009   1
  14   6  -1 4.92788 7.57959   1
   6 -14  -1 2.63429 6.38202   2
 -14  -6  -1 10.2738 7.84862   1
   6 -14  -1 6.52980 7.53526   1
  -6  14  -1 12.0616 7.97267   1
   0  15  -1 -0.2357 7.11892   1
  15   0  -1 10.9145 6.81467   2
  15   0  -1 8.72175 8.00024   1
   0 -15  -1 3.10401 7.29087   1
   0 -15  -1 6.28117 7.61646   1
   0 -15  -1 -2.8348 6.19157   2
 -15   0  -1 6.73949 7.31493   1
  -1 -15  -1 19.5056 7.49196   2
   1  15  -1 21.8362 9.04129   1
  15  -1  -1 6.15682 7.58430   1
  -1 -15  -1 17.2745 8.13766   1
  15  -1  -1 9.44487 7.00314   2
  -1 -15  -1 22.6026 8.25630   1
 -15   1  -1 25.3569 8.97837   1
  -1  15  -1 7.69915 7.55413   1
   1 -15  -1 12.5924 6.74549   2
   1 -15  -1 3.56321 7.55537   1
  15   1  -1 8.85180 7.96001   1
 -15  -1  -1 19.3532 7.99774   1
  15   1  -1 29.7089 7.79359   2
  -2 -15  -1 0.04359 7.67429   1
 -15   2  -1 -6.1098 7.34459   1
  15  -2  -1 8.63825 7.81620   1
   2  15  -1 2.73116 7.98330   1
  15  -2  -1 13.0211 7.38447   2
  -2 -15  -1 -3.9696 6.48950   2
   2 -15  -1 -3.1346 7.07193   1
 -15  -2  -1 -5.0094 7.29349   1
  15   2  -1 3.00940 6.49180   2
  15   2  -1 20.5890 8.63719   1
   2 -15  -1 -3.2817 6.41310   2
  -2  15  -1 4.81174 7.67257   1
 -15   3  -1 50.2842 10.1402   1
  -3 -15  -1 47.4934 9.94388   1
  15  -3  -1 21.0731 7.93532   2
   3  15  -1 43.3063 10.0002   1
  -3 -15  -1 40.7079 8.36306   2
  15  -3  -1 41.9551 9.62687   1
 -15  -3  -1 57.8357 10.4188   1
   3 -15  -1 59.7408 10.0963   1
  15   3  -1 36.2282 9.69911   1
  -3  15  -1 45.8463 9.70224   1
   3 -15  -1 47.7318 8.82345   2
  15   3  -1 48.6095 9.01882   2
  -4 -15  -1 1.88657 7.41981   1
  15  -4  -1 -0.5385 7.71620   1
 -15   4  -1 4.37692 7.67284   1
  -4 -15  -1 6.49856 7.22722   2
  15  -4  -1 2.19463 6.72728   2
   4  15  -1 -5.5475 7.96786   1
  -4  15  -1 -8.6420 7.28407   1
  15   4  -1 1.20679 6.70962   2
 -15  -4  -1 -9.2270 7.40548   1
   4 -15  -1 -0.2778 7.43351   1
   4 -15  -1 -7.5507 6.27543   2
  15   4  -1 12.2605 8.47751   1
   0   0   2 1792.69 27.4620   4
   1   0  -2 -3.9443 1.83218   4
   0   1   2 -4.4789 1.78259   4
   0  -1   2 -6.0810 1.18866   4
  -1   0   2 -6.6581 1.59657   4
  -1  -1   2 922.370 14.5934   4
   1  -1  -2 903.583 15.8054   4
   1   1  -2 915.619 14.6115   4
  -1   1   2 890.093 15.7426   4
   2   0  -2 4828.08 67.3526   2
  -2   0   2 4561.18 68.8855   4
   2   0  -2 4630.55 68.8937   4
   0  -2  -2 4628.38 67.2590   2
   0   2   2 4613.72 69.1846   4
   2   0   2 4611.39 68.9083   4
   1  -2   2 497.380 8.52347   4
  -2  -1   2 476.247 9.69639   4
   2  -1  -2 494.159 10.6127   4
   2  -1  -2 498.397 8.93076   2
   1   2  -2 497.615 8.23165   4
  -1   2   2 487.783 10.4645   4
  -1  -2  -2 483.797 8.86481   2
  -2  -1  -2 487.078 8.90199   2
   1  -2  -2 498.855 8.99658   2
  -2   1   2 476.661 10.4805   4
  -1  -2   2 474.675 8.15952   4
   2   1  -2 484.817 9.71525   4
   2  -1   2 494.764 9.83356   4
   1  -2  -2 485.591 10.5509   4
   2  -2   2 5603.54 82.5016   4
  -2  -2  -2 5661.06 82.1833   2
  -2   2  -2 5611.11 82.6244   4
   2   2  -2 5534.21 82.3000   4
  -2   2   2 5730.88 84.1437   4
   2  -2  -2 5660.43 84.0981   4
  -2  -2   2 5518.81 82.1938   4
   2  -2  -2 5747.60 82.3224   2
   3   0   2 -3.5529 2.45727   4
   0   3   2 -3.2244 2.39199   4
   3   0  -2 1.32857 2.68055   4
   0  -3  -2 -4.3482 1.92320   2
  -3   0   2 -1.1032 2.53424   4
   3   0  -2 -4.3609 1.96331   2
  -3   1  -2 602.944 12.6424   4
   3   1   2 618.578 12.9799   4
  -1   3   2 609.063 12.8562   4
   3  -1  -2 616.067 13.2079   4
  -3  -1   2 614.610 12.4059   4
  -1  -3  -2 615.469 11.5985   2
   1  -3   2 630.697 10.2163   4
   3  -1  -2 622.519 11.6333   2
   1  -3  -2 613.773 11.7098   2
   3  -1   2 609.475 12.6085   4
  -1   3  -2 621.834 10.3321   4
   3   1  -2 618.925 12.5049   4
   1  -3  -2 609.903 12.8717   4
  -3   1   2 612.231 13.0357   4
   3   1  -2 629.254 11.6666   2
  -3  -2   2 3.40915 2.51731   4
   2   3  -2 -0.1263 2.07297   4
   3  -2  -2 2.74923 2.37242   2
  -2   3   2 4.12993 2.79328   4
   3  -2  -2 7.19965 3.04498   4
   2  -3   2 3.27259 2.11147   4
  -2  -3  -2 6.21282 2.40710   2
  -3   2  -2 6.00338 2.64777   4
   3  -2   2 3.04988 2.50036   4
  -3  -2  -2 4.47069 2.43779   2
  -3   2   2 -1.3168 2.77622   4
  -2   3  -2 4.58908 2.27114   4
  -2  -3   2 3.25215 1.81551   4
   2  -3  -2 4.67116 2.40189   2
   3   2  -2 4.82122 2.66243   4
   2  -3  -2 0.09842 2.78345   4
   3  -3  -2 1329.15 23.8991   4
  -3  -3   2 1295.79 21.8233   4
  -3   3  -2 1311.02 22.5715   4
   3  -3  -2 1345.53 22.5813   2
  -3  -3  -2 1303.14 22.4433   2
   3   3  -2 1303.34 22.2058   4
   3  -3   2 1298.29 22.3061   4
  -3   3   2 1311.93 23.9577   4
  -4   0  -2 7789.51 113.978   6
  -4   0  -2 7533.33 114.436   4
   4   0  -2 7550.61 114.409   4
   4   0   2 7681.38 114.477   4
   0  -4  -2 7553.78 112.622   2
  -4   0   2 7776.20 114.501   4
   0   4   2 7823.35 114.227   4
   4   0  -2 7939.66 112.828   2
  -1  -4  -2 110.141 5.16699   2
  -4   1  -2 111.949 6.07444   4
   4  -1  -2 109.139 5.19393   2
   4   1   2 113.931 6.29257   4
   1  -4   2 122.841 3.57756   4
  -1   4   2 116.405 5.89597   4
   4  -1  -2 115.578 6.38255   4
  -4  -1   2 125.533 6.04266   4
   4  -1   2 108.318 6.07799   4
  -4   1   2 107.781 6.22928   4
   1   4   2 114.185 6.10693   4
   1  -4  -2 110.268 5.16314   2
  -1   4  -2 115.127 3.81358   4
   4   1  -2 115.774 6.17752   4
   4   1  -2 112.469 5.21858   2
  -1   4  -2 109.639 6.08012   5
   1  -4  -2 114.909 5.91630   4
   4  -2  -2 5652.71 84.0465   4
   2   4  -2 5473.44 80.4980   4
   4  -2  -2 5574.70 82.0960   2
  -4  -2   2 5406.43 82.4831   4
  -4   2  -2 5402.49 83.0828   4
   4   2   2 5382.31 83.5937   4
  -2  -4  -2 5549.29 82.0170   2
   2  -4   2 5556.51 80.7331   4
  -2   4   2 5512.73 83.3691   4
   2  -4  -2 5525.70 83.3406   4
   2  -4  -2 5529.33 82.0961   2
  -4   2   2 5444.83 83.8781   4
  -2   4  -2 5443.40 80.9552   4
   4  -2   2 5571.57 82.9608   4
   4   2  -2 5501.69 82.9111   4
  -3  -4  -2 184.879 6.66984   2
   3  -4   2 182.462 6.86880   2
  -4  -3   2 187.811 6.57980   4
   4  -3  -2 180.650 7.76521   4
   3   4  -2 176.994 6.26761   4
  -4   3  -2 191.451 7.21510   1
   3  -4   2 184.673 6.27742   4
  -3   4   2 195.207 7.80497   4
   4   3   2 192.125 7.09563   2
  -4   3  -2 173.737 7.13322   4
   4   3   2 185.278 7.75587   4
   4  -3  -2 178.408 7.32222   1
   3   4  -2 196.199 7.38326   1
  -3  -4  -2 185.407 7.31632   1
   4  -3  -2 188.195 6.82868   2
  -4  -3  -2 188.500 6.73854   2
   4   3  -2 188.242 7.26136   1
   4   3  -2 191.682 7.13585   4
  -4   3   2 178.380 7.78385   4
   3  -4  -2 191.355 7.34358   1
   4  -3   2 180.315 6.92661   4
   3  -4  -2 187.885 7.64244   4
  -4  -3  -2 187.552 7.20409   1
  -3   4  -2 182.613 7.36102   1
  -3   4  -2 193.054 6.71138   4
   3  -4  -2 184.945 6.87357   2
   4  -4  -2 1126.91 21.5872   2
  -4  -4   2 1161.75 20.7764   4
  -4   4  -2 1137.93 21.5781   4
   4   4   2 1193.61 22.0442   2
   4   4  -2 1198.01 22.3239   1
  -4   4   2 1138.80 22.8949   4
   4  -4  -2 1197.17 22.4300   1
   4   4  -2 1176.70 21.3738   4
  -4  -4  -2 1133.11 21.4604   2
  -4  -4  -2 1169.42 22.2010   1
   4  -4   2 1155.14 22.0095   2
   4  -4   2 1167.83 21.3003   4
  -4   4  -2 1171.96 22.2700   1
   4  -4  -2 1150.46 22.8173   4
  -5   0  -2 -2.9502 2.71393   4
   5   0  -2 -1.5235 2.45517   2
   0   5   2 -2.2845 2.68674   4
  -5   0  -2 -1.4467 2.92494   1
   0  -5  -2 -6.5327 2.46634   1
   5   0   2 -0.3059 3.04998   4
   0   5  -2 -6.0299 2.75061   5
   0   5  -2 -0.3529 2.99644   1
   0  -5  -2 -1.5608 2.34579   2
  -5   0   2 -7.8404 2.52681   4
   5   0  -2 -2.5441 2.81373   1
   5   0  -2 -2.2681 2.90881   4
   0  -5   2 -5.4344 2.46198   2
   5   0   2 -0.9361 2.54952   2
   5  -1  -2 724.413 15.2108   1
  -1   5   2 717.672 15.3539   4
   5   1   2 709.135 15.9480   4
  -1  -5  -2 730.026 15.1325   1
   1   5  -2 718.869 11.9196   4
  -5  -1   2 715.757 15.7543   4
   1   5  -2 709.620 15.1294   1
  -1  -5  -2 725.763 14.6180   2
   1  -5   2 717.744 14.9707   2
   5  -1  -2 730.146 14.7387   2
  -5   1  -2 718.411 15.1446   1
   1   5  -2 726.107 12.0608   4
   5  -1  -2 717.457 16.1404   4
   5   1   2 718.083 14.9866   2
  -5   1  -2 691.079 15.7251   4
   1  -5   2 729.148 12.2240   4
  -1  -5   2 723.127 14.9098   2
   1  -5  -2 699.188 15.1670   1
   1   5   2 697.252 15.2711   4
   5   1  -2 718.787 15.8324   4
  -1   5  -2 703.616 15.1015   1
   5  -1   2 687.107 15.6061   4
  -5  -1  -2 736.045 14.7187   6
   1  -5  -2 704.995 14.6889   2
   1  -5  -2 712.186 15.3207   4
  -5   1   2 700.394 16.0077   4
   5   1  -2 693.667 15.1287   1
   5  -1   2 719.014 14.8896   2
  -5  -1  -2 708.284 15.2662   1
   5   1  -2 691.729 14.6018   2
  -1   5  -2 719.765 12.4846   4
  -2  -5  -2 37.1801 3.79409   2
  -5   2  -2 34.8980 4.24387   1
  -5   2  -2 33.4746 4.16525   4
  -2   5   2 38.6769 4.23640   4
   2   5  -2 31.6868 4.15220   1
   5   2   2 38.0921 4.10189   2
   5  -2  -2 40.0300 4.68581   4
  -2  -5  -2 37.8293 4.23943   1
  -5  -2   2 36.1335 4.10824   4
   5  -2  -2 41.1844 4.32219   1
   5   2   2 37.0226 4.50055   4
   2   5  -2 34.1051 2.83370   4
   2  -5   2 44.1358 3.49438   4
   5  -2  -2 33.1058 3.76973   2
   2  -5   2 44.2229 4.29076   2
   2  -5  -2 37.5305 4.19251   1
  -2   5  -2 32.5916 3.09623   4
   5   2  -2 37.6557 4.20915   4
  -2   5  -2 36.6198 4.24447   1
  -2  -5   2 36.3713 3.91522   2
   2  -5  -2 45.9245 4.38346   1
   5   2  -2 41.5798 4.28686   1
   5  -2   2 38.4633 4.23414   4
   2  -5  -2 38.1094 3.91477   2
  -5  -2  -2 41.2448 4.30311   1
   5   2  -2 35.2521 3.82567   2
   2  -5  -2 41.5916 4.40046   4
  -5   2   2 41.0041 4.76466   4
   5  -2   2 37.6875 4.09039   2
   5  -3  -2 830.085 17.7087   1
  -3   5   2 827.271 18.0530   4
  -5   3  -2 812.755 17.6359   1
   3  -5   2 834.079 17.3843   2
   5  -3  -2 858.344 18.5802   4
   5   3   2 871.301 17.5533   2
  -3  -5  -2 867.363 17.7485   1
   5  -3  -2 862.254 17.3669   2
   3  -5   2 851.779 15.8499   4
   3   5  -2 866.838 15.8847   4
  -5   3  -2 838.067 17.7749   4
  -5  -3   2 811.326 17.0217   4
   5   3   2 837.629 18.3958   4
  -3  -5  -2 830.701 17.0635   2
   3   5  -2 848.675 17.6223   1
   5  -3   2 837.038 17.5212   4
   3  -5  -2 840.752 17.9448   4
   5  -3   2 859.160 17.6402   2
   5   3  -2 847.819 17.6899   4
   3  -5  -2 839.405 17.1791   2
   3  -5  -2 823.871 17.6401   1
  -3  -5   2 819.207 17.3622   2
  -3   5  -2 832.653 16.2062   4
  -3   5  -2 802.220 17.5788   1
   5   3  -2 841.408 16.1938   5
  -5  -3  -2 835.367 17.6175   1
  -5   3   2 841.523 18.6116   4
   5   3  -2 815.374 17.5198   1
   4  -5   2 309.632 8.81538   4
   5  -4  -2 291.713 9.40854   2
  -5   4  -2 288.373 9.79668   4
   4   5  -2 297.766 8.87790   4
  -4   5   2 313.302 10.3959   4
   5   4   2 296.858 9.74591   2
  -4  -5  -2 283.209 9.11171   2
  -5   4  -2 302.282 9.94562   1
   5   4   2 299.689 10.3126   4
  -5  -4   2 288.146 8.87237   4
   5  -4  -2 300.033 10.7590   4
   4   5  -2 294.329 9.80496   1
   4  -5   2 298.357 9.57889   2
   5  -4  -2 278.267 9.78061   1
  -4  -5  -2 295.185 9.91214   1
  -5  -4  -2 293.008 9.76885   1
  -5   4   2 296.181 10.4156   4
  -4   5  -2 295.466 9.05202   4
   4  -5  -2 305.067 10.0757   4
   5   4  -2 311.309 8.23913   5
   4  -5  -2 290.178 9.75449   1
  -4   5  -2 265.487 9.75579   1
   5  -4   2 293.213 9.34890   4
   4  -5  -2 285.033 9.46819   2
   5   4  -2 290.455 9.81764   1
   5  -4   2 280.994 9.63503   2
   5   4  -2 306.895 9.74434   4
  -5  -4  -2 299.588 9.34208   2
  -5   5  -2 309.411 10.4940   1
   5  -5   2 307.211 9.71859   4
  -5  -5  -2 309.071 10.1225   2
  -5   5   2 286.246 10.1840   1
   5   5  -2 308.952 10.3709   1
   5   5   2 300.111 10.2947   1
  -5  -5  -2 310.390 10.5390   1
   5  -5  -2 308.285 10.1332   2
  -5  -5   2 306.508 10.2578   1
  -5   5  -2 310.275 10.1963   4
   5  -5  -2 311.046 10.4111   1
  -5   5   2 295.539 10.9336   4
   5   5  -2 321.376 10.0189   4
   5  -5   2 311.555 10.3065   2
   5  -5   2 296.207 10.4138   1
  -6   0  -2 3092.03 50.8681   4
   0   6   2 3117.94 49.6613   4
   6   0  -2 3110.07 50.0905   1
  -6   0  -2 2964.88 49.6994   1
   0   6  -2 3025.42 45.7746   4
   6   0  -2 3116.77 50.9312   4
   0  -6  -2 3036.28 49.0277   2
   0  -6  -2 3029.46 49.9033   1
  -6   0   2 3088.14 50.7520   4
   6   0   2 3176.21 51.0053   4
   0   6  -2 3072.15 49.9358   1
   6   0   2 3076.63 49.4896   2
   0  -6   2 3056.49 49.2661   2
   6   0  -2 3012.79 49.0615   2
   6  -1  -2 22.2328 4.04717   1
   6   1   2 30.2925 4.06625   2
   6  -1  -2 18.1788 4.08908   4
   1   6  -2 21.9448 2.26255   4
   6   1   2 23.8203 4.45388   4
   6  -1  -2 24.2640 3.70235   2
   1  -6   2 24.1067 3.90760   2
  -1  -6  -2 22.3579 3.94278   1
   1   6  -2 24.2293 4.13289   1
  -6   1  -2 21.0776 3.95995   1
  -1   6   2 21.7247 3.80509   4
   1   6  -2 22.8124 3.73183   5
  -6   1  -2 22.6351 4.08944   4
  -6  -1   2 21.0133 3.98722   4
  -1  -6  -2 24.2720 3.78932   2
   1  -6  -2 22.9032 3.99915   1
   6   1  -2 18.1151 4.02915   1
  -1   6  -2 21.6352 3.92819   1
   6   1  -2 22.1711 3.60776   2
  -6  -1  -2 20.9471 3.98801   1
   6   1  -2 23.6838 4.14697   4
   1   6   2 32.2845 3.98386   4
  -1   6  -2 26.3301 2.56053   4
  -1  -6   2 25.1628 3.81974   2
  -6   1   2 29.2463 4.36063   4
   6  -1   2 22.0081 4.08004   4
  -6  -1  -2 21.7376 3.68235   6
   6  -1   2 23.2669 3.90766   2
   1  -6  -2 27.6740 4.11255   4
   1  -6  -2 14.6721 3.38105   2
  -2  -6  -2 4003.23 63.8254   2
  -6   2  -2 4108.11 65.6618   4
   6  -2  -2 3927.82 64.7572   1
  -2   6   2 4020.10 64.6557   4
   2   6  -2 4217.94 61.4254   4
   2  -6   2 4180.08 61.5584   4
   6   2   2 4158.58 64.6118   2
   2   6  -2 4080.93 62.4032   5
  -6  -2   2 4083.16 64.9423   4
   6  -2  -2 4044.57 64.1100   2
   2   6  -2 4052.02 64.8841   1
  -2  -6  -2 4050.29 64.8491   1
   2  -6   2 4161.73 64.5165   2
  -6   2  -2 4089.51 65.0178   1
   6   2  -2 4074.82 64.9299   1
   6   2  -2 4230.86 65.6625   4
   6  -2   2 4111.26 65.2405   4
  -6  -2  -2 4117.21 62.8293   6
   2  -6  -2 4187.96 65.1045   1
   2  -6  -2 4032.62 64.8257   1
   6   2  -2 3929.25 63.7654   2
  -2   6  -2 4064.34 64.9878   1
  -2  -6   2 4128.03 64.3862   2
   6  -2   2 4183.45 64.5467   2
   2  -6  -2 4050.65 63.9257   2
  -6  -2  -2 4179.75 65.1132   1
  -6   2   2 4048.80 65.9718   4
   2  -6  -2 4134.18 64.7571   4
  -2   6  -2 4234.78 62.0872   4
   6  -3  -2 787.857 17.3677   2
   6  -3  -2 825.103 18.1848   1
  -6  -3   2 772.589 17.3020   4
   6   3   2 802.566 17.6990   2
  -3  -6  -2 795.184 17.2361   2
   3   6  -2 834.102 15.7083   4
  -3  -6  -2 801.801 17.9131   1
   3  -6   2 806.662 17.6990   2
  -6   3  -2 807.877 18.1170   1
   3   6  -2 790.227 17.9633   1
  -3   6   2 786.821 17.9121   4
  -6   3  -2 789.369 18.2816   4
   3  -6   2 816.060 15.6330   4
   6   3  -2 818.980 18.1986   4
   6   3  -2 781.312 17.8877   1
  -6   3   2 794.440 18.8251   4
  -3   6  -2 831.510 16.1627   4
  -6  -3  -2 795.094 15.3083   6
   6  -3   2 780.075 17.9212   4
   6   3  -2 796.225 17.3921   2
   3  -6  -2 812.576 17.9401   1
   3  -6  -2 789.847 17.7498   4
   3  -6  -2 827.794 17.6176   2
  -3   6  -2 805.302 17.9797   1
  -6  -3  -2 817.300 17.9562   1
  -3  -6   2 823.100 17.7997   2
   6  -3   2 796.980 17.6485   2
   6  -4  -2 2187.59 38.5228   2
   4  -6   2 2217.77 38.9112   1
   6  -4  -2 2235.40 39.3800   1
   4   6  -2 2306.66 37.2208   4
   6   4   2 2209.85 38.8263   1
  -4  -6  -2 2223.80 38.3512   2
  -4   6   2 2210.52 39.3861   4
  -6   4  -2 2205.17 39.1575   4
  -6  -4   2 2243.71 38.2717   4
   4  -6   2 2276.01 37.1299   4
  -6  -4   2 2236.06 38.9732   1
  -4   6   2 2250.62 39.1951   1
   6   4   2 2236.71 38.8129   2
  -6   4  -2 2219.85 39.2991   1
  -4  -6  -2 2235.79 39.2786   1
   4   6  -2 2219.82 39.1613   1
   4  -6  -2 2188.70 39.3134   1
  -6  -4  -2 2142.55 39.1137   1
   4   6   2 2238.09 39.0265   1
  -4  -6   2 2322.03 39.2520   1
  -6   4   2 2249.28 39.1996   1
   6   4  -2 2230.65 36.3553   5
   6  -4   2 2175.49 38.5510   4
   6  -4   2 2268.95 39.1014   1
   4  -6  -2 2264.09 38.5356   2
   6   4  -2 2325.73 39.2753   4
   6   4  -2 2138.57 39.1030   1
  -4   6  -2 2222.70 39.2018   1
   6  -4   2 2257.89 39.0101   2
  -4   6  -2 2230.88 37.6539   4
  -4  -6   2 2318.70 39.0643   2
  -6   4   2 2262.64 40.5009   4
  -5   6   2 33.2327 5.08205   1
   6  -5  -2 30.3511 4.99902   1
   6   5   2 36.9633 5.09218   1
  -6   5  -2 32.7094 5.03454   4
   5   6  -2 30.6767 4.86604   1
  -5  -6  -2 33.2892 4.65452   2
  -6   5  -2 31.0240 5.16873   1
  -6  -5   2 34.4740 4.88043   1
   5  -6   2 31.9722 4.76982   2
   6   5   2 36.9321 4.98356   2
   6  -5  -2 29.1394 4.36308   2
   5  -6   2 38.3368 4.49969   4
  -5  -6  -2 30.9005 4.90742   1
   5  -6   2 32.7960 5.07804   1
  -5  -6  -2 38.1407 4.80481   3
   5   6  -2 30.4618 4.35236   4
  -6  -5  -2 34.9779 4.99019   1
  -6  -5  -2 33.4516 4.77110   2
   6   5  -2 26.3241 4.74811   1
   6   5  -2 28.9832 4.75474   4
   6  -5   2 31.0495 4.75448   2
   6  -5   2 42.0399 4.91472   4
  -6   5   2 33.8702 5.06910   1
  -5   6  -2 27.0085 4.75696   1
   5  -6  -2 25.7278 4.60271   1
  -5  -6   2 37.7891 5.20916   1
   5   6   2 34.6868 5.09837   1
   5  -6  -2 25.4231 4.38443   2
  -5  -6   2 35.1267 4.87729   2
  -5   6  -2 26.1818 4.35234   4
   6  -5   2 23.2598 4.55404   1
   6   6  -2 4628.30 71.4726   4
  -6   6   2 4523.66 72.5249   1
   6  -6   2 4467.98 72.4219   2
  -6   6  -2 4434.42 71.8015   4
   6  -6   2 4575.55 72.6043   1
   6  -6  -2 4527.52 73.1632   1
   6   6   2 4400.71 72.1303   1
  -6   6  -2 4418.95 72.6858   1
   6   6  -2 4437.44 72.5316   1
  -6  -6   2 4469.14 72.3180   1
  -6  -6  -2 4466.99 72.7846   1
   6  -6  -2 4472.90 71.7896   2
  -6  -6  -2 4387.92 71.6751   2
   7   0  -2 -0.9665 2.87965   2
   0   7   2 -3.6490 3.27333   1
   7   0  -2 -4.6356 3.02377   1
   0  -7   2 1.07472 3.05936   2
   0   7  -2 0.54094 3.18442   1
   7   0   2 0.49996 3.43426   1
  -7   0  -2 -2.5831 3.45705   4
  -7   0   2 -0.4440 3.41875   4
   0  -7  -2 -4.7393 2.83693   2
   7   0   2 -4.1856 2.94247   2
   0   7   2 -4.1627 2.81185   4
  -7   0  -2 -2.5581 3.03826   1
   0  -7  -2 -1.1827 3.14362   1
   0   7  -2 -3.1632 1.89740   4
   0  -7   2 1.84842 3.43837   1
  -7   0   2 -1.5956 3.22845   1
   1  -7   2 648.665 15.3963   2
  -1   7   2 653.013 15.5898   1
   7  -1  -2 640.688 15.0679   2
  -7  -1   2 609.996 15.2840   1
  -1   7   2 600.110 14.8568   4
  -7  -1   2 600.414 15.9312   4
  -7   1  -2 590.478 15.2849   1
   1   7  -2 639.026 13.4095   6
   1  -7   2 636.844 15.4579   1
   7   1   2 640.128 15.5059   1
   1   7  -2 624.116 11.7663   4
   1  -7   2 644.751 15.4313   1
   1   7  -2 604.286 15.5615   1
   7  -1  -2 615.048 15.5948   1
  -7   1  -2 628.273 16.3419   4
  -1  -7  -2 627.421 14.8891   2
  -1  -7  -2 604.067 15.4381   1
  -1  -7   2 600.493 15.1314   2
  -7  -1  -2 643.209 14.7118   6
   1  -7  -2 619.153 14.9268   2
  -7   1   2 601.567 16.2374   4
   7   1  -2 614.735 14.8846   2
  -7  -1  -2 597.642 15.3706   1
  -1   7  -2 611.533 12.1475   4
   7  -1   2 645.149 15.3778   1
   1  -7  -2 628.573 15.4502   1
  -7   1   2 629.645 15.4946   1
  -1  -7   2 600.383 15.2276   1
   1   7   2 617.210 15.2117   1
  -7  -1  -2 597.553 16.0810   4
  -1   7  -2 615.731 15.5414   1
   7   1  -2 602.804 15.4867   1
   1   7   2 640.417 15.2032   4
   7  -1   2 633.553 15.3576   2
   2   7  -2 191.955 7.46628   5
  -2  -7  -2 179.444 8.65345   1
   7   2   2 184.667 8.55610   1
   2   7  -2 185.937 8.60091   1
   7   2   2 201.642 8.62370   2
   2  -7   2 191.924 8.55667   2
   2  -7   2 199.912 8.55166   1
  -2  -7  -2 181.200 8.04911   2
  -2   7   2 208.123 8.60110   4
   7  -2  -2 205.986 8.77632   1
  -7   2  -2 203.322 9.47099   4
   7  -2  -2 180.122 8.34265   2
   2   7  -2 189.343 5.89754   4
  -7  -2   2 188.675 8.67812   4
  -7   2  -2 196.317 8.76971   1
  -7  -2   2 174.494 8.62144   1
  -2   7   2 193.690 8.80248   1
  -7  -2  -2 197.162 8.97187   1
  -2   7  -2 190.405 8.71909   1
   2  -7  -2 187.120 8.12836   2
   7  -2   2 197.039 8.74874   2
  -7  -2  -2 188.592 7.38336   6
   7   2  -2 190.893 8.69377   1
   7   2  -2 187.027 8.28848   2
  -7   2   2 183.550 8.62948   1
   7  -2   2 201.860 8.79071   1
  -2  -7   2 189.206 8.35857   1
  -2  -7   2 190.394 8.52839   2
  -2   7  -2 189.060 6.68312   4
   2   7   2 205.768 8.56223   4
   2  -7  -2 203.716 8.77306   1
   2   7   2 200.453 8.68906   1
   2  -7  -2 206.186 8.89591   1
   3  -7   2 314.954 11.1429   1
  -7  -3   2 322.993 10.9954   4
  -3  -7  -2 306.407 10.3929   2
   7   3   2 310.204 10.7295   1
   3   7  -2 328.947 11.2784   1
  -3   7   2 307.284 11.0901   1
  -7  -3   2 310.567 10.8166   1
   7   3   2 308.904 10.8872   2
   7  -3  -2 322.163 11.2508   1
  -3  -7  -2 307.589 10.9225   1
  -7   3  -2 308.629 11.3625   4
   3  -7   2 338.325 11.1109   2
  -3   7   2 319.188 10.9929   4
   7  -3  -2 328.301 10.8392   2
  -7   3  -2 329.823 11.3479   1
   7  -3   2 331.786 11.0784   2
  -7  -3  -2 333.743 11.2944   1
  -3  -7   2 335.430 11.1378   2
  -3   7  -2 330.718 11.1618   1
  -7   3   2 317.126 10.9637   1
   3  -7  -2 314.597 11.2650   1
   3   7   2 319.435 10.9865   1
  -3   7  -2 316.684 9.36961   4
   3  -7  -2 300.646 10.5398   2
   7   3  -2 308.959 10.5629   2
  -3  -7   2 311.228 10.9469   1
   7   3  -2 307.004 11.2481   1
   7  -3   2 319.160 10.8689   1
  -7  -4   2 12.9614 3.85396   4
  -7  -4   2 12.1980 4.12506   1
   4  -7   2 9.32688 4.02630   1
  -4   7   2 5.69404 4.05887   1
   7   4   2 10.5080 4.07483   1
   4   7  -2 11.7022 4.18801   1
  -7   4  -2 8.69319 3.85750   4
  -7   4  -2 12.4534 4.29260   1
   7  -4  -2 6.48082 3.68180   2
  -4  -7  -2 10.3231 3.69179   2
  -4  -7  -2 10.0248 4.01850   1
   4  -7   2 11.0429 3.88134   2
   7   4   2 12.0338 4.09067   2
   7  -4  -2 15.5185 4.33900   1
   7   4  -2 15.3365 4.43889   1
   7  -4   2 14.3748 4.12040   1
  -4  -7   2 4.80230 3.85744   2
  -4   7  -2 12.7209 3.59686   4
  -7  -4  -2 9.56452 3.98999   1
   4   7   2 9.42373 4.23209   1
   4  -7  -2 11.9030 4.34029   1
  -4   7  -2 9.81148 4.24948   1
   7  -4   2 9.92961 3.94883   2
   4  -7  -2 6.11237 3.52915   2
  -7   4   2 10.6152 4.16830   1
  -4  -7   2 13.1747 4.26936   1
  -7   5  -2 354.842 12.7361   1
  -5  -7  -2 337.527 12.7219   1
   7   5   2 377.043 12.3918   1
   7  -5  -2 360.731 12.9532   1
   5  -7   2 382.839 12.6984   2
  -7  -5   2 344.512 12.2320   1
   5   7  -2 372.739 12.8812   1
   5  -7   2 374.001 12.4700   1
   7  -5  -2 367.672 12.2044   2
   7   5   2 359.539 12.4436   2
  -5   7   2 366.423 12.2647   1
  -5  -7  -2 373.574 12.2902   2
  -5   7  -2 378.163 11.8901   4
  -7  -5  -2 362.174 12.0934   2
  -5   7  -2 365.636 12.9057   1
   5  -7  -2 381.594 13.0460   1
   7   5  -2 379.203 12.9977   1
   7  -5   2 353.531 12.4001   2
   7  -5   2 342.013 12.4469   1
  -5  -7   2 352.007 12.2977   1
  -7  -5  -2 378.398 13.0074   1
  -7   5   2 356.716 12.7950   1
  -5  -7   2 361.356 12.6774   2
   5  -7  -2 363.466 12.3451   2
   5   7   2 342.305 12.2419   1
   7   6   2 2.05052 4.24360   1
   7  -6  -2 -4.2718 4.03819   1
  -6  -7  -2 0.07420 3.45967   2
  -7  -6   2 -3.6607 3.83603   1
   7  -6  -2 -5.6861 3.50650   2
  -7   6  -2 -2.0759 4.09427   1
   6   7  -2 1.89811 4.32171   1
   6  -7   2 6.65716 4.53607   1
  -6   7   2 -0.4794 4.05346   1
  -6  -7  -2 4.23363 4.45164   1
  -7  -6  -2 -3.6912 3.93987   1
  -6   7  -2 0.09243 4.35805   1
  -7  -6  -2 6.16390 4.02793   2
   6  -7  -2 -1.2770 3.90445   2
   7  -6   2 0.09896 4.52532   1
  -6  -7   2 5.22501 4.11987   2
  -6  -7   2 4.39914 4.46227   1
   7   6  -2 5.46147 4.45776   1
  -7   6   2 -0.1042 4.19949   1
   6   7   2 8.38298 4.57930   1
   6  -7  -2 2.71297 4.14363   1
  -7  -7  -2 1571.98 30.8032   2
   7  -7  -2 1478.01 31.5493   1
   7  -7  -2 1479.44 30.5510   2
  -7  -7   2 1484.34 31.1190   1
  -7   7  -2 1526.11 31.7240   1
   7   7  -2 1527.45 31.6286   1
  -7   7   2 1487.67 31.2094   1
  -7  -7  -2 1448.38 31.1331   1
   0  -8  -2 1365.33 27.5239   1
  -8   0  -2 1395.62 27.9884   1
   0  -8  -2 1434.61 27.1200   2
   8   0  -2 1352.99 26.9237   2
   8   0  -2 1402.92 27.8999   1
   0  -8   2 1374.16 27.3345   1
   0   8   2 1416.28 27.7091   1
   0   8  -2 1375.54 27.7978   1
  -8   0   2 1401.96 27.6077   1
   0  -8   2 1417.75 27.4959   2
   8   0   2 1386.69 27.5504   1
   0   8   2 1395.44 27.0347   4
   8   0   2 1361.56 27.2825   2
   1  -8   2 84.5857 6.89645   1
   8   1   2 90.5703 6.87878   2
   8   1   2 85.9341 6.91570   1
   1  -8   2 90.5260 6.78550   2
   8  -1  -2 74.5685 6.19024   2
   1  -8   2 82.1523 6.84235   1
  -1   8   2 90.2053 7.22976   1
  -1  -8  -2 81.8102 6.70651   1
  -1  -8  -2 86.1239 6.46997   2
  -1   8   2 76.4593 6.09011   4
   8  -1  -2 80.0810 6.85841   1
  -8  -1   2 79.3561 6.74035   1
   1   8  -2 88.2871 7.12468   1
  -8   1  -2 82.5843 6.82657   1
   1   8   2 79.2614 6.13384   4
  -1  -8   2 79.7694 6.34162   2
  -1  -8   2 71.2408 6.40419   1
   8  -1   2 79.6328 6.70915   2
   8  -1   2 92.9710 7.12507   1
   1  -8  -2 77.6461 6.31220   2
   8   1  -2 91.9817 7.04708   1
   1   8   2 91.5321 7.05801   1
  -8  -1  -2 106.417 7.72641   1
   8   1  -2 85.9743 6.47397   2
  -8  -1  -2 93.4547 6.77493   6
  -1   8  -2 75.3336 6.69701   1
  -8   1   2 91.5249 6.99823   1
   1  -8  -2 87.4688 6.83015   1
  -2  -8  -2 2498.32 44.8079   1
   2   8  -2 2606.52 45.3171   1
  -8   2  -2 2564.83 45.1956   1
  -2  -8  -2 2577.22 44.1944   2
  -2   8   2 2557.28 44.8803   1
  -2   8   2 2522.29 44.2418   4
   2  -8   2 2556.38 44.6964   1
   2  -8   2 2606.19 44.7145   2
   8  -2  -2 2488.25 45.0510   1
  -8  -2   2 2571.54 44.8924   1
   8   2   2 2539.50 44.6543   1
   8  -2  -2 2546.65 44.1745   2
   8   2   2 2653.77 44.8998   2
  -2   8  -2 2576.84 45.2787   1
  -8  -2  -2 2622.93 42.5975   6
   8  -2   2 2504.18 44.6449   1
   8   2  -2 2512.79 44.0493   2
   2  -8  -2 2523.96 45.0230   1
  -8   2   2 2587.06 44.8309   1
  -2  -8   2 2591.83 44.6768   1
   2   8   2 2560.33 44.8130   1
   2  -8  -2 2603.56 44.3619   2
  -8  -2  -2 2517.60 45.0404   1
  -2  -8   2 2555.50 44.6067   2
   8  -2   2 2518.08 44.7173   2
   8   2  -2 2551.24 45.2301   1
   2   8   2 2566.76 44.0787   4
   2  -8  -2 2492.57 44.9443   1
  -3  -8  -2 74.7703 7.09909   1
   3  -8   2 98.5453 7.51216   1
  -3  -8  -2 97.8456 7.35713   2
   3  -8   2 94.0350 7.21734   2
   8  -3  -2 97.1069 7.87351   1
   8  -3  -2 110.218 7.67598   2
  -3   8   2 102.908 7.83183   1
   8   3   2 91.9038 7.15665   2
   3   8  -2 70.5746 6.81475   1
   8   3   2 114.412 8.04557   1
  -8  -3   2 104.739 7.77819   1
  -8   3  -2 101.981 7.78386   1
   8   3  -2 95.1556 7.30632   2
   3  -8  -2 89.1479 7.34503   1
  -3  -8   2 105.839 7.40412   1
   8  -3   2 92.0135 7.21985   2
  -3   8  -2 84.9609 7.30540   1
   8  -3   2 102.459 7.72144   1
  -8   3   2 100.475 7.75704   1
  -3  -8   2 91.6032 7.27664   2
   3  -8  -2 84.6442 6.75592   2
  -8  -3  -2 98.0402 7.68601   1
   8   3  -2 95.9926 7.60492   1
   3   8   2 102.732 7.77471   1
   8   4   2 2190.52 40.2205   1
   8  -4  -2 2156.59 40.5820   1
   4  -8   2 2239.29 40.3689   1
   8  -4  -2 2178.27 39.7790   2
  -4  -8  -2 2222.35 40.8020   1
  -8  -4   2 2262.78 40.5137   1
  -4  -8  -2 2209.14 39.5972   2
   4  -8   2 2203.70 40.4702   2
   4   8  -2 2196.30 40.7129   1
   8   4   2 2251.65 41.0931   2
  -4   8   2 2264.06 40.5759   1
  -8   4  -2 2107.99 40.4803   1
   4  -8  -2 2144.98 39.4504   2
  -4   8  -2 2135.53 40.5485   1
   8  -4   2 2182.78 40.4179   1
  -8  -4  -2 2189.77 40.8323   1
   4  -8  -2 2184.98 40.7720   1
   8  -4   2 2217.74 40.7331   2
   8   4  -2 2188.17 40.7570   1
   4   8   2 2148.59 40.2774   1
  -4  -8   2 2262.07 40.3752   2
  -4  -8   2 2178.06 40.3040   1
  -8   4   2 2205.00 40.4948   1
   5   8  -2 85.2852 7.77904   1
   5  -8   2 68.9830 7.13644   1
  -5  -8  -2 80.6107 7.58429   1
   8  -5  -2 74.5972 6.93702   2
  -5  -8  -2 70.1644 6.56188   2
  -8  -5   2 79.8306 7.50516   1
  -8   5  -2 82.7845 7.73235   1
   8  -5  -2 61.0088 7.01874   1
  -5   8   2 88.0715 7.87027   1
   8   5   2 61.5600 6.90324   1
  -8   5   2 76.4623 7.32686   1
  -8  -5  -2 68.3501 7.22495   1
   5   8   2 82.5520 7.44551   1
   5  -8  -2 90.7526 7.50144   2
  -5  -8   2 78.9501 7.29005   2
  -5   8  -2 69.0712 7.33767   1
   5  -8  -2 83.6158 7.77238   1
   8  -5   2 94.1388 7.79275   1
  -8  -5  -2 71.8292 6.69657   2
   8   5  -2 77.7738 7.46662   1
  -5  -8   2 64.0718 7.09577   1
  -8  -6   2 2495.09 45.2794   1
  -6   8   2 2508.48 45.4812   1
   6   8  -2 2440.36 45.4250   1
  -6  -8  -2 2463.91 44.4275   2
   8  -6  -2 2392.43 44.4463   2
  -8   6  -2 2435.20 45.6558   1
   8  -6  -2 2521.70 46.0412   1
  -6  -8  -2 2511.44 45.7290   1
   8   6  -2 2385.76 45.5903   1
  -8  -6  -2 2448.15 44.5803   2
  -6   8  -2 2411.06 45.6505   1
   6  -8  -2 2441.19 44.4130   2
   6  -8  -2 2477.34 45.9509   1
  -8  -6  -2 2458.57 45.9857   1
  -6  -8   2 2441.03 45.6304   1
  -8   6   2 2391.90 45.3440   1
   8  -7  -2 -0.5827 4.95616   1
  -7  -8  -2 7.51308 4.70950   2
   8  -7  -2 16.0600 5.28221   2
   7   8  -2 9.90481 5.26339   1
  -7  -8  -2 9.57136 5.30340   1
  -8   7  -2 11.6474 5.38609   1
  -8  -7  -2 -0.7383 5.10223   1
   7  -8  -2 6.25420 4.81106   2
   8   7  -2 7.04675 5.52631   1
  -7   8  -2 8.44506 5.68449   1
   7  -8  -2 3.54892 5.64648   1
  -8  -7  -2 7.26262 4.91462   2
  -8  -8  -2 1285.99 29.1048   2
  -8   8  -2 1406.16 31.1770   1
   8  -8  -2 1280.52 29.3939   2
   8   8  -2 1348.09 30.8252   1
  -8  -8  -2 1359.42 30.7360   1
   8  -8  -2 1344.54 30.8322   1
   0  -9   2 -3.0292 3.87573   1
   0  -9   2 8.78655 4.17113   2
   0  -9  -2 1.36935 4.23795   1
   0  -9  -2 -3.3029 3.63550   2
  -9   0   2 -2.1389 4.25213   1
   9   0  -2 -0.4750 3.75747   2
   9   0  -2 -6.0366 4.24873   1
   9   0   2 8.46270 4.51935   1
   0   9  -2 -2.7786 4.35583   1
  -9   0  -2 4.69099 4.59814   1
   0   9   2 -2.0388 3.96936   1
  -1  -9  -2 689.370 17.5346   2
   1  -9   2 681.327 18.0752   1
   1   9  -2 661.764 18.0868   1
   1  -9   2 678.660 18.0315   1
   9  -1  -2 646.753 18.1695   1
   1  -9   2 689.068 18.0008   2
  -1   9   2 663.042 18.1360   1
   9  -1  -2 679.937 17.3926   2
  -1  -9  -2 654.033 18.1822   1
   9   1   2 660.666 17.6998   1
  -9   1  -2 652.839 18.1721   1
  -9  -1   2 656.557 17.7288   1
  -1   9  -2 650.852 17.8659   1
   1  -9  -2 662.771 17.7420   1
  -1  -9   2 682.220 17.6801   1
   9   1  -2 703.992 18.2475   1
  -1  -9   2 677.180 17.6940   2
   9   1  -2 647.159 17.2383   2
   1   9   2 665.641 18.1174   1
  -9  -1  -2 673.503 16.7390   6
   1  -9  -2 655.329 17.2672   2
  -9   1   2 661.711 17.8708   1
  -9  -1  -2 662.435 17.9348   1
   9  -1   2 652.123 17.8042   1
   9   2   2 1.17233 4.53284   1
  -9  -2   2 -0.2024 4.61259   1
  -2  -9  -2 1.22304 4.15985   1
   2  -9   2 0.62366 4.14127   1
   2   9  -2 -0.3907 4.53853   1
  -9   2  -2 -2.0721 4.01886   1
  -2   9   2 -3.3040 4.52750   1
  -2  -9  -2 4.84212 3.95761   2
   9  -2  -2 -1.0845 3.78797   2
   9  -2  -2 -2.0114 4.32507   1
   9   2  -2 -8.3845 3.39963   2
   2  -9  -2 0.74872 4.28630   1
  -9  -2  -2 -3.2110 4.04468   1
   9   2  -2 4.76896 4.57067   1
  -2  -9   2 -1.5042 3.75271   2
   9  -2   2 0.66956 4.46719   1
  -2   9  -2 6.91190 4.51774   1
   2   9   2 3.54816 4.46475   1
   2  -9  -2 -2.0124 4.29634   1
  -9   2   2 1.66305 4.50394   1
  -2  -9   2 1.15529 4.17978   1
   2  -9  -2 1.75865 3.78706   2
   3  -9   2 202.650 10.6872   1
  -3  -9  -2 202.975 10.4722   1
   9   3   2 195.277 10.6588   1
  -9   3  -2 202.781 10.5941   1
   3   9  -2 201.583 10.8332   1
  -9  -3   2 208.735 10.7521   1
   9  -3  -2 199.308 10.8628   1
  -3  -9  -2 189.561 9.82004   2
  -3   9   2 201.126 10.7564   1
   9  -3  -2 192.407 10.1935   2
   3   9   2 204.883 10.8388   1
   9   3  -2 207.428 10.2372   2
   3  -9  -2 221.135 10.6966   1
   9   3  -2 235.730 11.0193   1
  -9  -3  -2 214.444 11.0564   1
  -3   9  -2 189.901 10.7915   1
   9  -3   2 187.126 10.4405   1
  -9   3   2 207.893 10.5382   1
  -3  -9   2 198.193 10.1950   1
   3  -9  -2 211.949 10.1257   2
   9  -4  -2 12.2702 5.07234   1
  -4  -9  -2 10.9141 4.52874   2
  -9  -4   2 16.5541 5.37711   1
  -4   9   2 18.8676 5.26460   1
   9  -4  -2 9.64815 4.65387   2
   4   9  -2 17.9570 5.32510   1
  -4  -9  -2 12.8768 5.23312   1
  -9   4  -2 13.1732 5.14285   1
   4  -9  -2 3.60019 4.75939   1
   4   9   2 12.7474 5.14715   1
  -4   9  -2 17.2834 5.47694   1
  -9   4   2 14.7088 5.33648   1
   4  -9  -2 9.59392 4.40090   2
  -4  -9   2 15.7826 5.36291   1
   9   4  -2 9.30978 5.13222   1
  -9  -4  -2 10.1902 5.30269   1
  -5  -9  -2 134.480 9.77862   1
   9  -5  -2 133.702 9.51326   2
  -5  -9  -2 125.518 9.23230   2
   9  -5  -2 144.635 9.85999   1
   5   9  -2 133.376 9.91249   1
  -9   5  -2 132.041 9.80482   1
   5  -9  -2 138.869 9.37638   2
   9   5  -2 135.532 9.73136   1
  -5   9  -2 131.649 10.1097   1
   5  -9  -2 146.430 9.79930   1
  -9  -5  -2 135.662 10.2845   1
  -9   5   2 123.263 10.1906   1
   9  -6  -2 17.3876 6.04898   1
  -6  -9  -2 18.3729 5.32653   2
   9  -6  -2 22.6103 5.60483   2
   6   9  -2 20.1992 6.44336   1
  -6  -9  -2 32.6462 6.64307   1
  -9   6  -2 9.68000 6.00462   1
   9   6  -2 26.2454 6.30087   1
  -9  -6  -2 22.9880 5.61260   2
   6  -9  -2 22.0761 6.03530   1
  -9  -6  -2 11.9479 5.73021   1
   6  -9  -2 9.12977 5.06107   2
  -6   9  -2 28.9096 6.25816   1
   9  -7  -2 412.113 15.6301   2
  -7  -9  -2 434.607 15.4364   2
  -9   7  -2 447.767 17.1037   1
   7   9  -2 444.046 16.9816   1
  -7  -9  -2 430.378 16.6930   1
   9  -7  -2 423.028 16.7633   1
  -7   9  -2 456.423 16.5624   1
   7  -9  -2 409.314 15.3238   2
   9   7  -2 471.745 17.1814   1
   7  -9  -2 460.590 16.8306   1
  -9  -7  -2 451.227 16.6928   1
  -9  -7  -2 415.515 15.4388   2
   9  -8  -2 2.38933 6.24028   1
  -8  -9  -2 -3.1343 5.69635   1
   9  -8  -2 -1.0145 4.86602   2
  -9   8  -2 11.2975 6.32316   1
   8   9  -2 -3.2919 5.90007   1
  -8  -9  -2 3.95475 5.12426   2
   8  -9  -2 2.00567 4.92446   2
  -8   9  -2 2.86083 5.88386   1
  -9  -8  -2 0.21440 5.70150   1
   9   8  -2 -3.1907 5.78380   1
  -9  -8  -2 -0.3170 4.91659   2
   8  -9  -2 0.00417 5.40957   1
   9  -9  -2 234.071 13.1999   2
  -9   9  -2 249.529 14.2350   1
  -9  -9  -2 223.612 13.4957   1
   9  -9  -2 237.501 14.2047   1
   9   9  -2 219.472 13.9101   1
  -9  -9  -2 213.600 12.6851   2
 -10   0  -2 2392.67 44.7876   1
   0 -10  -2 2370.53 43.4692   2
 -10   0   2 2343.13 44.0066   1
   0 -10  -2 2381.38 44.4791   1
   0  10  -2 2408.62 44.7264   1
  10   0  -2 2367.95 44.5852   1
   0  10   2 2386.81 44.9237   1
  10   0  -2 2351.15 43.4386   2
  -1  10   2 26.9794 6.17417   1
  -1 -10  -2 33.0761 5.58878   2
  -1 -10  -2 36.5650 6.30177   1
 -10  -1   2 18.2274 5.76488   1
  10  -1  -2 23.7641 5.99353   1
   1  10  -2 37.9809 6.37884   1
 -10   1  -2 25.3243 5.95070   1
  10  -1  -2 33.0911 5.60880   2
   1 -10  -2 28.1309 5.51892   2
   1 -10  -2 29.2585 5.94135   1
 -10  -1  -2 23.0482 5.70386   1
 -10   1   2 37.7128 6.56698   1
  10   1  -2 33.8028 6.14316   1
  10   1  -2 29.5225 5.55193   2
  -1  10  -2 32.0080 6.17048   1
 -10   2  -2 2173.52 42.4258   1
  -2 -10  -2 2150.30 41.0155   2
 -10  -2   2 2212.25 42.4561   1
   2  10  -2 2189.73 42.6288   1
  -2 -10  -2 2265.58 42.6358   1
  10  -2  -2 2225.16 41.4053   2
  10  -2  -2 2236.46 42.8242   1
  10   2  -2 2268.65 42.5664   1
   2 -10  -2 2156.14 42.0407   1
  10   2  -2 2162.19 41.1530   2
 -10  -2  -2 2221.70 42.5332   1
   2 -10  -2 2226.20 42.5034   1
  -2  10  -2 2255.11 42.4689   1
   2 -10  -2 2182.79 41.3061   2
 -10   2   2 2248.55 42.4539   1
 -10   3  -2 29.7089 6.46035   1
  -3 -10  -2 24.8884 6.28527   1
  10  -3  -2 17.6708 5.76456   1
  10  -3  -2 32.6158 5.92489   2
   3  10  -2 33.1070 6.82640   1
  -3 -10  -2 29.4940 5.70435   2
  -3  10  -2 31.2754 6.46678   1
  10   3  -2 22.6196 5.50260   2
   3 -10  -2 16.7313 5.20490   2
 -10  -3  -2 25.2085 6.18706   1
   3 -10  -2 34.8647 6.43006   1
  10   3  -2 22.1230 6.07707   1
  10  -4  -2 2135.39 42.4350   1
   4  10  -2 2100.14 42.0835   1
  -4 -10  -2 2087.63 40.4638   2
  -4 -10  -2 2177.46 42.4882   1
  10  -4  -2 2139.27 41.0298   2
 -10   4  -2 2101.73 42.2639   1
  -4  10  -2 2136.03 41.9430   1
   4 -10  -2 2180.21 42.1512   1
  10   4  -2 2232.14 42.5622   1
 -10  -4  -2 2187.99 42.4747   1
  10   4  -2 2105.64 40.8187   2
   4 -10  -2 2094.76 40.8617   2
 -10   5  -2 160.939 11.6200   1
  10  -5  -2 154.999 11.3712   1
   5  10  -2 169.336 11.5717   1
  -5 -10  -2 168.944 10.3849   2
  -5 -10  -2 167.374 11.6369   1
  10  -5  -2 148.872 10.5500   2
  10   5  -2 193.732 11.5284   1
   5 -10  -2 165.802 10.9210   2
   5 -10  -2 170.068 11.0419   1
 -10  -5  -2 165.607 11.6444   1
  -5  10  -2 166.100 11.6253   1
   6  10  -2 1246.50 30.0312   1
  10  -6  -2 1284.87 29.2084   2
 -10   6  -2 1294.16 30.4733   1
  10  -6  -2 1295.85 30.3425   1
  -6 -10  -2 1233.40 28.5693   2
  -6 -10  -2 1295.35 30.3028   1
 -10  -6  -2 1309.88 30.7451   1
 -10  -6  -2 1211.49 28.5381   2
   6 -10  -2 1305.82 30.3087   1
  10   6  -2 1243.43 29.9991   1
  -6  10  -2 1276.11 30.6022   1
   6 -10  -2 1237.90 28.8385   2
   7  10  -2 71.1467 8.72438   1
  10  -7  -2 73.7805 8.27139   2
  10  -7  -2 73.3284 9.17247   1
 -10   7  -2 77.3205 9.11012   1
  -7 -10  -2 59.1736 8.33181   1
  -7 -10  -2 63.3758 7.78810   2
 -10  -7  -2 61.2630 7.76553   2
   7 -10  -2 48.7272 7.91488   1
  10   7  -2 71.4254 9.22162   1
   7 -10  -2 76.6045 8.30278   2
 -10  -7  -2 53.4985 8.18711   1
  -7  10  -2 53.1701 8.45886   1
  10  -8  -2 1277.15 31.6846   1
 -10   8  -2 1283.91 31.8655   1
   8  10  -2 1258.60 31.3585   1
  10  -8  -2 1239.14 30.2001   2
  -8 -10  -2 1195.00 29.4129   2
  -8 -10  -2 1298.62 31.9253   1
   8 -10  -2 1221.49 29.9493   2
   8 -10  -2 1280.11 31.8190   1
  10   8  -2 1323.14 31.7216   1
  -8  10  -2 1288.41 31.7379   1
 -10  -8  -2 1330.72 31.8944   1
 -10  -8  -2 1225.40 29.9098   2
   9  10  -2 5.47543 7.07316   1
  -9 -10  -2 8.40964 5.91926   2
 -10   9  -2 18.8958 7.68430   1
  10  -9  -2 24.8141 8.06441   1
  10  -9  -2 10.6094 6.20760   2
  -9 -10  -2 6.18316 7.02179   1
  -9  10  -2 15.3628 7.26008   1
  10   9  -2 22.5952 7.71984   1
 -10  -9  -2 12.5801 5.72079   2
 -10  -9  -2 21.9313 7.49429   1
   9 -10  -2 18.3703 7.25909   1
   9 -10  -2 16.5233 6.19348   2
 -10 -10  -2 1287.98 31.3510   2
  10 -10  -2 1277.78 31.4503   2
  10  10  -2 1302.24 33.3676   1
  10 -10  -2 1242.34 33.2474   1
 -10 -10  -2 1272.83 33.2276   1
 -10  10  -2 1259.00 33.3258   1
  11   0  -2 3.85661 4.87844   2
   0  11  -2 -5.4702 4.89200   1
  11   0  -2 -0.6141 5.37702   1
   0 -11  -2 -0.8507 4.66197   2
   0 -11  -2 2.31281 5.27403   1
 -11   0  -2 -0.4824 5.43283   1
  11  -1  -2 276.750 13.6337   1
   1  11  -2 282.063 13.5844   1
 -11   1  -2 284.678 13.8726   1
  -1 -11  -2 280.002 12.4914   2
  -1 -11  -2 283.600 13.2637   1
  11  -1  -2 290.658 13.0616   2
  -1  11  -2 255.893 13.5509   1
  11   1  -2 297.826 13.0911   2
   1 -11  -2 286.511 12.7301   2
   1 -11  -2 283.707 13.6200   1
   1 -11  -2 288.795 13.5648   1
  11   1  -2 294.845 13.5299   1
 -11  -1  -2 276.279 13.2047   1
   2  11  -2 -7.5690 5.09481   1
 -11   2  -2 10.0108 5.62768   1
  -2 -11  -2 -3.6006 5.08521   1
  11  -2  -2 4.37933 4.88663   2
  -2 -11  -2 -2.8547 4.48036   2
  11  -2  -2 -5.2785 5.09107   1
  -2  11  -2 -1.4879 5.60803   1
  11   2  -2 -11.169 3.90692   2
   2 -11  -2 0.86020 5.38176   1
 -11  -2  -2 -1.5352 5.21240   1
   2 -11  -2 2.38106 4.57477   2
   2 -11  -2 -1.2800 5.39285   1
  11   2  -2 11.6590 5.90810   1
  -3 -11  -2 504.786 17.8147   1
  -3 -11  -2 504.756 16.9159   2
  11  -3  -2 499.199 17.1529   2
   3  11  -2 517.925 18.0871   1
 -11   3  -2 557.314 18.3509   1
  11  -3  -2 539.717 18.2173   1
  11   3  -2 480.032 16.6719   2
 -11  -3  -2 544.293 18.2072   1
  -3  11  -2 535.203 18.2962   1
  11   3  -2 509.489 18.0068   1
   3 -11  -2 525.927 17.2017   2
   3 -11  -2 550.169 18.5088   1
  11  -4  -2 29.1079 6.68908   1
 -11   4  -2 28.6009 7.24542   1
  11  -4  -2 22.6208 5.82757   2
  -4 -11  -2 38.9459 7.42583   1
   4  11  -2 41.3249 7.76428   1
  -4 -11  -2 30.5516 6.39395   2
  -4  11  -2 32.1441 7.11875   1
   4 -11  -2 25.3540 6.02816   2
 -11  -4  -2 23.9477 6.95229   1
  11   4  -2 32.6260 6.37537   2
  11   4  -2 29.1268 6.94310   1
   4 -11  -2 21.6888 6.76306   1
   5  11  -2 595.169 19.9524   1
  11  -5  -2 580.489 19.8604   1
 -11   5  -2 586.139 20.3615   1
  -5 -11  -2 601.934 18.6568   2
  11  -5  -2 584.915 18.8036   2
  -5 -11  -2 566.034 19.6453   1
  11   5  -2 604.075 20.1770   1
  -5  11  -2 587.958 19.7265   1
   5 -11  -2 606.480 18.9870   2
 -11  -5  -2 587.531 20.1106   1
   5 -11  -2 579.852 19.5070   1
  -6 -11  -2 5.32017 5.41670   2
  11  -6  -2 2.57324 6.27931   1
  11  -6  -2 9.43111 5.87229   2
  -6 -11  -2 5.23798 6.43904   1
 -11   6  -2 1.97986 6.24579   1
   6  11  -2 6.54503 6.68105   1
  -6  11  -2 6.57302 6.50452   1
 -11  -6  -2 -3.1157 5.15827   2
   6 -11  -2 0.07799 5.80869   1
   6 -11  -2 3.24581 5.35043   2
 -11  -6  -2 10.3519 6.79755   1
  11   6  -2 9.10860 6.76211   1
  -7 -11  -2 159.851 12.8733   1
  11  -7  -2 160.788 12.3848   1
  -7 -11  -2 152.892 11.5886   2
 -11   7  -2 154.723 12.5124   1
   7  11  -2 145.439 12.2382   1
  11  -7  -2 170.431 12.0613   2
 -11  -7  -2 144.355 12.1518   1
  11   7  -2 174.185 12.9446   1
  -7  11  -2 182.758 13.2623   1
   7 -11  -2 138.195 11.5677   1
 -11  -7  -2 159.462 12.1353   2
   7 -11  -2 170.956 11.9467   2
  11  -8  -2 13.4592 6.29901   2
  11  -8  -2 11.4929 6.98537   1
  -8 -11  -2 18.3602 6.47197   2
 -11   8  -2 4.93560 7.28725   1
   8  11  -2 6.32476 7.07259   1
  -8 -11  -2 17.0220 7.43701   1
   8 -11  -2 8.48087 7.17775   1
 -11  -8  -2 11.9437 7.59648   1
  11   8  -2 4.87291 7.11740   1
   8 -11  -2 12.1789 6.24132   2
  -8  11  -2 0.17268 7.22371   1
 -11  -8  -2 12.7492 6.52231   2
 -11   9  -2 204.769 14.5211   1
  -9 -11  -2 223.412 15.1665   1
  11  -9  -2 229.842 14.1314   2
   9  11  -2 187.006 14.3972   1
  11  -9  -2 194.931 14.1981   1
  -9 -11  -2 212.566 13.3152   2
   9 -11  -2 224.034 13.8387   2
  -9  11  -2 209.902 14.5756   1
  11   9  -2 187.029 14.4571   1
 -11  -9  -2 189.847 14.7024   1
 -11  -9  -2 229.061 13.7728   2
   9 -11  -2 201.791 14.7184   1
  10  11  -2 -0.7580 7.18652   1
 -10 -11  -2 7.90263 6.46544   2
  11 -10  -2 1.41251 6.36517   2
 -10 -11  -2 4.03003 7.54001   1
 -11  10  -2 1.30540 7.40739   1
  11 -10  -2 0.05460 7.39071   1
  10 -11  -2 4.54310 7.70376   1
 -10  11  -2 22.3490 8.43538   1
  11  10  -2 6.53415 7.52345   1
 -11 -10  -2 16.7036 6.69689   2
  10 -11  -2 0.03791 6.08376   2
 -11 -10  -2 -10.137 7.17881   1
   0 -12  -2 2064.04 41.9124   2
   0  12  -2 2207.25 44.1927   1
  12   0  -2 2166.32 43.9738   1
 -12   0  -2 2137.41 43.9589   1
  12   0  -2 2198.41 42.7531   2
   0 -12  -2 2180.74 43.5208   1
 -12   1  -2 -3.4060 5.95290   1
  -1 -12  -2 -3.8914 5.74890   1
  12  -1  -2 -6.5705 5.00706   2
   1  12  -2 0.43512 6.27519   1
  -1 -12  -2 2.29091 5.08018   2
  12  -1  -2 0.35017 5.85866   1
   1 -12  -2 -6.3807 5.60999   1
   1 -12  -2 -0.1834 5.84072   1
   1 -12  -2 2.05925 5.07144   2
 -12  -1  -2 0.05921 6.16407   1
  12   1  -2 1.79023 5.27273   2
  12   1  -2 0.98115 5.86238   1
  -1  12  -2 2.72183 6.11665   1
  -2 -12  -2 1054.03 27.8068   1
 -12   2  -2 1085.60 28.1667   1
  -2 -12  -2 1046.05 26.3740   2
  12  -2  -2 1125.07 28.5022   1
  12  -2  -2 1067.34 26.5971   2
   2  12  -2 1131.32 28.4411   1
   2 -12  -2 1054.30 26.5915   2
  12   2  -2 1121.03 28.1949   1
  -2  12  -2 1120.81 28.4363   1
 -12  -2  -2 1090.20 28.1570   1
   2 -12  -2 1108.15 28.1012   1
  12   2  -2 1073.58 26.4951   2
  -3 -12  -2 27.7434 6.45985   2
 -12   3  -2 29.2212 7.29974   1
   3  12  -2 47.7454 8.20013   1
  12  -3  -2 19.7773 5.93603   2
  -3 -12  -2 20.4285 6.84683   1
  12  -3  -2 26.2153 7.42316   1
   3 -12  -2 19.1453 6.19465   2
  12   3  -2 35.2261 7.76936   1
  12   3  -2 23.9921 6.35812   2
  -3  12  -2 34.5984 7.67959   1
 -12  -3  -2 26.5883 7.19889   1
   3 -12  -2 25.3893 7.07875   1
   4  12  -2 1567.31 36.0111   1
  12  -4  -2 1561.79 34.4023   2
  -4 -12  -2 1539.56 35.6683   1
  -4 -12  -2 1473.14 33.6785   2
 -12   4  -2 1505.56 35.4778   1
  12  -4  -2 1532.95 35.2238   1
  12   4  -2 1527.54 35.5896   1
   4 -12  -2 1537.67 35.3862   1
 -12  -4  -2 1557.26 35.7921   1
  -4  12  -2 1588.03 35.6056   1
   4 -12  -2 1495.29 33.9810   2
  12   4  -2 1506.33 33.8794   2
 -12   5  -2 1.33391 6.24852   1
  12  -5  -2 3.39503 6.37629   1
  -5 -12  -2 -1.6912 5.49922   2
  12  -5  -2 -3.8598 4.93317   2
   5  12  -2 3.67795 6.72163   1
  -5 -12  -2 1.41084 6.60343   1
  -5  12  -2 -3.6311 6.28914   1
   5 -12  -2 -0.8238 5.16243   2
   5 -12  -2 4.94576 6.49482   1
 -12  -5  -2 -6.5538 5.71699   1
  12   5  -2 10.9291 6.48937   1
  12  -6  -2 646.368 20.8344   2
  12  -6  -2 616.428 22.0815   1
   6  12  -2 664.242 22.4698   1
 -12   6  -2 655.565 22.3567   1
  -6 -12  -2 618.195 20.2573   2
  -6 -12  -2 617.562 21.9222   1
  -6  12  -2 629.939 22.4372   1
  12   6  -2 618.542 21.8134   1
   6 -12  -2 654.514 22.3312   1
 -12  -6  -2 601.558 20.1840   2
   6 -12  -2 621.890 20.5414   2
 -12  -6  -2 599.242 21.8724   1
   7  12  -2 41.6864 8.74448   1
  -7 -12  -2 33.8923 8.60866   1
 -12   7  -2 25.4815 7.79222   1
  -7 -12  -2 33.0012 7.39185   2
  12  -7  -2 34.6746 8.70918   1
  12  -7  -2 31.6376 7.31165   2
  12   7  -2 39.1554 8.73402   1
 -12  -7  -2 19.8510 7.05303   2
  -7  12  -2 31.3221 7.89459   1
   7 -12  -2 33.8042 7.10089   2
 -12  -7  -2 24.1591 7.87745   1
   7 -12  -2 36.5185 8.49868   1
   8  12  -2 1155.32 31.4768   1
 -12   8  -2 1146.55 31.7996   1
  12  -8  -2 1172.79 31.5344   1
  12  -8  -2 1158.92 30.1398   2
  -8 -12  -2 1153.05 31.3716   1
  -8 -12  -2 1100.14 29.2426   2
  -8  12  -2 1147.15 31.9958   1
   8 -12  -2 1186.29 32.2064   1
 -12  -8  -2 1155.81 32.0065   1
 -12  -8  -2 1119.36 29.4536   2
  12   8  -2 1165.56 32.0416   1
   8 -12  -2 1200.76 30.1490   2
   9  12  -2 42.0736 9.40165   1
  -9 -12  -2 32.2601 9.10157   1
  -9 -12  -2 32.2752 7.41060   2
 -12   9  -2 14.9855 8.16359   1
  12  -9  -2 20.7745 8.23214   1
  12  -9  -2 31.8535 7.68193   2
   9 -12  -2 11.7561 7.74034   1
   9 -12  -2 16.7729 6.83192   2
 -12  -9  -2 32.1357 7.90613   2
 -12  -9  -2 20.4550 8.33568   1
  -9  12  -2 13.9180 8.13711   1
  12   9  -2 23.6027 8.60056   1
  13   0  -2 0.28683 6.28308   1
   0 -13  -2 -4.8871 5.87574   1
 -13   0  -2 2.13199 6.33459   1
  13   0  -2 1.51145 5.79158   2
   0 -13  -2 1.47499 5.45949   2
   0 -13  -2 -1.0303 6.04696   1
   0  13  -2 4.41328 6.47565   1
   1  13  -2 176.357 13.4981   1
  13  -1  -2 190.760 13.7639   1
  13  -1  -2 193.340 12.7782   2
  -1 -13  -2 190.415 12.7339   2
  -1 -13  -2 185.774 13.1903   1
 -13   1  -2 177.596 13.0395   1
   1 -13  -2 186.050 13.2620   1
   1 -13  -2 180.078 12.7941   1
   1 -13  -2 193.441 12.4331   2
  13   1  -2 205.955 13.7915   1
  13   1  -2 204.154 12.8180   2
  -1  13  -2 193.173 13.3752   1
 -13  -1  -2 176.919 13.3650   1
  13  -2  -2 9.23678 6.95294   1
  13  -2  -2 13.5749 6.11251   2
  -2 -13  -2 4.62252 6.43440   1
  -2 -13  -2 9.71421 5.80228   2
   2  13  -2 8.02897 6.88589   1
 -13   2  -2 2.45443 6.95978   1
   2 -13  -2 5.88482 5.74122   2
 -13  -2  -2 14.8438 7.01831   1
  13   2  -2 0.33261 5.70226   2
  -2  13  -2 5.36452 6.91990   1
  13   2  -2 7.80263 6.67882   1
   2 -13  -2 12.7259 6.77656   1
  13  -3  -2 333.568 15.3331   2
 -13   3  -2 318.256 16.6146   1
  -3 -13  -2 343.177 15.4851   2
   3  13  -2 316.847 16.6741   1
  -3 -13  -2 345.895 17.0109   1
  13  -3  -2 361.230 16.8554   1
   3 -13  -2 320.081 15.0530   2
 -13  -3  -2 324.508 16.5802   1
  13   3  -2 332.409 16.9437   1
  -3  13  -2 337.211 16.2863   1
  13   3  -2 340.228 15.3056   2
   3 -13  -2 333.927 16.2014   1
 -13   4  -2 4.94386 7.17028   1
  13  -4  -2 1.68631 6.57155   1
  13  -4  -2 7.53571 5.92522   2
  -4 -13  -2 18.1230 7.65173   1
  -4 -13  -2 -7.1971 5.73274   2
   4  13  -2 12.4400 7.69913   1
  13   4  -2 7.38494 6.93698   1
   4 -13  -2 12.5445 7.44011   1
  -4  13  -2 6.36942 7.55939   1
 -13  -4  -2 0.28204 6.84120   1
   4 -13  -2 11.4930 6.24666   2
  13  -5  -2 325.449 16.9114   1
 -13   5  -2 317.231 16.4072   1
   5  13  -2 286.953 16.7828   1
  -5 -13  -2 300.461 15.4476   2
  13  -5  -2 289.683 15.2151   2
  -5 -13  -2 332.912 17.2493   1
 -13  -5  -2 301.958 16.7687   1
   5 -13  -2 328.140 16.1474   1
  13   5  -2 310.316 16.7425   1
   5 -13  -2 298.335 15.3008   2
  -5  13  -2 319.930 16.3486   1
  -6 -13  -2 13.0017 6.72008   2
 -13   6  -2 22.5441 8.52973   1
  13  -6  -2 13.2013 6.94202   2
  13  -6  -2 24.1477 7.97882   1
  -6 -13  -2 16.5692 7.67264   1
   6  13  -2 33.7643 8.85430   1
 -13  -6  -2 22.4918 7.07868   2
   6 -13  -2 22.1169 8.25159   1
 -13  -6  -2 11.1155 7.57237   1
  -6  13  -2 21.5403 8.66691   1
  13   6  -2 9.87329 7.48845   1
   6 -13  -2 9.99564 6.41362   2
  -7 -13  -2 0.28541 7.55335   1
  13  -7  -2 9.95064 7.92014   1
   7  13  -2 11.8497 8.18733   1
  13  -7  -2 19.4436 7.23451   2
  -7 -13  -2 19.2057 7.12562   2
 -13   7  -2 6.46656 7.68137   1
 -13  -7  -2 16.0796 7.22433   2
  13   7  -2 2.85426 7.66703   1
  -7  13  -2 11.0316 7.33043   1
   7 -13  -2 22.3954 8.33267   1
   7 -13  -2 18.7587 6.92756   2
 -13  -7  -2 11.4120 7.24224   1
 -13   8  -2 -14.155 7.86830   1
  -8 -13  -2 -0.5949 7.37668   1
   8  13  -2 0.13253 8.03018   1
  13  -8  -2 -6.2642 6.17196   2
  -8 -13  -2 -2.2916 6.16093   2
  13  -8  -2 -1.1787 7.51091   1
 -13  -8  -2 2.58788 7.68157   1
  13   8  -2 2.66641 7.93885   1
  -8  13  -2 7.29314 8.20941   1
 -13  -8  -2 -4.7452 6.07220   2
   8 -13  -2 -1.6636 7.40003   1
   8 -13  -2 -8.1626 5.95422   2
  14   0  -2 1439.87 35.1948   1
   0 -14  -2 1335.37 32.9339   2
 -14   0  -2 1404.55 35.1090   1
   0 -14  -2 1389.54 34.7710   1
  14   0  -2 1375.68 33.2128   2
   0 -14  -2 1351.03 34.4126   1
   0  14  -2 1366.93 35.0336   1
   1  14  -2 43.5926 9.02127   1
  14  -1  -2 61.1327 9.66016   1
  -1 -14  -2 41.5394 7.84027   2
  -1 -14  -2 53.6999 9.25464   1
 -14   1  -2 39.6165 9.02158   1
  14  -1  -2 46.0226 8.16028   2
   1 -14  -2 41.9617 9.02981   1
  14   1  -2 66.2382 9.81050   1
  14   1  -2 51.6611 8.38443   2
   1 -14  -2 48.0504 9.11366   1
   1 -14  -2 39.4569 7.55722   2
 -14  -1  -2 51.4179 9.62315   1
  -1  14  -2 48.3422 9.48810   1
  -2 -14  -2 707.101 22.2069   2
   2  14  -2 630.030 23.2582   1
  -2 -14  -2 677.581 23.7302   1
  14  -2  -2 659.633 22.1369   2
 -14   2  -2 649.236 23.6817   1
  14  -2  -2 652.789 23.1821   1
   2 -14  -2 672.354 21.7574   2
  14   2  -2 646.071 21.7460   2
  -2  14  -2 682.263 23.8051   1
 -14  -2  -2 658.808 23.1235   1
  14   2  -2 673.605 23.2301   1
   2 -14  -2 678.068 23.4668   1
  14  -3  -2 114.478 11.0013   2
  -3 -14  -2 147.458 11.8240   2
  14  -3  -2 133.378 12.5960   1
   3  14  -2 136.996 13.1422   1
  -3 -14  -2 118.190 12.0482   1
 -14   3  -2 119.703 12.4111   1
  14   3  -2 133.517 12.6921   1
  -3  14  -2 116.689 12.2852   1
  14   3  -2 119.950 11.0570   2
   3 -14  -2 109.883 10.7159   2
 -14  -3  -2 118.184 12.1285   1
   3 -14  -2 121.250 12.1101   1
  14  -4  -2 1729.52 40.9394   1
  -4 -14  -2 1717.12 39.2264   2
   4  14  -2 1829.17 41.7331   1
 -14   4  -2 1748.59 41.3142   1
  14  -4  -2 1780.81 39.4596   2
  -4 -14  -2 1791.29 41.6735   1
  14   4  -2 1748.80 41.3474   1
   4 -14  -2 1744.37 41.2329   1
 -14  -4  -2 1743.43 41.0639   1
  -4  14  -2 1737.48 41.5442   1
   4 -14  -2 1812.18 39.4110   2
   5  14  -2 11.0778 7.98804   1
 -14   5  -2 31.7109 9.16542   1
  14  -5  -2 16.3560 7.71079   1
  14  -5  -2 11.2045 7.11087   2
  -5 -14  -2 1.61062 6.70214   2
  -5 -14  -2 8.26745 7.38877   1
 -14  -5  -2 -0.1867 7.71781   1
  14   5  -2 16.3488 8.22716   1
   5 -14  -2 21.3686 7.34710   2
  -5  14  -2 15.6734 8.13325   1
   5 -14  -2 11.9703 7.49916   1
   6  14  -2 845.295 27.8650   1
  14  -6  -2 853.698 26.1840   2
  -6 -14  -2 835.031 27.3828   1
  -6 -14  -2 855.542 25.8976   2
 -14   6  -2 868.660 27.9566   1
  14  -6  -2 873.332 27.4727   1
  -6  14  -2 823.674 27.7511   1
  14   6  -2 869.558 27.9387   1
 -14  -6  -2 846.565 27.8574   1
 -14  -6  -2 899.869 26.0839   2
   6 -14  -2 820.274 25.6356   2
   6 -14  -2 874.622 27.8001   1
   0 -15  -2 -2.2709 5.74892   2
  15   0  -2 0.18763 6.07198   2
   0 -15  -2 -1.4125 6.90865   1
   0 -15  -2 -5.7385 6.97628   1
  15   0  -2 -0.1297 7.45736   1
 -15   0  -2 -8.8266 6.50057   1
   0  15  -2 -8.2934 7.36550   1
   1  15  -2 130.342 13.4805   1
  -1 -15  -2 151.331 13.3288   1
  15  -1  -2 128.694 13.2619   1
 -15   1  -2 134.129 13.1837   1
  -1 -15  -2 154.417 13.7938   1
  -1 -15  -2 158.641 12.2352   2
  15  -1  -2 149.465 12.4642   2
  15   1  -2 157.099 12.7576   2
   1 -15  -2 123.113 12.6239   1
   1 -15  -2 114.166 10.8976   2
 -15  -1  -2 145.727 13.3728   1
  15   1  -2 123.530 12.6670   1
  -1  15  -2 143.689 13.4874   1
  -2 -15  -2 0.40430 6.56681   2
 -15   2  -2 2.59004 8.05655   1
  15  -2  -2 4.20611 7.48220   1
   2  15  -2 -13.605 7.42392   1
  -2 -15  -2 -3.7103 7.34978   1
  15  -2  -2 -1.8521 6.75830   2
  15   2  -2 3.14257 8.41977   1
   2 -15  -2 10.6451 7.05166   2
  -2  15  -2 -9.4592 6.78147   1
   2 -15  -2 -7.2086 6.72870   1
  15   2  -2 1.00956 6.92448   2
 -15  -2  -2 6.24849 8.07520   1
   3  15  -2 228.869 16.6590   1
  15  -3  -2 221.948 15.6999   1
 -15   3  -2 225.245 16.5359   1
  -3 -15  -2 228.283 14.6813   2
  -3 -15  -2 187.419 15.3497   1
  15  -3  -2 190.236 14.2596   2
   3 -15  -2 208.997 14.4764   2
  -3  15  -2 204.255 15.5444   1
  15   3  -2 221.619 14.8362   2
  15   3  -2 230.620 16.5666   1
 -15  -3  -2 193.018 15.0816   1
   3 -15  -2 211.582 15.8853   1
   0   0   3 -2.3034 1.90735   4
   0   1   3 -3.8678 2.22633   4
  -1   0   3 -7.1351 1.93515   4
   0  -1   3 -2.1697 1.81522   4
   1   0  -3 -4.2047 2.20397   4
   1  -1  -3 -5.3076 2.56181   4
  -1   1   3 -7.0360 2.35341   4
   1   1  -3 -5.1772 1.98214   4
  -1  -1   3 -9.4886 1.75053   4
   0   2   3 421.309 10.0462   4
  -2   0  -3 425.974 10.2707   6
   0  -2   3 416.244 7.43783   4
  -2   0   3 424.501 9.67633   4
   2   0  -3 418.616 9.63220   4
   1  -2   3 721.997 12.0460   4
   1   2  -3 709.186 11.7188   4
   2  -1  -3 711.861 14.2213   4
  -2  -1   3 702.396 13.0830   4
  -2   1  -3 710.985 14.5494   6
  -1   2   3 701.172 14.3156   4
   2   1  -3 698.852 13.1508   4
  -1  -2   3 707.064 11.7833   4
   1  -2  -3 705.439 10.9791   2
   2  -1   3 698.885 13.1850   4
  -1   2  -3 697.105 14.3282   5
   1  -2  -3 709.189 14.2646   4
  -2   1   3 686.349 14.0629   4
  -2  -1  -3 710.704 14.1745   6
  -1   2  -3 704.326 14.3654   6
  -2  -2   3 -5.1557 1.77538   4
  -2   2  -3 1.09429 3.02746   5
   2  -2   3 0.88535 1.89322   4
  -2   2  -3 -1.4077 3.00059   6
   2  -2  -3 -4.8781 2.57018   4
   2   2  -3 1.66208 2.77964   5
   2  -2  -3 -3.1473 1.57849   2
  -2   2   3 -0.6935 2.55177   4
   2   2  -3 1.25984 1.92371   4
  -2  -2  -3 -1.9707 1.44857   2
   3   0  -3 -5.5432 1.75652   2
   0   3  -3 -8.5754 2.71428   5
   0  -3  -3 -8.2594 1.67475   2
   0   3   3 -5.4964 2.67992   4
  -3   0  -3 -0.6357 3.13557   6
   3   0  -3 -8.6736 2.49648   4
   3   0   3 -6.0774 2.46921   4
   0   3  -3 -10.687 2.57942   6
  -3   0   3 -5.3397 2.45720   4
  -1   3   3 49.1850 4.29188   4
  -1  -3  -3 48.6384 3.32712   2
   1   3  -3 49.7796 4.15099   5
  -3   1  -3 42.0913 4.40874   6
  -3  -1   3 38.8584 3.68132   4
   3  -1  -3 45.7799 4.28978   4
   3  -1  -3 41.8818 3.33388   2
  -3   1  -3 50.9702 4.59995   5
  -3  -1  -3 53.7120 4.22612   6
   3   1  -3 47.2869 3.84040   4
   1  -3  -3 51.8032 4.19907   4
   3  -1   3 51.4605 3.96491   4
  -3   1   3 46.9434 4.23692   4
   1  -3  -3 47.6295 3.36067   2
  -1   3  -3 47.5944 4.51866   5
  -1   3  -3 48.9775 4.32328   6
   3   1  -3 46.9487 4.26414   5
  -3  -1  -3 42.9009 3.26765   2
  -3  -2   3 11.5178 2.64025   4
  -3   2  -3 5.49235 3.51962   5
  -2  -3  -3 9.47927 2.21747   2
  -2  -3  -3 9.75567 2.96157   6
   3  -2  -3 8.43280 3.28771   4
  -2   3   3 8.44516 2.96435   4
   2   3  -3 11.0384 2.09578   4
  -3   2  -3 8.01107 3.70155   6
   2   3  -3 11.2156 3.24704   5
   2  -3   3 8.59743 2.13733   4
   3  -2  -3 8.53542 2.27584   2
  -3  -2  -3 10.1400 2.10958   2
   3   2  -3 7.96623 3.23331   5
  -2   3  -3 7.02334 3.46207   5
  -3  -2  -3 11.6194 3.03389   6
  -2   3  -3 3.98601 3.45217   6
  -3   2   3 6.99370 3.07613   4
   3  -2   3 8.35958 2.77136   4
   2  -3  -3 12.4231 2.36643   2
   3   2  -3 11.7872 2.73503   4
   2  -3  -3 6.90140 3.15874   4
  -2  -3   3 10.1279 1.95560   4
   3  -3   3 0.44651 2.24282   4
  -3  -3   3 -2.9099 1.96241   4
  -3   3   3 3.33925 3.10693   4
   3  -3  -3 -2.2592 2.57141   1
   3  -3  -3 -1.0421 2.77261   4
  -3  -3  -3 1.75778 2.70284   1
   3   3  -3 -2.5046 2.64953   5
  -3  -3  -3 -3.8457 2.02982   2
  -3   3  -3 0.12735 3.14893   6
  -3   3  -3 -4.1842 2.24740   4
   3  -3  -3 -2.3997 2.09012   2
   3   3  -3 -1.4938 2.53557   1
  -3  -3  -3 -1.0544 2.48982   6
   3   3  -3 -2.2202 2.14217   4
  -3   3  -3 -2.8658 2.61725   1
   0   4  -3 94.6089 5.09260   1
   0   4  -3 97.3237 5.60258   5
   0   4   3 83.4616 5.90540   4
   4   0  -3 92.5737 5.12566   1
  -4   0   3 86.9997 5.80681   4
  -4   0  -3 97.1851 5.22281   1
   0  -4  -3 81.9923 4.99468   1
   0  -4  -3 92.1660 4.38051   2
   4   0  -3 83.0295 5.87713   4
   0   4  -3 91.1420 5.49823   6
  -4   0  -3 92.1542 5.83505   6
   4   0  -3 85.0251 4.33583   2
   4   0   3 86.9934 5.80247   4
   4  -1  -3 282.104 7.28921   2
  -4   1  -3 283.754 9.37541   6
   4   1   3 282.783 9.03894   4
   1   4  -3 285.005 8.49400   5
   4  -1  -3 293.393 9.19658   4
  -4   1  -3 274.057 7.90582   1
  -1  -4  -3 274.033 7.16702   2
  -4  -1   3 264.063 8.35057   4
   4  -1  -3 278.027 7.99708   1
  -1  -4  -3 284.309 8.03932   1
  -1   4   3 279.987 9.01017   4
   1   4  -3 293.344 8.02682   1
   1  -4  -3 280.434 7.28432   2
  -1   4  -3 252.531 8.61136   6
   4   1  -3 278.663 8.10322   1
   1   4   3 275.439 8.99596   4
  -4  -1  -3 268.630 9.08338   3
   4  -1   3 277.943 8.58817   4
  -1   4  -3 278.656 8.83577   5
   1  -4  -3 281.700 8.03778   1
  -4   1   3 272.239 8.98343   4
   4   1  -3 274.576 8.59369   4
  -4  -1  -3 277.775 8.43418   6
   1  -4  -3 276.934 8.94434   4
  -1   4  -3 276.510 8.00689   1
  -4  -1  -3 291.523 8.07239   1
   4  -2  -3 126.227 5.37062   2
   4   2   3 138.504 6.89283   4
  -4   2  -3 132.274 6.00529   1
  -2  -4  -3 128.753 6.01360   1
  -4   2  -3 121.700 6.14485   4
   2  -4   3 129.350 4.39942   4
   4  -2  -3 120.819 6.84413   4
  -2   4   3 120.031 6.73993   4
   4  -2  -3 127.401 6.01614   1
   2   4  -3 119.183 5.93213   5
  -2  -4  -3 129.606 5.27317   2
   2   4  -3 127.482 5.98830   1
  -4   2  -3 122.277 7.18800   6
  -4  -2   3 134.899 6.00496   4
   4   2  -3 131.802 6.05322   5
  -2   4  -3 139.341 7.26673   5
   4  -2   3 121.474 6.05666   4
   2  -4  -3 122.707 6.92851   4
   4   2  -3 131.121 6.30236   4
  -4   2   3 126.422 6.77611   4
   4   2  -3 132.716 5.95036   1
   2  -4  -3 124.168 6.05978   1
  -4  -2  -3 126.404 5.96039   1
  -4  -2  -3 135.809 6.06955   6
   2  -4  -3 119.560 5.39126   2
  -2   4  -3 121.659 5.86458   1
  -2   4  -3 126.237 7.15671   6
  -4  -2  -3 124.705 5.24867   2
  -2   4  -3 128.260 4.63833   4
  -4  -2  -3 136.842 6.91150   3
  -3   4   3 603.100 14.7876   4
   3   4  -3 636.062 12.3084   4
  -4  -3   3 611.446 13.0125   4
   3   4  -3 645.490 13.9645   1
   3   4  -3 663.235 13.7142   5
  -3  -4  -3 614.248 13.8946   1
   4  -3  -3 629.521 15.0250   4
  -3  -4  -3 619.229 12.8950   6
  -4   3  -3 620.536 13.8431   1
  -4   3  -3 625.902 13.8085   4
   4  -3  -3 620.897 14.0246   1
   4  -3  -3 621.909 13.1729   2
  -3  -4  -3 641.635 13.0238   2
   3  -4   3 625.330 12.4290   4
  -4  -3  -3 627.226 13.0045   6
  -4  -3  -3 623.943 14.2631   3
   3  -4  -3 621.331 13.1031   2
   3  -4  -3 647.257 14.0189   1
   4   3  -3 628.380 13.4649   4
  -3   4  -3 641.620 13.9950   1
  -4  -3  -3 643.757 13.8742   1
   4   3  -3 632.429 13.6090   5
   3  -4  -3 610.651 14.8193   4
  -4   3   3 584.469 14.7836   4
  -4  -3  -3 612.950 13.0181   2
   4  -3   3 603.327 13.3917   4
  -3   4  -3 629.584 12.8599   4
   4   3  -3 611.074 13.7768   1
  -3  -4   3 613.745 11.8054   4
  -4  -4  -3 1.51883 3.01021   1
   4  -4   3 -1.3927 2.44824   4
   4   4  -3 -1.5053 2.62810   4
  -4   4  -3 -6.3886 2.47260   4
  -4  -4  -3 1.34960 2.47205   2
   4   4  -3 -6.8822 2.56567   1
  -4  -4  -3 -3.6088 3.09375   3
   4  -4  -3 -1.5044 3.07498   4
   4   4   3 -1.2717 2.76579   2
  -4   4   3 0.26597 3.10098   4
   4  -4   3 -3.0161 2.77031   2
   4   4  -3 2.12564 2.90602   5
  -4  -4   3 -3.0061 2.25890   4
   4  -4  -3 -4.2189 2.70629   1
   4  -4  -3 -0.5717 2.54338   2
  -4   4  -3 -7.9554 2.66423   1
  -4  -4  -3 -2.0794 2.31242   6
   0   5  -3 -8.4722 2.88873   5
   0   5  -3 -2.9245 2.74066   6
   0  -5  -3 -1.4967 2.25276   2
  -5   0  -3 2.96145 2.98873   1
   5   0  -3 -1.8867 3.00640   4
   5   0  -3 -4.1002 2.37245   2
   0  -5  -3 -3.2855 2.61618   1
  -5   0   3 -8.5790 2.65813   4
   5   0  -3 -5.2287 2.70637   1
   0   5  -3 -4.1356 2.66624   1
  -5   0  -3 -3.3061 3.13226   6
   0   5   3 -1.8049 2.78067   4
   5   0   3 -2.7915 2.75920   4
  -1  -5  -3 15.3362 2.95733   2
   1   5  -3 19.4196 3.25499   6
   5  -1  -3 16.1619 3.92219   4
  -5   1  -3 13.4664 3.21076   1
  -5   1  -3 20.8409 3.60290   4
   1   5  -3 15.7417 3.55215   5
   5  -1  -3 14.3827 3.36423   1
  -5   1  -3 10.8907 3.82495   6
   1   5  -3 19.5372 3.48916   1
   5   1   3 17.6599 3.80508   4
   5  -1  -3 17.1172 2.99837   2
  -1  -5  -3 19.0107 3.52760   1
  -1   5   3 18.2845 3.71479   4
  -5  -1   3 16.2093 3.68722   4
   1  -5  -3 15.9247 3.49326   1
   5   1  -3 18.4709 3.13773   2
  -5  -1  -3 13.9207 3.47599   1
   1  -5  -3 16.8448 3.03796   2
   5   1  -3 21.8126 3.61262   1
   5   1  -3 14.7452 3.71566   4
  -5   1   3 14.3635 3.81267   4
  -5  -1  -3 16.6693 3.59864   6
   1  -5  -3 19.7186 3.72923   4
  -1   5  -3 21.0387 4.17602   5
  -1   5  -3 14.4968 3.74630   6
   5  -1   3 14.6145 3.54191   4
  -1   5  -3 16.8058 3.55485   1
   1   5   3 16.4844 3.48441   4
   2   5  -3 253.554 8.29948   5
  -5   2  -3 269.211 8.90570   1
  -5  -2   3 266.679 8.76063   4
   2   5  -3 253.571 8.78394   1
  -2   5   3 280.010 9.63270   4
   5  -2  -3 275.892 8.20194   2
   5  -2  -3 274.685 9.87786   4
  -2  -5  -3 275.582 8.81164   1
   5  -2  -3 265.606 8.78658   1
  -5   2  -3 257.225 9.89711   6
  -5   2  -3 267.187 9.33992   4
  -2  -5  -3 262.407 8.02161   2
   5   2   3 271.642 9.80222   4
   2  -5   3 267.918 6.30029   4
  -2   5  -3 266.419 8.76029   1
  -5   2   3 296.485 10.0317   4
  -5  -2  -3 269.687 8.77690   1
   2  -5  -3 262.139 9.36817   4
   5   2  -3 276.332 9.14733   4
  -2   5  -3 281.796 6.83090   4
  -5  -2  -3 286.257 8.48246   6
   2  -5  -3 264.034 8.79702   1
   5   2  -3 280.015 8.68960   1
   2  -5  -3 272.881 8.81549   1
   2  -5  -3 273.317 8.17558   2
  -2   5  -3 296.172 10.0427   6
   5  -2   3 270.022 9.02440   4
  -3  -5  -3 16.7886 3.13043   2
   3  -5   3 21.1335 2.82774   4
   3   5  -3 22.3946 3.50654   5
  -5   3  -3 13.6521 3.66588   1
  -3   5   3 18.3174 3.88424   4
  -5  -3   3 20.1577 3.30411   4
   3  -5   3 22.9099 3.67381   2
  -3  -5  -3 19.9216 3.72964   1
   5   3   3 18.5988 3.66590   2
   3   5  -3 14.0609 3.57662   1
   5  -3  -3 21.9036 3.31231   2
   3   5  -3 18.2785 2.81238   4
  -5   3  -3 19.4854 3.74105   4
   5  -3  -3 21.3070 3.73940   1
  -3   5  -3 21.9220 3.95362   1
  -3  -5   3 17.8809 3.63937   2
   3  -5  -3 16.7404 3.24984   2
  -5  -3  -3 23.6299 3.99279   1
   5  -3   3 17.8962 3.54084   2
   3  -5  -3 22.2609 4.12712   4
   5   3  -3 21.7948 3.82552   4
   3  -5  -3 15.7014 3.55826   1
  -3   5  -3 21.5965 3.18972   4
   5  -3   3 16.8014 3.33451   4
   5   3  -3 28.1715 4.10018   1
  -5  -3  -3 23.0984 3.32838   6
  -5  -3  -3 19.5404 3.26278   2
  -5   3   3 23.1083 4.10380   4
   5   3  -3 24.7827 3.82377   5
  -4  -5  -3 15.8666 3.82162   1
   5  -4  -3 21.6276 3.63162   2
   4   5  -3 16.9267 3.55549   5
   5  -4  -3 22.8860 4.03970   1
   4   5  -3 15.8766 3.95470   1
  -5  -4   3 21.6794 3.38195   4
   4  -5   3 16.9349 3.20439   4
  -5   4  -3 19.3869 4.05639   1
  -4   5   3 18.3516 4.32274   4
  -4  -5  -3 18.1988 3.96666   3
  -5   4  -3 12.2565 3.70158   4
  -4  -5  -3 22.5777 3.64249   2
   4   5  -3 24.4512 3.67966   4
   5  -4   3 19.0936 3.72631   4
   4  -5  -3 24.3060 4.15201   1
  -5  -4  -3 9.55062 3.67595   1
  -4   5  -3 19.7211 3.69596   4
  -4   5  -3 19.0865 4.02757   1
   5   4  -3 23.1301 3.88729   4
  -5   4   3 23.1284 4.31170   4
  -5  -4  -3 13.3282 3.33784   2
   5   4  -3 22.1503 4.06852   1
  -5  -4  -3 20.3855 4.26367   3
   4  -5  -3 15.6328 3.39082   2
  -5  -4  -3 20.0522 3.20528   6
   5   4  -3 19.1765 3.72061   5
  -5   5  -3 1.68316 3.30032   1
   5   5  -3 -0.3842 3.20537   4
  -5   5  -3 3.81510 3.48387   4
   5  -5  -3 -0.8657 2.68998   2
   5  -5   3 -1.4860 2.74183   4
  -5  -5  -3 0.37951 3.40140   3
  -5  -5  -3 -1.7385 2.51534   2
   5  -5  -3 -0.6342 3.05859   1
  -5  -5  -3 0.15482 3.11665   1
   5   5  -3 -4.1590 3.12200   1
   5   5  -3 -2.3781 2.72515   5
   0  -6   3 499.137 12.4298   2
   6   0  -3 493.271 12.8224   1
  -6   0  -3 487.417 13.1479   6
   0   6  -3 482.791 12.6211   1
   6   0  -3 499.627 11.9464   2
  -6   0  -3 478.552 12.4814   1
   0  -6  -3 477.470 11.7855   2
   0   6  -3 482.945 12.0816   6
   0   6  -3 492.488 12.7576   5
   0   6   3 485.976 12.9675   4
   6   0   3 508.241 13.6976   4
   0  -6  -3 465.448 12.6143   1
  -6   0   3 515.114 13.6037   4
   6   0  -3 482.939 13.5689   4
  -1  -6  -3 169.901 7.03266   2
  -1  -6  -3 182.994 7.88588   1
   1   6  -3 187.247 6.76074   6
   6  -1  -3 189.248 7.20476   2
  -6   1  -3 161.673 8.22296   4
  -1   6   3 167.469 7.94332   4
  -6   1  -3 182.265 8.74097   6
  -6  -1   3 180.757 8.27163   4
   1   6  -3 183.102 7.92104   1
  -6   1  -3 180.786 7.86775   1
   6  -1  -3 179.040 7.71435   1
   6   1  -3 158.611 8.41184   4
   1  -6  -3 176.225 6.97879   2
  -6   1   3 184.100 8.62319   4
  -1   6  -3 177.810 7.98642   6
   6   1  -3 183.844 8.03002   1
   1   6   3 183.869 8.07896   4
   6   1  -3 176.792 7.09805   2
  -1  -6   3 180.331 7.83556   2
  -6  -1  -3 188.705 7.91079   1
  -1   6  -3 180.437 7.84745   1
   1  -6  -3 172.364 7.78577   1
   6  -1   3 185.151 8.43540   4
  -6  -1  -3 184.711 7.62437   6
   2   6  -3 155.677 7.61605   1
  -2  -6  -3 136.264 6.57556   2
   6  -2  -3 141.366 6.75671   2
   2  -6   3 148.812 4.71640   4
   2   6  -3 149.780 6.85549   5
  -6   2  -3 132.990 7.84116   4
  -6  -2   3 150.460 7.66305   4
  -2  -6  -3 130.598 7.20168   1
  -6   2  -3 148.780 7.54260   1
   6  -2  -3 148.672 7.50461   1
  -2   6   3 127.286 7.57610   4
   2   6  -3 149.029 5.76798   6
   2  -6  -3 145.973 6.92116   2
   2   6   3 144.194 7.83252   4
   6   2  -3 155.014 7.51463   1
   6   2  -3 158.005 6.89425   2
  -6  -2  -3 149.168 7.45058   1
   6  -2   3 147.888 7.70501   4
  -6  -2  -3 147.528 6.83383   6
   2  -6  -3 157.809 7.29159   1
  -6   2   3 144.549 8.18535   4
  -2   6  -3 155.032 5.63909   4
   6   2  -3 147.100 7.84265   4
   2  -6  -3 139.718 7.25354   1
  -2   6  -3 140.921 7.41834   1
   6  -3  -3 68.7800 5.74335   1
   6  -3  -3 65.2937 5.13091   2
  -6   3  -3 65.0383 5.79460   1
  -3  -6  -3 68.1459 5.03479   3
  -6   3  -3 62.5493 5.65959   4
  -3   6   3 62.5347 5.80686   4
  -3  -6  -3 49.3359 4.61721   2
  -3  -6  -3 60.8670 5.56494   1
   3   6  -3 64.4658 5.67003   1
  -6  -3   3 55.7785 5.17962   4
   3   6  -3 69.1768 5.17903   5
   6   3  -3 65.2944 5.73139   4
   6   3  -3 58.4011 5.11841   5
   6   3  -3 61.1898 5.52113   1
  -3   6  -3 60.3549 4.54918   4
   3  -6  -3 73.9713 5.73464   2
  -6  -3  -3 51.7298 5.22354   1
   3  -6  -3 60.0309 5.44126   1
   6  -3   3 59.5654 5.26681   4
  -6   3   3 57.7982 6.34129   4
  -3   6  -3 59.1157 5.45976   1
  -6  -3  -3 67.7833 4.90798   6
  -4  -6  -3 19.1329 3.72922   3
  -4  -6  -3 20.6012 4.29890   1
   4   6  -3 15.6539 3.48132   5
  -6  -4   3 8.83117 3.33496   4
   6  -4  -3 13.2490 3.78514   1
   6  -4  -3 16.8328 3.75729   2
  -6   4  -3 10.2749 3.90759   4
  -6   4  -3 10.7173 3.91957   1
   4   6  -3 12.3361 3.99400   1
  -4  -6  -3 11.3943 3.53199   2
   6  -4   3 11.1802 3.75654   4
   6   4  -3 19.4857 4.25941   1
  -4   6  -3 27.4186 4.02371   4
  -4   6  -3 13.0523 4.11748   1
  -6  -4  -3 19.7937 4.29771   1
   6   4  -3 19.8118 4.31404   4
   6   4  -3 14.3139 3.68237   5
   4  -6  -3 19.9679 3.78461   2
  -6  -4  -3 19.1407 3.91802   2
   4  -6  -3 13.2889 3.88566   1
  -6   5  -3 98.3424 7.64336   4
   6  -5  -3 82.3494 6.26211   2
  -5  -6  -3 93.0754 6.87249   3
  -6   5  -3 84.5562 7.05074   1
  -5  -6  -3 87.2413 6.92562   1
  -5  -6  -3 84.7011 6.51485   2
   5   6  -3 98.6919 7.53026   1
  -6  -5   3 86.1247 6.33108   4
   6  -5  -3 78.4359 6.82451   1
   6  -5   3 94.0993 6.81585   4
   5  -6  -3 79.7201 6.12847   2
  -6  -5  -3 82.8576 6.69186   1
  -5   6  -3 84.8874 6.92452   1
   6   5  -3 93.0267 6.82576   4
  -6  -5  -3 83.9322 6.27585   2
  -6  -5  -3 89.3763 7.11709   3
   5  -6  -3 99.2472 7.36914   1
  -5   6  -3 98.1572 6.87860   4
  -5   6  -3 81.3851 6.20761   3
   6   5  -3 85.5181 6.93308   1
  -6  -6  -3 -0.1566 3.41483   2
   6  -6  -3 -3.8641 3.17241   2
  -6   6  -3 -1.8622 3.88381   4
   6  -6  -3 -2.8063 3.92846   1
  -6   6  -3 -2.9802 3.82349   1
  -6  -6  -3 -0.2140 3.99018   3
  -6  -6  -3 2.14536 3.90845   1
   6   6  -3 -5.7137 3.55411   1
   0   7  -3 -2.1910 3.06782   6
   7   0  -3 0.23491 3.28458   1
  -7   0  -3 -7.4737 3.24447   6
   0  -7  -3 2.74537 3.36207   1
  -7   0  -3 -1.2786 3.25907   1
   0   7  -3 1.84588 3.25993   1
  -7   0   3 2.24226 3.63773   4
   0   7   3 -0.7087 3.13649   4
   0  -7  -3 -1.1765 2.77156   2
   7   0  -3 1.09934 3.01880   2
   1   7  -3 1.93553 3.47422   5
   7  -1  -3 2.42797 3.49382   1
  -7   1  -3 6.44346 3.74493   1
  -7   1  -3 6.78054 3.90904   6
  -1  -7  -3 6.06808 3.06513   2
   7  -1  -3 5.47296 3.16568   2
  -7   1  -3 5.33479 3.53432   4
   1   7  -3 1.18151 2.90716   6
  -1   7   3 2.52173 3.31035   4
  -1  -7  -3 4.69668 3.37091   1
  -7  -1   3 6.43075 3.63128   4
   1   7  -3 2.67464 3.46966   1
   7   1  -3 -1.0869 2.88709   2
   1   7   3 3.23107 3.41154   4
  -1   7  -3 13.0639 3.79525   6
  -7  -1  -3 3.08973 3.47820   6
   1  -7  -3 -1.3097 3.23743   1
  -7  -1  -3 -0.9087 3.41974   1
   1  -7  -3 1.38607 2.86997   2
  -1   7  -3 5.12253 3.50463   1
   7   1  -3 8.06676 3.73785   1
   7  -2  -3 198.458 8.98020   1
  -7  -2   3 193.904 9.16806   4
  -7   2  -3 209.745 8.95209   1
  -2  -7  -3 191.399 8.85734   1
   7  -2  -3 199.488 8.42544   2
   2   7  -3 193.794 8.96496   1
   2   7  -3 190.643 7.93781   5
  -7   2  -3 202.667 9.64068   4
  -2  -7  -3 188.547 8.13746   2
  -2   7  -3 195.139 9.04883   1
   7   2  -3 225.758 8.49981   2
   2  -7  -3 207.526 9.09467   1
  -7  -2  -3 200.091 8.02876   6
   7   2  -3 188.999 8.71947   1
   2  -7  -3 197.646 8.31157   2
   2   7   3 188.148 9.45797   4
   2  -7  -3 199.100 8.97412   1
  -7  -2  -3 191.877 8.73053   1
  -7   3  -3 34.2540 5.04645   1
   3   7  -3 33.8176 5.06743   1
  -3  -7  -3 23.9870 4.81500   1
  -3  -7  -3 30.0643 4.40213   2
  -7   3  -3 29.4134 5.12319   4
   7  -3  -3 20.6116 4.09878   2
  -7  -3   3 23.6927 4.29370   4
   3   7  -3 28.5368 4.03469   5
   7  -3  -3 26.5567 4.69199   1
  -7  -3  -3 34.8457 4.12243   6
   7   3  -3 34.9810 4.69182   5
  -7  -3  -3 31.3241 5.05815   1
  -3   7  -3 34.8501 5.12877   1
   3  -7  -3 29.5074 4.33477   2
   7   3  -3 34.2051 5.08174   1
   3  -7  -3 26.9087 4.82853   1
  -4  -7  -3 115.808 7.99546   1
   4   7  -3 111.495 8.06410   1
   7  -4  -3 116.838 8.05527   1
  -7   4  -3 132.265 8.56357   4
  -7  -4   3 108.617 7.41500   4
  -7   4  -3 106.972 8.01425   1
  -4  -7  -3 119.097 7.43260   2
   7  -4  -3 128.265 7.59168   2
   4  -7  -3 123.022 7.58587   2
  -7  -4  -3 95.8074 7.34296   1
  -4   7  -3 115.070 7.87620   1
   4  -7  -3 101.573 7.50142   1
   7   4  -3 116.243 8.20854   1
   7   4  -3 120.385 6.94230   5
  -7  -4  -3 113.185 7.35314   2
   7  -5  -3 96.1557 7.83503   1
  -7  -5   3 111.681 7.36133   4
  -5  -7  -3 90.5029 6.71866   2
  -5  -7  -3 92.0269 7.66479   1
   7  -5  -3 106.760 7.68437   2
   5   7  -3 81.1891 7.21542   1
  -7   5  -3 99.7560 7.79688   1
  -7   5  -3 101.137 7.78493   4
  -7  -5  -3 96.1867 7.00558   2
   5  -7  -3 102.570 7.49396   2
   7   5  -3 82.0252 7.33867   1
   5  -7  -3 94.4528 7.80162   1
  -5   7  -3 100.290 7.90599   1
  -7  -5  -3 102.432 7.76597   1
  -6  -7  -3 -1.5395 3.63761   2
  -7   6  -3 5.46601 4.59019   1
   7  -6  -3 -0.2542 4.35048   1
   6   7  -3 1.04213 4.26393   1
  -6  -7  -3 -0.8407 4.34211   3
   7  -6  -3 3.97830 3.85679   2
  -6  -7  -3 -1.8073 4.47376   1
   7   6  -3 2.05028 4.44674   1
  -7  -6  -3 -3.5632 4.43910   3
  -7  -6  -3 2.77049 3.81637   2
  -7  -6  -3 -6.1254 3.69873   1
   6  -7  -3 -3.6393 3.84568   1
   6  -7  -3 4.12368 3.97346   2
  -6   7  -3 4.18846 4.50459   1
   7   7  -3 -1.9748 4.61598   1
  -7  -7  -3 -1.8480 4.42459   3
   7  -7  -3 6.92749 4.40057   2
   7  -7  -3 -5.0491 4.63543   1
  -7   7  -3 -0.4544 4.73027   1
  -7  -7  -3 1.07979 3.95669   2
  -7  -7  -3 -3.4272 4.62357   1
   0  -8  -3 385.088 11.6582   2
   0   8  -3 366.366 12.3640   1
   0  -8  -3 375.993 12.2998   1
   0   8  -3 343.642 11.0338   6
  -8   0  -3 389.365 12.7381   6
  -8   0  -3 361.747 12.4881   1
   8   0  -3 359.483 11.5027   2
   8   0  -3 342.468 12.2200   1
  -8   1  -3 5.74893 4.40963   6
   8  -1  -3 0.34056 3.89407   1
   8  -1  -3 3.40149 3.35662   2
   1   8  -3 0.03377 3.66384   1
  -8   1  -3 -4.8357 3.52348   1
  -1  -8  -3 1.60726 3.97007   1
  -1  -8  -3 1.76868 3.36106   2
  -8  -1  -3 4.23968 3.85696   1
  -1   8  -3 -4.8339 3.64661   1
   8   1  -3 -0.1654 3.13500   2
  -8  -1  -3 -2.7265 3.59779   6
   8   1  -3 1.68500 3.87105   1
   1  -8  -3 1.33649 3.24959   2
   1  -8  -3 -1.3432 3.51428   1
  -1   8  -3 5.50148 3.77146   6
  -2  -8  -3 18.7908 4.24983   2
  -2  -8  -3 9.35560 4.49023   1
   8  -2  -3 18.4572 4.15152   2
   8  -2  -3 12.5074 4.64573   1
   2   8  -3 13.2574 4.68567   1
  -8   2  -3 24.1401 5.26419   1
   8   2  -3 11.7696 3.97363   2
   2  -8  -3 21.4554 4.24371   2
   8   2  -3 19.5522 4.90059   1
  -8  -2  -3 16.8256 4.83467   1
   2  -8  -3 14.5570 4.46923   1
  -8  -2  -3 21.4994 4.35872   6
  -2   8  -3 23.9271 5.08982   1
   2  -8  -3 24.7571 4.90238   1
   3   8  -3 26.2420 5.15905   1
  -3  -8  -3 34.8725 5.47093   1
   8  -3  -3 29.8023 5.36113   1
  -3  -8  -3 31.2710 4.78737   2
  -8   3  -3 28.4587 5.37121   1
   8  -3  -3 34.9142 5.01926   2
   3  -8  -3 32.9051 4.83066   2
   8   3  -3 25.0763 5.28577   1
  -8  -3  -3 23.9900 5.23586   1
   3  -8  -3 37.9619 5.45399   1
  -3   8  -3 23.5139 5.05427   1
  -8   4  -3 -0.7399 4.21534   1
   8  -4  -3 4.57520 3.86810   2
  -4  -8  -3 3.33840 3.68711   2
   4   8  -3 0.68417 4.53242   1
   8  -4  -3 5.20045 4.38412   1
  -4  -8  -3 5.48864 4.57843   1
  -8  -4  -3 1.99205 4.46102   1
   4  -8  -3 8.82301 4.03236   2
  -4   8  -3 -1.6145 4.19940   1
   4  -8  -3 3.02582 4.44625   1
   8   4  -3 2.27315 4.38366   1
  -8  -4  -3 2.87754 3.71579   2
   8  -5  -3 43.1548 6.35954   1
  -5  -8  -3 44.2605 6.43288   1
  -5  -8  -3 55.0053 5.96934   2
   5   8  -3 44.8235 6.51015   1
   8  -5  -3 40.1201 5.63982   2
  -8   5  -3 42.3991 6.57146   1
   5  -8  -3 44.1179 6.51075   1
   5  -8  -3 44.5719 5.81846   2
   8   5  -3 31.2530 5.96757   1
  -8  -5  -3 44.7385 5.83644   2
  -8  -5  -3 42.2600 6.35541   1
  -5   8  -3 39.4081 6.43179   1
  -6  -8  -3 296.475 11.9660   2
  -8   6  -3 314.958 13.3255   1
   8  -6  -3 280.414 12.9959   1
   8  -6  -3 292.574 12.1117   2
  -6  -8  -3 316.929 13.3221   1
   6   8  -3 316.587 13.0528   1
   8   6  -3 297.651 12.8432   1
   6  -8  -3 300.957 12.1857   2
   6  -8  -3 291.028 13.0561   1
  -8  -6  -3 316.993 12.2522   2
  -8  -6  -3 308.858 13.0343   1
  -6   8  -3 318.862 13.3901   1
   8  -7  -3 48.5826 6.57980   2
  -8   7  -3 61.1552 7.79552   1
   8  -7  -3 49.9752 7.24591   1
  -7  -8  -3 46.3506 7.08028   1
   7   8  -3 36.5468 6.62555   1
  -7  -8  -3 45.8059 6.27245   2
  -7   8  -3 36.5367 7.01075   1
  -8  -7  -3 54.1272 7.32068   1
  -8  -7  -3 44.1477 6.18369   2
   8   7  -3 45.8333 7.06573   1
   7  -8  -3 48.7910 7.24105   1
   7  -8  -3 40.8546 6.12130   2
  -8  -7  -3 45.7024 6.96009   3
  -8  -8  -3 0.55980 5.65204   1
  -8  -8  -3 -5.2154 4.27165   2
   8   8  -3 10.1988 5.95335   1
  -8   8  -3 -5.5154 5.30440   1
   8  -8  -3 -4.8604 4.55910   2
   8  -8  -3 4.72642 5.72611   1
   9   0  -3 -2.9276 3.50262   2
   0   9  -3 -4.0255 4.45880   1
   0  -9  -3 -1.2480 4.19015   1
  -9   0  -3 3.29787 4.49924   1
   9   0  -3 5.62542 4.62635   1
  -9   0  -3 -1.5118 4.15201   6
   0  -9  -3 -4.0353 3.43354   2
   1   9  -3 87.5236 7.65597   1
  -1  -9  -3 81.8351 7.47120   1
  -1  -9  -3 84.8040 6.95441   2
   9  -1  -3 89.4196 7.17294   2
  -9   1  -3 88.3710 8.09085   6
  -9   1  -3 88.2050 7.74230   1
   9  -1  -3 82.8673 7.78031   1
  -1   9  -3 97.2971 8.00508   1
   9   1  -3 96.7509 8.07393   1
   1  -9  -3 86.6230 6.82095   2
   9   1  -3 94.7079 7.17084   2
  -9  -1  -3 88.4309 7.60848   1
  -1   9  -3 88.2951 7.33854   6
  -9  -1  -3 90.3739 7.41848   6
   1  -9  -3 104.060 8.01793   1
  -2  -9  -3 -1.3246 4.44007   1
  -9   2  -3 0.25506 4.44368   1
  -2  -9  -3 -3.8005 3.71738   2
   9  -2  -3 -6.4410 4.42810   1
   9  -2  -3 0.35980 3.78298   2
   2   9  -3 -4.9643 4.40347   1
   9   2  -3 -2.3755 3.66284   2
   2  -9  -3 -3.4808 3.60514   2
   2  -9  -3 0.26819 4.30969   1
   9   2  -3 -4.5926 4.13436   1
  -9  -2  -3 3.65875 4.42360   1
   2  -9  -3 1.52104 4.40366   1
  -2   9  -3 3.66265 4.52872   1
   9  -3  -3 44.0517 5.85444   2
  -3  -9  -3 45.1704 6.44640   1
  -3  -9  -3 50.2850 5.92590   2
   3   9  -3 59.2583 7.03691   1
  -9   3  -3 42.3564 6.45892   1
   9  -3  -3 52.0555 6.86064   1
  -3   9  -3 38.8108 6.30666   1
   9   3  -3 44.8915 6.49148   1
   3  -9  -3 41.5821 5.59810   2
  -9  -3  -3 49.2524 6.68624   1
   9   3  -3 46.4756 5.83944   2
   3  -9  -3 41.7661 6.30555   1
  -4  -9  -3 177.837 9.78944   2
  -9   4  -3 170.825 10.6091   1
   9  -4  -3 175.124 10.2109   1
   4   9  -3 151.602 10.2563   1
  -4  -9  -3 169.966 10.5430   1
   9  -4  -3 190.357 10.2059   2
  -9  -4  -3 176.406 10.4622   1
   4  -9  -3 180.502 10.7807   1
  -4   9  -3 185.884 10.9408   1
   9   4  -3 181.649 10.4371   1
   4  -9  -3 162.292 9.73285   2
   9  -5  -3 39.2814 6.69912   1
   5   9  -3 51.4056 7.29713   1
  -5  -9  -3 39.6152 5.95589   2
  -5  -9  -3 49.3441 7.19396   1
   9  -5  -3 53.1994 6.50429   2
  -9   5  -3 41.4672 6.83036   1
   9   5  -3 56.4707 7.33849   1
  -9  -5  -3 42.3631 6.03848   2
   5  -9  -3 44.0425 6.63368   1
  -5   9  -3 56.8339 7.43803   1
   5  -9  -3 45.1439 6.34643   2
  -9  -5  -3 36.8919 6.76252   1
  -9   6  -3 100.474 9.31746   1
  -6  -9  -3 134.707 10.4614   1
  -6  -9  -3 125.600 9.26800   2
   9  -6  -3 112.213 8.81746   2
   6   9  -3 115.438 9.77081   1
   9  -6  -3 126.739 10.0265   1
  -9  -6  -3 150.271 10.7207   1
  -9  -6  -3 121.956 9.45176   2
   6  -9  -3 126.388 9.62916   2
   6  -9  -3 107.938 9.53514   1
  -6   9  -3 121.219 9.85337   1
   9   6  -3 121.800 9.92839   1
   9  -7  -3 28.6790 6.95453   1
  -9   7  -3 36.9243 7.32349   1
   9  -7  -3 27.5394 6.19110   2
  -7  -9  -3 27.6440 5.97158   2
   7   9  -3 32.7885 7.29499   1
  -7  -9  -3 29.1675 6.76664   1
  -9  -7  -3 37.6494 7.24340   3
  -7   9  -3 30.6921 6.81593   1
  -9  -7  -3 28.1822 6.07105   2
  -9  -7  -3 18.1402 6.08276   1
   7  -9  -3 36.0294 6.31731   2
   7  -9  -3 39.3178 7.45089   1
   9   7  -3 27.0541 6.99725   1
  -9   8  -3 0.49089 5.99019   1
  -8  -9  -3 -0.1792 5.73955   1
   9  -8  -3 2.86401 6.21518   1
   8   9  -3 11.4316 6.55479   1
  -8  -9  -3 -2.6198 4.60690   2
   9  -8  -3 1.43558 4.89587   2
   8  -9  -3 6.87711 5.37657   2
  -8   9  -3 -0.0185 6.02951   1
   8  -9  -3 5.78791 6.26796   1
   9   8  -3 11.8637 6.34028   1
  -9  -8  -3 -0.1160 5.86496   1
  -9  -8  -3 6.41714 5.12978   2
  -9  -9  -3 -2.9482 5.04585   2
   9  -9  -3 -2.7394 5.17336   2
   9   9  -3 10.4025 6.69015   1
   9  -9  -3 -0.4539 6.00371   1
  -9   9  -3 4.74987 6.22630   1
  -9  -9  -3 5.27064 6.48893   1
   0 -10  -3 151.814 10.3863   1
   0 -10  -3 148.543 9.16538   2
 -10   0  -3 134.457 9.71116   6
  10   0  -3 127.610 9.93859   1
   0  10  -3 157.395 10.4610   1
  10   0  -3 137.603 9.30440   2
 -10   0  -3 134.181 10.1763   1
  -1 -10  -3 4.77692 4.75097   1
  -1 -10  -3 1.88626 4.32728   2
  10  -1  -3 4.48538 4.97893   1
   1  10  -3 8.41849 5.17097   1
  10  -1  -3 6.01939 4.49707   2
 -10   1  -3 12.5850 5.21328   6
 -10   1  -3 4.50820 4.87192   1
  10   1  -3 5.35730 4.22168   2
  10   1  -3 8.06811 4.96422   1
   1 -10  -3 -0.1175 4.03975   2
 -10  -1  -3 9.15229 5.05539   1
   1 -10  -3 8.29480 5.03873   1
  -1  10  -3 5.75958 4.96478   1
   1 -10  -3 3.19261 4.70575   1
 -10   2  -3 -3.3378 4.75250   1
  -2 -10  -3 8.91716 4.45758   2
  -2 -10  -3 -4.2939 4.59741   1
   2  10  -3 -1.0550 5.07345   1
  10  -2  -3 -1.4841 4.05547   2
  10  -2  -3 1.90637 5.12923   1
   2 -10  -3 -8.5305 4.31569   1
 -10  -2  -3 3.38342 4.85011   1
   2 -10  -3 1.17094 4.10776   2
  -2  10  -3 -0.2175 4.70536   1
   2 -10  -3 1.08220 4.72634   1
  10   2  -3 -5.0796 4.50680   1
  10   2  -3 -2.5775 4.11391   2
  -3 -10  -3 299.289 13.2517   1
  10  -3  -3 268.958 12.1911   2
  -3 -10  -3 291.877 12.3891   2
 -10   3  -3 310.263 13.6296   1
  10  -3  -3 314.370 13.7937   1
   3  10  -3 297.063 13.3943   1
 -10  -3  -3 301.062 13.5222   1
   3 -10  -3 277.312 12.2009   2
  10   3  -3 294.740 12.2624   2
  10   3  -3 295.871 13.2482   1
  -3  10  -3 317.929 13.7273   1
   3 -10  -3 296.868 13.4052   1
  -4 -10  -3 88.9685 7.83877   2
  10  -4  -3 100.644 8.22680   2
   4  10  -3 89.3859 9.07162   1
  -4 -10  -3 91.6278 8.93794   1
  10  -4  -3 84.9947 8.81922   1
 -10   4  -3 87.4832 8.98351   1
  -4  10  -3 106.442 9.39304   1
 -10  -4  -3 92.6511 9.21700   1
   4 -10  -3 93.7267 8.93666   1
  10   4  -3 86.6964 8.74834   1
   4 -10  -3 103.186 8.19627   2
  -5 -10  -3 148.248 10.1704   2
  -5 -10  -3 183.967 11.7720   1
  10  -5  -3 171.060 11.5582   1
 -10   5  -3 153.691 10.9197   1
   5  10  -3 177.969 11.7862   1
  10  -5  -3 152.360 10.3007   2
  10   5  -3 157.169 10.8922   1
  -5  10  -3 164.368 11.5291   1
 -10  -5  -3 147.285 10.2285   2
 -10  -5  -3 158.532 11.0632   1
   5 -10  -3 162.532 11.2581   1
   5 -10  -3 154.760 10.3770   2
  -6 -10  -3 36.5559 6.31358   2
 -10   6  -3 47.8408 7.65363   1
   6  10  -3 46.0672 7.95331   1
  -6 -10  -3 36.9945 7.20018   1
  10  -6  -3 42.4489 6.74995   2
  10  -6  -3 36.1698 7.36200   1
 -10  -6  -3 29.6996 6.32002   2
  10   6  -3 44.4733 7.63847   1
   6 -10  -3 35.7268 7.34678   1
   6 -10  -3 44.1662 6.73364   2
  -6  10  -3 48.4956 7.73308   1
 -10  -6  -3 33.0312 7.00185   1
  10  -7  -3 5.88640 5.42814   2
  -7 -10  -3 13.3137 5.44848   2
  -7 -10  -3 5.31394 6.16371   1
  10  -7  -3 6.91697 6.12800   1
   7  10  -3 5.63825 5.99942   1
 -10   7  -3 17.1194 6.56575   1
  10   7  -3 10.4843 6.54294   1
  -7  10  -3 4.19494 6.22370   1
   7 -10  -3 12.4149 6.29529   1
 -10  -7  -3 3.44390 5.99921   1
 -10  -7  -3 9.48067 5.47911   2
   7 -10  -3 16.0531 5.86729   2
 -10  -7  -3 11.8343 6.84235   3
  10  -8  -3 -3.4759 5.27947   2
  10  -8  -3 7.40145 6.55891   1
  -8 -10  -3 -3.0048 6.15953   1
 -10   8  -3 1.50754 6.49652   1
  -8 -10  -3 -5.6802 4.82638   2
   8  10  -3 -1.5981 6.18824   1
 -10  -8  -3 1.83124 4.99695   2
   8 -10  -3 2.70805 6.12825   1
   8 -10  -3 5.81341 5.19267   2
  10   8  -3 13.2068 6.70667   1
 -10  -8  -3 2.71604 6.51081   1
  -8  10  -3 -0.0440 6.41591   1
  10  -9  -3 171.861 12.1781   2
  -9 -10  -3 156.544 11.8421   2
 -10   9  -3 146.490 12.5337   1
  10  -9  -3 142.851 12.3832   1
  -9 -10  -3 158.165 12.7123   1
   9  10  -3 146.223 12.5275   1
   9 -10  -3 158.552 11.8241   2
   9 -10  -3 134.567 11.7937   1
  -9  10  -3 142.248 12.2029   1
 -10  -9  -3 149.340 12.2708   1
  10   9  -3 139.559 12.1215   1
 -10  -9  -3 151.074 11.2493   2
  10 -10  -3 -1.0277 5.68340   2
 -10  10  -3 -7.0597 6.82668   1
  10  10  -3 9.36291 7.44841   1
 -10 -10  -3 -6.5942 5.20463   2
  10 -10  -3 2.66409 7.17618   1
 -10 -10  -3 -3.9309 7.09551   1
   0 -11  -3 5.13580 5.60072   1
  11   0  -3 -5.3342 4.41842   2
  11   0  -3 1.55312 5.46467   1
   0  11  -3 8.39194 5.72767   1
   0 -11  -3 8.53917 4.84128   2
 -11   0  -3 -4.3927 5.09914   6
 -11   0  -3 5.24407 5.42558   1
 -11   1  -3 43.6161 7.47905   6
  11  -1  -3 53.5059 6.99308   2
   1  11  -3 51.8910 7.86827   1
  11  -1  -3 47.8538 7.42948   1
  -1 -11  -3 42.9690 7.06643   1
  -1 -11  -3 51.9443 6.89489   2
 -11   1  -3 56.6477 8.11261   1
  11   1  -3 31.7980 6.73092   1
  11   1  -3 50.9830 6.71579   2
   1 -11  -3 36.9928 6.89117   1
  -1  11  -3 39.9076 7.35479   1
   1 -11  -3 51.6199 7.49257   1
 -11  -1  -3 41.7792 7.14397   1
   1 -11  -3 55.2720 6.79326   2
  -2 -11  -3 10.0205 5.18582   2
  11  -2  -3 3.78580 4.76687   2
  11  -2  -3 0.97603 5.55737   1
  -2 -11  -3 12.9751 5.91274   1
 -11   2  -3 9.31100 5.93088   1
   2  11  -3 21.4782 6.32044   1
  11   2  -3 11.1565 5.24689   2
   2 -11  -3 4.08867 5.51062   1
 -11  -2  -3 0.18376 5.61932   1
   2 -11  -3 7.95503 5.64044   1
  -2  11  -3 4.76369 5.77364   1
   2 -11  -3 18.5090 5.47238   2
  11   2  -3 13.0541 5.88743   1
 -11   3  -3 -3.5788 5.48268   1
  11  -3  -3 9.40631 5.12308   2
  11  -3  -3 3.63183 5.50209   1
  -3 -11  -3 1.28435 5.71692   1
   3  11  -3 2.96893 5.63587   1
  -3 -11  -3 -4.7257 4.41285   2
  11   3  -3 -3.5877 4.40017   2
   3 -11  -3 -1.9284 5.30373   1
  -3  11  -3 9.63132 5.97586   1
   3 -11  -3 7.67707 4.93503   2
 -11  -3  -3 0.91408 5.84195   1
  11   3  -3 7.65676 5.87438   1
  -4 -11  -3 2.42997 5.62720   1
 -11   4  -3 -7.7642 5.31278   1
  11  -4  -3 -2.6818 4.63074   2
  11  -4  -3 8.49984 6.06927   1
  -4 -11  -3 1.78591 4.84361   2
   4  11  -3 0.27445 5.93571   1
   4 -11  -3 8.16703 5.12052   2
  11   4  -3 8.89067 5.76228   1
  -4  11  -3 -0.6383 5.92013   1
 -11  -4  -3 -4.0971 5.87532   1
   4 -11  -3 4.57822 5.85338   1
 -11   5  -3 14.0653 6.88918   1
  11  -5  -3 24.0537 6.13338   2
  -5 -11  -3 19.6274 5.90974   2
   5  11  -3 19.0842 7.04027   1
  -5 -11  -3 8.56902 6.52702   1
  11  -5  -3 14.8891 6.56702   1
 -11  -5  -3 15.7042 6.77458   1
  -5  11  -3 16.0482 6.55625   1
   5 -11  -3 19.7301 6.62300   1
   5 -11  -3 21.2039 6.06119   2
  11   5  -3 19.0106 6.83356   1
 -11  -5  -3 23.2874 6.07997   2
 -11   6  -3 40.0996 7.85978   1
  -6 -11  -3 58.6528 8.65772   1
  11  -6  -3 44.7889 7.30282   2
   6  11  -3 58.5142 8.86209   1
  -6 -11  -3 53.9806 7.37285   2
  11  -6  -3 42.6815 8.04596   1
   6 -11  -3 59.4025 7.61884   2
 -11  -6  -3 41.5608 7.35845   2
  -6  11  -3 56.1411 8.59551   1
 -11  -6  -3 62.3282 8.80207   1
  11   6  -3 46.4246 8.50942   1
   6 -11  -3 32.2987 7.83637   1
  11  -7  -3 163.617 11.8938   2
   7  11  -3 121.631 11.5649   1
 -11   7  -3 140.815 12.1159   1
  -7 -11  -3 144.352 11.2115   2
  -7 -11  -3 133.156 11.9776   1
  11  -7  -3 143.381 12.0732   1
   7 -11  -3 139.494 10.5599   2
 -11  -7  -3 152.598 11.5999   2
   7 -11  -3 166.054 12.4753   1
  11   7  -3 145.789 12.3892   1
  -7  11  -3 144.191 11.8307   1
 -11  -7  -3 116.507 11.3209   1
   8  11  -3 10.8021 7.42201   1
  -8 -11  -3 15.2957 6.40602   2
  -8 -11  -3 9.49056 7.28356   1
 -11   8  -3 14.1321 7.44697   1
  11  -8  -3 23.8925 7.62816   1
  11  -8  -3 13.2257 6.36676   2
 -11  -8  -3 7.10619 5.74742   2
   8 -11  -3 8.69727 5.90249   2
  11   8  -3 11.8430 7.48523   1
  -8  11  -3 0.68871 6.98526   1
 -11  -8  -3 22.3700 7.87051   1
   8 -11  -3 -7.6986 5.95610   1
   9  11  -3 1.83929 6.85831   1
 -11   9  -3 19.4648 7.68974   1
  11  -9  -3 23.0463 7.04658   2
  -9 -11  -3 22.2465 7.83494   1
  -9 -11  -3 26.2777 6.83399   2
  11  -9  -3 10.9549 7.64766   1
 -11  -9  -3 16.6198 6.47720   2
   9 -11  -3 13.0462 6.20175   2
 -11  -9  -3 11.5700 7.41112   1
   9 -11  -3 8.18262 6.83646   1
  11   9  -3 17.0426 7.73814   1
  -9  11  -3 7.55622 6.97206   1
  10  11  -3 18.4405 8.10546   1
  11 -10  -3 8.40389 6.67524   2
 -10 -11  -3 5.80840 7.35388   1
  11 -10  -3 13.2737 7.85523   1
 -10 -11  -3 7.93042 6.77884   2
 -11  10  -3 12.6440 7.60684   1
  10 -11  -3 15.7511 7.23554   2
 -10  11  -3 19.3612 8.24121   1
 -11 -10  -3 -0.1525 6.23034   2
  11  10  -3 12.9533 8.37287   1
  10 -11  -3 -5.8952 7.20674   1
 -11 -10  -3 8.97078 7.71731   1
   0 -12  -3 265.152 13.8622   1
  12   0  -3 273.275 14.2034   1
   0 -12  -3 239.971 12.7221   2
 -12   0  -3 259.115 14.0536   1
   0  12  -3 245.302 13.5944   1
  12   0  -3 249.247 12.9946   2
  12  -1  -3 243.355 12.8101   2
 -12   1  -3 237.315 13.7753   6
  12  -1  -3 242.297 13.8688   1
   1  12  -3 228.629 13.9129   1
  -1 -12  -3 229.963 12.2937   2
  -1 -12  -3 223.165 13.0529   1
 -12   1  -3 237.942 13.5418   1
  -1  12  -3 218.465 13.2030   1
   1 -12  -3 198.056 13.0424   1
   1 -12  -3 236.781 12.3495   2
 -12  -1  -3 229.900 13.2260   1
  12   1  -3 240.748 12.5128   2
  12   1  -3 223.318 13.6046   1
   1 -12  -3 225.431 13.5590   1
  -2 -12  -3 18.4144 5.89429   2
   2  12  -3 30.9840 7.41027   1
 -12   2  -3 20.7467 7.00202   6
 -12   2  -3 20.6490 7.15214   1
  12  -2  -3 29.1066 6.48746   2
  12  -2  -3 31.3835 7.55894   1
  -2 -12  -3 28.1308 7.10875   1
   2 -12  -3 21.3640 6.97801   1
  12   2  -3 30.3261 6.49607   2
 -12  -2  -3 26.9896 7.51738   1
   2 -12  -3 18.7447 6.19266   2
  -2  12  -3 30.2128 7.41952   1
  12   2  -3 12.4786 6.48503   1
   3  12  -3 187.603 13.2818   1
  12  -3  -3 176.387 13.0299   1
 -12   3  -3 214.399 13.6569   1
  -3 -12  -3 199.358 12.0329   2
  12  -3  -3 201.434 12.1451   2
  -3 -12  -3 201.085 13.5615   1
   3 -12  -3 194.989 13.0444   1
 -12  -3  -3 201.376 13.4748   1
   3 -12  -3 202.146 12.1597   2
  12   3  -3 196.410 11.9626   2
  -3  12  -3 176.841 13.0362   1
  12   3  -3 174.289 12.6104   1
  -4 -12  -3 15.8530 5.79526   2
  12  -4  -3 11.1267 6.77665   1
  12  -4  -3 10.8424 5.81712   2
   4  12  -3 24.6649 7.68046   1
 -12   4  -3 6.23038 6.55504   1
  -4 -12  -3 25.4570 7.40445   1
  12   4  -3 8.19345 6.92636   1
 -12  -4  -3 7.30661 6.48164   1
   4 -12  -3 19.4529 6.09778   2
   4 -12  -3 25.0210 7.55889   1
  -4  12  -3 20.3867 7.09941   1
 -12   5  -3 66.4124 9.46934   1
  -5 -12  -3 64.9432 8.26297   2
  12  -5  -3 61.1704 9.29967   1
  -5 -12  -3 89.8706 10.4142   1
   5  12  -3 68.0969 9.70201   1
  12  -5  -3 71.4460 8.57213   2
   5 -12  -3 49.9357 7.77591   2
   5 -12  -3 48.6883 8.39893   1
 -12  -5  -3 54.9807 7.76172   2
  12   5  -3 61.4124 9.21478   1
  -5  12  -3 61.3522 9.17205   1
 -12  -5  -3 61.1117 9.42888   1
  12  -6  -3 67.7117 9.86534   1
 -12   6  -3 60.0503 9.26930   1
  -6 -12  -3 57.6842 9.11220   1
  12  -6  -3 49.0595 7.87402   2
   6  12  -3 63.8873 9.86839   1
  -6 -12  -3 59.7290 8.14829   2
 -12  -6  -3 58.3276 9.58518   1
  12   6  -3 73.6888 10.2063   1
   6 -12  -3 54.4919 9.05563   1
  -6  12  -3 59.0644 9.57812   1
 -12  -6  -3 54.4525 7.98596   2
   6 -12  -3 56.8877 7.94835   2
  12  -7  -3 16.6585 7.14741   1
  -7 -12  -3 19.9740 7.76554   1
 -12   7  -3 32.0658 7.91926   1
   7  12  -3 20.0250 8.29963   1
  -7 -12  -3 24.0094 7.02838   2
  12  -7  -3 21.6265 6.85047   2
   7 -12  -3 18.2895 6.31522   2
  12   7  -3 28.1183 8.10536   1
  -7  12  -3 24.9546 8.10368   1
   7 -12  -3 15.9689 7.24996   1
 -12  -7  -3 18.1938 6.43113   2
 -12  -7  -3 19.6541 7.51214   1
  12  -8  -3 43.7829 8.30137   2
  12  -8  -3 45.6885 8.99436   1
   8  12  -3 28.5192 8.41606   1
  -8 -12  -3 39.3656 8.87899   1
 -12   8  -3 43.2624 9.11374   1
  -8 -12  -3 43.2570 7.91454   2
  12   8  -3 45.8155 9.68857   1
   8 -12  -3 51.0945 7.97228   2
 -12  -8  -3 48.5924 9.62093   1
 -12  -8  -3 30.6932 7.51173   2
   8 -12  -3 46.4872 9.23773   1
  -8  12  -3 55.1373 10.1089   1
  12  -9  -3 8.83957 7.55563   1
 -12   9  -3 11.2409 7.92137   1
  12  -9  -3 6.63965 6.38665   2
  -9 -12  -3 4.08319 7.75158   1
   9  12  -3 -4.5874 7.00971   1
  -9 -12  -3 -2.4633 5.85814   2
   9 -12  -3 -13.018 6.46187   1
 -12  -9  -3 -0.3511 7.38077   1
 -12  -9  -3 4.86088 6.09654   2
   9 -12  -3 -4.8160 5.88831   2
  -9  12  -3 9.09863 7.52952   1
  12   9  -3 -2.9770 6.80465   1
  13   0  -3 -0.8922 5.06800   2
   0 -13  -3 -0.9648 6.50249   1
  13   0  -3 2.36215 6.32715   1
 -13   0  -3 -1.0802 6.23193   1
   0  13  -3 1.68414 6.67516   1
   0 -13  -3 8.94464 6.99144   1
   0 -13  -3 1.51251 5.10584   2
  13  -1  -3 0.68177 5.41229   2
 -13   1  -3 -5.7223 6.48440   1
  -1 -13  -3 6.27849 5.67132   2
  13  -1  -3 10.4248 7.01584   1
  -1 -13  -3 12.3185 6.92365   1
   1  13  -3 -0.7007 6.57195   1
   1 -13  -3 -2.5725 6.37451   1
   1 -13  -3 -3.1677 6.39861   1
  13   1  -3 5.55299 5.43451   2
   1 -13  -3 4.90716 5.23109   2
  13   1  -3 10.7895 6.91121   1
  -1  13  -3 6.51237 6.75572   1
 -13  -1  -3 2.97894 6.34674   1
   2  13  -3 6.78353 7.00190   1
  13  -2  -3 16.8200 6.21779   2
 -13   2  -3 3.76363 6.98972   6
  13  -2  -3 -0.5316 6.61621   1
  -2 -13  -3 5.47507 5.79490   2
 -13   2  -3 13.5762 7.44954   1
  -2 -13  -3 -3.4177 6.78556   1
  -2  13  -3 8.64629 7.14176   1
   2 -13  -3 5.75233 5.71952   2
  13   2  -3 3.14960 6.44953   1
 -13  -2  -3 3.35339 6.65765   1
  13   2  -3 14.2939 6.16328   2
   2 -13  -3 11.2993 6.80984   1
  -3 -13  -3 69.0194 9.63229   1
  13  -3  -3 77.0713 8.85588   2
 -13   3  -3 55.2832 9.06503   1
  13  -3  -3 78.3410 10.0055   1
 -13   3  -3 83.7736 10.2996   6
   3  13  -3 79.2683 10.3358   1
  -3 -13  -3 70.5832 8.41248   2
  13   3  -3 62.6538 9.62489   1
 -13  -3  -3 68.4000 9.58431   1
  13   3  -3 70.5916 8.65553   2
  -3  13  -3 78.2854 9.68568   1
   3 -13  -3 64.7442 9.22288   1
   3 -13  -3 57.3340 8.31215   2
  13  -4  -3 -8.9963 4.88246   2
 -13   4  -3 -5.9106 6.08797   1
   4  13  -3 0.32205 7.06757   1
  -4 -13  -3 -7.6406 6.04675   1
  -4 -13  -3 -2.0820 5.57622   2
  13  -4  -3 2.84321 6.91232   1
   4 -13  -3 -0.2413 5.38182   2
  13   4  -3 9.51520 7.19837   1
 -13  -4  -3 -6.0315 6.71785   1
   4 -13  -3 -0.3548 6.66023   1
  -4  13  -3 6.86224 7.53799   1
  13  -5  -3 54.9232 9.10407   1
 -13   5  -3 48.8120 9.29709   1
  -5 -13  -3 46.1742 7.78987   2
   5  13  -3 66.4883 9.93612   1
  -5 -13  -3 64.2216 9.76597   1
  13  -5  -3 58.0634 8.37736   2
 -13  -5  -3 51.4227 8.09917   2
  -5  13  -3 61.6500 9.51250   1
   5 -13  -3 39.1597 8.25912   1
  13   5  -3 44.0010 8.93417   1
   5 -13  -3 38.1511 7.41329   2
 -13  -5  -3 36.2762 8.64170   1
   6  13  -3 25.3541 8.41724   1
  13  -6  -3 15.4758 6.75143   2
  13  -6  -3 9.62478 7.20776   1
  -6 -13  -3 12.6784 6.43007   2
 -13   6  -3 12.2565 7.98239   1
  -6 -13  -3 20.1994 8.37763   1
  -6  13  -3 19.4606 8.41259   1
   6 -13  -3 5.68773 7.42355   1
 -13  -6  -3 13.2775 6.95759   2
 -13  -6  -3 30.9826 8.68255   1
  13   6  -3 21.5428 8.09175   1
   6 -13  -3 6.98864 6.32803   2
  13  -7  -3 32.1644 8.88753   1
  -7 -13  -3 44.9940 8.25204   2
   7  13  -3 37.1314 9.45009   1
  13  -7  -3 59.1960 8.92738   2
 -13   7  -3 46.2269 9.41892   1
  -7 -13  -3 43.7430 9.43208   1
   7 -13  -3 38.5751 8.86404   1
   7 -13  -3 61.2179 8.91619   2
 -13  -7  -3 35.1679 8.52229   1
  -7  13  -3 44.2442 9.13843   1
 -13  -7  -3 33.3871 7.84431   2
  13   7  -3 54.6817 10.0349   1
  13  -8  -3 4.23577 6.42400   2
 -13   8  -3 6.93338 8.51517   1
  -8 -13  -3 9.62553 8.16380   1
   8  13  -3 24.7479 9.25990   1
  13  -8  -3 0.62588 8.18919   1
  -8 -13  -3 12.3533 6.88148   2
 -13  -8  -3 21.3659 8.60603   1
  13   8  -3 26.3640 8.86832   1
   8 -13  -3 20.1150 6.93700   2
  -8  13  -3 12.7889 8.67804   1
   8 -13  -3 20.4855 8.83034   1
 -13  -8  -3 12.8450 6.69861   2
 -14   0  -3 1.63240 7.11379   1
  14   0  -3 0.01671 6.71187   1
   0  14  -3 0.76101 7.21223   1
   0 -14  -3 2.92736 7.13960   1
   0 -14  -3 -1.7942 5.48315   2
   0 -14  -3 -11.736 6.25282   1
  14   0  -3 7.14987 6.40480   2
  14  -1  -3 5.95627 7.22264   1
 -14   1  -3 12.0717 7.51697   1
  14  -1  -3 19.8167 6.93367   2
  -1 -14  -3 24.0112 7.88995   1
   1  14  -3 18.8097 7.72366   1
  -1 -14  -3 16.1299 6.52945   2
  14   1  -3 6.78766 6.51063   2
   1 -14  -3 18.7277 7.61685   1
   1 -14  -3 15.9695 6.52016   2
 -14  -1  -3 15.5885 7.41714   1
   1 -14  -3 7.97844 7.18027   1
  14   1  -3 6.42529 7.25107   1
  -1  14  -3 13.9173 7.80559   1
 -14   2  -3 159.668 13.6894   1
   2  14  -3 140.926 13.1892   1
  14  -2  -3 145.256 11.7262   2
  -2 -14  -3 144.695 12.8482   1
  -2 -14  -3 175.538 12.6532   2
  14  -2  -3 161.337 13.8552   1
   2 -14  -3 137.458 12.7319   1
  14   2  -3 188.318 14.5477   1
  -2  14  -3 140.596 12.8749   1
   2 -14  -3 150.816 11.6466   2
 -14  -2  -3 163.151 13.4626   1
  14   2  -3 145.736 11.5493   2
   3  14  -3 67.3728 10.8263   1
  -3 -14  -3 30.0533 8.29377   1
  -3 -14  -3 20.4754 7.33408   2
  14  -3  -3 34.5448 7.83178   2
  14  -3  -3 32.6535 8.96965   1
 -14   3  -3 40.2865 9.23298   6
 -14   3  -3 52.5347 9.35056   1
  14   3  -3 38.3793 9.36573   1
 -14  -3  -3 38.5618 8.57870   1
   3 -14  -3 33.3845 8.62737   1
  -3  14  -3 50.7080 9.26201   1
   3 -14  -3 23.2159 7.03089   2
  -4 -14  -3 137.956 12.6604   1
   4  14  -3 133.831 12.9744   1
 -14   4  -3 128.371 12.4605   1
  14  -4  -3 127.833 11.1091   2
 -14   4  -3 122.193 12.5199   6
  -4 -14  -3 127.132 10.8665   2
  14  -4  -3 141.015 13.0715   1
  14   4  -3 157.608 13.5965   1
  -4  14  -3 128.661 12.6640   1
   4 -14  -3 126.273 11.1208   2
   4 -14  -3 135.408 12.6583   1
 -14  -4  -3 123.485 12.3086   1
 -14   5  -3 25.6021 8.60584   1
   5  14  -3 26.8239 8.98926   1
  14  -5  -3 10.3951 7.60511   1
  -5 -14  -3 18.4445 8.54384   1
  -5 -14  -3 9.44348 6.75275   2
  14  -5  -3 16.1567 6.99201   2
 -14  -5  -3 19.0638 8.07368   1
 -14  -5  -3 8.30691 6.68498   2
   5 -14  -3 11.6675 7.72576   1
  -5  14  -3 16.7697 8.48513   1
  14   5  -3 16.1082 7.93970   1
   5 -14  -3 20.9047 7.12825   2
  -6 -14  -3 10.2791 8.30080   1
  14  -6  -3 17.4560 8.09716   1
 -14   6  -3 4.94367 7.94319   1
   6  14  -3 18.2631 8.73801   1
  14  -6  -3 19.5304 7.11968   2
  -6 -14  -3 15.2203 6.90066   2
   6 -14  -3 24.5586 8.33126   1
  14   6  -3 9.36268 7.74585   1
   6 -14  -3 4.18549 6.68593   2
 -14  -6  -3 -4.3669 7.57631   1
 -14  -6  -3 14.7194 7.06323   2
  -6  14  -3 2.74643 7.90702   1
  15   0  -3 2.04345 6.27739   2
   0  15  -3 2.18690 7.65543   1
   0 -15  -3 6.58436 5.91095   2
 -15   0  -3 -15.055 6.83088   1
   0 -15  -3 -4.6052 6.84870   1
  15   0  -3 3.89240 7.72773   1
   0 -15  -3 -4.6150 6.64740   1
  15  -1  -3 39.6963 8.22202   2
  -1 -15  -3 15.3790 6.73959   2
  -1 -15  -3 33.5857 9.05570   1
  15  -1  -3 24.9104 8.96525   1
 -15   1  -3 18.5266 8.17314   1
   1  15  -3 4.85184 8.10384   1
  -1 -15  -3 22.8777 8.89579   1
  15   1  -3 34.1385 8.18283   2
  -1  15  -3 26.8599 8.78994   1
  15   1  -3 13.9120 8.36912   1
   1 -15  -3 23.9710 7.02368   2
   1 -15  -3 30.0350 8.69293   1
 -15  -1  -3 22.3913 8.66260   1
  15  -2  -3 6.52586 6.70910   2
  -2 -15  -3 6.24375 7.59850   1
   2  15  -3 -3.8557 7.72775   1
  -2 -15  -3 -5.1385 5.92137   2
 -15   2  -3 -0.9410 7.36648   1
  15  -2  -3 -2.1667 7.15952   1
 -15  -2  -3 -0.4594 7.88938   1
  15   2  -3 -3.3034 6.04485   2
   2 -15  -3 -0.3772 5.80958   2
  15   2  -3 4.26092 8.05101   1
  -2  15  -3 -10.795 6.47942   1
   2 -15  -3 -11.540 6.81875   1
  -3 -15  -3 62.1991 10.7857   1
  -3 -15  -3 50.0293 8.33324   2
  15  -3  -3 47.8423 8.98422   2
   3 -15  -3 57.4633 8.78693   2
   0   0  -4 9999.99 143.273   5
   0   0  -4 9833.23 144.211   6
   0   0   4 9606.60 142.927   4
   1   0  -4 -4.2953 2.13899   4
   0  -1   4 -2.3711 2.00351   4
  -1   0  -4 -4.2756 2.78299   6
   1   0  -4 2.54508 3.09330   6
  -1   0  -4 -1.9730 2.88948   5
   0  -1  -4 -6.3718 2.88188   6
   0  -1  -4 -1.4873 2.75145   5
   1   0  -4 -5.9619 2.78268   5
   0   1  -4 -9.1257 2.70990   5
   0   1  -4 -0.2869 2.88130   6
   0   1   4 -4.2345 2.48801   4
  -1   0   4 -0.8799 2.23202   4
   1   1  -4 836.804 16.9652   5
  -1   1   4 830.922 16.3548   4
   1   1  -4 843.735 16.6614   6
   1   1  -4 831.113 15.0378   4
   1  -1  -4 857.802 16.7424   5
   1  -1  -4 849.987 16.3888   4
  -1   1  -4 830.835 16.7367   5
  -1   1  -4 847.593 17.1448   6
  -1  -1  -4 838.000 16.1975   5
  -1  -1   4 849.735 15.2512   4
   1  -1  -4 873.209 17.1768   6
   0   2  -4 5095.22 75.9783   5
  -2   0  -4 4967.34 76.3349   6
   0  -2   4 5018.45 73.1155   4
   2   0  -4 4969.86 75.1383   4
   0   2   4 4816.87 75.9251   4
  -2   0  -4 4947.61 75.2500   5
  -2   0   4 5062.69 75.3459   4
   0  -2  -4 5058.01 76.2824   6
   2   0  -4 5038.81 75.9714   5
   0   2  -4 5073.22 76.0626   6
   0  -2  -4 4953.11 75.0067   5
  -2   1  -4 222.852 8.25722   6
   1   2  -4 217.422 7.56747   6
   1   2  -4 227.918 7.95633   5
   2  -1  -4 218.274 7.90116   5
  -1  -2  -4 218.801 7.73873   6
   2  -1  -4 223.707 7.63140   4
  -1   2   4 231.886 7.88397   4
  -2  -1   4 219.777 6.73954   4
  -2   1  -4 242.345 7.93205   5
   1   2  -4 218.324 5.67958   4
  -2  -1  -4 224.636 7.19582   5
   2   1  -4 221.601 7.66450   6
   1   2   4 215.163 7.82709   4
   1  -2  -4 225.120 7.86157   4
   2   1  -4 223.136 6.70700   4
  -1   2  -4 207.030 7.88850   6
  -1   2  -4 206.942 7.96081   5
  -2   1   4 221.241 7.51281   4
  -2  -1  -4 237.613 8.05836   6
   2   1  -4 219.032 7.98204   5
  -1  -2   4 218.598 5.72407   4
   1  -2  -4 217.035 7.51949   5
  -2   2  -4 3194.92 50.9898   5
   2  -2   4 3204.86 48.8354   4
   2   2  -4 3178.15 50.0642   6
  -2  -2   4 3202.34 48.5285   4
   2   2  -4 3271.54 50.8925   5
  -2  -2  -4 3198.86 50.5802   6
   2   2  -4 3199.26 48.3871   4
  -2  -2  -4 3227.29 50.0379   3
   2  -2  -4 3198.93 51.0034   4
   2  -2  -4 3173.42 49.9777   3
  -2   2   4 3111.91 50.9828   4
  -2   2  -4 3192.94 51.4954   6
   3   0  -4 -3.6268 2.61776   4
  -3   0  -4 -5.1438 2.92172   3
   3   0  -4 3.22498 3.17220   5
   0   3  -4 -3.8822 2.80496   5
   0  -3  -4 -3.1721 2.54115   5
   0   3  -4 -4.9510 2.80188   6
   0   3   4 -6.4336 2.61542   4
  -3   0   4 -3.2538 2.51146   4
  -3   0  -4 -4.1568 2.84755   6
  -3   0  -4 -7.1674 2.52422   5
   3   0  -4 0.44515 3.29520   3
  -3  -1   4 815.214 15.9554   4
  -1  -3  -4 804.366 16.6374   6
   1   3  -4 828.870 16.9887   5
   3  -1  -4 828.714 16.9363   4
   1  -3   4 845.690 13.6415   4
   3  -1  -4 808.536 16.9729   3
   1   3  -4 805.326 16.1551   6
  -3   1  -4 806.841 16.8524   5
  -1   3   4 829.081 17.2588   4
  -3   1  -4 820.883 16.7873   3
  -3   1  -4 823.720 17.5970   6
   1   3   4 795.005 17.0875   4
  -3  -1  -4 796.611 15.8666   5
  -1   3  -4 821.271 17.1845   6
   3  -1   4 826.346 16.2231   4
  -3  -1  -4 821.276 16.9714   6
   3   1  -4 812.203 16.9136   3
  -3   1   4 815.288 16.9611   4
   1  -3  -4 835.053 17.3457   4
   3   1  -4 821.397 15.9886   4
  -1   3  -4 820.616 17.1622   5
  -2  -3  -4 28.9208 2.18114   2
  -3   2  -4 29.7672 4.38647   5
  -2  -3  -4 33.5025 4.15548   3
   2  -3   4 25.0164 2.66877   4
   2   3  -4 28.7975 2.43067   4
  -3   2  -4 29.0768 3.42757   1
  -3   2  -4 34.8125 4.60557   6
  -2  -3  -4 30.0334 3.86533   6
   2   3  -4 28.6541 3.40839   1
  -2  -3  -4 31.6064 3.37586   1
   3  -2  -4 24.9994 3.84907   4
  -3   2  -4 23.8181 3.97213   3
   2   3  -4 37.0137 4.41283   5
  -2   3   4 24.0629 3.87021   4
  -3  -2   4 29.3346 3.20399   4
   2   3  -4 31.3611 3.63920   6
   3  -2  -4 36.0523 3.60410   1
   3  -2  -4 32.0128 2.37781   2
  -2  -3  -4 29.6302 2.12717   2
   3  -2  -4 28.5112 4.31382   3
   2  -3  -4 27.8522 2.22352   2
   2  -3  -4 31.2105 3.41734   1
  -2   3  -4 28.6868 3.32611   1
   3   2  -4 26.3772 4.20230   3
  -3  -2  -4 32.3300 3.40635   1
  -3  -2  -4 31.8285 4.31248   3
  -3  -2  -4 26.9494 2.06748   2
  -3  -2  -4 27.6674 3.84095   6
  -2   3  -4 26.3704 4.11586   5
  -3   2   4 24.8010 3.86250   4
   3   2  -4 25.0599 3.20547   4
  -2  -3   4 27.6018 2.42757   4
  -3  -2  -4 27.6760 2.04090   2
   2  -3  -4 22.0947 3.82824   3
  -2   3  -4 24.2638 4.34401   6
   2  -3  -4 29.4664 4.31438   4
   3   2  -4 33.6080 3.47491   1
   3  -2   4 29.3395 3.27211   4
   3   2  -4 27.6797 3.62772   6
   3   2  -4 30.9062 4.12314   5
  -3   3   4 286.633 9.75630   4
  -3   3  -4 281.059 8.22475   1
   3   3  -4 286.120 9.29244   5
   3  -3   4 288.192 7.84681   4
   3   3  -4 291.359 9.18049   3
   3   3  -4 294.188 8.40171   6
   3  -3  -4 288.581 8.31507   1
  -3   3  -4 279.751 10.0169   6
  -3  -3  -4 278.319 8.82290   6
   3   3  -4 296.692 7.52889   4
   3  -3  -4 305.814 10.0047   4
   3  -3  -4 305.466 9.52991   3
  -3  -3  -4 299.562 6.84972   2
  -3   3  -4 300.145 9.93911   5
   3   3  -4 302.062 8.43944   1
   3  -3  -4 294.223 7.00940   2
  -3   3  -4 284.724 8.91243   3
  -3  -3  -4 306.471 8.41134   1
  -3  -3   4 292.901 7.47965   4
  -3  -3  -4 300.306 9.49394   3
   0  -4  -4 2205.42 33.9799   2
  -4   0  -4 2204.83 37.4515   3
  -4   0   4 2253.38 37.4754   4
  -4   0  -4 2218.45 37.8089   6
   4   0   4 2218.55 37.4870   4
   0   4   4 2199.47 37.9857   4
   4   0  -4 2246.39 35.8975   1
   0   4  -4 2241.24 35.8351   1
   4   0  -4 2184.10 37.2685   4
  -4   0  -4 2241.16 36.9967   5
   0  -4  -4 2214.89 35.8619   1
   0  -4  -4 2228.60 36.0229   5
   0   4  -4 2225.64 37.6009   5
  -4   0  -4 2209.75 35.7921   1
   0   4  -4 2189.41 37.0181   6
   4   0  -4 2297.19 37.9072   3
   4  -1  -4 26.6545 2.57843   2
   1   4  -4 25.7510 3.98395   5
  -1  -4  -4 30.2008 3.48065   1
   4   1   4 26.6446 3.89087   4
   4  -1  -4 29.6657 4.16623   4
  -4   1  -4 21.8684 4.27132   6
  -4  -1   4 17.8733 3.44770   4
  -4   1  -4 24.7667 4.39096   3
   4  -1  -4 20.2217 4.18004   3
  -1   4   4 20.9144 3.71221   4
  -4   1  -4 22.6122 3.32237   1
  -1  -4  -4 21.5372 2.34626   2
  -4   1  -4 20.9064 4.00831   5
  -1  -4  -4 25.9191 3.85417   3
   1   4  -4 21.6797 3.62338   6
   1   4  -4 24.9821 3.39168   1
   4  -1  -4 26.6537 3.44818   1
   1  -4  -4 28.8976 3.88975   3
   1  -4  -4 25.4688 3.36835   1
  -1   4  -4 20.9432 3.87188   6
   1  -4  -4 26.7331 2.55612   2
   4   1  -4 33.6343 4.75079   3
  -4   1   4 28.1055 3.96085   4
  -1   4  -4 21.6847 3.29978   1
  -4  -1  -4 30.9275 3.84075   5
  -4  -1  -4 24.2492 4.51565   3
   4   1  -4 20.7602 3.48334   4
   1   4   4 31.4835 4.12931   4
  -4  -1  -4 23.1651 3.98565   6
   1  -4  -4 22.8425 3.99180   4
   4   1  -4 26.1520 3.52832   1
  -4  -1  -4 23.4296 2.45723   2
  -4  -1  -4 36.0560 3.59009   1
   4   1  -4 31.6551 4.51563   5
   4  -1   4 25.5040 3.69783   4
  -1   4  -4 27.0557 4.39945   5
   4  -2  -4 3139.11 50.0042   4
  -4   2  -4 2987.25 48.4685   3
   4  -2  -4 3097.88 48.0586   1
  -2  -4  -4 3028.12 45.8017   2
   2   4  -4 3098.13 47.7465   6
   2   4  -4 3053.86 48.8041   5
   4  -2  -4 3051.81 46.0535   2
  -2  -4  -4 3087.33 47.7693   1
   4  -2  -4 3014.80 48.9939   3
  -4  -2   4 3005.27 47.9036   4
  -2  -4  -4 3017.41 48.3026   6
  -4   2  -4 3026.26 47.7749   1
   2   4  -4 2995.76 47.7459   1
   2  -4   4 3034.30 45.3920   4
  -4   2  -4 3018.64 49.7316   5
  -2   4   4 2978.39 49.7874   4
  -2  -4  -4 3094.54 47.8580   3
  -4   2  -4 2970.48 50.2205   6
   4  -2   4 2967.64 48.1297   4
   4   2  -4 3039.61 48.9580   5
  -4  -2  -4 3022.78 48.9478   3
  -4  -2  -4 3001.33 45.7048   2
   4   2  -4 3028.29 48.0171   4
   2  -4  -4 3022.73 49.7607   4
  -4  -2  -4 3030.86 47.7511   1
  -4  -2  -4 3013.63 48.5556   6
   2  -4  -4 2977.53 47.6501   3
  -2   4  -4 3000.48 49.6912   5
   4   2  -4 2987.62 47.7757   1
   2  -4  -4 3026.40 47.7807   1
   2  -4  -4 2987.50 45.9859   2
  -4   2   4 3032.34 49.8643   4
  -2   4  -4 3055.58 47.7961   1
  -2   4  -4 3001.14 49.8134   6
  -3  -4  -4 116.005 6.40140   3
  -3  -4  -4 116.614 5.93791   6
   3   4  -4 111.484 5.48287   6
   3   4  -4 104.691 5.90344   1
  -3  -4  -4 103.963 4.80341   2
   3   4  -4 108.156 6.49073   3
   3  -4   4 106.247 4.86044   4
  -4   3  -4 113.443 6.76696   3
  -4   3  -4 106.803 6.09364   1
   4  -3  -4 116.067 5.08272   2
   4  -3  -4 113.357 6.10748   1
  -3  -4  -4 111.178 6.01118   1
  -3   4   4 106.462 6.87319   4
  -4  -3   4 102.524 5.36549   4
   3   4  -4 94.3773 6.34248   5
   4  -3  -4 108.587 7.13712   3
   3   4  -4 110.485 4.62470   4
  -4   3  -4 105.696 7.37950   6
  -3   4  -4 116.786 7.39468   6
   3  -4  -4 108.523 5.06227   2
  -4  -3  -4 106.921 6.61818   3
   4   3  -4 101.584 5.93408   1
   3  -4  -4 104.476 6.00160   1
  -3  -4   4 110.118 4.36487   4
  -3   4  -4 115.564 6.11745   3
   3  -4  -4 106.451 6.58707   3
   4   3  -4 115.314 5.88313   4
   4  -3   4 105.145 5.70463   4
   4   3  -4 108.139 6.31376   5
  -3   4  -4 109.912 7.38334   5
  -4  -3  -4 105.448 6.02206   6
  -4   3   4 102.577 7.10214   4
  -3   4  -4 115.034 6.03224   1
  -4  -3  -4 116.448 4.91015   2
  -4  -3  -4 97.2415 5.77474   1
  -4   4  -4 6225.05 98.6083   6
  -4  -4  -4 6455.37 94.8956   6
  -4   4   4 6274.42 97.6924   4
  -4  -4  -4 6252.21 93.6137   2
  -4  -4  -4 6363.55 94.8195   3
  -4   4  -4 6355.53 93.9240   3
   4   4  -4 6260.04 95.7088   1
   4   4  -4 6310.49 94.0040   4
  -4   4  -4 6274.68 95.6432   1
  -4  -4   4 6326.30 93.5976   4
   4  -4  -4 6270.45 93.8115   2
   4  -4  -4 6229.97 94.8041   3
   4  -4   4 6325.07 94.2890   4
   4   4  -4 6426.25 95.4216   5
   4  -4  -4 6168.15 95.6773   1
  -4  -4  -4 6300.50 95.6893   1
   0  -5  -4 -6.0676 2.49971   1
   5   0  -4 -0.5456 2.82757   1
   0   5  -4 -2.3917 2.97626   6
   5   0   4 -6.2146 2.56553   4
   5   0  -4 0.03989 3.16113   4
   0   5   4 2.59219 3.03550   4
   0   5  -4 -0.3930 3.12039   5
  -5   0  -4 -2.9002 3.10727   6
  -5   0  -4 -5.5555 2.55020   1
   0   5  -4 -0.1053 2.70467   1
   0  -5  -4 -2.5817 2.17558   2
   0  -5  -4 -2.4464 2.83735   3
   5   0  -4 0.24769 2.24780   2
  -5   0   4 2.70663 3.05615   4
  -5   0  -4 1.14431 3.43461   3
   5  -1  -4 658.151 13.0647   2
  -1  -5  -4 648.610 12.9757   2
  -1  -5  -4 653.707 14.1094   3
  -1  -5  -4 645.431 14.2740   1
   5  -1  -4 638.654 14.3768   1
  -5  -1   4 665.878 15.1446   4
  -5   1  -4 646.897 14.3046   1
   5   1   4 617.602 15.5583   4
  -5   1  -4 635.339 15.6654   6
   1   5  -4 649.096 14.2058   6
  -5   1  -4 664.168 15.7805   3
   5  -1  -4 651.180 15.6029   4
  -1   5   4 638.431 15.7220   4
   1   5  -4 655.594 14.1740   1
   1   5  -4 626.995 15.0547   5
   1   5   4 620.059 15.4727   4
  -1   5  -4 660.001 15.3569   6
   5  -1   4 655.321 15.2550   4
   1  -5  -4 651.295 14.0852   3
  -5  -1  -4 649.135 14.2710   1
   5   1  -4 636.752 15.1512   4
   5   1  -4 661.420 14.4668   1
  -5  -1  -4 661.754 15.1837   6
  -1   5  -4 648.674 14.3550   1
  -5   1   4 641.994 15.6606   4
  -1   5  -4 633.726 15.5744   5
  -5  -1  -4 624.992 15.6738   3
   1  -5  -4 635.875 14.1165   1
   1  -5  -4 648.579 12.9347   2
   2   5  -4 17.2176 3.61026   1
   2   5  -4 22.9973 3.36888   6
  -5  -2   4 17.1036 3.64269   4
  -5   2  -4 14.4250 4.15482   3
  -2   5   4 15.1404 3.90436   4
  -5   2  -4 20.4936 3.60515   1
   5  -2  -4 19.8913 3.75616   1
  -2  -5  -4 12.5956 2.69682   2
   2   5  -4 22.5608 4.01677   5
   5  -2  -4 11.9358 2.78330   2
  -5   2  -4 21.5355 4.53294   6
  -2  -5  -4 22.9284 3.70467   1
  -2  -5  -4 18.0428 3.61013   3
   2  -5  -4 18.7516 3.65294   3
   5  -2   4 18.8189 3.88566   4
   5   2  -4 12.8655 3.42930   1
   2  -5  -4 22.1836 3.69146   1
  -5   2   4 22.1455 4.10218   4
   2  -5  -4 16.8260 2.95516   2
  -2   5  -4 13.8937 3.45174   1
  -5  -2  -4 21.9851 3.05906   2
  -2   5  -4 14.0754 4.21517   5
  -2   5  -4 16.3408 4.22871   6
  -5  -2  -4 14.2099 3.40173   1
   5   2  -4 13.2506 3.79060   5
  -5  -2  -4 20.3842 4.40281   3
  -5  -2  -4 17.3133 3.77247   6
   5   2  -4 18.1115 3.75730   4
   2   5   4 13.0918 3.94557   4
   2  -5  -4 24.4631 3.73502   1
  -5  -3   4 475.124 11.8156   4
   3   5  -4 461.955 10.7560   6
  -5   3  -4 450.522 14.1296   6
   5  -3  -4 444.048 12.2051   1
   3  -5   4 462.474 10.4840   4
   3   5  -4 460.260 12.1755   5
  -5   3  -4 467.440 12.9287   3
  -3  -5  -4 468.667 12.1236   3
  -3  -5  -4 437.552 12.0752   1
  -3  -5  -4 468.668 10.8833   2
   5  -3  -4 465.021 10.9983   2
  -3   5   4 457.001 13.3602   4
  -5   3  -4 455.301 12.0443   1
   3   5  -4 462.154 12.1342   1
  -5  -3  -4 460.389 12.1132   1
  -5  -3  -4 459.424 11.7218   6
   5   3  -4 473.686 12.1917   4
  -3   5  -4 440.731 13.9054   6
   5   3  -4 473.453 12.4913   5
   5  -3   4 456.807 12.0493   4
   3  -5  -4 448.674 12.0623   3
   5   3  -4 459.924 12.2376   1
   3  -5  -4 464.223 10.9618   2
  -5  -3  -4 452.140 10.7090   2
  -5  -3  -4 457.012 13.3048   3
  -5   3   4 476.825 13.6424   4
   3  -5  -4 481.971 12.3077   1
  -3   5  -4 455.342 12.1146   1
  -4  -5  -4 152.713 6.88506   6
  -5   4  -4 155.200 7.80946   3
   4   5  -4 144.415 7.52102   1
   5  -4  -4 149.065 6.70793   2
  -4  -5  -4 158.204 6.67456   2
   4   5  -4 152.153 7.60065   5
  -5   4  -4 145.393 9.37633   6
  -4  -5  -4 147.848 7.69711   3
  -5  -4   4 144.860 6.46354   4
  -4  -5  -4 151.255 7.49139   1
   5  -4  -4 160.115 7.70939   1
  -5   4  -4 171.251 7.73503   4
  -5   4  -4 144.853 7.58581   1
   4  -5  -4 151.663 6.63941   2
  -5  -4  -4 145.086 6.63172   2
  -4   5  -4 161.103 7.31942   3
   4  -5  -4 139.178 7.34738   1
  -5  -4  -4 145.118 7.37188   1
   5   4  -4 147.619 7.42180   1
   5  -4   4 159.843 7.10646   4
  -5  -4  -4 151.862 8.10849   3
  -4   5  -4 155.300 7.78145   1
  -4   5  -4 147.668 6.80778   4
  -5  -4  -4 146.798 6.74915   6
   5   4  -4 156.163 7.35487   4
   5   4  -4 150.744 7.63448   5
  -4   5  -4 135.498 9.33214   6
  -5  -5  -4 698.117 15.2183   2
   5  -5  -4 668.779 16.7115   1
   5  -5  -4 696.248 15.5721   2
   5   5  -4 669.257 16.5343   1
  -5   5  -4 701.630 16.2752   4
  -5   5  -4 694.171 16.6788   1
   5   5  -4 676.910 15.7718   5
  -5  -5  -4 645.127 16.4384   1
  -5   5  -4 686.508 19.5214   6
  -5   5  -4 709.972 16.2085   3
  -5  -5  -4 678.623 16.6827   3
   6   0  -4 2789.02 46.5303   1
   0   6   4 2775.50 47.6657   4
  -6   0  -4 2796.88 48.1028   3
   0  -6  -4 2856.68 44.7078   3
   0   6  -4 2855.57 46.4313   6
   0  -6  -4 2892.38 44.8674   2
   0  -6  -4 2758.28 46.3312   1
  -6   0  -4 2818.76 47.5514   6
  -6   0   4 2854.21 47.8979   4
   0   6  -4 2763.24 46.3808   1
  -6   0  -4 2791.23 46.3382   1
   0   6  -4 2843.84 47.1638   5
   6   0  -4 2826.57 44.7870   2
  -6   1  -4 37.0132 5.17834   6
  -6   1  -4 23.1689 5.26413   3
  -6  -1   4 27.4111 4.59336   4
   6  -1  -4 28.5071 3.52784   2
  -1  -6  -4 30.0762 3.59330   2
  -6   1  -4 27.0280 4.32535   1
   6  -1  -4 25.5993 4.24047   1
  -1  -6  -4 33.6569 4.42924   1
   1   6  -4 32.4487 4.46801   1
   1   6  -4 24.8613 4.35473   5
  -1  -6  -4 37.1921 4.31045   3
  -1   6   4 20.0721 4.17663   4
   1   6  -4 35.1761 4.25039   6
   1  -6  -4 29.8990 3.68513   2
  -1   6  -4 27.8831 4.87020   5
  -6  -1  -4 22.8885 5.19208   3
  -1   6  -4 31.4301 4.40353   1
   1  -6  -4 28.8795 4.17674   1
  -1   6  -4 29.0217 4.62413   6
  -6   1   4 25.1312 4.72138   4
   6   1  -4 27.7259 4.33430   1
   1  -6  -4 33.3791 4.18113   3
   6   1  -4 27.3062 4.55589   4
   1   6   4 27.9186 4.44204   4
  -6  -1  -4 29.6683 4.33918   1
  -6  -1  -4 23.9543 4.47423   6
   6   1  -4 37.8301 3.94682   2
  -2  -6  -4 2397.29 39.7264   2
   6  -2  -4 2475.23 40.0078   2
   2   6  -4 2396.10 41.4781   1
  -6   2  -4 2448.94 41.6963   1
  -2  -6  -4 2466.06 39.9042   3
   2   6  -4 2482.66 39.8265   6
  -6   2  -4 2405.63 43.6880   6
  -6   2  -4 2454.67 42.9150   3
  -2  -6  -4 2463.03 41.5293   1
   2   6  -4 2490.28 41.4079   5
  -6  -2   4 2439.05 41.8149   4
   6  -2  -4 2431.14 41.5571   1
  -2   6  -4 2425.01 42.8586   6
   6   2  -4 2460.72 41.9580   5
  -6  -2  -4 2478.79 41.3295   6
   6   2  -4 2400.34 42.1027   4
   6   2  -4 2459.86 41.5274   1
   2  -6  -4 2424.51 41.6011   1
   6  -2   4 2502.56 42.1925   4
   2  -6  -4 2419.63 39.9850   2
  -6  -2  -4 2405.83 42.7499   3
  -2   6  -4 2444.95 41.6101   1
  -6  -2  -4 2487.01 41.6179   1
  -6  -2  -4 2423.92 39.6680   2
   2  -6  -4 2482.90 39.9678   3
   2  -6  -4 2475.94 41.6146   1
  -6   3  -4 535.580 14.9898   3
   6  -3  -4 522.285 12.7191   2
   3   6  -4 545.547 13.9935   1
   3   6  -4 518.688 13.3607   5
  -6   3  -4 543.101 14.4373   4
  -3  -6  -4 511.209 12.5270   2
  -6   3  -4 499.419 13.8001   1
  -6  -3   4 527.717 13.5104   4
  -3  -6  -4 503.193 13.7098   1
  -3  -6  -4 523.305 13.0788   3
   6  -3  -4 511.511 13.8619   1
  -6  -3  -4 525.546 13.7356   1
   3  -6  -4 499.825 12.5021   2
   6   3  -4 508.679 13.6451   5
   6   3  -4 497.451 13.6853   1
   6  -3   4 524.949 13.8772   4
  -3   6  -4 506.438 13.6925   1
   3  -6  -4 510.410 13.6834   1
  -6  -3  -4 538.063 13.1329   6
   3  -6  -4 513.361 13.0305   3
   6   3  -4 530.308 14.1788   4
  -6  -3  -4 489.461 14.8207   3
  -3   6  -4 521.597 15.5442   6
  -6  -3  -4 520.775 12.5156   2
  -4  -6  -4 3048.53 52.0936   1
   4   6  -4 3154.65 52.0646   1
  -6  -4   4 3123.93 50.7016   4
   6  -4  -4 3097.04 50.4326   2
   6  -4  -4 3020.67 52.1864   1
  -6   4  -4 3110.28 51.7790   3
  -6   4  -4 3095.26 55.4705   6
  -6   4  -4 3112.63 52.0920   4
   4   6  -4 3165.59 50.6167   5
  -6   4  -4 3122.43 52.0509   1
  -4  -6  -4 3129.10 50.1236   2
  -4  -6  -4 3205.94 50.5986   3
   4  -6  -4 3060.16 51.9236   1
  -4   6  -4 3056.16 54.9417   6
   6  -4   4 3179.69 51.4209   4
   4  -6  -4 3102.81 50.2831   2
  -6  -4  -4 3132.59 52.2912   3
   6   4  -4 3168.52 51.8670   4
  -6  -4  -4 3076.91 50.1103   2
  -6  -4  -4 3111.16 51.9878   1
  -4   6  -4 3038.20 51.8748   1
   6   4  -4 3096.93 51.0272   5
  -6  -4  -4 3218.34 50.2191   6
   6   4  -4 3046.54 51.9149   1
  -5  -6  -4 31.3243 5.12787   1
  -6   5  -4 33.7522 5.50146   1
  -6   5  -4 28.9130 6.73282   6
   6  -5  -4 36.2327 4.50041   2
  -6   5  -4 34.4657 5.34734   4
  -5  -6  -4 31.1562 4.44701   2
  -6   5  -4 32.9922 5.15618   3
  -5  -6  -4 33.2368 4.99108   3
   6  -5  -4 28.9472 5.12138   1
   5   6  -4 32.8785 4.84060   5
   5   6  -4 21.9819 4.83004   1
  -5   6  -4 34.8471 5.27794   1
  -6  -5  -4 30.5600 5.53766   3
  -6  -5  -4 35.9016 4.57710   2
   5  -6  -4 30.4660 5.05443   1
  -5   6  -4 38.8444 5.06626   3
   5  -6  -4 27.4209 4.30317   2
   6   5  -4 41.3138 5.12423   5
  -5   6  -4 34.3539 6.96505   6
   6   5  -4 28.9039 4.99286   1
  -6  -5  -4 23.9653 4.97826   1
   6  -6  -4 1214.48 24.7647   2
  -6   6  -4 1214.99 26.2397   1
  -6   6  -4 1212.91 24.4688   3
  -6  -6  -4 1227.00 24.5266   2
  -6  -6  -4 1198.11 26.1477   1
   6   6  -4 1228.10 26.0208   1
   6  -6  -4 1226.28 26.4200   1
  -6  -6  -4 1281.72 25.8619   3
   0  -7  -4 -1.7734 2.65246   2
  -7   0  -4 1.78370 3.84986   6
   7   0  -4 3.22963 3.65529   1
   0   7  -4 0.87574 3.42874   6
  -7   0  -4 4.02278 3.45530   1
   7   0  -4 3.76837 2.90220   2
   0  -7  -4 1.46489 3.37838   1
   0   7  -4 0.02288 4.04291   5
   0   7  -4 4.88714 3.55559   1
  -7  -1   4 350.729 12.0518   4
  -7   1  -4 336.121 12.1972   6
   1   7  -4 339.298 10.3870   6
   7  -1  -4 352.633 11.5241   1
   1   7  -4 330.527 11.3036   1
  -1  -7  -4 347.240 10.2475   2
   1   7  -4 361.995 11.5678   5
  -7   1  -4 328.204 11.2036   1
   7  -1  -4 365.884 10.4949   2
  -1  -7  -4 359.345 11.4787   1
  -1   7  -4 376.282 11.6738   1
  -1   7  -4 349.288 11.6051   6
   7   1  -4 347.809 11.3363   1
   1  -7  -4 346.973 11.2627   1
   7   1  -4 334.092 10.0823   2
  -1   7  -4 338.417 12.0425   5
   1  -7  -4 346.033 10.4086   2
  -7  -1  -4 353.724 11.5931   6
  -7  -1  -4 344.013 11.3000   1
   2   7  -4 123.908 7.59647   5
  -7  -2   4 136.311 8.27989   4
  -7   2  -4 131.476 9.28863   6
   7  -2  -4 134.985 7.02524   2
  -7   2  -4 134.767 7.95654   1
  -2  -7  -4 129.273 6.81095   2
   7  -2  -4 135.093 7.98348   1
  -2  -7  -4 140.518 8.00741   1
   2   7  -4 126.879 7.76006   1
  -7  -2  -4 120.296 7.59384   1
  -7  -2  -4 125.919 7.58066   6
  -2   7  -4 130.033 8.74412   6
   2  -7  -4 133.484 7.89175   1
   2  -7  -4 125.493 7.00395   2
   7   2  -4 131.174 7.85102   1
  -2   7  -4 128.910 7.97401   1
   2  -7  -4 133.668 7.87122   1
  -7   3  -4 752.114 17.8372   1
   3   7  -4 718.563 17.6011   1
   7  -3  -4 699.234 17.5213   1
  -3  -7  -4 709.009 17.5427   1
  -7  -3   4 738.796 17.4506   4
  -7   3  -4 725.848 20.0140   6
   7  -3  -4 706.364 16.4275   2
  -7   3  -4 728.984 18.9391   4
  -3  -7  -4 718.108 16.1201   2
   3   7  -4 687.956 16.4875   5
  -3   7  -4 679.327 17.3993   1
  -3   7  -4 695.085 19.1523   6
  -7  -3  -4 723.959 16.1664   2
   3  -7  -4 687.286 17.4801   1
   7   3  -4 698.584 17.0937   5
  -7  -3  -4 710.233 17.5450   1
   3  -7  -4 710.944 16.3979   2
  -7  -3  -4 691.954 18.7721   3
   7   3  -4 691.062 17.6113   1
  -7  -3  -4 724.780 16.5053   6
   7  -4  -4 2.73442 3.61218   2
  -7   4  -4 6.18737 4.51160   4
  -7   4  -4 8.40811 4.47678   1
   7  -4  -4 -1.7185 3.91907   1
  -7   4  -4 -9.3717 4.87230   6
  -7  -4   4 1.34400 3.66855   4
   4   7  -4 9.12143 4.38808   1
  -4  -7  -4 0.75287 3.64047   3
  -4  -7  -4 3.28786 4.16504   1
  -4  -7  -4 3.71664 3.40430   2
  -7  -4  -4 0.42185 4.56158   3
  -4   7  -4 -3.1575 4.77852   6
  -7  -4  -4 -2.3730 3.91103   1
   7   4  -4 3.47848 3.83994   5
   4  -7  -4 0.80024 4.09917   1
   7   4  -4 -2.1773 4.01370   1
  -7  -4  -4 -4.9913 3.21398   2
   4  -7  -4 2.98954 3.58925   2
  -4   7  -4 -0.2819 3.97541   1
  -7   5  -4 487.107 15.1338   1
  -5  -7  -4 518.769 13.9258   2
   7  -5  -4 505.860 15.4727   1
  -7   5  -4 526.189 15.4208   3
   7  -5  -4 510.757 14.2150   2
  -5  -7  -4 501.028 14.0898   3
   5   7  -4 497.065 15.3403   1
  -5  -7  -4 485.986 15.1094   1
  -7  -5  -4 502.259 15.7438   3
  -7  -5  -4 497.440 13.7061   2
   5  -7  -4 493.724 15.2634   1
   5  -7  -4 512.380 13.9748   2
   7   5  -4 504.242 15.4531   1
  -7  -5  -4 511.582 15.3860   1
  -5   7  -4 525.677 15.6670   1
   7  -6  -4 5.94918 4.67815   1
  -6  -7  -4 -1.9610 4.19079   3
  -7   6  -4 4.15812 4.51441   3
   7  -6  -4 -5.0436 3.53082   2
  -6  -7  -4 1.69725 4.27543   1
  -6  -7  -4 1.17297 3.72913   2
  -7   6  -4 3.24451 4.56238   1
   6   7  -4 5.94492 4.64417   1
  -7  -6  -4 0.16877 3.57488   2
   6  -7  -4 2.13246 3.80261   2
   7   6  -4 2.47074 4.51098   1
  -7  -6  -4 1.57780 4.31903   1
  -6   7  -4 3.32812 4.45077   1
   6  -7  -4 2.17626 4.29669   1
  -7  -6  -4 -3.0242 4.82180   3
  -7  -7  -4 29.6559 5.26722   2
  -7   7  -4 26.9916 6.29879   1
   7  -7  -4 37.3776 6.58402   1
  -7  -7  -4 36.3112 6.38056   3
   7   7  -4 31.8015 6.33911   1
  -7  -7  -4 28.7464 5.98410   1
   7  -7  -4 36.3488 5.64430   2
   0  -8  -4 3710.64 61.5355   1
  -8   0  -4 3760.68 61.7062   1
   0   8  -4 3714.17 61.5090   1
   8   0  -4 3719.52 59.7462   2
   0  -8  -4 3640.93 59.6039   2
   0   8  -4 3708.56 60.3173   6
  -8   0  -4 3717.28 61.8867   6
   8   0  -4 3725.91 61.5206   1
   8  -1  -4 73.1050 5.89666   2
   1   8  -4 68.3084 6.68733   1
   8  -1  -4 83.5461 7.04090   1
  -1  -8  -4 69.5192 5.77339   2
   1   8  -4 83.2800 7.08496   5
  -1  -8  -4 71.1491 6.65319   1
  -8   1  -4 60.5317 6.40526   1
  -8   1  -4 97.1165 7.95573   6
   8   1  -4 59.7229 6.21295   1
  -1   8  -4 56.4829 6.18238   1
  -8  -1  -4 87.4683 7.04152   6
   8   1  -4 70.6417 5.99054   2
   1  -8  -4 75.7043 6.67965   1
  -1   8  -4 76.5102 6.75845   6
  -8  -1  -4 74.5606 6.83693   1
   1  -8  -4 69.5336 5.82511   2
   2   8  -4 2694.29 45.5737   5
  -2  -8  -4 2667.95 46.9027   1
   2   8  -4 2611.68 46.8459   1
  -2  -8  -4 2748.47 45.1287   2
   8  -2  -4 2638.20 47.0316   1
  -8   2  -4 2608.24 46.9232   1
  -8   2  -4 2645.22 48.8097   6
   8  -2  -4 2562.83 44.9792   2
   2  -8  -4 2671.36 46.8398   1
  -8  -2  -4 2696.21 45.5618   6
   8   2  -4 2638.63 46.7916   1
  -2   8  -4 2680.05 46.9906   1
  -8  -2  -4 2658.53 46.7798   1
   2  -8  -4 2732.64 47.1770   1
   2  -8  -4 2689.01 45.0806   2
  -2   8  -4 2696.72 47.6200   6
  -8   3  -4 43.6962 7.27086   6
  -3  -8  -4 44.4027 5.04820   2
   3   8  -4 34.8507 5.67398   1
   8  -3  -4 35.2056 5.73324   1
  -8   3  -4 34.9612 5.59880   1
   8  -3  -4 43.1656 5.11140   2
  -3  -8  -4 43.0802 5.87150   1
   3  -8  -4 33.1354 5.57135   1
   3  -8  -4 35.0929 4.90511   2
   8   3  -4 32.3628 5.58232   1
  -3   8  -4 47.9744 6.97371   6
  -8  -3  -4 38.3800 5.81765   1
   8   3  -4 39.7580 5.62282   5
  -8  -3  -4 34.4626 4.85459   2
  -3   8  -4 48.6836 6.11246   1
  -8   4  -4 1930.55 40.9843   6
   8  -4  -4 1892.66 36.8910   1
  -8   4  -4 1952.39 37.1188   1
  -4  -8  -4 1955.80 35.1267   2
   8  -4  -4 1910.02 35.3024   2
  -4  -8  -4 1944.05 36.9786   1
   4   8  -4 1926.55 36.9904   1
  -8  -4  -4 1908.12 36.9627   1
  -8  -4  -4 1925.54 35.1356   2
   4  -8  -4 1968.63 35.4142   2
  -8  -4  -4 1897.04 37.9399   3
  -4   8  -4 1891.74 37.0599   1
  -4   8  -4 1946.67 40.0278   6
   8   4  -4 1862.30 36.9852   1
   4  -8  -4 1901.54 36.9470   1
   8   4  -4 1982.48 35.5239   5
  -5  -8  -4 55.2179 5.86200   2
   8  -5  -4 44.9324 6.66719   1
  -8   5  -4 53.0368 7.06342   1
  -5  -8  -4 57.7960 6.94183   1
   8  -5  -4 50.5454 5.91954   2
   5   8  -4 56.6980 6.93343   1
   8   5  -4 58.3043 6.99136   1
  -8  -5  -4 72.5993 7.83196   3
   5  -8  -4 40.7190 6.29534   1
  -8  -5  -4 43.6644 6.42049   1
  -8  -5  -4 60.3903 6.10972   2
  -5   8  -4 45.6533 6.54052   1
   5  -8  -4 62.5733 6.35973   2
  -8   6  -4 1485.70 31.8317   1
   6   8  -4 1575.88 32.1022   1
   8  -6  -4 1494.70 32.0942   1
   8  -6  -4 1465.78 29.8443   2
  -6  -8  -4 1437.72 29.5353   2
  -8   6  -4 1457.88 30.5412   3
  -6  -8  -4 1489.36 31.7081   1
   6  -8  -4 1463.30 31.6682   1
   8   6  -4 1424.93 31.4564   1
   6  -8  -4 1427.26 29.6663   2
  -8  -6  -4 1509.14 29.5627   2
  -8  -6  -4 1493.39 31.8370   1
  -8  -6  -4 1493.26 31.3898   3
  -6   8  -4 1472.51 31.6903   1
  -8   7  -4 13.5113 5.63825   1
   8  -7  -4 6.24113 4.67074   2
  -7  -8  -4 7.56825 4.70898   2
   8  -7  -4 6.36041 5.20985   1
   7   8  -4 6.41129 5.54459   1
  -7  -8  -4 13.1113 5.77507   1
   7  -8  -4 16.1926 5.69221   1
   7  -8  -4 18.0648 5.20616   2
  -8  -7  -4 6.42482 5.47104   1
  -8  -7  -4 11.2320 4.91814   2
  -7   8  -4 17.8207 6.20137   1
  -8  -7  -4 8.08898 5.79703   3
   8   7  -4 23.7155 6.36353   1
  -8  -8  -4 1621.06 32.5090   2
  -8  -8  -4 1561.81 34.7051   1
   8  -8  -4 1650.68 33.1314   2
   8  -8  -4 1572.48 34.9056   1
   8   8  -4 1553.67 34.5924   1
  -8   8  -4 1576.70 34.7344   1
  -9   0  -4 9.50771 4.88817   6
   9   0  -4 4.14558 3.55511   2
  -9   0  -4 4.16735 4.33974   1
   0  -9  -4 -2.9602 3.97802   1
   0   9  -4 -2.0823 4.37188   1
   9   0  -4 -1.2724 4.44325   1
   0  -9  -4 1.44891 3.46537   2
  -1  -9  -4 279.465 10.8264   2
  -9   1  -4 271.752 11.8863   1
   9  -1  -4 285.376 10.9252   2
  -9   1  -4 281.612 12.7613   6
  -1  -9  -4 303.734 12.2663   1
   1   9  -4 272.537 11.8869   1
   9  -1  -4 284.348 11.9921   1
   9   1  -4 287.888 11.9699   1
   1  -9  -4 289.040 10.8868   2
   1  -9  -4 287.900 11.8238   1
   9   1  -4 291.072 10.9764   2
  -9  -1  -4 286.154 11.9096   1
  -1   9  -4 282.281 11.5498   6
  -9  -1  -4 274.411 11.6602   6
  -1   9  -4 286.347 11.6944   1
  -9   2  -4 -5.4359 4.81366   6
   2   9  -4 -3.3402 4.22299   1
   9  -2  -4 -0.8656 3.73494   2
   9  -2  -4 9.69374 4.77694   1
  -9   2  -4 2.68855 4.62877   1
  -2  -9  -4 6.12095 4.02016   2
  -2  -9  -4 -0.2366 4.33014   1
   9   2  -4 3.62435 4.44051   1
   9   2  -4 6.56137 4.01511   2
  -2   9  -4 -0.4924 4.64995   6
  -2   9  -4 4.38739 4.51704   1
   2  -9  -4 4.23435 4.58189   1
  -9  -2  -4 7.87828 4.80785   1
   2  -9  -4 2.79645 4.48565   1
   2  -9  -4 4.01980 3.77511   2
  -3  -9  -4 715.741 19.1583   1
   3   9  -4 716.616 19.5036   1
  -9   3  -4 741.834 19.6961   1
   9  -3  -4 684.868 19.4198   1
  -3  -9  -4 690.757 17.8208   2
   9  -3  -4 717.666 17.9865   2
  -9   3  -4 676.459 21.5303   6
  -3   9  -4 719.867 20.7338   6
   3  -9  -4 722.200 18.0249   2
  -3   9  -4 696.680 19.3103   1
   3  -9  -4 697.321 19.4965   1
   9   3  -4 750.335 18.7898   5
   9   3  -4 733.337 19.7620   1
  -9  -3  -4 694.625 19.3438   1
   9  -4  -4 3.26389 4.66401   1
  -9   4  -4 5.54706 5.11302   1
  -4  -9  -4 2.46134 4.03950   2
  -4  -9  -4 3.78731 4.57549   1
  -9   4  -4 2.14580 6.39101   6
   4   9  -4 -0.7594 4.99450   1
   9  -4  -4 2.83253 4.25448   2
   4  -9  -4 9.49234 4.43802   2
  -4   9  -4 -4.8702 5.71986   6
   9   4  -4 -0.0829 4.77938   1
  -4   9  -4 4.50849 5.16082   1
  -9  -4  -4 8.62751 4.28181   2
  -9  -4  -4 -2.5229 4.80427   1
   4  -9  -4 10.3048 5.35026   1
   9  -5  -4 576.699 18.0189   1
   9  -5  -4 537.679 16.2816   2
  -5  -9  -4 588.768 17.7710   1
   5   9  -4 581.724 18.1239   1
  -5  -9  -4 569.683 16.2811   2
  -9   5  -4 550.526 17.8185   1
  -9  -5  -4 574.262 18.1016   1
  -9  -5  -4 561.980 16.1909   2
   5  -9  -4 566.721 17.9951   1
   9   5  -4 575.062 18.1088   1
   5  -9  -4 538.254 16.3848   2
  -9  -5  -4 562.137 18.4260   3
  -5   9  -4 578.847 18.3317   1
   9  -6  -4 9.41692 4.85402   2
  -9   6  -4 6.99436 5.76459   1
   9  -6  -4 4.94869 5.55593   1
  -6  -9  -4 -1.3938 4.24200   2
   6   9  -4 -3.3541 5.43189   1
  -6  -9  -4 3.45096 5.13413   1
  -9  -6  -4 9.04423 6.29050   3
  -9  -6  -4 -0.6785 4.18114   2
   6  -9  -4 -0.4926 5.14623   1
  -9  -6  -4 3.19659 5.47490   1
   6  -9  -4 6.82302 4.65278   2
   9   6  -4 6.98363 5.52127   1
  -6   9  -4 -0.4432 5.34755   1
  -7  -9  -4 186.716 11.8081   1
   9  -7  -4 205.044 11.3179   2
  -7  -9  -4 195.190 11.0917   2
  -9   7  -4 193.476 12.6769   1
   9  -7  -4 179.156 12.4762   1
   7   9  -4 189.237 12.0838   1
  -9  -7  -4 211.282 12.3588   3
   9   7  -4 187.382 12.2774   1
  -9  -7  -4 202.296 10.8290   2
   7  -9  -4 195.002 12.6104   1
  -9  -7  -4 187.541 12.3046   1
   7  -9  -4 195.214 11.2856   2
  -7   9  -4 209.641 12.6621   1
   9  -8  -4 -1.2120 4.70026   2
  -8  -9  -4 3.09467 5.78709   1
   8   9  -4 -6.8046 5.38708   1
  -9   8  -4 6.83024 6.36018   1
  -8  -9  -4 -0.6929 4.94101   2
   9  -8  -4 -10.848 5.68730   1
  -8   9  -4 1.89326 5.98486   1
   8  -9  -4 2.03864 4.97065   2
  -9  -8  -4 5.35340 4.81906   2
  -9  -8  -4 -4.1220 5.81808   1
   8  -9  -4 2.48157 5.90543   1
   9   8  -4 -5.9399 5.91012   1
  -9   9  -4 208.354 13.1503   1
   9  -9  -4 210.724 13.9729   1
   9  -9  -4 197.586 12.4388   2
  -9  -9  -4 200.205 11.7195   2
   9   9  -4 232.107 14.0660   1
  -9  -9  -4 197.958 13.8903   1
  10   0  -4 1359.11 29.8895   1
   0 -10  -4 1351.74 29.6768   1
   0  10  -4 1329.49 29.5847   1
   0 -10  -4 1355.51 27.9033   2
  10   0  -4 1336.36 27.8508   2
 -10   0  -4 1384.80 29.7403   6
 -10   0  -4 1281.58 29.3605   1
  -1 -10  -4 78.2008 7.98722   1
  10  -1  -4 59.2129 7.43560   1
  10  -1  -4 73.9506 6.96406   2
 -10   1  -4 67.7201 8.06501   6
  -1 -10  -4 64.0432 6.51233   2
 -10   1  -4 62.6381 7.65635   1
   1  10  -4 75.4058 7.79168   1
   1 -10  -4 72.8702 6.99606   2
  -1  10  -4 76.4823 8.02561   1
   1 -10  -4 69.8172 7.81949   1
  10   1  -4 63.7109 7.61642   1
 -10  -1  -4 66.0140 7.55796   1
  10   1  -4 55.4992 6.30024   2
   1 -10  -4 90.2768 8.21910   1
 -10  -1  -4 75.4150 7.79494   6
  10  -2  -4 1559.32 33.2883   1
  -2 -10  -4 1568.31 31.2287   2
   2  10  -4 1574.71 33.2500   1
  -2 -10  -4 1560.49 33.0003   1
 -10   2  -4 1605.74 33.4419   1
 -10   2  -4 1562.48 34.5477   6
  10  -2  -4 1503.54 31.1564   2
  -2  10  -4 1502.61 32.4792   6
   2 -10  -4 1552.69 33.1962   1
   2 -10  -4 1529.49 31.1161   2
 -10  -2  -4 1580.23 33.2650   1
  10   2  -4 1501.35 32.7195   1
  10   2  -4 1547.76 31.0466   2
  -2  10  -4 1591.24 33.1478   1
   2 -10  -4 1567.52 33.2703   1
 -10   3  -4 26.3974 6.30586   1
  10  -3  -4 40.4540 6.78490   1
 -10   3  -4 22.4371 7.05974   6
  10  -3  -4 24.8630 5.43536   2
   3  10  -4 24.8848 6.19252   1
  -3 -10  -4 25.6352 5.29179   2
  -3 -10  -4 32.6437 6.59362   1
   3 -10  -4 14.0926 5.70629   1
  10   3  -4 28.8415 6.55125   1
   3 -10  -4 23.5810 5.02066   2
 -10  -3  -4 30.7978 6.48756   1
  -3  10  -4 25.1616 6.28135   1
  -3  10  -4 28.3513 6.82688   6
  10  -4  -4 1314.77 30.3002   1
   4  10  -4 1302.25 30.0800   1
  10  -4  -4 1306.31 28.1443   2
  -4 -10  -4 1272.95 29.7074   1
  -4 -10  -4 1302.32 27.9529   2
 -10   4  -4 1331.47 30.0465   1
 -10   4  -4 1258.89 32.7414   6
 -10  -4  -4 1327.51 27.9386   2
   4 -10  -4 1310.83 28.1465   2
 -10  -4  -4 1309.87 30.1666   1
  -4  10  -4 1323.29 30.0672   1
  -4  10  -4 1302.50 32.2295   6
   4 -10  -4 1280.21 30.0460   1
  10   4  -4 1329.19 30.0687   1
 -10   5  -4 69.2501 10.9467   6
  -5 -10  -4 67.6323 7.41441   2
 -10   5  -4 75.3868 8.44736   1
  -5 -10  -4 71.4495 8.40705   1
   5  10  -4 81.4861 8.93485   1
  10  -5  -4 75.3607 7.59227   2
  10  -5  -4 89.7086 9.06808   1
  -5  10  -4 79.1947 11.1044   6
   5 -10  -4 77.0485 8.55460   1
  10   5  -4 62.5233 8.10972   1
 -10  -5  -4 74.7805 7.43511   2
 -10  -5  -4 79.5673 9.78603   3
  -5  10  -4 85.9366 9.03647   1
   5 -10  -4 80.7166 7.58266   2
 -10  -5  -4 77.4069 8.59134   1
  -6 -10  -4 1827.04 36.5996   2
  10  -6  -4 1792.48 36.8519   2
  10  -6  -4 1859.94 39.4086   1
   6  10  -4 1850.51 39.2804   1
 -10   6  -4 1893.68 39.5865   1
  -6 -10  -4 1775.48 38.8367   1
   6 -10  -4 1881.49 39.3146   1
   6 -10  -4 1839.13 37.0323   2
 -10  -6  -4 1818.33 36.7428   2
  -6  10  -4 1917.17 39.8135   1
  10   6  -4 1925.55 39.7784   1
 -10  -6  -4 1863.55 39.1319   1
 -10  -6  -4 1861.65 39.0706   3
 -10   7  -4 57.7105 8.61379   1
   7  10  -4 64.9365 8.96346   1
  -7 -10  -4 70.8174 7.76312   2
  10  -7  -4 77.6073 9.42554   1
  10  -7  -4 82.4632 8.37591   2
  -7 -10  -4 76.6181 9.20175   1
  -7  10  -4 90.2620 9.52890   1
 -10  -7  -4 67.5684 8.87366   1
  10   7  -4 79.1226 9.61254   1
   7 -10  -4 82.4343 9.66327   1
 -10  -7  -4 59.8428 9.01082   3
   7 -10  -4 66.1493 7.64741   2
 -10  -7  -4 67.5540 7.50311   2
 -10   8  -4 1278.35 32.2354   1
  10  -8  -4 1249.12 29.4916   2
  -8 -10  -4 1255.75 28.8458   2
  10  -8  -4 1222.82 31.5798   1
  -8 -10  -4 1244.60 31.4720   1
   8  10  -4 1286.71 32.0279   1
  10   8  -4 1249.42 31.6004   1
  -8  10  -4 1316.39 32.2610   1
   8 -10  -4 1267.37 32.0344   1
   8 -10  -4 1268.08 29.3353   2
 -10  -8  -4 1266.01 31.6834   1
 -10  -8  -4 1234.05 28.9011   2
  10  -9  -4 12.8532 7.28131   1
  -9 -10  -4 5.00003 6.99250   1
  10  -9  -4 14.6559 6.16646   2
 -10   9  -4 11.1402 7.14358   1
   9  10  -4 17.3515 7.39013   1
  -9 -10  -4 8.58734 5.78029   2
 -10  -9  -4 0.39184 6.64808   1
   9 -10  -4 10.8008 7.02572   1
  -9  10  -4 29.5400 7.84335   1
   9 -10  -4 5.64277 5.73388   2
  10   9  -4 18.5437 7.39293   1
 -10  -9  -4 13.6258 5.82600   2
  10  10  -4 800.485 26.2699   1
  10 -10  -4 908.583 24.4723   2
 -10 -10  -4 876.600 26.9404   1
 -10 -10  -4 847.218 24.1276   2
 -10  10  -4 851.644 26.9194   1
  10 -10  -4 840.422 26.8385   1
   0 -11  -4 -3.9352 3.98422   2
 -11   0  -4 0.74361 5.44100   1
  11   0  -4 0.99000 5.53570   1
   0 -11  -4 -1.2477 5.24807   1
   0  11  -4 0.86851 5.60704   1
 -11   0  -4 0.27812 5.37220   6
  11   0  -4 4.03362 4.73197   2
 -11   1  -4 310.228 14.5801   1
  -1 -11  -4 319.238 12.8479   2
  -1 -11  -4 311.454 14.3894   1
   1  11  -4 294.980 14.4490   1
  11  -1  -4 302.506 14.5881   1
  11  -1  -4 297.429 12.8348   2
 -11   1  -4 319.417 14.5542   6
   1 -11  -4 285.622 12.5236   2
  11   1  -4 300.579 14.1666   1
  -1  11  -4 327.848 14.3547   1
  11   1  -4 308.608 12.8350   2
   1 -11  -4 295.884 13.8534   1
   1 -11  -4 318.758 14.3332   1
 -11  -1  -4 304.335 14.2398   1
  11  -2  -4 4.07177 5.69477   1
  -2 -11  -4 -2.3226 4.62895   2
 -11   2  -4 -3.5403 5.26618   1
   2  11  -4 -5.1029 5.22606   1
  -2 -11  -4 -3.8373 5.35212   1
  11  -2  -4 -8.6958 4.30126   2
 -11   2  -4 -6.1452 5.81072   6
  -2  11  -4 -0.6393 5.29635   1
 -11  -2  -4 -7.1747 5.16649   1
  11   2  -4 2.38174 5.57183   1
  11   2  -4 -5.1458 4.22443   2
   2 -11  -4 -0.5885 5.09827   1
   2 -11  -4 4.91986 4.61506   2
   2 -11  -4 -5.9994 5.23883   1
 -11   3  -4 163.393 12.6866   6
 -11   3  -4 162.083 12.2227   1
  11  -3  -4 169.812 10.5651   2
  -3 -11  -4 146.838 10.0499   2
  -3 -11  -4 160.673 11.9666   1
   3  11  -4 163.845 12.1628   1
  11  -3  -4 178.668 12.1410   1
 -11  -3  -4 157.240 11.9415   1
  -3  11  -4 166.498 12.7709   6
   3 -11  -4 151.271 11.0691   1
   3 -11  -4 142.716 9.97607   2
  -3  11  -4 178.508 12.0676   1
  11   3  -4 153.463 11.9458   1
  11  -4  -4 15.6061 6.31838   1
 -11   4  -4 16.4953 6.73867   1
   4  11  -4 18.7015 6.83188   1
 -11   4  -4 1.97260 7.00466   6
  -4 -11  -4 20.8215 6.82768   1
  11  -4  -4 1.07489 4.95481   2
  -4 -11  -4 0.78066 4.81707   2
  -4  11  -4 4.29344 6.05213   1
   4 -11  -4 5.32448 5.09155   2
  11   4  -4 -0.4493 6.14072   1
 -11  -4  -4 15.3823 5.30251   2
 -11  -4  -4 20.0895 7.01757   1
   4 -11  -4 9.49835 6.09548   1
  -4  11  -4 20.4582 7.69984   6
 -11   5  -4 120.258 12.4343   6
  -5 -11  -4 117.432 9.22809   2
   5  11  -4 137.546 11.3627   1
 -11   5  -4 134.753 11.1111   1
  11  -5  -4 124.478 11.0633   1
  11  -5  -4 123.356 9.64821   2
  -5 -11  -4 126.558 10.9278   1
   5 -11  -4 119.629 10.4657   1
 -11  -5  -4 139.186 12.3907   3
  -5  11  -4 104.727 11.8404   6
   5 -11  -4 119.382 9.29707   2
 -11  -5  -4 134.225 9.82395   2
  11   5  -4 131.550 11.0287   1
 -11  -5  -4 130.580 11.0973   1
  -5  11  -4 110.677 10.4421   1
  -6 -11  -4 2.46633 5.20184   2
  11  -6  -4 8.58288 6.38770   1
 -11   6  -4 18.2297 9.59212   6
  11  -6  -4 6.32661 5.41244   2
 -11   6  -4 0.31703 6.18228   1
   6  11  -4 6.48118 6.54636   1
  -6 -11  -4 3.56835 6.43940   1
  11   6  -4 5.87430 6.42998   1
  -6  11  -4 7.15930 8.26682   6
 -11  -6  -4 19.3212 7.47735   3
   6 -11  -4 11.6606 5.50083   2
 -11  -6  -4 5.50294 5.11416   2
 -11  -6  -4 6.95376 6.42889   1
   6 -11  -4 4.56527 6.45641   1
  -6  11  -4 -0.2834 6.21757   1
  -7 -11  -4 443.036 16.2208   2
  11  -7  -4 462.746 18.6944   1
  11  -7  -4 456.338 16.8872   2
   7  11  -4 423.320 18.4954   1
 -11   7  -4 433.869 18.5218   1
  -7 -11  -4 450.325 18.6813   1
 -11  -7  -4 470.298 18.8173   3
 -11  -7  -4 450.050 18.7695   1
 -11  -7  -4 457.335 16.3037   2
   7 -11  -4 427.912 18.3672   1
  11   7  -4 421.214 18.3138   1
  -7  11  -4 434.283 18.3407   1
   7 -11  -4 429.813 16.3953   2
  11  -8  -4 3.67098 6.43791   1
   8  11  -4 1.09504 6.74688   1
  11  -8  -4 4.49715 5.95474   2
  -8 -11  -4 1.59466 5.44420   2
  -8 -11  -4 8.44825 7.25671   1
 -11   8  -4 -7.3236 6.42097   1
 -11  -8  -4 -2.4654 6.55693   1
   8 -11  -4 6.67913 7.03586   1
  11   8  -4 4.64134 7.03061   1
   8 -11  -4 2.64264 5.64605   2
  -8  11  -4 4.64808 7.05859   1
 -11  -8  -4 -3.3278 5.19854   2
  -9 -11  -4 272.585 14.1851   2
   9  11  -4 273.697 16.4255   1
 -11   9  -4 281.672 16.6633   1
  -9 -11  -4 289.243 16.4195   1
  11  -9  -4 292.812 14.8078   2
  11  -9  -4 285.586 16.6531   1
  -9  11  -4 280.017 16.6088   1
   9 -11  -4 266.218 16.1232   1
 -11  -9  -4 261.481 14.0345   2
 -11  -9  -4 282.613 16.3816   1
  11   9  -4 274.406 16.3389   1
   9 -11  -4 270.886 14.5895   2
 -10 -11  -4 0.07043 5.71745   2
  10  11  -4 -5.6687 7.16011   1
 -10 -11  -4 6.00030 7.13013   1
 -11  10  -4 12.4675 10.0299   6
  11 -10  -4 8.85655 6.57786   2
  11 -10  -4 -0.9034 7.19267   1
 -11  10  -4 10.2995 7.95982   1
 -11 -10  -4 -9.3996 6.75201   1
 -10  11  -4 4.84296 7.47442   1
 -11 -10  -4 -6.0028 5.47328   2
  10 -11  -4 -7.2921 7.19616   1
  10 -11  -4 -1.9981 5.92463   2
  11  10  -4 -3.8256 7.42977   1
 -10  11  -4 -2.8004 9.24842   6
 -12   0  -4 892.891 24.9860   1
   0 -12  -4 901.208 24.6700   1
   0 -12  -4 911.137 23.1427   2
  12   0  -4 832.399 24.4812   1
   0  12  -4 959.596 25.5451   1
  12   0  -4 884.749 22.9604   2
 -12   1  -4 1.35404 5.88209   1
  -1 -12  -4 7.61131 6.01188   1
  -1 -12  -4 9.82413 5.26167   2
   1  12  -4 14.5297 6.65483   1
  12  -1  -4 11.7286 6.53415   1
  12  -1  -4 -3.6663 4.85273   2
 -12   1  -4 4.91945 6.47804   6
   1 -12  -4 13.2381 6.71603   1
   1 -12  -4 0.44332 6.02565   1
  12   1  -4 7.91681 5.48841   2
   1 -12  -4 2.70756 5.10978   2
  12   1  -4 -0.7994 5.99530   1
  -1  12  -4 9.29339 6.43937   1
 -12  -1  -4 19.7531 6.71961   1
   2  12  -4 1630.17 36.7455   1
  -2 -12  -4 1677.81 36.9662   1
  12  -2  -4 1628.36 34.6285   2
 -12   2  -4 1651.81 37.1246   1
  -2 -12  -4 1653.92 34.4294   2
  12  -2  -4 1611.73 36.7091   1
 -12   2  -4 1739.16 38.1360   6
   2 -12  -4 1644.04 34.6847   2
   2 -12  -4 1703.24 37.1924   1
  12   2  -4 1676.26 34.7947   2
 -12  -2  -4 1705.56 37.3213   1
  -2  12  -4 1606.11 36.6882   1
  12   2  -4 1674.54 36.9457   1
  -3 -12  -4 -2.3362 5.09091   2
   3  12  -4 15.1277 6.81939   1
 -12   3  -4 8.80256 6.84647   6
  -3 -12  -4 -9.0456 5.79828   1
  12  -3  -4 2.11912 6.48395   1
 -12   3  -4 0.30348 6.19180   1
  12  -3  -4 7.54103 5.64030   2
  -3  12  -4 -4.2634 5.70447   1
  12   3  -4 16.9632 7.06577   1
   3 -12  -4 0.28112 6.20127   1
   3 -12  -4 5.80510 4.97121   2
 -12  -3  -4 -0.7667 5.98687   1
 -12   4  -4 1140.83 31.8696   6
 -12   4  -4 1130.43 29.7321   1
  12  -4  -4 1170.91 30.0196   1
  12  -4  -4 1174.35 27.7457   2
  -4 -12  -4 1155.40 27.4956   2
   4  12  -4 1187.60 30.4813   1
  -4 -12  -4 1159.71 30.1011   1
 -12  -4  -4 1181.30 30.1411   1
   4 -12  -4 1114.76 27.3482   2
   4 -12  -4 1136.79 29.9938   1
  12   4  -4 1174.24 30.0933   1
  -4  12  -4 1142.12 29.9847   1
 -12  -4  -4 1183.62 27.4290   2
 -12   5  -4 -11.762 7.17053   6
  12  -5  -4 -1.0308 6.08251   1
   5  12  -4 -4.2000 6.33436   1
  12  -5  -4 -6.1568 4.99444   2
  -5 -12  -4 7.03439 5.57529   2
  -5 -12  -4 13.4945 6.60041   1
 -12   5  -4 -1.2324 6.22643   1
 -12  -5  -4 4.45854 6.55393   1
  -5  12  -4 -2.7415 7.21061   6
  12   5  -4 2.93178 6.49647   1
 -12  -5  -4 -7.1745 6.87416   3
  -5  12  -4 -1.7986 5.90700   1
   5 -12  -4 5.87016 5.42637   2
   5 -12  -4 -5.1721 5.91794   1
 -12  -5  -4 -3.6061 5.22534   2
 -12   6  -4 1732.61 39.4900   1
   6  12  -4 1712.95 39.1033   1
  -6 -12  -4 1809.22 37.0726   2
  12  -6  -4 1740.27 37.0223   2
  12  -6  -4 1687.56 39.4858   1
 -12   6  -4 1762.47 43.9471   6
  -6 -12  -4 1706.17 39.1020   1
   6 -12  -4 1702.66 36.7057   2
  -6  12  -4 1717.96 41.9123   6
 -12  -6  -4 1680.08 39.2283   3
  12   6  -4 1754.56 39.9498   1
   6 -12  -4 1771.71 39.8270   1
 -12  -6  -4 1747.86 36.5814   2
 -12  -6  -4 1644.80 39.1357   1
  -6  12  -4 1690.17 39.6951   1
  -7 -12  -4 20.2621 7.73717   1
 -12   7  -4 15.9968 9.29744   6
  12  -7  -4 20.4204 7.90835   1
 -12   7  -4 12.9082 7.26575   1
  12  -7  -4 15.4562 6.47171   2
  -7 -12  -4 17.4216 6.52394   2
   7  12  -4 17.9862 8.02291   1
 -12  -7  -4 15.7239 7.40804   1
  -7  12  -4 24.7813 7.75059   1
   7 -12  -4 11.3040 5.92596   2
   7 -12  -4 24.6408 7.88429   1
 -12  -7  -4 10.6655 6.21057   2
 -12  -7  -4 12.0083 7.79736   3
  -7  12  -4 24.3986 9.43075   6
  12   7  -4 33.6326 8.48262   1
 -12   8  -4 848.258 26.8240   1
   8  12  -4 846.396 26.7324   1
 -12   8  -4 800.136 30.3242   6
  -8 -12  -4 825.474 23.9731   2
  -8 -12  -4 834.569 26.7170   1
  12  -8  -4 825.722 26.6250   1
  12  -8  -4 891.232 24.6902   2
 -12  -8  -4 850.855 26.8464   1
   8 -12  -4 850.180 26.9336   1
   8 -12  -4 829.848 24.1782   2
 -12  -8  -4 896.485 24.3451   2
  -8  12  -4 848.341 26.9890   1
  12   8  -4 844.131 27.0541   1
  -8  12  -4 866.044 30.3751   6
 -12   9  -4 31.7396 11.0535   6
  -9  12  -4 37.1440 11.1307   6
   0 -13  -4 1.68247 6.20765   1
   0 -13  -4 0.53198 6.46765   1
  13   0  -4 -1.5038 5.18150   2
 -13   0  -4 -2.7832 6.66638   1
   0 -13  -4 -4.5116 4.99259   2
   0  13  -4 2.63408 6.74654   1
  13   0  -4 9.92407 6.78176   1
   1  13  -4 415.573 18.2235   1
  13  -1  -4 444.574 17.8815   1
  13  -1  -4 405.452 16.0527   2
  -1 -13  -4 411.326 17.2850   1
 -13   1  -4 443.196 18.3383   1
  -1 -13  -4 406.214 15.8584   2
  13   1  -4 436.647 18.0295   1
   1 -13  -4 399.625 17.7895   1
  13   1  -4 409.777 16.1525   2
 -13  -1  -4 418.486 17.9953   1
  -1  13  -4 377.890 17.5328   1
   1 -13  -4 412.391 16.0931   2
   1 -13  -4 433.798 18.0100   1
 -13   2  -4 -1.2971 6.81018   1
  -2 -13  -4 7.52825 6.87455   1
  13  -2  -4 11.4763 7.11254   1
 -13   2  -4 -6.4985 6.96544   6
  -2 -13  -4 7.91596 5.53168   2
   2  13  -4 -9.7293 6.85107   1
  13  -2  -4 14.7335 5.97922   2
   2 -13  -4 -4.3293 6.31399   1
  -2  13  -4 -8.4730 6.17246   1
 -13  -2  -4 4.83207 6.74459   1
   2 -13  -4 -0.9232 5.44203   2
  13   2  -4 4.15263 5.46331   2
  13   2  -4 3.98592 6.79156   1
   3  13  -4 160.073 13.0358   1
  13  -3  -4 172.325 12.1740   2
 -13   3  -4 192.938 14.8248   6
  -3 -13  -4 156.512 12.0587   2
  -3 -13  -4 183.115 13.8742   1
  13  -3  -4 183.939 14.0344   1
 -13   3  -4 182.716 13.8626   1
   3 -13  -4 189.591 13.3216   1
  13   3  -4 203.124 14.2114   1
  -3  13  -4 180.267 13.5680   1
   3 -13  -4 208.625 12.2932   2
 -13  -3  -4 178.949 13.8218   1
  -4 -13  -4 3.41820 5.47930   2
  13  -4  -4 18.4975 7.51816   1
  -4 -13  -4 11.1491 7.48394   1
  13  -4  -4 16.8556 6.50443   2
   4  13  -4 12.4052 7.09535   1
 -13   4  -4 5.58335 7.03084   1
 -13   4  -4 6.28493 7.33014   6
 -13  -4  -4 6.04304 6.00272   2
  -4  13  -4 9.84522 7.32515   1
  13   4  -4 26.6061 8.08536   1
 -13  -4  -4 7.72237 7.31486   1
   4 -13  -4 4.17302 7.39771   1
   4 -13  -4 20.0703 6.31974   2
  13  -5  -4 173.041 12.2270   2
   5  13  -4 153.949 13.2854   1
 -13   5  -4 188.021 15.5320   6
  -5 -13  -4 157.696 13.2260   1
  13  -5  -4 190.541 14.1538   1
  -5 -13  -4 155.254 11.9408   2
 -13   5  -4 163.703 13.1772   1
   5 -13  -4 158.471 12.1058   2
   5 -13  -4 179.984 13.7495   1
 -13  -5  -4 172.490 14.9124   3
  -5  13  -4 150.324 12.7763   1
 -13  -5  -4 156.438 11.5248   2
  13   5  -4 145.608 12.5750   1
 -13  -5  -4 175.879 13.7844   1
  -6 -13  -4 10.1530 6.22276   2
 -13   6  -4 11.2568 7.27437   1
   6  13  -4 16.1417 8.29735   1
  -6 -13  -4 8.04508 7.62765   1
  13  -6  -4 -0.9162 6.90232   1
 -13   6  -4 5.55023 8.74208   6
  13  -6  -4 3.95479 5.93746   2
   6 -13  -4 4.20369 6.06422   2
 -13  -6  -4 14.3813 6.50004   2
  -6  13  -4 11.2718 7.64954   1
 -13  -6  -4 11.0144 7.78955   1
 -13  -6  -4 27.6916 9.04574   3
  -6  13  -4 23.9252 9.10529   6
  13   6  -4 15.1332 7.47500   1
   6 -13  -4 12.4762 7.07006   1
  -7 -13  -4 572.771 20.1862   2
  -7 -13  -4 535.095 22.1221   1
 -13   7  -4 585.707 24.8713   6
  13  -7  -4 570.854 22.1353   1
 -13   7  -4 588.192 23.1320   1
   7  13  -4 555.003 22.2831   1
  13  -7  -4 588.275 20.4994   2
   7 -13  -4 603.326 20.2524   2
  13   7  -4 573.462 22.3908   1
  -7  13  -4 591.235 24.4743   6
  -7  13  -4 619.612 22.7706   1
 -13  -7  -4 557.914 22.4104   1
 -13  -7  -4 556.937 22.3500   3
 -13  -7  -4 567.831 19.6617   2
   7 -13  -4 582.683 22.4322   1
   0  14  -4 964.388 28.3985   1
   0 -14  -4 975.587 25.5000   2
   0 -14  -4 934.492 27.9741   1
  14   0  -4 962.117 25.5620   2
  14   0  -4 930.249 28.1038   1
 -14   0  -4 923.249 28.0036   1
   0 -14  -4 872.728 27.3987   1
 -14   1  -4 24.2406 8.23910   1
  -1 -14  -4 23.8759 8.13424   1
   1  14  -4 23.4712 8.16146   1
  14  -1  -4 24.6227 6.80681   2
  -1 -14  -4 29.7817 6.96313   2
  14  -1  -4 19.5952 7.77877   1
 -14  -1  -4 22.8500 8.13896   1
  -1  14  -4 13.4116 8.20618   1
   1 -14  -4 10.2489 7.58467   1
   1 -14  -4 49.3552 7.91264   2
   1 -14  -4 22.0299 8.05781   1
  14   1  -4 21.5879 6.62648   2
  14   1  -4 36.0041 8.66922   1
  -2 -14  -4 1373.96 32.1669   2
  14  -2  -4 1381.78 32.5214   2
  14  -2  -4 1334.50 34.9187   1
   2  14  -4 1350.60 35.1089   1
 -14   2  -4 1359.22 34.9923   1
  -2 -14  -4 1375.43 34.9969   1
  14   2  -4 1371.59 34.9865   1
   2 -14  -4 1364.73 34.9379   1
  -2  14  -4 1416.39 35.2198   1
 -14  -2  -4 1336.06 34.4748   1
   2 -14  -4 1403.01 32.2355   2
  -3 -14  -4 92.0306 9.35250   2
  -3 -14  -4 91.4028 11.0711   1
  14  -3  -4 83.1500 9.25985   2
 -14   3  -4 82.8655 11.2676   1
  14  -3  -4 90.0421 11.4445   1
 -14   3  -4 102.592 11.7487   6
   3  14  -4 94.6890 11.7473   1
   3 -14  -4 71.9079 10.1783   1
 -14  -3  -4 71.2449 10.5527   1
  14   3  -4 76.7434 10.9282   1
  -3  14  -4 59.8070 9.91718   1
   3 -14  -4 74.1038 8.91633   2
  -4 -14  -4 488.540 20.7885   1
 -14   4  -4 526.329 22.4195   6
 -14   4  -4 508.479 21.2347   1
   4  14  -4 495.194 21.0515   1
  -4 -14  -4 499.764 19.0443   2
  14  -4  -4 545.549 19.4890   2
  14  -4  -4 506.274 21.1646   1
  14   4  -4 520.921 21.3952   1
  -4  14  -4 511.782 20.8543   1
 -14  -4  -4 522.742 18.8006   2
 -14  -4  -4 501.352 20.9653   1
   4 -14  -4 508.320 19.0503   2
   4 -14  -4 522.307 21.2354   1
  14  -5  -4 1.44590 5.87804   2
   5  14  -4 5.65397 7.72542   1
  -5 -14  -4 -1.8477 5.75263   2
 -14   5  -4 18.1330 8.43509   6
  -5 -14  -4 -1.0670 7.25033   1
  14  -5  -4 5.15942 7.56037   1
 -14   5  -4 2.04798 7.21169   1
   5 -14  -4 7.34801 7.17085   1
  -5  14  -4 -7.8759 7.49762   1
 -14  -5  -4 -1.0854 7.20988   1
  14   5  -4 -1.6451 7.06156   1
 -14  -5  -4 -15.805 5.36444   2
   5 -14  -4 5.16948 6.06478   2
 -14  -5  -4 10.3557 8.63555   3
   0   0   5 -4.8510 2.25554   4
   0   0  -5 2.72017 3.23838   3
   0   0  -5 -2.1544 2.94380   6
   0   0  -5 1.14785 3.02066   5
  -1   0  -5 -2.2795 2.99923   3
  -1   0  -5 -2.6422 3.05846   6
   0  -1   5 -4.7049 2.00643   4
   0  -1  -5 -1.9492 3.10808   6
   0   1   5 -0.2754 2.58799   4
  -1   0   5 -3.3171 2.28792   4
   0  -1  -5 -0.0989 3.14244   3
   0   1  -5 -6.3203 2.91493   6
   1   0   5 -2.3526 2.31490   4
  -1   0  -5 2.36107 3.16168   5
   0   1  -5 -6.0155 2.83748   3
   1   0  -5 -2.2603 2.97846   5
   1   0  -5 -0.1494 3.02852   6
   0   1  -5 -6.0377 2.89804   5
   0  -1  -5 -1.3342 2.92846   5
   1   0  -5 -3.7308 2.97785   3
  -1   1  -5 -2.1778 2.96776   5
  -1  -1  -5 -3.4964 3.09188   3
   1   1  -5 -0.3892 3.14892   3
  -1  -1   5 -3.7182 2.15989   4
   1  -1  -5 1.52347 3.21927   6
   1   1  -5 -1.3226 3.13008   5
   1  -1  -5 -1.2106 2.93859   5
  -1   1  -5 4.45123 3.25695   3
  -1  -1  -5 -4.4282 2.92385   5
  -1   1   5 -2.9901 2.43388   4
  -1  -1  -5 -3.2409 2.91175   6
   1   1  -5 -3.8856 3.05137   6
  -1   1  -5 -6.6968 3.05469   6
   1  -1  -5 -1.5367 2.81328   4
   1   1   5 0.66287 2.68884   4
   1  -1   5 -3.2339 2.16450   4
   1  -1  -5 -1.3831 3.12200   3
   0   2  -5 423.844 11.0809   3
   0  -2  -5 432.300 11.9228   6
  -2   0   5 421.484 10.7319   4
   0   2   5 444.813 11.6422   4
   0  -2   5 440.188 9.22049   4
   0   2  -5 425.332 11.6441   6
   2   0  -5 440.230 11.8427   3
   2   0  -5 413.563 11.5525   6
  -2   0  -5 446.057 11.5151   5
  -2   0  -5 417.629 11.7260   6
   0  -2  -5 419.919 11.4310   3
   0  -2  -5 434.644 11.0661   5
  -2   0  -5 432.718 11.6061   3
   2   0  -5 441.334 10.8366   4
   0   2  -5 438.417 11.9662   5
   1  -2   5 -1.0197 1.96771   4
  -2   1  -5 -4.4202 3.10684   3
  -1   2   5 -2.4052 2.57141   4
   1   2  -5 -0.7351 2.88235   6
  -2   1  -5 -1.1955 3.20116   6
  -1  -2  -5 -1.7288 3.19184   6
   2  -1  -5 0.97847 2.84478   4
   1   2  -5 0.61246 3.06419   3
   1   2  -5 -0.2594 3.01663   5
  -2  -1   5 1.25905 2.52087   4
   2  -1  -5 -4.6726 3.18955   3
  -2   1  -5 -0.0764 3.28640   5
  -1  -2  -5 5.56157 3.13384   5
   2  -1  -5 -2.7559 3.20535   5
  -1  -2  -5 -2.2755 2.96245   3
  -1   2  -5 3.32280 3.12694   3
   1   2   5 -0.0070 2.60826   4
   2   1  -5 0.44316 2.48142   4
  -1  -2   5 1.55571 2.03700   4
   2   1  -5 1.01745 3.07269   6
  -2  -1  -5 1.43040 3.23747   3
   1  -2  -5 1.82196 3.16989   5
   2   1  -5 1.18690 3.23419   3
  -2  -1  -5 -0.3953 2.81421   5
  -1   2  -5 1.32045 3.00694   5
   2   1  -5 -0.2674 3.08542   5
   1  -2  -5 -3.9909 2.96655   3
  -2   1   5 -2.4509 2.57961   4
  -1   2  -5 -2.1790 3.27316   6
  -2  -1  -5 -2.6295 3.03513   6
   2  -2  -5 -1.2371 2.78749   4
  -2  -2  -5 -2.4852 2.91554   6
   2  -2  -5 0.81398 2.00108   1
   2  -2  -5 -1.0214 3.21769   5
   2   2  -5 1.25118 2.88688   6
   2   2  -5 0.24045 2.04492   1
  -2   2  -5 -3.1502 3.07527   6
  -2  -2  -5 -0.4856 3.10333   3
   2   2  -5 5.69051 3.44235   3
   2  -2  -5 -2.4440 3.22935   3
  -2  -2  -5 -5.7796 2.56880   5
  -2  -2  -5 1.45092 2.04017   1
   2   2  -5 -0.8113 2.13308   4
  -2   2   5 0.92727 2.92072   4
  -2   2  -5 3.29001 2.09332   1
  -2   2  -5 -1.6026 3.15232   5
   2   2  -5 -1.2875 3.24209   5
   2  -2   5 -2.1159 2.21102   4
  -2  -2   5 -1.9961 2.06533   4
  -2   2  -5 -4.3592 3.08043   3
   0   3  -5 -2.4644 2.08971   1
   0   3  -5 1.87182 3.17651   6
   3   0  -5 -1.5630 2.16851   1
   3   0  -5 -0.7711 2.83556   4
   0  -3  -5 -3.1409 2.01304   1
   0  -3  -5 -4.2157 2.99446   3
  -3   0  -5 1.88941 3.25476   5
   3   0  -5 -4.0170 3.25368   3
   3   0  -5 -4.5449 2.99070   5
   0  -3  -5 -5.0567 2.73894   5
   0   3  -5 -4.4101 2.97719   5
  -3   0  -5 2.98701 3.31386   6
  -3   0  -5 0.32007 3.36781   3
   0  -3   5 -2.8788 1.56059   4
   0   3  -5 0.91555 2.87260   3
  -3   0  -5 1.79718 2.18759   1
  -3   0   5 -2.5830 2.62438   4
   0   3   5 -3.7475 2.73580   4
  -1   3   5 0.51281 2.94605   4
  -1  -3  -5 -3.3296 2.75841   5
  -3   1  -5 1.08353 2.27762   1
  -3   1  -5 -2.3989 3.31192   6
   1   3  -5 -0.8892 3.53488   5
  -3   1  -5 2.70949 3.35038   5
   3  -1  -5 3.76782 3.10491   4
   1  -3   5 4.06436 1.88060   4
   3  -1  -5 2.52386 3.36227   3
  -1  -3  -5 2.25496 2.26118   1
   1   3  -5 5.37649 3.20034   6
  -3   1  -5 1.21524 3.40310   3
   1   3  -5 4.08208 2.27501   1
   3  -1  -5 5.10608 3.70496   5
  -3  -1   5 5.06123 2.84310   4
  -1  -3  -5 2.66602 3.44963   6
   1   3  -5 1.67537 3.16385   3
  -1  -3  -5 3.68084 3.27398   3
   3  -1  -5 3.49287 2.29550   1
   1  -3   5 1.39067 1.71199   4
  -3   1   5 -1.5060 2.89606   4
   1  -3  -5 4.82102 2.39133   1
   3   1  -5 2.44546 2.29533   1
  -1  -3   5 1.37173 1.75251   4
   1   3   5 3.34694 2.91266   4
   1  -3  -5 2.09111 2.35669   1
   3   1  -5 1.27438 3.43189   3
   1  -3  -5 0.23331 3.09251   5
  -1   3  -5 4.22071 3.34175   6
  -1   3  -5 5.09549 2.40221   1
  -1   3  -5 5.51537 3.21275   3
  -3  -1  -5 2.02049 2.37553   1
   3   1  -5 4.87860 2.68138   4
   3  -1   5 2.97258 2.83273   4
  -3  -1  -5 5.68988 3.44768   6
  -3  -1  -5 -0.4933 3.39465   3
  -1   3  -5 -1.4538 3.41995   5
  -3  -1  -5 0.23952 2.95248   5
   1  -3  -5 -0.2562 2.99777   3
   3   1  -5 -1.4103 3.24147   5
   2   3  -5 181.118 5.38300   4
  -3   2  -5 179.407 7.82983   3
  -2  -3  -5 185.476 8.00472   6
   2   3  -5 182.501 7.64124   6
  -2   3   5 174.626 8.14517   4
   2  -3   5 195.677 6.00153   4
  -3   2  -5 187.432 8.34727   5
  -3  -2   5 175.886 6.61840   4
  -2  -3  -5 188.800 6.34473   1
   3  -2  -5 186.265 8.24563   4
  -3   2  -5 187.313 8.65610   6
  -2  -3  -5 182.477 7.91361   3
  -3   2  -5 181.800 6.32879   1
   2   3  -5 183.239 7.72399   3
   2   3  -5 177.911 6.20859   1
   3  -2  -5 176.526 8.06422   3
  -2  -3  -5 190.856 6.99763   5
   2   3  -5 176.373 8.21906   5
   3  -2  -5 181.302 6.28998   1
  -3  -2  -5 184.507 6.24468   1
  -2   3  -5 186.270 7.64604   3
  -3  -2  -5 182.206 8.20579   3
   3   2  -5 191.605 7.74201   6
   2  -3  -5 175.850 6.29719   1
   3   2  -5 179.030 8.06115   5
   3  -2   5 191.067 6.92437   4
  -3   2   5 190.954 8.21106   4
  -3  -2  -5 195.476 7.26978   5
  -2   3  -5 182.809 6.26341   1
   3   2  -5 188.539 6.62960   4
  -3  -2  -5 191.072 8.15434   6
  -2  -3   5 187.118 5.68430   4
  -2   3  -5 189.737 8.45519   6
   3   2  -5 184.403 6.33679   1
   2  -3  -5 201.683 8.37548   4
   2  -3  -5 189.113 8.14723   3
   3   2  -5 183.847 7.97668   3
   3  -3  -5 1.32388 3.55250   3
  -3   3  -5 1.23974 3.33916   3
   3   3  -5 -1.3676 3.19995   5
   3  -3  -5 -3.1619 2.39551   1
  -3  -3  -5 -3.1083 2.50357   1
   3  -3   5 -1.8632 2.36218   4
   3   3  -5 0.59132 2.88625   6
  -3   3  -5 -3.0179 3.71944   6
  -3  -3  -5 1.92684 3.36701   6
   3   3  -5 -0.6169 2.08055   4
  -3   3  -5 0.15875 3.81851   5
  -3  -3  -5 -1.2194 3.15553   3
  -3  -3   5 0.20645 2.23223   4
   3   3  -5 -3.5703 3.23785   3
  -3   3   5 -3.5679 2.92983   4
  -3   3  -5 -5.6674 2.39188   1
  -3  -3  -5 -0.6677 2.40024   5
   3   3  -5 -1.3160 2.42467   1
   4   0  -5 226.339 9.21927   3
   0   4   5 218.737 8.97235   4
   0  -4  -5 226.105 7.21645   1
   4   0  -5 229.708 9.23213   5
  -4   0  -5 230.818 7.13083   1
   0  -4  -5 220.588 8.01111   5
   0   4  -5 231.820 8.85458   6
   0   4  -5 227.998 7.17447   1
  -4   0  -5 239.848 8.77937   5
   4   0   5 209.409 8.41268   4
   0  -4  -5 220.779 8.54746   3
   4   0  -5 245.210 7.40158   1
   4   0  -5 230.728 8.43892   4
  -4   0  -5 218.542 9.25414   6
  -4   0  -5 203.793 9.05543   3
  -4   0   5 231.753 8.64191   4
   0   4  -5 234.778 7.94107   3
   0   4  -5 222.675 9.24887   5
  -4   1  -5 2.20118 3.46421   6
   1   4  -5 3.04838 3.08030   3
  -4   1  -5 -0.1782 3.46721   5
   4  -1  -5 2.18387 2.54678   1
   4  -1  -5 4.05341 3.79464   3
  -4   1  -5 0.40818 3.64649   3
   4  -1  -5 4.98294 3.21927   4
   1   4  -5 6.34306 3.62253   5
   1   4  -5 2.13097 2.47745   1
  -1  -4  -5 1.54726 2.56397   1
  -1  -4  -5 0.46271 2.66446   5
  -4   1  -5 0.88545 2.46392   1
  -1   4   5 4.27004 3.28148   4
  -1  -4  -5 -1.1246 3.03103   3
   1   4  -5 -1.7229 2.99058   6
  -4  -1   5 -2.8911 2.65957   4
  -4   1   5 3.53047 3.13227   4
   4  -1   5 0.13160 2.79007   4
   4   1  -5 2.53340 2.69289   1
   4   1  -5 1.62163 3.70787   5
  -4  -1  -5 -0.0725 3.30630   3
   4   1  -5 0.40799 3.49885   3
  -4  -1  -5 -2.3281 3.22860   6
   1   4   5 0.33020 2.98725   4
  -1   4  -5 6.73270 3.71753   5
   1  -4  -5 1.66241 3.17346   5
   1  -4  -5 3.90204 3.38992   3
  -1   4  -5 1.68455 3.36317   6
  -4  -1  -5 0.79226 2.94417   5
  -1   4  -5 -4.7720 2.26095   1
  -4  -1  -5 3.52982 2.57265   1
  -1   4  -5 2.62013 3.05815   3
   4   1  -5 2.61290 2.90999   4
   1  -4  -5 -1.2099 2.45007   1
   2   4  -5 280.189 9.07501   6
  -4   2  -5 278.051 10.2176   5
   4  -2  -5 300.921 8.67546   1
  -4  -2   5 287.487 8.90308   4
   2   4  -5 289.670 9.35590   3
  -2  -4  -5 289.152 8.32657   5
  -2  -4  -5 272.052 9.51067   3
  -4   2  -5 289.011 8.55923   1
   2   4  -5 260.338 10.0095   5
  -4   2  -5 280.867 10.8618   6
   2   4  -5 289.119 8.43435   1
  -4   2  -5 278.349 9.90612   3
  -2  -4  -5 279.726 9.72914   6
  -2  -4  -5 286.879 8.39539   1
   4  -2  -5 290.719 10.3553   3
  -2   4   5 281.034 10.2264   4
   4   2  -5 298.218 10.2612   3
  -4  -2  -5 256.054 9.48367   6
  -4  -2  -5 286.007 10.2683   3
  -4   2   5 276.835 10.1711   4
  -2   4  -5 282.511 8.33678   1
   2  -4  -5 272.497 8.38167   1
   4   2  -5 280.338 8.74941   4
   4   2  -5 279.235 9.92834   5
   2   4   5 271.393 10.2822   4
   4  -2   5 283.050 9.01180   4
   4   2  -5 294.297 8.47508   1
  -4  -2  -5 267.887 8.25293   1
  -4  -2  -5 271.731 8.72524   5
   2  -4  -5 268.514 9.70231   3
  -2   4  -5 281.791 9.12632   3
  -4   3  -5 17.1080 4.18293   3
  -4   3  -5 17.4993 4.87837   6
   3   4  -5 19.9565 4.44393   5
   4  -3  -5 24.2210 4.60443   3
   3   4  -5 20.3699 4.21739   3
  -3  -4  -5 29.5392 4.35151   6
  -4   3  -5 17.8358 4.64202   5
   3   4  -5 25.1255 3.73129   1
  -4  -3   5 17.1877 3.31968   4
  -4   3  -5 17.7544 3.66667   1
   4  -3  -5 22.3901 3.67591   1
   4  -3  -5 21.8907 2.52036   2
  -3  -4  -5 25.0766 2.30971   2
   3   4  -5 21.6889 3.67667   6
  -3  -4  -5 24.5679 3.41550   5
  -3  -4  -5 20.8629 3.66750   1
  -3  -4  -5 31.8292 4.67024   3
   4   3  -5 22.5991 3.65122   1
  -3   4  -5 20.4508 4.58746   5
  -4  -3  -5 13.9273 4.30794   3
   3  -4  -5 25.9424 3.64599   1
  -3   4  -5 23.7497 4.26043   3
  -4  -3  -5 21.5729 3.62566   1
   3  -4  -5 13.0072 3.99870   3
   4  -3   5 23.9661 3.69732   4
  -4  -3  -5 18.1659 3.31832   5
  -4  -3  -5 20.2681 2.18342   2
  -3   4  -5 19.1401 3.66288   1
  -4   3   5 22.4806 4.52080   4
   4   3  -5 17.6098 3.20774   4
   3  -4  -5 23.4459 2.42895   2
   4   3  -5 20.7197 4.65710   3
  -3   4  -5 18.2015 4.78224   6
   4   3  -5 12.0644 4.10218   5
  -4  -3  -5 26.5158 4.21927   6
  -4   4  -5 1.23306 3.28309   3
   4   4  -5 -3.8247 2.87627   1
   4  -4  -5 5.18037 3.77827   3
  -4   4  -5 -0.9399 2.58910   1
   4  -4  -5 3.12859 2.24090   2
   4  -4  -5 1.75412 2.80001   1
  -4   4  -5 -2.8967 3.81996   6
  -4  -4  -5 3.50856 3.46114   6
  -4  -4  -5 -1.9040 3.43953   3
  -4  -4  -5 1.80877 2.89809   1
  -4  -4  -5 1.02827 2.16359   2
   4   4  -5 4.22871 3.81370   5
   0   5  -5 -0.5500 3.64294   5
  -5   0  -5 2.28610 3.92837   3
   0  -5  -5 -0.5395 2.94695   5
   5   0  -5 -2.0391 3.21502   4
   0  -5  -5 -1.0448 1.67719   2
   0   5  -5 1.37959 2.95473   3
   0   5  -5 -3.4333 2.74238   1
  -5   0  -5 -2.0224 3.45102   5
   5   0  -5 -3.4496 3.70016   3
  -5   0   5 -2.7755 3.09985   4
  -5   0  -5 -3.5037 3.44203   6
   0  -5  -5 1.12415 3.38846   3
   0  -5  -5 -2.0872 2.76044   1
  -5   0  -5 -2.1258 2.71560   1
   5   0  -5 1.65505 2.86311   1
  -5   0  -5 1.85019 1.64561   2
   0   5  -5 -2.2144 3.39687   6
  -1  -5  -5 54.5056 5.28299   3
   1   5  -5 67.3796 5.20921   3
  -5  -1   5 57.9014 5.27905   4
   1   5  -5 69.7462 5.58294   6
  -5   1  -5 69.5711 6.54308   6
  -5   1  -5 61.9398 4.93812   1
   1   5  -5 55.1958 4.73974   1
  -5   1  -5 66.3181 6.26542   3
   5  -1  -5 59.1962 6.29445   3
  -1  -5  -5 53.2993 4.77491   1
  -1  -5  -5 50.5558 3.36930   2
   1   5  -5 51.9865 5.63216   5
   5  -1  -5 57.7595 4.92914   1
  -1  -5  -5 62.8784 4.65107   5
  -5  -1  -5 79.3925 6.83303   3
  -1   5  -5 63.7767 4.97384   1
   5  -1   5 58.6867 5.35361   4
   5   1  -5 54.6403 5.19383   4
  -5   1   5 54.4828 5.61231   4
  -5  -1  -5 49.8418 5.50988   6
  -5  -1  -5 61.9419 5.53507   5
   5   1  -5 67.0916 5.04324   1
  -5  -1  -5 57.8083 3.21968   2
  -1   5  -5 54.0461 5.87555   5
   1  -5  -5 63.9936 4.88065   1
  -1   5  -5 67.3740 4.98757   3
  -5  -1  -5 66.0028 4.92195   1
   5   1  -5 59.7414 5.81764   5
  -1   5  -5 53.5419 5.57488   6
   1  -5  -5 46.5644 5.00235   3
   1  -5  -5 54.9857 3.41892   2
  -2  -5  -5 2.58091 3.00531   1
  -5  -2   5 -1.3221 2.85946   4
   5  -2  -5 3.43943 2.07834   2
  -2  -5  -5 0.79029 1.91136   2
  -5   2  -5 7.94679 4.20099   3
   2   5  -5 1.64363 2.96250   6
   2   5  -5 6.97643 3.35058   3
   5  -2  -5 1.77769 3.03361   1
   2   5  -5 0.42269 3.00002   1
  -5   2  -5 -1.5207 3.01103   1
  -2  -5  -5 5.53881 3.46082   3
   5  -2  -5 4.36560 4.33424   3
  -5   2  -5 8.60429 4.35412   6
   2   5  -5 3.28464 3.51736   5
  -2   5  -5 3.71713 3.15895   1
  -2   5  -5 1.74195 3.96735   5
  -5  -2  -5 1.24744 2.98194   1
  -5   2   5 -2.7677 3.10061   4
   2  -5  -5 0.12786 3.35591   3
  -2   5  -5 5.72843 3.23857   3
  -2   5  -5 -3.4874 3.53415   6
  -5  -2  -5 2.22520 1.91296   2
   2  -5  -5 1.46628 2.95884   1
   5  -2   5 3.65377 3.20866   4
  -5  -2  -5 0.72571 3.80512   3
   5   2  -5 4.53554 3.22215   4
   5   2  -5 1.69302 2.88152   1
   5   2  -5 -3.2139 3.46552   5
  -5  -2  -5 5.46112 3.23384   5
  -5  -2  -5 7.95656 3.65482   6
   2  -5  -5 3.51123 2.14930   2
   3   5  -5 3.05312 3.17609   6
   5  -3  -5 3.16801 3.92437   3
   5  -3  -5 7.81442 2.45588   2
  -3  -5  -5 7.83381 2.44906   2
  -3  -5  -5 1.13246 3.05865   1
   5  -3  -5 10.7390 3.49603   1
  -3  -5  -5 4.48257 3.76082   3
  -5   3  -5 10.3469 3.99245   3
  -5  -3   5 6.25820 3.10093   4
  -5   3  -5 -3.4772 3.00837   1
   3   5  -5 2.88413 3.30521   1
  -5   3  -5 10.9216 4.61739   6
   3   5  -5 5.54877 3.59626   5
   3   5  -5 5.37204 3.78903   3
   3  -5  -5 8.94048 2.53262   2
   3  -5  -5 6.13476 3.42518   1
  -3   5  -5 7.64564 4.41935   5
  -3   5  -5 9.48132 3.62203   3
   5   3  -5 9.21399 3.46081   1
   5  -3   5 6.95938 3.23196   4
   5   3  -5 6.34554 3.29646   4
  -3   5  -5 13.3069 4.44310   6
  -5  -3  -5 2.97877 3.19207   1
  -5  -3  -5 6.15653 3.96562   3
  -5  -3  -5 3.63826 3.45730   6
   5   3  -5 0.29745 3.51483   5
   3  -5  -5 11.2883 3.89414   3
  -5  -3  -5 5.81466 2.44561   2
  -3   5  -5 4.13312 3.33776   1
   5  -4  -5 23.1453 4.18878   1
  -4  -5  -5 34.9673 4.67930   6
  -5   4  -5 17.5859 4.22074   1
  -4  -5  -5 24.1231 4.92707   3
  -4  -5  -5 25.2022 4.28137   1
   4   5  -5 29.8650 4.59055   1
  -4  -5  -5 22.3489 3.18990   2
  -5   4  -5 20.5666 5.51333   6
   4   5  -5 20.7594 4.57056   5
   5  -4  -5 27.1626 3.48760   2
  -5   4  -5 29.4517 4.79966   3
  -4   5  -5 30.9978 4.58360   1
  -4   5  -5 16.9648 5.05765   6
   4  -5  -5 24.9644 4.91328   3
  -5  -4  -5 21.2426 4.18644   1
  -5  -4  -5 28.1372 4.47024   6
   4  -5  -5 23.7955 3.38188   2
  -5  -4  -5 21.6639 4.81324   3
  -5  -4  -5 22.6841 3.18428   2
   5   4  -5 22.0654 4.71671   5
  -4   5  -5 19.1904 4.36241   3
   5   4  -5 18.4347 4.09007   1
   4  -5  -5 27.0980 4.35152   1
  -5   5  -5 -1.4897 3.60861   1
   5  -5  -5 4.19073 3.78589   1
  -5   5  -5 -1.4731 3.67230   3
  -5  -5  -5 -0.5736 3.95079   3
  -5  -5  -5 0.83534 3.64191   1
  -5  -5  -5 -5.1077 3.30591   6
   5  -5  -5 6.90125 3.09716   2
   5   5  -5 -3.0183 3.58593   5
   5   5  -5 -0.7873 3.63251   1
  -5  -5  -5 3.59105 2.78683   2
  -5   5  -5 0.51165 4.97832   6
  -6   0  -5 321.228 12.0411   3
   0   6  -5 314.767 11.4661   5
  -6   0  -5 299.241 11.3505   6
   6   0  -5 317.849 9.98072   1
   0  -6  -5 310.234 8.13364   2
   0   6  -5 313.774 9.86719   1
  -6   0  -5 302.597 9.88624   1
   0   6  -5 312.682 10.7981   6
  -6   0   5 293.262 11.1392   4
   0  -6  -5 293.491 9.73298   1
   0  -6  -5 307.140 9.56889   5
   0  -6  -5 313.956 10.1087   3
  -6  -1   5 -0.8841 3.21018   4
  -6   1  -5 4.68554 3.29935   1
  -1  -6  -5 1.34340 3.07484   1
   1   6  -5 0.72579 3.08278   1
  -1  -6  -5 4.49325 3.29116   3
   6  -1  -5 9.81534 3.41814   1
   1   6  -5 7.85985 3.64335   6
   1   6  -5 2.02238 3.71999   5
  -1  -6  -5 4.04275 2.48655   2
  -6   1  -5 -2.3656 3.97218   3
   6  -1  -5 1.80163 2.50784   2
  -6   1  -5 3.07018 4.23280   6
  -6  -1  -5 0.98591 3.20519   1
   1  -6  -5 1.96972 3.42973   3
  -1   6  -5 6.82547 4.21418   5
  -6  -1  -5 2.38431 4.41767   3
   1  -6  -5 1.29786 3.15309   1
  -6  -1  -5 0.01427 3.65978   6
   6   1  -5 1.56029 3.12720   1
   6   1  -5 4.42273 4.18226   5
  -1   6  -5 3.64603 3.93299   6
   1  -6  -5 5.44970 2.53712   2
  -6  -1  -5 7.77590 2.53049   2
  -1   6  -5 4.29934 3.32662   1
  -6   2  -5 202.109 10.0244   6
   2   6  -5 185.306 7.80369   6
  -6   2  -5 191.109 9.71248   3
   2   6  -5 178.228 9.03124   5
  -2  -6  -5 192.395 6.66965   2
  -6   2  -5 177.460 8.04232   1
   2   6  -5 194.216 8.35057   1
   6  -2  -5 188.547 6.82259   2
  -2  -6  -5 184.863 8.23741   1
  -2  -6  -5 191.421 8.57329   3
   6  -2  -5 180.841 8.17721   1
  -6  -2   5 182.568 8.84628   4
   2  -6  -5 203.024 8.57023   3
  -2   6  -5 190.887 9.80575   5
  -6  -2  -5 191.803 6.52235   2
  -6  -2  -5 185.347 8.96216   6
  -6  -2  -5 178.959 8.14866   1
   6   2  -5 179.619 8.78070   4
   2  -6  -5 186.233 6.76125   2
  -2   6  -5 177.765 9.58181   6
  -2   6  -5 180.001 8.12445   1
   6   2  -5 183.046 9.00165   5
  -6  -2  -5 191.664 10.3323   3
   2  -6  -5 201.393 8.34913   1
   6   2  -5 194.239 8.47515   1
   2  -6  -5 196.002 8.26294   1
  -6   3  -5 128.764 7.49810   1
  -6  -3   5 128.201 7.44900   4
   6  -3  -5 125.276 7.47692   1
  -3  -6  -5 113.524 7.41767   1
  -6   3  -5 108.058 8.17410   3
   3   6  -5 123.466 7.48611   1
   3   6  -5 122.808 7.76952   5
  -3  -6  -5 121.134 7.52213   3
   6  -3  -5 119.576 6.05317   2
  -3  -6  -5 111.148 5.76729   2
  -6   3  -5 117.634 8.87430   6
  -6  -3  -5 121.025 5.87740   2
   6   3  -5 118.432 7.97957   4
   3  -6  -5 125.765 7.65484   3
  -6  -3  -5 112.552 8.38398   3
  -3   6  -5 106.109 7.38926   1
   3  -6  -5 121.168 7.32456   1
   6   3  -5 110.520 7.91687   5
  -6  -3  -5 117.388 7.33257   1
  -6  -3  -5 123.786 7.56698   6
  -3   6  -5 114.655 8.61582   6
   6   3  -5 124.432 7.47098   1
   3  -6  -5 114.660 6.01721   2
  -4  -6  -5 174.186 7.29901   2
  -6   4  -5 148.317 9.38363   3
   4   6  -5 182.667 8.90291   5
   4   6  -5 152.937 8.76200   1
  -6   4  -5 190.365 11.4018   6
  -4  -6  -5 175.511 8.99899   3
  -6   4  -5 192.003 8.91780   1
   6  -4  -5 164.457 8.87365   1
   6  -4  -5 176.023 7.43909   2
  -4  -6  -5 170.635 8.62536   1
  -6  -4  -5 192.729 10.1522   3
  -4   6  -5 178.127 10.6121   6
   6   4  -5 189.033 8.78620   1
  -6  -4  -5 172.940 8.66890   1
  -6  -4  -5 193.592 8.48700   6
   4  -6  -5 184.960 7.55887   2
  -6  -4  -5 182.278 7.18445   2
   6   4  -5 171.090 8.91971   5
   4  -6  -5 158.802 8.37223   1
  -4   6  -5 199.828 9.05535   1
   4  -6  -5 171.747 9.16320   3
  -5  -6  -5 42.1191 5.60415   1
  -6   5  -5 44.2764 5.93348   3
   6  -5  -5 42.7703 4.66471   2
   5   6  -5 34.9562 5.37748   1
  -6   5  -5 39.2070 7.52055   6
  -6   5  -5 38.3882 5.59244   1
   6  -5  -5 33.7845 5.44384   1
   5   6  -5 36.2463 5.48736   5
  -5  -6  -5 37.2327 4.34737   2
  -5  -6  -5 37.8460 5.83048   3
  -5   6  -5 35.3682 5.42105   1
   5  -6  -5 36.9077 4.39506   2
  -5   6  -5 22.8350 6.67784   6
   5  -6  -5 27.1409 5.17126   1
  -5   6  -5 46.0397 6.09182   3
   6   5  -5 42.9612 5.57659   5
   6   5  -5 27.3238 5.02250   1
  -6  -5  -5 32.2146 5.07244   1
  -6  -5  -5 25.4761 5.52478   3
  -6  -5  -5 36.7304 4.44752   2
   6  -6  -5 0.43268 3.41029   2
  -6   6  -5 0.34918 4.40526   1
  -6   6  -5 -11.323 5.97014   6
  -6   6  -5 -5.6654 3.82324   3
  -6  -6  -5 -3.8388 4.48746   3
   6  -6  -5 1.91213 4.36286   1
  -6  -6  -5 5.95222 3.49330   2
  -6  -6  -5 2.95386 4.21150   1
   6   6  -5 1.46558 4.38357   1
   7   0  -5 4.44268 3.70116   1
  -7   0  -5 -5.1465 4.38297   3
   0  -7  -5 -4.2425 3.23571   1
   0   7  -5 0.46786 3.58163   1
   0  -7  -5 -7.4731 3.25139   3
   0   7  -5 -2.3686 3.49169   6
  -7   0  -5 -4.8379 3.82735   6
   0  -7  -5 0.38542 2.70645   2
   0   7  -5 -1.7625 4.27026   5
   7   0  -5 2.87126 2.92432   2
  -7   0  -5 1.46599 3.46842   1
  -7   1  -5 115.790 7.86724   1
   7  -1  -5 120.300 6.43236   2
   1   7  -5 125.668 7.67117   6
  -1  -7  -5 119.860 7.54587   1
  -7   1  -5 126.773 9.31558   3
  -7   1  -5 121.386 9.17141   6
  -1  -7  -5 134.765 6.49959   2
  -1  -7  -5 130.983 7.54695   3
   1   7  -5 121.017 7.65896   1
   1   7  -5 125.773 8.49636   5
   7  -1  -5 121.709 7.64652   1
  -1   7  -5 130.575 7.73815   1
  -7  -1  -5 139.338 8.61570   6
  -7  -1  -5 103.547 8.55252   3
  -1   7  -5 131.398 9.30455   5
   1  -7  -5 128.632 6.42032   2
  -7  -1  -5 122.388 7.58044   1
  -1   7  -5 113.747 8.19745   6
   7   1  -5 121.281 7.73560   1
   1  -7  -5 130.282 7.47872   1
  -7  -1  -5 134.861 6.30093   2
   1  -7  -5 131.877 7.55490   3
  -7   2  -5 15.2303 5.38635   6
  -2  -7  -5 15.1665 4.25141   3
   7  -2  -5 17.5550 4.54194   1
  -7   2  -5 19.2127 5.28162   3
  -2  -7  -5 13.0391 4.19965   1
   2   7  -5 19.7124 4.89366   5
   2   7  -5 15.0258 4.50396   1
   7  -2  -5 16.4002 3.66225   2
  -2  -7  -5 13.1097 3.26587   2
  -7   2  -5 17.5591 4.40964   1
  -7  -2  -5 17.6924 3.58455   2
   2  -7  -5 12.4407 4.08694   1
   2  -7  -5 12.4294 3.40349   2
  -7  -2  -5 8.77421 4.11437   1
   7   2  -5 5.93577 3.95161   1
  -2   7  -5 8.06156 4.06492   1
   2  -7  -5 6.84909 3.98239   1
  -2   7  -5 7.85471 4.60533   6
   2  -7  -5 23.2269 4.47989   3
  -7  -2  -5 17.5916 4.65738   6
   7   2  -5 14.7517 4.89631   5
  -7  -2  -5 10.1341 5.29426   3
  -3  -7  -5 10.6858 4.41641   1
  -7   3  -5 15.2544 5.46525   3
  -3  -7  -5 10.5011 3.47133   2
   7  -3  -5 14.2085 4.47641   1
   7  -3  -5 11.4264 3.44392   2
   3   7  -5 17.2023 4.75295   1
  -7   3  -5 14.6348 4.46676   1
  -3  -7  -5 17.1457 4.42168   3
   3   7  -5 13.1517 4.55822   5
  -7   3  -5 9.87210 5.50903   6
  -3   7  -5 11.8215 5.39972   6
   7   3  -5 16.2381 4.67780   5
  -7  -3  -5 20.0834 4.58340   6
  -7  -3  -5 23.2542 3.81574   2
   7   3  -5 9.40309 4.37886   1
   3  -7  -5 10.0220 4.40041   1
   3  -7  -5 15.8484 4.49105   3
  -3   7  -5 14.0657 4.38596   1
  -7  -3  -5 7.44611 5.20696   3
   3  -7  -5 21.3196 3.86808   2
  -7  -3  -5 14.0333 4.39454   1
  -7   4  -5 3.96326 4.25714   1
   7  -4  -5 -5.6755 3.81651   1
   7  -4  -5 5.44880 3.32239   2
  -7   4  -5 -4.5527 4.50334   3
  -4  -7  -5 -0.5426 3.26544   2
  -4  -7  -5 -1.4048 3.84700   1
  -4  -7  -5 -3.0190 3.99924   3
   4   7  -5 -4.2884 3.89066   5
   4   7  -5 -1.0302 4.25881   1
  -7   4  -5 9.78132 6.13481   6
   7   4  -5 5.38681 4.38464   1
  -7  -4  -5 3.22312 3.25361   2
  -7  -4  -5 -3.0378 3.92949   1
   4  -7  -5 0.20212 3.19345   2
   7   4  -5 1.76859 4.21935   5
  -4   7  -5 2.56314 5.38176   6
  -7  -4  -5 3.63372 5.10935   3
  -4   7  -5 -0.0213 4.16193   1
   4  -7  -5 5.22455 4.33060   1
  -7   5  -5 57.1355 6.51544   1
   7  -5  -5 50.9282 5.18109   2
  -7   5  -5 38.9584 8.08070   6
   5   7  -5 47.7260 6.35514   1
  -7   5  -5 61.4276 7.10231   3
  -5  -7  -5 42.6583 6.04248   1
  -5  -7  -5 54.7142 6.46586   3
  -5  -7  -5 51.8961 5.41395   2
   7  -5  -5 58.1876 6.82316   1
  -7  -5  -5 37.6979 6.84331   3
   5  -7  -5 50.8465 5.33205   2
   7   5  -5 48.8003 6.28220   5
  -5   7  -5 45.2451 6.44460   1
  -7  -5  -5 50.0855 5.15079   2
   5  -7  -5 55.4169 6.54992   1
  -5   7  -5 47.4376 8.36245   6
   7   5  -5 48.4796 6.27120   1
  -7  -5  -5 44.6871 6.07405   1
   6   7  -5 12.3132 5.15277   1
  -6  -7  -5 21.9035 5.66397   3
  -6  -7  -5 15.0752 4.12775   2
  -7   6  -5 17.7493 5.83780   3
  -7   6  -5 17.5038 7.58492   6
   7  -6  -5 16.5556 5.13609   1
   7  -6  -5 22.0279 4.49399   2
  -7   6  -5 14.0960 5.10454   1
  -6  -7  -5 20.5932 5.34674   1
   7   6  -5 19.0587 5.61619   1
   6  -7  -5 23.0770 4.62415   2
  -7  -6  -5 24.1461 5.34489   1
  -6   7  -5 24.8089 8.38710   6
  -6   7  -5 30.1297 5.78189   1
  -7  -6  -5 22.9966 4.44843   2
  -7  -6  -5 23.2555 6.02727   3
   6  -7  -5 23.0032 5.59692   1
  -7   7  -5 -3.2617 4.80224   1
   7  -7  -5 -0.5852 3.86881   2
  -7  -7  -5 -3.4165 4.59461   1
  -7  -7  -5 3.14094 4.10233   2
   7  -7  -5 3.47063 5.10579   1
  -7   7  -5 -5.6257 7.61978   6
   7   7  -5 1.71880 5.24663   1
  -7  -7  -5 -4.9453 4.49791   3
   0   8  -5 43.6293 5.97016   1
   0   8  -5 48.9894 5.95538   6
   8   0  -5 43.4575 5.97601   1
   0   8  -5 63.0225 7.04703   5
   8   0  -5 59.2710 5.10439   2
  -8   0  -5 57.5286 7.67057   3
   0  -8  -5 60.6087 5.25630   2
   0  -8  -5 58.3311 6.37191   1
  -8   0  -5 46.9437 6.41958   6
  -8   0  -5 56.0207 6.41336   1
   8  -1  -5 145.776 8.82795   1
   8  -1  -5 147.743 7.40938   2
  -8   1  -5 147.455 10.0857   6
   1   8  -5 134.740 8.52484   1
  -1  -8  -5 135.086 8.83161   1
   1   8  -5 145.270 9.29296   5
  -8   1  -5 168.856 11.1617   3
  -1  -8  -5 127.517 7.08239   2
  -8   1  -5 133.360 8.58099   1
  -8  -1  -5 144.828 10.9187   3
  -1   8  -5 136.695 8.76360   6
  -8  -1  -5 132.577 8.98596   6
  -1   8  -5 125.050 8.28591   1
   1  -8  -5 140.336 7.38001   2
   1  -8  -5 138.048 8.53966   1
   8   1  -5 135.733 8.47892   1
  -8  -1  -5 123.256 8.31240   1
  -2  -8  -5 9.67465 4.55632   1
  -8   2  -5 22.1578 5.03144   1
  -8   2  -5 32.3947 7.00245   3
  -2  -8  -5 15.9383 3.98197   2
   8  -2  -5 9.72333 4.58055   1
   2   8  -5 7.89933 4.89408   5
  -8   2  -5 17.9167 5.85443   6
   8  -2  -5 20.7105 4.14991   2
   2   8  -5 13.9277 4.79096   1
   8   2  -5 13.6649 4.71311   1
  -2   8  -5 26.5977 5.26438   1
   2  -8  -5 25.2798 4.38897   2
   2  -8  -5 24.4327 5.23481   1
  -8  -2  -5 15.4469 3.84203   2
  -8  -2  -5 21.2644 5.06161   6
  -8  -2  -5 22.2071 6.42880   3
   2  -8  -5 20.0127 5.07331   1
  -2   8  -5 24.1355 5.69192   6
  -8  -2  -5 17.2402 4.85435   1
   8   2  -5 24.2094 5.34138   5
   8  -3  -5 -3.1733 4.25543   1
   3   8  -5 -0.3486 4.43672   1
  -8   3  -5 0.35409 5.22232   6
   3   8  -5 5.86104 4.52906   5
  -8   3  -5 4.74261 4.33171   1
  -3  -8  -5 6.83648 3.52950   2
  -3  -8  -5 0.28522 4.34683   1
   8  -3  -5 4.12876 3.60710   2
  -8   3  -5 5.78385 5.55509   3
   8   3  -5 -3.9957 4.26444   5
   3  -8  -5 -1.0280 3.41455   2
  -8  -3  -5 -5.1920 5.26072   3
   3  -8  -5 -5.1345 3.85780   1
   8   3  -5 1.90153 4.46408   1
  -8  -3  -5 2.08560 3.50086   2
  -3   8  -5 7.00175 5.32765   6
  -3   8  -5 -2.1759 4.07904   1
  -8  -3  -5 0.19048 4.34291   1
   8  -4  -5 170.678 10.1065   1
  -8   4  -5 168.951 11.3007   3
  -4  -8  -5 168.692 10.0438   1
   4   8  -5 172.321 10.0910   1
  -8   4  -5 170.111 12.8705   6
  -8   4  -5 139.966 9.53473   1
   8  -4  -5 161.933 8.42045   2
  -4  -8  -5 143.866 8.18222   2
  -4   8  -5 165.650 10.0370   1
  -8  -4  -5 169.327 11.1969   3
   8   4  -5 166.225 9.92501   1
  -4   8  -5 151.239 11.4608   6
   4  -8  -5 173.142 10.1077   1
  -8  -4  -5 162.255 9.75469   1
   8   4  -5 167.132 9.57260   5
  -8  -4  -5 164.472 8.20726   2
   4  -8  -5 169.085 8.49731   2
  -5  -8  -5 73.8708 7.47984   1
   5   8  -5 71.5452 7.88180   1
   8  -5  -5 71.9714 7.81786   1
   8  -5  -5 83.9314 6.76806   2
  -8   5  -5 69.2213 7.86555   3
  -8   5  -5 81.5683 10.3564   6
  -8   5  -5 76.2085 7.71562   1
  -5  -8  -5 87.4156 6.82478   2
  -5   8  -5 79.4252 9.96212   6
   8   5  -5 75.5803 7.73645   1
  -5   8  -5 82.1294 8.00746   1
   5  -8  -5 68.9726 7.48446   1
  -8  -5  -5 74.3583 6.17182   2
   5  -8  -5 61.9298 6.13018   2
  -8  -5  -5 78.8462 8.87146   3
  -8  -5  -5 70.9295 7.50790   1
  -6  -8  -5 -3.0161 4.72495   1
  -8   6  -5 3.30324 5.15091   1
   8  -6  -5 -6.2238 4.58711   1
  -8   6  -5 9.42134 5.64940   3
   6   8  -5 6.81523 5.45364   1
  -6  -8  -5 1.26879 3.96431   2
   8  -6  -5 11.5114 4.54202   2
  -8   6  -5 2.49011 7.75245   6
  -6   8  -5 -0.2628 7.07026   6
   6  -8  -5 2.67521 4.84557   1
  -6   8  -5 3.56081 4.74430   1
  -8  -6  -5 9.08345 5.96303   3
   6  -8  -5 0.21478 4.18139   2
   8   6  -5 -6.8717 4.32492   1
  -8  -6  -5 2.11548 4.97302   1
  -8  -6  -5 5.81884 4.15920   2
  -8   7  -5 96.7431 8.98102   1
  -8   7  -5 72.2449 12.7157   6
  -7  -8  -5 105.960 9.24166   1
  -7  -8  -5 99.2497 7.58413   2
   7   8  -5 102.712 9.16932   1
   8  -7  -5 93.0272 7.63691   2
   8  -7  -5 99.7688 9.28061   1
   7  -8  -5 92.5712 8.86616   1
  -8  -7  -5 103.016 7.85114   2
  -7   8  -5 102.529 13.8796   6
  -8  -7  -5 109.507 9.53946   1
   7  -8  -5 104.053 7.96931   2
  -7   8  -5 91.2465 8.99692   1
  -8  -7  -5 98.7805 9.46485   3
   8   7  -5 77.7790 8.59431   1
  -8   8  -5 -2.8001 10.9393   6
   8   8  -5 -7.3020 5.26343   1
  -8  -8  -5 -5.3050 4.41581   2
   8  -8  -5 3.73193 5.50468   1
  -8   8  -5 5.37486 5.80305   1
  -8  -8  -5 0.18421 5.51266   1
   8  -8  -5 -5.3482 4.53289   2
   9   0  -5 -1.5498 3.61815   2
   0   9  -5 -2.2712 4.59653   1
   0  -9  -5 -0.5316 4.56561   1
   0  -9  -5 1.38313 3.64804   2
  -9   0  -5 5.78607 6.73764   3
   9   0  -5 -0.8512 4.51948   1
  -9   0  -5 -1.1733 4.70959   6
  -9   0  -5 9.70152 4.91724   1
  -9   1  -5 15.5318 7.41267   3
   9  -1  -5 11.5138 5.01968   1
  -1  -9  -5 21.7656 5.33781   1
  -9   1  -5 22.6886 5.39664   1
   1   9  -5 18.4088 5.16588   1
   9  -1  -5 22.2540 4.62887   2
  -9   1  -5 36.3694 6.73397   6
  -1  -9  -5 21.5297 4.33539   2
   1   9  -5 21.2164 5.76872   5
   1  -9  -5 33.4813 5.83281   1
  -9  -1  -5 33.8166 7.94818   3
   9   1  -5 16.4514 5.41059   1
  -9  -1  -5 18.0946 5.52179   6
   1  -9  -5 25.0696 4.52200   2
   1  -9  -5 25.6752 5.66835   1
  -9  -1  -5 26.9828 5.68869   1
  -1   9  -5 31.2939 5.97909   1
  -1   9  -5 16.1370 5.36042   6
   9  -2  -5 15.2221 4.34801   2
  -9   2  -5 25.0544 8.33072   3
  -9   2  -5 17.9392 5.38548   1
  -2  -9  -5 12.7052 4.17743   2
  -9   2  -5 13.9184 6.22756   6
  -2  -9  -5 21.8550 5.60981   1
   2   9  -5 15.2234 5.43941   1
   2   9  -5 16.1664 5.47778   5
   9  -2  -5 20.2483 5.48781   1
  -9  -2  -5 22.1373 5.63998   1
   2  -9  -5 16.7662 5.32966   1
  -9  -2  -5 23.3625 5.58763   6
  -2   9  -5 20.2380 5.72835   6
   9   2  -5 26.0684 6.05659   5
  -9  -2  -5 19.0510 4.29067   2
  -2   9  -5 7.90084 5.17170   1
   9   2  -5 18.9527 5.32140   1
   2  -9  -5 23.2877 4.62296   2
   2  -9  -5 22.5719 5.66782   1
  -9  -2  -5 17.4726 6.96257   3
   3   9  -5 38.5887 6.60035   1
  -3  -9  -5 49.6387 6.76828   1
   9  -3  -5 33.8138 6.33416   1
  -3  -9  -5 43.5060 5.46057   2
  -9   3  -5 41.3831 8.73707   3
  -9   3  -5 42.5036 8.00500   6
  -9   3  -5 34.5858 6.44370   1
   9  -3  -5 32.5905 5.36673   2
   9   3  -5 42.9788 6.69193   1
  -9  -3  -5 40.0278 5.42408   2
  -3   9  -5 36.6090 6.34423   1
   3  -9  -5 39.3424 5.39118   2
   9   3  -5 45.2561 6.57396   5
  -3   9  -5 40.7350 7.30115   6
   3  -9  -5 40.8084 6.36696   1
  -9  -3  -5 42.3822 8.05082   3
  -9  -3  -5 26.8930 5.93777   1
  -9   4  -5 -1.5261 6.04819   3
  -9   4  -5 0.37056 4.73108   1
  -4  -9  -5 12.4976 4.37264   2
   4   9  -5 4.58415 4.96539   1
  -9   4  -5 3.07460 6.96072   6
   9  -4  -5 3.93972 4.10787   2
   9  -4  -5 4.99380 5.03568   1
  -4  -9  -5 -4.4694 4.56461   1
  -9  -4  -5 1.32109 4.04272   2
   9   4  -5 6.27225 5.27812   1
  -9  -4  -5 13.1627 6.71660   3
  -4   9  -5 2.92174 6.40926   6
   4  -9  -5 -6.2956 3.74942   2
   4  -9  -5 -5.2605 4.89112   1
  -9  -4  -5 -3.6614 4.75807   1
  -4   9  -5 2.43990 4.98113   1
  -5  -9  -5 8.31296 5.45244   1
  -9   5  -5 15.1612 6.48212   3
   9  -5  -5 5.59840 4.44760   2
  -9   5  -5 3.25220 7.66408   6
  -5  -9  -5 9.21260 4.77807   2
  -9   5  -5 18.7390 5.95438   1
   9  -5  -5 13.3195 5.77883   1
   5   9  -5 7.39311 5.53772   1
  -9  -5  -5 6.85546 6.41617   3
  -5   9  -5 14.1952 5.61928   1
  -9  -5  -5 17.8084 4.59157   2
  -9  -5  -5 4.34103 5.29143   1
   9   5  -5 6.07734 5.50149   1
   5  -9  -5 3.34628 4.22184   2
  -5   9  -5 10.5611 7.65448   6
   5  -9  -5 1.38684 4.99100   1
  -9   6  -5 187.176 12.2857   3
  -9   6  -5 174.049 15.5729   6
   9  -6  -5 207.969 10.6103   2
   9  -6  -5 184.476 11.8646   1
  -6  -9  -5 198.411 10.3717   2
  -6  -9  -5 190.414 11.8744   1
   6   9  -5 198.017 11.9244   1
  -9   6  -5 220.454 12.3671   1
  -6   9  -5 215.099 12.3417   1
   6  -9  -5 195.074 10.3136   2
  -9  -6  -5 197.424 13.1162   3
  -9  -6  -5 183.339 10.0755   2
  -9  -6  -5 200.960 12.0634   1
  -6   9  -5 172.996 15.0758   6
   6  -9  -5 181.243 11.7129   1
   9   6  -5 206.596 12.3228   1
   9  -7  -5 146.782 9.99512   2
  -7  -9  -5 140.742 11.0298   1
  -9   7  -5 118.062 15.5355   6
  -7  -9  -5 135.801 9.69675   2
   9  -7  -5 143.762 11.1816   1
   7   9  -5 144.169 11.2220   1
  -9   7  -5 136.125 11.0644   1
   9   7  -5 140.242 11.0155   1
  -7   9  -5 151.090 11.5835   1
   7  -9  -5 147.295 10.0815   2
  -9  -7  -5 146.045 11.1871   3
   7  -9  -5 154.771 11.9965   1
  -7   9  -5 148.062 16.1455   6
  -9  -7  -5 142.937 11.2122   1
  -9  -7  -5 146.554 9.68596   2
   9  -8  -5 12.1182 6.63067   1
  -9   8  -5 11.6500 12.8786   6
  -9   8  -5 18.4514 7.08601   1
  -8  -9  -5 10.7606 5.23813   2
  -8  -9  -5 29.1314 7.31595   1
   9  -8  -5 20.1557 5.79585   2
   8   9  -5 20.8406 6.68040   1
  -9  -8  -5 31.9112 7.30940   1
   9   8  -5 19.2024 6.84057   1
  -8   9  -5 10.0850 11.4536   6
  -8   9  -5 12.6803 6.25545   1
   8  -9  -5 13.2854 6.72979   1
   8  -9  -5 20.0612 5.80475   2
  -9  -8  -5 13.7239 5.60857   2
  -9   9  -5 4.90977 12.0183   6
   9  -9  -5 2.81367 5.28207   2
  -9  -9  -5 -3.9379 6.01339   1
   9  -9  -5 -3.5287 5.86658   1
   9   9  -5 -1.1466 6.67403   1
  -9   9  -5 -1.6050 6.26180   1
  -9  -9  -5 3.92016 5.10993   2
 -10   0  -5 70.4812 11.6940   3
   0  10  -5 74.9432 7.98434   1
 -10   0  -5 61.0104 7.41677   1
  10   0  -5 70.4204 7.96979   1
   0 -10  -5 77.4412 6.70093   2
 -10   0  -5 83.9537 8.42558   6
  10   0  -5 75.5072 6.94951   2
   0 -10  -5 84.7816 8.10911   1
  10  -1  -5 26.8042 5.18430   2
  10  -1  -5 30.1837 6.40902   1
  -1 -10  -5 28.8253 4.99406   2
  -1 -10  -5 31.8555 6.21145   1
 -10   1  -5 30.2205 6.95710   6
 -10   1  -5 43.9959 11.2687   3
 -10   1  -5 33.5957 6.47464   1
   1  10  -5 37.1683 6.79275   1
  -1  10  -5 31.8291 6.44390   1
 -10  -1  -5 14.3985 8.33380   3
 -10  -1  -5 45.1869 6.92487   6
   1 -10  -5 32.5169 6.36776   1
   1 -10  -5 38.7180 5.51981   2
 -10  -1  -5 33.9951 6.34913   1
  10   1  -5 31.4250 6.45564   1
   1 -10  -5 42.4004 6.69127   1
  10  -2  -5 40.6157 6.96078   1
 -10   2  -5 71.9064 12.2069   3
  -2 -10  -5 36.9218 5.58476   2
 -10   2  -5 45.4589 7.89980   6
  10  -2  -5 41.7958 5.77012   2
 -10   2  -5 57.3687 7.48630   1
   2  10  -5 49.1925 7.40612   1
  -2 -10  -5 31.0860 6.62384   1
  10   2  -5 46.6377 7.19034   1
   2 -10  -5 41.3173 7.13823   1
  10   2  -5 48.3549 7.37932   5
  -2  10  -5 51.7119 7.34593   1
 -10  -2  -5 42.1674 6.98351   1
  -2  10  -5 46.5222 7.24990   6
   2 -10  -5 46.8765 5.86180   2
   2 -10  -5 53.8163 7.50011   1
 -10  -2  -5 49.2740 9.49162   3
  10  -3  -5 95.3130 9.05536   1
  -3 -10  -5 83.2594 7.26431   2
 -10   3  -5 101.716 9.34641   1
  10  -3  -5 95.1263 7.77121   2
  -3 -10  -5 111.223 9.67705   1
 -10   3  -5 104.322 10.5919   6
 -10   3  -5 101.212 12.2070   3
   3  10  -5 107.056 9.50948   1
 -10  -3  -5 79.7550 8.38889   1
  -3  10  -5 108.199 9.96621   6
 -10  -3  -5 75.9767 9.97186   3
  -3  10  -5 86.9486 8.71139   1
  10   3  -5 95.5887 8.76212   5
   3 -10  -5 96.0169 9.00367   1
   3 -10  -5 87.8566 7.61141   2
 -10  -3  -5 93.1059 7.40316   2
  10   3  -5 101.527 9.46188   1
 -10   4  -5 4.79249 5.92294   1
 -10   4  -5 32.2187 8.55565   3
   4  10  -5 22.8533 6.71855   1
  -4 -10  -5 22.7467 6.48009   1
  10  -4  -5 22.2833 5.40139   2
  -4 -10  -5 18.6696 5.12253   2
  10  -4  -5 22.8364 6.55559   1
 -10   4  -5 22.9200 8.16538   6
 -10  -4  -5 26.8344 5.53932   2
   4 -10  -5 27.0123 6.77679   1
 -10  -4  -5 30.7225 6.72429   1
  -4  10  -5 31.1638 8.15017   6
  -4  10  -5 17.1740 6.31865   1
 -10  -4  -5 26.7980 8.07636   3
   4 -10  -5 18.6840 5.20133   2
  10   4  -5 31.3202 7.00969   1
  10  -5  -5 174.581 11.7739   1
  -5 -10  -5 193.370 12.1205   1
 -10   5  -5 169.036 14.8259   6
   5  10  -5 169.281 11.8798   1
 -10   5  -5 168.833 12.6965   3
 -10   5  -5 153.621 11.4178   1
  -5 -10  -5 146.161 10.0021   2
  10  -5  -5 156.875 10.0346   2
 -10  -5  -5 148.699 12.0321   3
   5 -10  -5 190.528 10.4451   2
 -10  -5  -5 178.587 12.1190   1
   5 -10  -5 158.329 11.8514   1
  -5  10  -5 178.239 12.3410   1
  10   5  -5 151.456 11.4047   1
  -5  10  -5 172.741 14.4870   6
 -10  -5  -5 152.478 9.63775   2
 -10   6  -5 13.3080 9.56586   6
  10  -6  -5 12.4790 5.36834   2
  -6 -10  -5 20.0905 5.38161   2
  10  -6  -5 6.50426 6.01390   1
  -6 -10  -5 18.4154 6.96383   1
   6  10  -5 19.0080 6.56822   1
 -10   6  -5 8.58829 6.83262   3
 -10   6  -5 9.32633 6.22915   1
   6 -10  -5 11.8956 6.37907   1
 -10  -6  -5 18.4521 5.32072   2
  -6  10  -5 11.2070 9.25880   6
 -10  -6  -5 16.1957 6.59810   1
   6 -10  -5 8.14184 4.99470   2
  10   6  -5 15.5632 6.52830   1
 -10  -6  -5 14.9553 7.46540   3
  -6  10  -5 17.9896 6.65214   1
   7  10  -5 25.5993 7.49920   1
  10  -7  -5 29.2922 7.45010   1
  -7 -10  -5 23.7591 5.78756   2
 -10   7  -5 15.5203 10.6942   6
  -7 -10  -5 26.3277 7.30271   1
  10  -7  -5 18.0997 5.72138   2
 -10   7  -5 23.2983 7.37690   1
   7 -10  -5 16.9118 7.08276   1
  -7  10  -5 32.6280 7.58183   1
  -7  10  -5 12.4454 10.0468   6
 -10  -7  -5 21.9845 6.95483   1
 -10  -7  -5 28.1339 8.15433   3
 -10  -7  -5 23.4803 5.83544   2
  10   7  -5 29.2466 7.58687   1
   7 -10  -5 19.8795 5.94724   2
 -10   8  -5 68.8490 9.39347   1
  -8 -10  -5 60.7417 7.51206   2
   8  10  -5 58.8319 9.21335   1
  -8 -10  -5 60.4623 9.11838   1
 -10   8  -5 49.7344 13.9962   6
  10  -8  -5 54.0740 8.96225   1
  10  -8  -5 51.0729 7.34252   2
  -8  10  -5 72.8940 13.6993   6
 -10  -8  -5 53.9731 7.00037   2
  10   8  -5 55.9391 8.60878   1
   8 -10  -5 65.3820 7.87553   2
  -8  10  -5 60.4955 9.27481   1
   8 -10  -5 54.1794 8.78570   1
 -10  -8  -5 63.8554 8.97865   1
  10  -9  -5 -7.9267 4.94492   2
  -9 -10  -5 2.48862 6.73415   1
 -10   9  -5 19.5301 7.50490   1
  -9 -10  -5 9.66209 5.57894   2
  10  -9  -5 3.26713 6.63119   1
 -10   9  -5 19.5106 11.6650   6
   9  10  -5 2.44188 6.88842   1
  -9  10  -5 1.76774 6.25115   1
  -9  10  -5 6.71427 11.0540   6
 -10  -9  -5 -7.9428 6.42656   1
  10   9  -5 1.74824 6.65772   1
 -10  -9  -5 -0.3186 5.03702   2
   9 -10  -5 8.88942 5.86649   2
   9 -10  -5 6.92831 6.94071   1
 -10 -10  -5 -3.6058 5.27215   2
 -10  10  -5 16.6671 10.6662   6
 -10 -10  -5 5.39755 7.39075   1
  10 -10  -5 -3.1851 5.50822   2
  10  10  -5 3.44293 7.51454   1
  10 -10  -5 0.72719 6.90306   1
 -10  10  -5 9.30890 7.68928   1
   0  11  -5 -3.3963 5.35909   1
 -11   0  -5 0.52410 5.52053   1
 -11   0  -5 -10.147 10.0541   3
   0 -11  -5 4.23216 4.37792   2
 -11   0  -5 2.81590 5.70486   6
  11   0  -5 3.17726 5.60582   1
   0 -11  -5 5.86383 5.35929   1
  11   0  -5 -0.0288 4.42788   2
  11  -1  -5 45.7223 7.67328   1
 -11   1  -5 28.1641 6.90385   1
  11  -1  -5 31.8300 5.84406   2
   1  11  -5 17.8181 6.61929   1
 -11   1  -5 37.4574 7.65863   6
  -1 -11  -5 48.6153 7.51224   1
 -11   1  -5 51.6903 13.7626   3
  -1 -11  -5 35.4290 5.61474   2
  11   1  -5 29.1404 6.78762   1
   1 -11  -5 24.4687 6.51457   1
 -11  -1  -5 9.99968 9.62571   3
   1 -11  -5 32.5762 6.85114   1
 -11  -1  -5 29.2901 6.91275   1
  -1  11  -5 28.2387 6.83522   1
   1 -11  -5 30.2776 5.75161   2
  11  -2  -5 3.59297 4.82271   2
  11  -2  -5 12.8775 6.16668   1
 -11   2  -5 13.5842 11.6940   3
 -11   2  -5 7.11519 5.43139   1
   2  11  -5 6.27346 5.92374   1
 -11   2  -5 13.9755 6.60611   6
  -2 -11  -5 4.71231 5.84458   1
  -2 -11  -5 11.8080 5.02585   2
   2 -11  -5 17.9669 6.22487   1
   2 -11  -5 7.24008 4.86314   2
 -11  -2  -5 16.0227 6.01648   1
  11   2  -5 17.9580 6.64764   5
  11   2  -5 2.56306 5.54273   1
  -2  11  -5 5.61567 5.85558   1
 -11  -2  -5 6.06411 8.75714   3
 -11   3  -5 14.1106 9.81818   3
 -11   3  -5 17.0618 7.73119   6
   3  11  -5 18.2582 6.61986   1
  -3 -11  -5 13.1455 4.96820   2
  11  -3  -5 7.47620 5.02018   2
  11  -3  -5 13.9990 6.47391   1
  -3 -11  -5 7.89702 6.04400   1
 -11   3  -5 13.5402 6.46296   1
 -11  -3  -5 8.82225 6.07684   1
  11   3  -5 11.4370 6.13005   1
   3 -11  -5 7.82438 5.97442   1
   3 -11  -5 10.4110 4.94503   2
 -11  -3  -5 10.7146 7.94706   3
  -3  11  -5 13.0338 6.30399   1
 -11  -3  -5 13.4591 5.11582   2
  -4 -11  -5 8.80957 5.04172   2
   4  11  -5 11.2824 6.68519   1
  11  -4  -5 7.19196 5.23044   2
  11  -4  -5 9.91792 6.26481   1
  -4 -11  -5 16.3766 6.66241   1
 -11   4  -5 1.11042 7.56357   6
 -11   4  -5 10.3690 8.17210   3
 -11   4  -5 8.34001 6.10870   1
  -4  11  -5 8.59005 6.37900   1
 -11  -4  -5 10.4680 5.14125   2
  11   4  -5 17.2962 6.79446   1
 -11  -4  -5 2.70639 6.97050   3
   4 -11  -5 10.5322 6.43783   1
   4 -11  -5 15.5759 5.26081   2
 -11  -4  -5 23.9554 6.79134   1
  -4  11  -5 18.4656 7.86626   6
  11  -5  -5 10.5631 6.38233   1
 -11   5  -5 7.15672 7.63195   3
   5  11  -5 12.6164 6.75159   1
  11  -5  -5 4.57741 4.94602   2
 -11   5  -5 6.36670 6.43983   1
  -5 -11  -5 1.12668 5.85314   1
  -5 -11  -5 -0.0383 4.67871   2
 -11   5  -5 -8.1008 7.89839   6
 -11  -5  -5 8.73005 7.36387   3
  -5  11  -5 18.5474 8.42589   6
  -5  11  -5 2.93232 6.45857   1
   5 -11  -5 8.80219 5.28885   2
 -11  -5  -5 10.0202 5.23809   2
   5 -11  -5 -2.7029 5.87281   1
  11   5  -5 8.57219 6.41893   1
 -11  -5  -5 6.27927 6.47175   1
  11  -6  -5 1.68138 5.91793   1
   6  11  -5 16.1889 7.35175   1
  -6 -11  -5 7.88204 6.28859   1
 -11   6  -5 15.5271 9.50444   6
 -11   6  -5 -0.6524 6.09186   1
  -6 -11  -5 3.67992 5.00620   2
 -11   6  -5 15.1181 7.94540   3
  11  -6  -5 -0.4364 4.95863   2
 -11  -6  -5 -7.1976 7.00822   3
  -6  11  -5 -3.8013 8.62938   6
   6 -11  -5 2.23115 4.99127   2
 -11  -6  -5 6.73290 4.65637   2
  -6  11  -5 2.96052 6.44822   1
   6 -11  -5 3.81684 6.34696   1
 -11  -6  -5 4.75823 6.36010   1
  11   6  -5 6.07375 6.30242   1
 -11   7  -5 -3.8815 9.15226   6
  11  -7  -5 8.83114 6.38106   1
  -7 -11  -5 0.40035 5.33745   2
  -7 -11  -5 0.09151 6.47841   1
 -11   7  -5 5.67054 6.28709   1
  11  -7  -5 13.3795 5.82417   2
   7  11  -5 7.68887 6.74956   1
  11   7  -5 -2.5766 6.31895   1
  -7  11  -5 5.93490 6.75293   1
 -11  -7  -5 2.00944 7.32802   3
 -11  -7  -5 2.24886 5.39189   2
   7 -11  -5 3.49341 5.24388   2
 -11  -7  -5 -0.1212 5.84095   1
   7 -11  -5 8.32706 6.82748   1
  -7  11  -5 -4.6595 9.36763   6
  -8 -11  -5 35.9591 8.55112   1
  -8 -11  -5 50.7997 7.40216   2
   8  11  -5 47.3727 9.12961   1
 -11   8  -5 49.9301 12.7395   6
 -11   8  -5 56.1946 9.02976   1
  11  -8  -5 39.6138 8.56016   1
  11  -8  -5 39.0568 7.13157   2
  11   8  -5 55.8832 9.25504   1
 -11  -8  -5 49.2850 8.75075   1
   8 -11  -5 38.9804 8.80462   1
  -8  11  -5 34.1177 11.1220   6
  -8  11  -5 46.2991 8.95827   1
   8 -11  -5 39.9217 7.15553   2
 -11  -8  -5 61.2234 7.52997   2
  11  -9  -5 -5.4242 5.32316   2
  -9 -11  -5 -4.8146 5.05455   2
 -11   9  -5 3.24293 7.33832   1
   9  11  -5 -1.5590 7.22035   1
  -9 -11  -5 5.48238 6.99647   1
  11  -9  -5 7.38681 7.34914   1
 -11   9  -5 3.52179 9.84617   6
   9 -11  -5 2.73209 6.90981   1
  11   9  -5 0.07202 6.67216   1
   9 -11  -5 0.63242 5.47822   2
 -11  -9  -5 1.95634 6.68386   1
  -9  11  -5 7.07112 10.2307   6
 -11  -9  -5 -3.0607 5.51236   2
  -9  11  -5 12.8946 7.38901   1
 -12   0  -5 96.8086 9.86813   1
   0 -12  -5 88.8959 8.05109   2
  12   0  -5 99.0866 8.56237   2
   0 -12  -5 80.6980 9.21718   1
 -12   0  -5 68.2181 15.7091   3
  12   0  -5 83.2750 9.47019   1
   0  12  -5 88.7410 9.56318   1
   1  12  -5 1.09047 5.88237   1
  12  -1  -5 2.82480 6.16783   1
 -12   1  -5 3.83195 6.40755   6
  -1 -12  -5 3.78629 4.95739   2
  12  -1  -5 7.51740 5.16545   2
  -1 -12  -5 -4.0050 5.78477   1
 -12   1  -5 -1.2841 5.93253   1
 -12  -1  -5 -0.9438 5.86711   1
 -12  -1  -5 -7.5447 10.0633   3
  -1  12  -5 -1.7866 6.07233   1
   1 -12  -5 -1.9091 4.68257   2
   1 -12  -5 5.86171 5.88405   1
   1 -12  -5 3.81740 5.74637   1
  12   1  -5 1.22876 6.23259   1
  12  -2  -5 15.7776 5.57218   2
  -2 -12  -5 13.0605 5.24775   2
 -12   2  -5 5.21365 7.02004   6
 -12   2  -5 -14.493 11.1573   3
 -12   2  -5 9.85412 6.71310   1
   2  12  -5 19.7159 7.37675   1
  12  -2  -5 16.7124 6.77261   1
  -2 -12  -5 -0.3822 5.69740   1
   2 -12  -5 12.2253 6.51683   1
 -12  -2  -5 4.62112 9.20439   3
   2 -12  -5 19.3928 5.61600   2
 -12  -2  -5 20.4577 6.93005   1
  -2  12  -5 19.4583 6.98809   1
  12   2  -5 19.6107 6.86583   1
  -3 -12  -5 90.5251 9.98653   1
 -12   3  -5 89.4362 10.1311   1
   3  12  -5 101.245 10.5268   1
  12  -3  -5 104.783 8.94575   2
 -12   3  -5 105.760 14.8194   3
 -12   3  -5 75.9569 10.4970   6
  12  -3  -5 97.3011 10.2634   1
  -3 -12  -5 94.4260 8.33110   2
   3 -12  -5 108.934 8.92911   2
 -12  -3  -5 90.9213 8.35877   2
 -12  -3  -5 78.6312 9.54354   1
   3 -12  -5 119.479 10.9220   1
  12   3  -5 99.6980 10.1612   1
  -3  12  -5 98.0491 10.0388   1
 -12  -3  -5 111.051 12.9840   3
  -4 -12  -5 16.3516 7.12072   1
 -12   4  -5 -3.2368 6.47467   1
  12  -4  -5 8.87564 6.72497   1
  12  -4  -5 15.1490 5.90421   2
 -12   4  -5 -0.8064 7.16091   6
  -4 -12  -5 15.4633 5.94138   2
   4  12  -5 15.2402 7.51322   1
 -12   4  -5 -0.9408 9.12279   3
 -12  -4  -5 13.4931 8.36704   3
   4 -12  -5 11.3921 5.45966   2
   4 -12  -5 14.4268 7.16485   1
  -4  12  -5 -0.0018 6.37744   1
 -12  -4  -5 18.1967 5.97768   2
 -12  -4  -5 6.00517 6.68175   1
  12   4  -5 8.71735 7.00269   1
  -5 -12  -5 86.5427 10.3299   1
  12  -5  -5 87.1458 9.99748   1
 -12   5  -5 97.3754 12.5842   6
  12  -5  -5 72.5403 8.08714   2
  -5 -12  -5 94.0614 8.62784   2
   5  12  -5 78.9774 10.1797   1
 -12   5  -5 95.6192 12.2609   3
 -12   5  -5 78.5087 9.90738   1
 -12  -5  -5 79.0724 8.35489   2
  12   5  -5 95.4770 10.6266   1
  -5  12  -5 69.6333 9.66983   1
 -12  -5  -5 94.4014 11.8053   3
  -5  12  -5 90.9274 11.4803   6
   5 -12  -5 79.8640 9.98288   1
   5 -12  -5 81.1284 8.33439   2
 -12  -5  -5 75.5995 9.66231   1
  12  -6  -5 3.14568 5.37881   2
   6  12  -5 2.76743 7.22452   1
  -6 -12  -5 12.8210 5.76153   2
 -12   6  -5 18.7305 7.69681   1
  12  -6  -5 16.4462 7.14196   1
  -6 -12  -5 18.6423 7.53029   1
 -12   6  -5 5.30988 8.03338   3
 -12   6  -5 3.56441 9.58226   6
 -12  -6  -5 10.4249 5.59267   2
  -6  12  -5 12.0017 9.21696   6
  12   6  -5 10.3381 6.79076   1
  -6  12  -5 23.1863 7.57683   1
 -12  -6  -5 6.36746 7.80225   3
   6 -12  -5 3.38120 6.70534   1
 -12  -6  -5 15.2443 7.04003   1
   6 -12  -5 16.3607 5.86741   2
  -7 -12  -5 5.22544 7.25647   1
  -7 -12  -5 4.91441 5.47848   2
  12  -7  -5 -7.0984 6.60796   1
  12  -7  -5 4.42640 5.38054   2
 -12   7  -5 5.67708 10.3362   6
 -12   7  -5 -3.6674 7.39064   1
   7  12  -5 8.22602 7.56679   1
 -12  -7  -5 -0.8460 6.60388   1
 -12  -7  -5 -4.9306 7.97836   3
  -7  12  -5 7.21280 9.52431   6
   7 -12  -5 -0.1683 7.02446   1
   7 -12  -5 3.56959 5.59088   2
  12   7  -5 -2.1716 7.04710   1
 -12  -7  -5 8.41326 5.63879   2
  -7  12  -5 11.9900 7.34723   1
   8  12  -5 -2.7961 6.69798   1
  -8 -12  -5 -3.7082 5.79817   2
  -8 -12  -5 -3.9193 6.68468   1
  12  -8  -5 -7.3839 5.31565   2
  12  -8  -5 -1.6553 6.81402   1
 -12   8  -5 1.61512 10.7270   6
 -12   8  -5 -4.4075 6.59163   1
 -12  -8  -5 -2.6492 7.15172   1
   8 -12  -5 16.0625 7.90919   1
  12   8  -5 -12.401 6.37147   1
   8 -12  -5 2.71196 5.93184   2
  -8  12  -5 0.17639 9.81208   6
  -8  12  -5 0.09202 7.16018   1
 -12  -8  -5 3.38284 5.68752   2
  13   0  -5 2.38006 6.25843   1
   0  13  -5 -2.9995 6.37581   1
 -13   0  -5 -5.7165 11.8380   3
   0 -13  -5 -2.5419 6.16414   1
  13   0  -5 -1.0839 5.07046   2
 -13   0  -5 -5.7071 5.93849   1
   0 -13  -5 0.17126 6.46398   1
   0 -13  -5 -4.6963 5.11483   2
   1  13  -5 101.559 10.8273   1
 -13   1  -5 131.814 18.0670   3
  -1 -13  -5 135.365 11.8050   1
  -1 -13  -5 134.686 9.93081   2
  13  -1  -5 142.375 12.0869   1
  13  -1  -5 144.829 10.9614   2
 -13   1  -5 142.782 12.1765   1
 -13  -1  -5 149.715 16.9022   3
  13   1  -5 134.409 11.7428   1
 -13  -1  -5 129.159 11.5176   1
   1 -13  -5 114.609 9.28754   2
   1 -13  -5 140.548 11.8759   1
   1 -13  -5 111.824 11.0750   1
  -1  13  -5 167.379 12.9722   1
 -13   2  -5 -2.8407 7.09907   6
 -13   2  -5 12.9555 12.2815   3
  13  -2  -5 16.8714 5.79904   2
   2  13  -5 2.73233 7.15742   1
  -2 -13  -5 4.55693 6.85120   1
  13  -2  -5 7.65855 6.88634   1
 -13   2  -5 10.4813 7.25795   1
  -2 -13  -5 13.5901 5.80409   2
   2 -13  -5 1.34042 6.86449   1
 -13  -2  -5 12.0307 9.80450   3
  13   2  -5 17.6349 7.27274   1
 -13  -2  -5 7.81948 7.04690   1
   2 -13  -5 19.5306 6.01018   2
  -2  13  -5 -4.1297 6.56087   1
 -13   3  -5 10.7200 7.15412   1
 -13   3  -5 -7.9220 9.49108   3
  13  -3  -5 0.98347 5.52598   2
   3  13  -5 3.68042 7.16316   1
 -13   3  -5 -1.9547 7.24515   6
  -3 -13  -5 2.61143 5.44131   2
  -3 -13  -5 -2.1146 6.35109   1
  13  -3  -5 -5.2317 6.56773   1
 -13  -3  -5 8.36509 7.27314   1
 -13  -3  -5 7.43894 9.49774   3
   3 -13  -5 14.0651 7.29251   1
 -13  -3  -5 8.27884 5.63873   2
  -3  13  -5 6.23777 6.94484   1
  13   3  -5 -2.3559 6.78144   1
   3 -13  -5 7.23418 5.86179   2
   4  13  -5 -0.0671 6.82659   1
 -13   4  -5 26.5741 10.4293   3
  -4 -13  -5 3.90383 6.84130   1
 -13   4  -5 7.78025 7.34387   1
  -4 -13  -5 9.96346 5.63453   2
  13  -4  -5 -0.6873 7.14475   1
  13  -4  -5 3.47200 5.81247   2
 -13   4  -5 11.5369 8.01924   6
 -13  -4  -5 9.73713 7.32481   1
 -13  -4  -5 7.61313 5.70176   2
  13   4  -5 12.7871 7.27788   1
   4 -13  -5 2.39640 5.39175   2
   4 -13  -5 3.85321 7.00473   1
  -4  13  -5 17.4943 7.65328   1
 -13  -4  -5 9.04562 8.52905   3
 -13   5  -5 37.8102 8.88521   1
 -13   5  -5 40.4194 10.1586   6
  13  -5  -5 34.8104 7.13663   2
 -13   5  -5 26.9000 10.1022   3
  -5 -13  -5 27.1073 8.29814   1
  13  -5  -5 32.0742 8.44341   1
   5  13  -5 16.4597 8.27861   1
  -5 -13  -5 46.5051 7.57607   2
 -13  -5  -5 30.5856 8.34063   1
   5 -13  -5 24.0952 6.56856   2
 -13  -5  -5 23.9839 8.91955   3
   5 -13  -5 23.5574 8.12931   1
  13   5  -5 25.7594 8.16902   1
 -13  -5  -5 31.0267 6.80036   2
  -5  13  -5 27.2044 8.40184   1
 -13   6  -5 6.30477 7.24263   1
  -6 -13  -5 -10.582 5.22678   2
  13  -6  -5 -0.9604 5.55343   2
 -13   6  -5 -0.0958 7.92342   3
   6  13  -5 3.24212 7.53450   1
  13  -6  -5 3.74187 7.21803   1
 -13   6  -5 12.0726 9.69403   6
  -6 -13  -5 1.60763 6.80129   1
  -6  13  -5 -3.0726 7.01525   1
   6 -13  -5 -8.6903 6.27816   1
   6 -13  -5 -3.1211 5.41486   2
 -13  -6  -5 -4.3443 7.85375   3
  -6  13  -5 -6.5317 8.44063   6
  13   6  -5 4.19649 7.05794   1
 -13  -6  -5 -2.7363 6.73271   1
 -13  -6  -5 3.21902 5.34955   2
  14   0  -5 48.0768 9.30080   1
  14   0  -5 56.9717 7.96516   2
   0 -14  -5 58.6559 9.72254   1
   0 -14  -5 53.5362 9.67686   1
   0 -14  -5 59.2000 8.01981   2
 -14   0  -5 70.3934 14.8118   3
 -14   0  -5 38.5388 8.88310   1
   0  14  -5 42.6685 9.33635   1
 -14   1  -5 -3.1602 6.44284   1
   1  14  -5 -6.2127 6.51686   1
  -1 -14  -5 4.61378 6.64988   1
  -1 -14  -5 -8.8548 6.17634   1
  14  -1  -5 4.24001 6.84643   1
 -14   1  -5 14.1918 11.6202   3
  14  -1  -5 -1.2020 5.51652   2
  -1 -14  -5 8.69065 5.83906   2
   1 -14  -5 -3.8403 5.09530   2
 -14  -1  -5 4.08868 10.4367   3
  -1  14  -5 0.22655 7.14098   1
   1 -14  -5 0.32260 6.75822   1
 -14  -1  -5 -0.8491 6.75004   1
  14   1  -5 -0.3815 6.71946   1
  14  -2  -5 -0.8764 5.65085   2
 -14   2  -5 -15.486 10.2881   3
   2  14  -5 -0.8963 6.95249   1
  14  -2  -5 3.34990 6.90475   1
  -2 -14  -5 -2.2888 4.97627   2
 -14   2  -5 -3.5909 7.03448   1
  -2 -14  -5 -1.2475 6.83418   1
   2 -14  -5 -2.8613 6.84019   1
   2 -14  -5 16.4346 6.02870   2
  -2  14  -5 -7.1256 6.50997   1
 -14  -2  -5 -9.9508 9.16193   3
 -14  -2  -5 22.0306 7.85863   1
  14   2  -5 0.87108 7.01186   1
  14  -3  -5 18.2076 6.51733   2
   3  14  -5 20.6655 8.96743   1
  14  -3  -5 19.6799 8.47553   1
 -14   3  -5 21.1728 11.1995   3
 -14   3  -5 33.0321 9.10130   6
 -14   3  -5 22.3064 8.64705   1
  -3 -14  -5 18.9089 8.23880   1
  -3 -14  -5 18.0351 6.36224   2
 -14  -3  -5 4.79563 7.38445   1
   3 -14  -5 34.6429 7.13070   2
 -14  -3  -5 23.2288 10.4181   3
   3 -14  -5 27.4845 8.16595   1
  14   3  -5 31.9373 9.12251   1
 -14  -3  -5 19.3820 6.53687   2
  -3  14  -5 30.4043 8.61236   1
 -14   4  -5 13.1151 8.37901   6
  14  -4  -5 5.49027 6.26872   2
  -4 -14  -5 -7.4128 5.53431   2
 -14   4  -5 -2.9970 9.22972   3
 -14   4  -5 3.92195 7.46863   1
  14  -4  -5 -1.5463 7.13836   1
  -4 -14  -5 2.25129 7.24672   1
   4  14  -5 5.05425 7.70859   1
   4 -14  -5 1.83126 7.49380   1
 -14  -4  -5 -8.8934 5.28462   2
 -14  -4  -5 6.57512 7.15761   1
  -4  14  -5 0.20450 7.20014   1
  14   4  -5 6.19060 7.47980   1
 -14  -4  -5 -6.0116 8.47183   3
   4 -14  -5 6.74075 5.81272   2
   0   0   6 73.3312 5.38429   4
   0   0  -6 82.1639 6.57217   6
   0   0  -6 68.5881 5.98585   5
   0   0  -6 77.2388 6.30240   3
   0   1   6 -4.0737 2.55256   4
   0  -1  -6 -1.2645 3.18207   5
   1   0  -6 -1.8931 3.34962   6
   1   0   6 2.77278 2.60183   4
   0   1  -6 4.60995 3.39836   6
   0   1  -6 1.71453 3.30668   3
  -1   0  -6 1.78861 3.36143   6
  -1   0   6 -2.5671 2.46233   4
   0  -1  -6 -1.5238 3.37252   6
   0  -1  -6 -0.6975 3.34169   3
   1   0  -6 -1.2963 3.42770   3
   0   1  -6 -0.0656 3.35209   5
  -1   0  -6 -0.7830 3.39289   5
   0  -1   6 0.97163 2.42761   4
  -1   0  -6 -6.8393 3.31398   3
   1   0  -6 -0.1459 3.54146   5
  -1   1  -6 404.057 11.7645   5
   1  -1  -6 389.926 11.7956   3
   1   1  -6 396.818 11.8596   6
  -1  -1  -6 387.833 11.4478   5
  -1  -1   6 395.998 10.1167   4
   1   1  -6 398.978 11.7134   3
  -1  -1  -6 392.916 11.9892   6
   1   1   6 394.472 10.9547   4
   1  -1   6 382.587 9.97435   4
  -1   1  -6 396.126 11.7071   3
   1  -1  -6 411.742 12.4054   6
  -1   1   6 392.472 11.0729   4
   1  -1  -6 372.589 11.4994   5
   1   1  -6 401.530 11.9674   5
  -1   1  -6 392.766 12.0228   6
   0  -2  -6 3481.20 56.8867   6
  -2   0  -6 3462.80 55.7046   5
  -2   0   6 3412.07 54.8437   4
   2   0  -6 3436.39 56.5154   6
   0   2  -6 3424.47 56.4580   6
   2   0  -6 3507.41 54.7985   4
   0   2  -6 3474.02 54.9214   3
   0  -2  -6 3411.69 55.2897   3
  -2   0  -6 3435.58 56.7714   6
   0   2  -6 3437.39 56.3706   5
   0  -2  -6 3464.57 55.4115   5
   0   2   6 3409.30 55.7492   4
   2   0  -6 3416.20 56.3355   5
  -2   0  -6 3507.16 55.7141   3
   0  -2   6 3430.01 52.8764   4
   2   0  -6 3438.09 55.5481   3
  -1   2   6 5.88441 3.22999   4
  -1  -2  -6 -1.3080 3.11848   5
   2  -1  -6 0.89679 3.43549   5
  -1  -2  -6 0.51092 3.61041   6
  -2   1  -6 5.61885 2.00823   1
   1   2  -6 3.31538 3.45338   6
  -2   1  -6 -0.9476 3.53465   6
  -2   1  -6 0.29883 3.45974   5
   1   2  -6 -2.0136 3.49332   3
   1   2  -6 7.21412 3.97478   5
  -2  -1   6 -1.2430 2.68764   4
   1  -2   6 0.32203 2.26638   4
  -1  -2  -6 0.45801 1.89676   1
   2  -1  -6 3.79510 2.03330   1
   2  -1  -6 -1.9866 2.81871   4
  -2   1  -6 3.72608 3.69040   3
  -1  -2  -6 -2.8287 3.42793   3
   1   2  -6 3.17994 1.84863   1
   2  -1  -6 2.22747 3.67872   3
   2   1  -6 5.14730 3.78033   5
   2   1  -6 3.77987 3.53360   6
  -1   2  -6 5.98784 3.78511   5
   1  -2  -6 4.99077 3.50946   5
  -1   2  -6 0.34488 1.79573   1
   2   1  -6 2.02198 1.92215   1
   1  -2  -6 0.17540 3.35287   3
  -2  -1  -6 3.38395 1.95676   1
  -1   2  -6 6.31539 3.66618   3
  -2   1   6 2.29219 2.90966   4
   1  -2  -6 -1.4578 1.83819   1
  -2  -1  -6 7.21953 3.71048   6
  -1   2  -6 2.65263 3.50422   6
   1   2   6 5.60949 3.31167   4
  -2  -1  -6 8.10028 3.47022   5
   2   1  -6 2.19328 2.49931   4
   2   1  -6 -10.131 3.32152   3
  -1  -2   6 1.83735 2.38039   4
  -2  -1  -6 4.60851 3.92453   3
  -2   2   6 6528.08 99.3769   4
  -2   2  -6 6520.65 94.6781   1
  -2   2  -6 6341.57 99.2577   5
   2   2   6 6230.75 99.1535   4
   2  -2  -6 6453.77 99.1885   5
   2   2  -6 6543.86 96.1671   4
   2   2  -6 6373.91 98.8806   6
  -2  -2   6 6383.27 96.2330   4
   2   2  -6 6392.35 97.2701   3
  -2  -2  -6 6397.98 99.5767   6
  -2   2  -6 6418.40 97.3010   3
   2   2  -6 6755.37 94.9939   1
  -2  -2  -6 6460.78 97.9319   3
   2  -2  -6 6355.05 97.7211   3
   2   2  -6 6434.77 99.3184   5
  -2  -2  -6 6526.31 97.7372   5
   2  -2  -6 6590.64 95.0311   1
  -2  -2  -6 6668.22 94.8112   1
  -2   2  -6 6364.27 100.119   6
   0  -3  -6 1.45254 3.39516   3
   0  -3  -6 1.00566 3.05274   5
  -3   0   6 -3.9288 2.76684   4
   0  -3  -6 2.08234 2.02749   1
   0   3   6 -6.0479 2.94194   4
  -3   0  -6 -3.3977 3.62669   3
   3   0  -6 4.97078 3.78240   3
  -3   0  -6 -0.3295 2.09293   1
   3   0  -6 -2.6845 1.96234   1
   0   3  -6 0.87434 3.41340   3
   3   0  -6 2.76346 3.70533   5
   0   3  -6 0.73029 2.00864   1
   0   3  -6 -3.6576 3.35663   6
   0   3  -6 -0.5817 3.67965   5
   3   0  -6 1.60408 3.01893   4
  -3   0  -6 -0.0997 3.39637   6
  -3   0  -6 2.88342 3.45415   5
   1   3  -6 702.489 17.0132   5
  -3   1  -6 657.234 16.4530   3
   3  -1  -6 659.998 16.7982   5
  -3  -1   6 693.189 15.2493   4
  -3   1  -6 681.178 16.6857   5
  -3   1  -6 696.556 13.1067   1
   1   3  -6 642.625 15.5000   3
   1   3  -6 678.010 13.0585   1
  -1   3   6 683.983 16.6431   4
   3  -1  -6 653.276 16.6019   3
  -3   1  -6 694.095 17.3232   6
  -1  -3  -6 663.766 15.2665   5
  -1  -3  -6 695.800 13.1487   1
   3  -1  -6 693.277 16.2611   4
  -1  -3  -6 688.846 16.3446   3
   3  -1  -6 680.703 13.1754   1
   1   3  -6 659.010 16.1922   6
  -1  -3  -6 687.684 16.9308   6
  -3  -1  -6 683.417 16.9670   6
  -3  -1  -6 669.581 16.6993   3
   1  -3  -6 679.125 16.0718   5
  -3   1   6 674.119 16.1364   4
   3   1  -6 673.502 16.5704   3
  -1   3  -6 650.669 16.8721   6
  -3  -1  -6 703.225 15.9524   5
  -1   3  -6 654.672 16.8156   5
   1   3   6 685.567 16.5020   4
  -3  -1  -6 687.645 13.0475   1
  -1   3  -6 664.830 15.7013   3
   3   1  -6 693.682 16.9484   5
   1  -3  -6 697.003 16.5701   3
   3   1  -6 693.785 13.1625   1
  -1   3  -6 713.145 13.2227   1
   1  -3  -6 685.494 13.1565   1
   3   1  -6 691.210 15.0688   4
   2   3  -6 347.480 11.1859   3
   3  -2  -6 355.306 8.87836   1
   3  -2  -6 356.175 12.0182   5
  -3  -2   6 350.875 9.65744   4
   2   3  -6 330.269 10.7969   6
  -3   2  -6 331.645 11.3534   3
  -2  -3  -6 343.204 8.64784   1
  -2   3   6 331.449 11.4155   4
   3  -2  -6 349.516 11.8393   3
  -3   2  -6 342.795 11.9670   6
  -2  -3  -6 326.462 11.1515   3
   2   3  -6 320.390 11.5750   5
  -2  -3  -6 346.192 10.1110   5
   2   3  -6 343.239 8.65106   1
  -3   2  -6 344.213 8.59103   1
  -2  -3  -6 324.959 11.3582   6
  -3   2  -6 335.358 11.8481   5
  -2   3  -6 315.298 11.5077   5
   3   2  -6 360.522 11.2032   6
   2   3   6 337.237 11.5305   4
  -3  -2  -6 359.687 10.4915   5
  -3  -2  -6 340.390 11.5080   3
   3   2  -6 362.206 8.85752   1
   3   2  -6 334.021 9.38050   4
   2  -3  -6 325.159 11.0386   5
   3   2  -6 336.342 11.2908   3
  -2   3  -6 346.403 8.63451   1
   3  -2   6 348.818 9.83699   4
   3   2  -6 337.375 11.6080   5
  -3  -2  -6 330.678 11.3400   6
  -3   2   6 324.108 11.0614   4
  -3  -2  -6 344.234 8.59930   1
  -2   3  -6 349.449 11.0060   3
  -2   3  -6 342.361 11.8162   6
   2  -3  -6 358.082 11.4269   3
   2  -3  -6 348.263 8.71247   1
   3   3  -6 1009.05 21.5315   3
   3   3  -6 1038.46 22.3629   5
  -3  -3  -6 1059.86 20.2989   5
  -3   3  -6 986.418 22.7541   6
  -3   3  -6 1030.42 22.8393   5
  -3   3  -6 988.847 18.8857   1
  -3  -3  -6 1000.42 21.8063   3
  -3   3  -6 1038.15 21.5384   3
  -3  -3  -6 985.753 21.5922   6
   3  -3  -6 1040.11 22.7628   5
   3   3  -6 1003.63 21.0910   6
   3  -3  -6 996.363 21.8423   3
   3   3  -6 1032.43 19.1163   1
  -3  -3  -6 1039.43 19.0393   1
   3  -3  -6 1039.40 19.3345   1
   0  -4  -6 3248.23 49.7641   1
   4   0  -6 3170.81 49.7228   1
   0   4  -6 3182.59 53.1624   6
  -4   0  -6 3171.29 53.9664   6
   4   0  -6 3157.57 53.0533   3
   0  -4  -6 3160.64 52.0536   3
   4   0  -6 3188.43 52.2707   4
  -4   0  -6 3167.14 49.6195   1
  -4   0   6 3215.74 52.5951   4
   0   4  -6 3171.26 53.6748   5
  -4   0  -6 3166.48 53.0486   3
   4   0  -6 3225.27 53.9471   5
   0  -4  -6 3191.57 51.6914   5
  -4   0  -6 3193.83 52.6455   5
   0   4  -6 3265.96 49.6437   1
   0   4  -6 3185.23 51.1612   3
   4  -1  -6 137.386 8.36424   3
   1   4  -6 153.902 7.62602   3
  -4   1  -6 141.462 8.39630   5
  -1  -4  -6 133.943 7.04888   5
   4  -1  -6 154.076 8.62345   5
  -4  -1   6 141.629 7.34390   4
  -4   1  -6 146.154 6.01981   1
  -1  -4  -6 157.790 6.11756   1
  -4   1  -6 135.351 8.15269   3
   1   4  -6 144.007 8.25704   5
   1   4  -6 147.999 7.90155   6
   1   4  -6 138.918 5.94949   1
  -4   1  -6 143.907 8.48913   6
  -1  -4  -6 129.821 7.57837   3
   4  -1  -6 151.478 6.19461   1
  -4  -1  -6 154.064 7.77906   5
  -1   4  -6 145.995 6.22221   1
   4  -1   6 148.281 7.52244   4
   4   1  -6 138.315 7.22974   4
  -4   1   6 142.076 8.01631   4
  -4  -1  -6 146.533 8.45511   3
   4   1  -6 150.360 6.28007   1
   1  -4  -6 144.222 7.76995   5
  -4  -1  -6 138.597 8.27136   6
   1  -4  -6 143.475 7.80909   3
   1  -4  -6 134.911 5.99042   1
   4   1  -6 138.765 8.48232   5
  -1   4  -6 129.062 7.99164   6
  -1   4  -6 148.260 8.54395   5
   4   1  -6 129.148 8.14459   3
   1  -4  -6 125.280 5.98884   1
  -1   4  -6 142.626 7.37945   3
  -4  -1  -6 149.956 6.23340   1
  -2  -4  -6 2163.84 35.1755   1
  -4   2  -6 2142.36 38.0661   3
  -2  -4  -6 2123.99 37.6148   3
  -4   2  -6 2108.81 38.5648   5
   4  -2  -6 2150.08 39.4335   5
  -4   2  -6 2055.90 39.2713   6
  -4   2  -6 2138.26 35.2025   1
  -4  -2   6 2087.66 36.2729   4
  -2  -4  -6 2154.77 35.9582   5
   2   4  -6 2125.21 36.7331   3
   2   4  -6 2152.03 38.4918   5
   4  -2  -6 2156.37 35.3760   1
   2   4  -6 2099.79 37.2116   6
   2   4  -6 2134.68 35.1821   1
   4  -2  -6 2162.94 38.5414   3
  -2  -4  -6 2162.85 38.1955   6
  -2   4  -6 2152.22 35.1784   1
   4   2  -6 2192.60 35.3350   1
  -2   4  -6 2142.45 36.6032   3
   4   2  -6 2150.71 38.6932   5
   4   2  -6 2077.93 35.8477   4
  -2   4  -6 2107.78 38.9663   6
   2  -4  -6 2134.83 35.2927   1
   2  -4  -6 2133.43 38.1819   5
  -2   4  -6 2053.58 38.6800   5
  -4  -2  -6 2151.22 38.4664   3
   4   2  -6 2135.55 38.0538   3
  -4  -2  -6 2152.84 36.6198   5
  -4  -2  -6 2123.60 35.0789   1
   2  -4  -6 2117.21 37.4473   3
  -4  -2  -6 2096.40 38.2374   6
   4  -2   6 2208.40 36.7161   4
  -3  -4  -6 7.74298 3.09669   1
   3   4  -6 8.52439 3.17664   1
  -4   3  -6 3.39186 4.37156   5
  -4   3  -6 12.0797 4.26149   3
   3   4  -6 7.17400 4.14742   3
  -4   3  -6 5.67768 4.43941   6
   3   4  -6 8.81902 4.41044   5
   3   4  -6 11.1694 3.77664   6
  -3  -4  -6 8.82260 4.03173   6
  -3  -4  -6 16.8924 4.52074   3
  -4   3  -6 8.23411 3.11528   1
  -3  -4  -6 9.69120 3.84587   5
   4  -3  -6 7.00051 4.30038   3
   4  -3  -6 7.47865 3.19146   1
  -4  -3  -6 9.21837 3.92582   6
  -4  -3  -6 7.74994 3.45869   5
  -3   4  -6 10.8131 4.66439   5
  -3   4  -6 8.24083 4.50779   6
   3  -4  -6 6.08886 4.25667   3
   4   3  -6 12.1628 4.55875   5
   4   3  -6 3.26423 2.96104   1
  -3   4  -6 12.6194 3.26768   1
  -4  -3  -6 4.34431 4.24616   3
  -3   4  -6 9.50050 3.97774   3
   4   3  -6 7.97999 4.36228   3
  -4  -3  -6 6.35317 3.08297   1
   3  -4  -6 13.3479 3.36405   1
   4  -4  -6 1216.89 25.4558   3
  -4  -4  -6 1236.05 23.5601   1
  -4   4  -6 1220.05 23.3357   1
   4  -4  -6 1231.10 23.6816   1
  -4   4  -6 1229.31 24.9201   3
  -4  -4  -6 1213.62 25.4949   3
  -4  -4  -6 1214.26 24.9572   6
   4   4  -6 1217.46 25.2098   3
   4   4  -6 1208.12 23.5093   1
  -4   4  -6 1202.97 26.6264   5
  -4   4  -6 1249.29 27.1788   6
   4   4  -6 1215.18 25.4666   5
  -5   0  -6 -6.7317 3.78686   3
   5   0  -6 -0.8222 2.77362   1
   0   5  -6 -1.9782 2.81448   1
   0  -5  -6 2.36761 3.56662   3
   0   5  -6 0.95390 3.85311   6
   0  -5  -6 -1.7193 3.23257   5
   5   0  -6 2.72354 4.52141   3
   0   5  -6 1.65903 4.00863   5
   0  -5  -6 1.18929 2.77983   1
  -5   0  -6 0.44470 3.80822   5
   5   0  -6 1.00235 4.02259   5
   0   5  -6 5.75062 3.59152   3
  -5   0   6 1.97559 3.48237   4
  -5   0  -6 -3.4543 2.73591   1
  -5   0  -6 -0.8065 3.86783   6
   1   5  -6 243.646 8.45753   1
  -5   1  -6 251.013 10.7490   3
   5  -1  -6 251.741 8.56324   1
   1   5  -6 240.919 9.27274   3
   1   5  -6 257.441 9.93958   6
  -5   1  -6 254.415 10.7157   5
   5  -1  -6 254.630 11.0972   5
  -5  -1   6 241.177 9.88237   4
  -5   1  -6 231.938 10.6699   6
   5  -1  -6 241.078 10.8438   3
  -1  -5  -6 256.252 8.92489   5
   1   5  -6 246.039 10.7807   5
  -1  -5  -6 251.366 8.50202   1
  -5   1  -6 269.755 8.61765   1
  -1  -5  -6 255.572 9.71942   3
   1  -5  -6 254.766 8.47559   1
   5   1  -6 251.564 8.50906   1
  -5  -1  -6 265.140 10.5072   6
  -1   5  -6 253.888 8.61098   1
  -5  -1  -6 240.258 9.69764   5
   5   1  -6 242.997 10.8850   5
  -1   5  -6 268.701 9.30450   3
   5   1  -6 262.936 9.93390   4
  -5  -1  -6 248.825 8.45215   1
  -5  -1  -6 265.622 10.9158   3
  -1   5  -6 226.776 10.3620   6
   1  -5  -6 250.230 9.68577   5
   1  -5  -6 251.060 9.93708   3
   1  -5  -6 249.597 8.53168   1
   2   5  -6 3.99926 3.64148   6
   2   5  -6 4.89632 3.33313   1
  -5   2  -6 5.42908 3.24494   1
  -2  -5  -6 6.36855 3.33828   1
  -2  -5  -6 13.7739 4.31386   3
   2   5  -6 13.6599 4.51169   5
  -5   2  -6 10.4860 4.44896   3
   5  -2  -6 4.87644 4.35713   3
   2   5  -6 6.68483 3.82309   3
  -5  -2   6 6.55166 3.49116   4
   5  -2  -6 10.0499 3.34071   1
  -5   2  -6 -0.1094 4.42788   6
  -5   2  -6 6.64330 4.68449   5
   5   2  -6 3.30212 4.18452   5
  -5  -2  -6 17.0299 4.57917   6
  -5  -2  -6 11.2871 3.64594   1
   2  -5  -6 7.34040 4.15005   3
   5   2  -6 6.36997 3.48288   4
  -5  -2  -6 8.15016 3.80981   5
  -2   5  -6 6.10546 4.68597   5
   5   2  -6 6.21829 3.16072   1
  -2   5  -6 6.77769 4.34367   6
   5   2  -6 4.90300 4.57797   3
   2  -5  -6 8.47767 3.28706   1
   5  -2   6 14.1934 3.92811   4
  -5  -2  -6 12.9372 4.56093   3
  -2   5  -6 12.4083 4.04076   3
  -2   5  -6 11.2302 3.56180   1
   5  -3  -6 377.177 13.2927   3
   3   5  -6 361.670 11.4502   6
  -5   3  -6 388.458 11.2264   1
   5  -3  -6 375.731 11.2125   1
  -5   3  -6 371.329 12.5632   3
  -3  -5  -6 381.426 12.6940   3
  -3  -5  -6 385.763 11.1152   1
   3   5  -6 372.176 12.8313   5
   3   5  -6 366.720 11.0527   1
  -5   3  -6 360.546 13.6864   6
   3   5  -6 374.957 11.8904   3
  -3   5  -6 369.050 13.5361   5
  -5  -3  -6 381.820 13.5656   3
   3  -5  -6 369.521 12.2957   3
  -3   5  -6 364.110 13.5807   6
  -3   5  -6 377.051 11.7230   3
  -3   5  -6 375.120 10.9894   1
   5   3  -6 375.545 11.1056   1
   3  -5  -6 358.184 11.0074   1
  -5  -3  -6 378.897 12.5062   6
  -5  -3  -6 365.271 11.0161   1
   5   3  -6 394.043 13.0635   5
   5  -4  -6 14.7603 2.43592   2
   4   5  -6 10.5948 4.83581   5
  -4  -5  -6 20.6264 4.09127   1
  -5   4  -6 12.9847 4.43425   3
  -4  -5  -6 9.89119 4.25771   6
  -5   4  -6 11.5954 4.04837   1
  -4  -5  -6 5.44536 4.73364   3
   5  -4  -6 10.7547 4.89867   3
   5  -4  -6 10.6039 3.82925   1
   4   5  -6 10.2685 3.89847   1
   4   5  -6 10.8568 4.81972   3
  -5   4  -6 8.11156 5.20648   6
   4  -5  -6 11.6991 3.88749   1
  -5  -4  -6 17.7141 4.93888   3
  -5  -4  -6 13.0744 4.02052   1
  -5  -4  -6 15.6971 4.45593   6
   5   4  -6 16.4508 4.79811   5
   5   4  -6 17.5474 4.17678   1
   4  -5  -6 19.8553 2.43715   2
   4  -5  -6 12.8032 4.78915   3
  -4   5  -6 21.9393 5.50768   6
  -4   5  -6 12.8997 4.09941   1
  -4   5  -6 20.6210 4.97100   3
  -5  -5  -6 668.090 12.6790   2
   5   5  -6 663.605 17.6599   5
  -5   5  -6 675.008 19.8992   6
  -5  -5  -6 660.800 16.7105   6
   5  -5  -6 643.916 16.5586   1
  -5   5  -6 618.566 16.3798   1
  -5   5  -6 671.097 17.4606   3
   5  -5  -6 666.266 13.1415   2
   5   5  -6 645.248 16.5505   1
  -5  -5  -6 660.949 18.0401   3
   5  -5  -6 653.565 18.0229   3
  -5  -5  -6 626.675 16.2289   1
   0  -6  -6 5257.23 80.9324   3
   0   6  -6 5300.09 83.8884   5
   0   6  -6 5271.67 80.8676   1
   6   0  -6 5239.85 84.2711   5
   0   6  -6 5328.61 83.1747   6
   0  -6  -6 5159.88 80.7088   5
   6   0  -6 5271.40 80.9041   1
  -6   0  -6 5189.32 80.8370   1
  -6   0  -6 5237.21 84.0628   6
   0  -6  -6 5111.88 80.8644   1
  -6   0  -6 5086.34 83.2397   3
   1   6  -6 48.1326 5.48130   6
   6  -1  -6 41.9255 4.80791   1
  -6  -1   6 44.9728 5.69248   4
   1   6  -6 42.4807 4.92132   1
  -6   1  -6 45.1238 4.86794   1
  -1  -6  -6 38.5747 4.85601   1
   1   6  -6 40.5640 5.99925   5
  -6   1  -6 51.7627 6.68095   3
  -6   1  -6 40.1489 6.25102   6
  -1  -6  -6 35.7286 5.32053   3
   1  -6  -6 46.2096 5.03113   1
  -6  -1  -6 37.1109 4.69790   1
  -1   6  -6 42.8879 6.21415   5
   6   1  -6 30.8973 4.46524   1
   1  -6  -6 42.0828 5.54817   3
   1  -6  -6 29.5691 4.99228   5
  -1   6  -6 42.0341 5.89874   6
  -6  -1  -6 40.0360 5.96151   6
  -1   6  -6 44.9706 5.03557   1
   1  -6  -6 37.8903 4.70982   1
  -6  -1  -6 30.5582 5.59937   3
   6   1  -6 38.1287 5.92093   5
  -6   2  -6 2143.39 40.6633   3
   2   6  -6 2248.13 40.6789   5
  -6   2  -6 2214.13 42.2263   6
   2   6  -6 2171.08 38.3152   1
  -2  -6  -6 2234.84 39.2264   3
   2   6  -6 2247.21 39.1187   6
   6  -2  -6 2196.11 38.6311   1
  -2  -6  -6 2171.49 38.4685   1
  -6   2  -6 2259.47 38.6271   1
  -6  -2  -6 2177.97 41.2578   3
   2  -6  -6 2277.58 39.4061   3
   6   2  -6 2211.49 38.6867   1
   2  -6  -6 2264.10 38.7191   1
  -6  -2  -6 2266.87 40.4235   6
  -2   6  -6 2269.49 38.7505   1
   6   2  -6 2240.68 41.1077   5
  -2   6  -6 2171.97 41.2966   6
  -2   6  -6 2251.40 42.0404   5
  -6  -2  -6 2252.19 38.6344   1
  -6   3  -6 56.8855 7.22617   6
   3   6  -6 64.5322 6.03686   1
  -3  -6  -6 67.6198 4.01256   2
   6  -3  -6 61.6430 5.97084   1
  -3  -6  -6 65.8928 5.80435   1
   3   6  -6 74.0021 7.04052   5
  -6   3  -6 60.5655 6.88669   3
  -3  -6  -6 67.5348 6.74765   3
   6  -3  -6 56.6455 3.79740   2
  -6   3  -6 62.0749 5.84979   1
  -3   6  -6 55.7647 7.02005   6
   3  -6  -6 67.9392 6.13445   1
  -6  -3  -6 59.7424 3.63683   2
  -3   6  -6 70.5116 6.21852   1
   6   3  -6 54.0221 6.44847   5
  -6  -3  -6 60.2513 6.27910   6
   6   3  -6 66.9252 6.09906   1
   3  -6  -6 59.9138 4.18796   2
  -3   6  -6 51.2347 7.17074   5
   3  -6  -6 77.2884 7.00317   3
  -6  -3  -6 62.5773 5.94361   1
  -6  -3  -6 61.8408 7.17923   3
   4   6  -6 2471.50 43.1869   1
  -6   4  -6 2405.70 47.0134   6
  -6   4  -6 2511.40 44.4059   3
   4   6  -6 2460.29 43.9353   5
   6  -4  -6 2481.78 39.0850   2
   6  -4  -6 2489.17 43.4279   1
  -6   4  -6 2381.08 42.9521   1
  -4  -6  -6 2468.38 43.5340   3
  -4  -6  -6 2438.64 42.9925   1
  -4  -6  -6 2446.63 38.5222   2
  -4   6  -6 2456.87 43.0551   1
  -6  -4  -6 2491.86 38.3883   2
   4  -6  -6 2460.33 38.8946   2
   6   4  -6 2444.18 42.9535   1
   4  -6  -6 2478.02 43.6127   3
  -6  -4  -6 2426.77 42.8813   1
   6   4  -6 2504.37 44.3735   5
  -6  -4  -6 2521.12 43.4147   6
  -6  -4  -6 2491.64 45.0330   3
  -4   6  -6 2442.28 46.8199   6
   4  -6  -6 2413.47 43.0477   1
  -6   5  -6 46.8203 5.83668   1
  -5  -6  -6 39.8419 6.44981   3
   6  -5  -6 48.2566 4.35583   2
   6  -5  -6 46.8284 5.98406   1
  -5  -6  -6 51.4364 4.19042   2
  -6   5  -6 44.4606 7.45944   6
  -6   5  -6 48.1236 6.51691   3
   5   6  -6 51.3914 6.18370   1
  -5  -6  -6 49.2403 5.92727   1
   5   6  -6 47.3289 6.39530   5
   6   5  -6 51.3263 6.16154   1
  -5   6  -6 58.1752 8.14412   6
  -6  -5  -6 45.5499 6.77184   3
  -6  -5  -6 47.6150 4.10119   2
   5  -6  -6 41.5955 5.77452   1
   6   5  -6 57.6435 6.63967   5
  -6  -5  -6 36.2995 5.45361   1
   5  -6  -6 50.3341 4.31784   2
  -5   6  -6 48.0582 5.96694   1
   6  -6  -6 1499.53 26.9301   2
  -6  -6  -6 1470.62 26.5506   2
   6   6  -6 1489.45 30.4859   1
  -6   6  -6 1464.44 30.6415   1
  -6   6  -6 1522.12 30.6227   3
  -6  -6  -6 1482.18 30.4454   1
  -6   6  -6 1457.55 34.8252   6
   6  -6  -6 1493.20 30.7104   1
   6   6  -6 1554.09 30.7968   5
  -6  -6  -6 1490.04 31.2201   3
   0   7  -6 -1.4920 4.02741   6
   0   7  -6 -6.6651 4.15393   5
   0  -7  -6 -0.6381 2.27086   2
  -7   0  -6 -0.6535 5.00533   3
   0  -7  -6 1.81182 4.00493   3
   7   0  -6 3.72317 4.00962   1
   0  -7  -6 -5.5394 3.44681   1
  -7   0  -6 -1.4968 2.20988   2
   7   0  -6 8.69724 5.10387   5
   0   7  -6 2.81639 4.07274   1
  -7   0  -6 0.51439 3.87806   1
  -7   0  -6 -5.1982 4.42814   6
  -7   1  -6 1115.89 23.0913   1
   7  -1  -6 1084.77 23.1152   1
   1   7  -6 1101.53 23.4429   6
  -7   1  -6 1127.08 18.7550   2
  -1  -7  -6 1100.43 23.1552   1
  -7   1  -6 1132.50 25.9316   6
  -7   1  -6 1057.23 25.6017   3
  -1  -7  -6 1112.26 23.1915   3
  -1  -7  -6 1106.61 19.1076   2
   1   7  -6 1123.89 25.0933   5
   1   7  -6 1071.32 22.9007   1
  -1   7  -6 1102.65 24.7404   6
   1  -7  -6 1091.99 23.0847   1
   1  -7  -6 1083.87 19.1043   2
  -7  -1  -6 1067.62 25.6325   3
  -1   7  -6 1102.29 23.0904   1
  -7  -1  -6 1073.90 22.9008   1
   1  -7  -6 1072.40 23.0050   5
  -7  -1  -6 1109.77 24.8946   6
   1  -7  -6 1104.94 23.1018   3
   7   1  -6 1033.24 24.9284   5
  -7  -1  -6 1102.76 18.6899   2
  -1   7  -6 1102.31 25.7336   5
   7   1  -6 1082.45 23.0244   1
   1  -7  -6 1112.14 23.1415   1
   7  -2  -6 16.9285 3.09283   2
  -7   2  -6 13.9284 5.58869   6
  -2  -7  -6 22.3923 4.79585   1
  -7   2  -6 14.0968 4.50482   1
   2   7  -6 13.2732 4.42648   1
  -7   2  -6 3.56597 5.47760   3
  -2  -7  -6 12.6536 2.97905   2
   7  -2  -6 16.3194 4.76409   1
   2   7  -6 17.5482 5.40844   5
  -2  -7  -6 14.9741 4.87770   3
   2  -7  -6 17.5059 4.53601   1
   7   2  -6 19.6667 4.68152   1
   2  -7  -6 17.9569 4.97776   3
  -2   7  -6 14.0832 4.40015   1
  -2   7  -6 1.02372 5.16063   5
  -7  -2  -6 12.9887 4.48120   1
  -7  -2  -6 18.9830 2.99213   2
  -7  -2  -6 14.4096 4.97209   6
   2  -7  -6 15.2681 3.01812   2
  -7  -2  -6 15.1772 5.70112   3
  -2   7  -6 20.4247 5.66063   6
   7   2  -6 19.0146 5.57273   5
  -7   3  -6 184.674 10.8802   3
   7  -3  -6 174.896 9.34153   1
   7  -3  -6 185.630 7.05713   2
   3   7  -6 176.998 10.1022   5
  -7   3  -6 177.245 9.10856   1
  -3  -7  -6 175.273 6.63666   2
  -3  -7  -6 173.444 9.44062   3
   3   7  -6 183.265 9.14120   1
  -3  -7  -6 192.948 9.45981   1
  -7   3  -6 177.988 11.4804   6
   7   3  -6 169.071 10.0964   5
   7   3  -6 186.336 9.53660   1
   3  -7  -6 162.622 9.14455   1
  -3   7  -6 171.540 10.5583   6
  -7  -3  -6 170.120 9.66788   6
   3  -7  -6 181.081 9.52179   3
   3  -7  -6 164.542 6.70514   2
  -3   7  -6 176.098 9.25683   1
  -7  -3  -6 161.122 9.19128   1
  -7  -3  -6 183.608 6.55927   2
  -7  -3  -6 160.674 10.7533   3
  -4  -7  -6 45.7793 6.22964   1
   7  -4  -6 57.2088 4.81049   2
  -7   4  -6 48.4378 6.20080   1
   4   7  -6 53.3447 6.69841   5
  -7   4  -6 49.3430 7.68133   6
  -7   4  -6 51.5253 7.12136   3
  -4  -7  -6 60.0393 6.84537   3
  -4  -7  -6 53.0357 4.45017   2
   4   7  -6 63.6771 6.68232   1
   7  -4  -6 52.0874 6.38641   1
  -7  -4  -6 59.3627 6.43970   1
   7   4  -6 53.2696 6.83124   5
   7   4  -6 68.2467 6.74743   1
   4  -7  -6 60.6342 6.46897   1
  -7  -4  -6 34.2367 6.62416   3
  -7  -4  -6 61.1895 4.57554   2
   4  -7  -6 50.6118 6.76646   3
   4  -7  -6 49.6509 4.53906   2
  -4   7  -6 55.8683 7.79838   6
  -4   7  -6 56.1675 6.46947   1
  -7   5  -6 351.070 13.5678   3
   7  -5  -6 320.664 10.1110   2
  -5  -7  -6 332.766 12.7303   1
   5   7  -6 322.057 12.7288   5
  -7   5  -6 316.425 12.6357   1
  -7   5  -6 331.934 15.9873   6
  -5  -7  -6 361.934 13.3659   3
   5   7  -6 309.415 12.8789   1
  -5  -7  -6 322.810 9.84978   2
   7  -5  -6 305.747 12.6596   1
  -5   7  -6 319.409 12.8758   1
   7   5  -6 307.116 12.6675   5
   5  -7  -6 324.148 12.6306   1
  -7  -5  -6 345.817 14.0151   3
  -7  -5  -6 310.257 12.6539   1
   7   5  -6 340.562 12.8383   1
  -5   7  -6 346.133 15.5341   6
  -7  -5  -6 327.511 9.89215   2
   5  -7  -6 328.319 10.2056   2
  -6  -7  -6 9.62919 5.41555   1
   7  -6  -6 12.7724 5.41334   1
  -7   6  -6 9.89215 7.42110   6
   7  -6  -6 19.3920 4.14136   2
  -6  -7  -6 7.73535 5.42164   3
  -7   6  -6 11.0495 5.15992   1
  -7   6  -6 12.5847 5.55697   3
   6   7  -6 3.39599 4.90374   1
  -6  -7  -6 7.51852 3.97644   2
   7   6  -6 6.42412 4.90265   1
  -7  -6  -6 17.4280 6.06154   3
  -6   7  -6 14.4578 5.46561   1
  -7  -6  -6 12.0900 3.83421   2
   6  -7  -6 14.0770 4.07350   2
  -6   7  -6 10.5360 7.47684   6
  -7  -6  -6 9.24646 5.27306   1
   6  -7  -6 11.4901 5.45937   1
   7   7  -6 249.734 12.2705   1
  -7   7  -6 284.209 16.9258   6
  -7  -7  -6 246.250 12.9692   3
  -7  -7  -6 232.060 12.2811   1
  -7   7  -6 235.024 12.2229   1
   7  -7  -6 244.635 9.98808   2
  -7  -7  -6 263.074 10.1047   2
   7  -7  -6 229.949 12.2723   1
   0  -8  -6 1324.30 23.5588   2
   0   8  -6 1328.12 29.1389   5
  -8   0  -6 1272.95 28.6856   6
  -8   0  -6 1304.03 30.3433   3
   0  -8  -6 1282.73 26.9942   1
   8   0  -6 1330.51 27.2024   1
  -8   0  -6 1290.02 23.0729   2
   0   8  -6 1298.09 27.4786   6
   0   8  -6 1273.12 26.9711   1
  -8   0  -6 1276.38 27.0034   1
   1   8  -6 78.4006 7.95966   5
  -1  -8  -6 74.9355 5.71672   2
  -8   1  -6 87.6615 9.43502   3
   8  -1  -6 69.6064 6.92040   1
  -8   1  -6 81.1805 8.42514   6
   1   8  -6 68.5469 6.67291   1
  -1  -8  -6 70.8773 6.83311   1
  -8   1  -6 72.0055 6.74257   1
  -8  -1  -6 68.1504 8.69672   3
   1  -8  -6 91.6784 7.48644   1
  -1   8  -6 86.5615 8.70984   5
  -8  -1  -6 87.2821 8.09127   6
  -1   8  -6 77.9311 7.73000   6
  -8  -1  -6 85.8460 5.75742   2
   8   1  -6 68.9708 6.92800   1
  -8  -1  -6 93.0351 7.38754   1
   1  -8  -6 87.0830 7.31231   1
   8   1  -6 97.8531 8.82676   5
  -1   8  -6 83.3625 7.37750   1
   1  -8  -6 91.1929 5.97204   2
  -2  -8  -6 697.984 18.4183   1
   8  -2  -6 714.591 18.5857   1
   2   8  -6 687.553 18.3925   1
   2   8  -6 737.296 19.4488   5
  -8   2  -6 711.483 18.5898   1
  -2  -8  -6 693.144 15.1242   2
  -8   2  -6 675.018 21.1257   3
   8  -2  -6 703.264 15.4333   2
  -8   2  -6 695.213 20.6564   6
   8   2  -6 727.566 18.5352   1
  -8  -2  -6 701.092 18.2993   1
  -2   8  -6 718.816 18.5076   1
  -8  -2  -6 696.601 14.8105   2
  -8  -2  -6 729.897 21.3840   3
  -8  -2  -6 730.667 19.3955   6
  -2   8  -6 712.772 19.9894   6
   2  -8  -6 698.661 15.1010   2
   2  -8  -6 701.627 18.5502   1
   8   2  -6 699.431 19.4769   5
   3   8  -6 76.9856 7.48342   1
  -3  -8  -6 60.0455 6.81191   1
  -8   3  -6 66.8143 8.72702   3
   3   8  -6 68.6474 7.56727   5
  -8   3  -6 65.6667 7.12909   1
  -3  -8  -6 72.6191 5.24115   2
   8  -3  -6 74.5250 7.45333   1
  -8   3  -6 68.2188 8.69257   6
   8  -3  -6 65.6126 5.41195   2
   3  -8  -6 72.0292 5.33061   2
  -8  -3  -6 62.8464 6.93936   1
  -3   8  -6 68.4203 8.24634   6
  -3   8  -6 52.8839 6.65730   1
   8   3  -6 60.4555 7.41021   5
  -8  -3  -6 78.0963 7.41059   6
  -8  -3  -6 73.1947 5.36756   2
   3  -8  -6 64.9215 6.89469   1
  -8  -3  -6 64.4556 8.48612   3
   8   3  -6 68.9351 7.11646   1
   8  -4  -6 2803.27 46.3602   2
   8  -4  -6 2828.21 50.3013   1
  -8   4  -6 2798.26 51.6905   3
  -8   4  -6 2807.17 50.3660   1
  -4  -8  -6 2875.14 46.0319   2
   4   8  -6 2844.14 50.4097   1
  -8   4  -6 2727.93 53.9249   6
  -4  -8  -6 2808.36 50.2132   1
  -8  -4  -6 2777.63 52.1609   3
   8   4  -6 2930.43 50.8257   5
   4  -8  -6 2834.89 50.3492   1
  -4   8  -6 2750.88 53.0443   6
  -8  -4  -6 2824.01 50.2453   1
  -4   8  -6 2783.12 50.0644   1
   4  -8  -6 2775.67 46.2355   2
  -8  -4  -6 2874.83 45.8162   2
   8   4  -6 2803.56 50.3572   1
  -5  -8  -6 16.4394 4.17612   2
  -8   5  -6 29.1869 6.09093   1
   8  -5  -6 16.6713 5.57430   1
  -8   5  -6 14.0881 5.81000   3
   8  -5  -6 16.6517 4.24736   2
   5   8  -6 15.6018 5.63838   1
  -8   5  -6 19.6700 7.99534   6
  -5  -8  -6 18.1578 5.67940   1
   8   5  -6 16.6684 5.54909   1
  -8  -5  -6 14.8648 5.34816   1
  -8  -5  -6 13.5799 4.35402   2
   5  -8  -6 19.2197 4.22124   2
  -5   8  -6 21.9421 7.49258   6
   5  -8  -6 29.4759 5.93215   1
  -5   8  -6 12.2820 5.66694   1
   8   5  -6 12.9677 6.07420   5
  -8  -5  -6 15.9252 6.32948   3
  -8   6  -6 1797.90 36.1880   1
   6   8  -6 1754.48 35.9408   1
   8  -6  -6 1741.33 32.0504   2
  -6  -8  -6 1793.71 31.8844   2
  -8   6  -6 1764.22 42.0254   6
  -6  -8  -6 1663.69 35.4536   1
  -8   6  -6 1786.59 35.8465   3
   8  -6  -6 1762.24 36.0064   1
   6  -8  -6 1718.18 31.9834   2
  -8  -6  -6 1733.73 31.5897   2
   6  -8  -6 1735.60 36.0107   1
  -8  -6  -6 1732.03 35.5936   1
  -6   8  -6 1644.68 35.2605   1
  -8  -6  -6 1770.16 36.9463   3
   8   6  -6 1651.41 35.3894   1
  -6   8  -6 1669.04 40.3413   6
  -7  -8  -6 44.5370 5.73488   2
   7   8  -6 40.3730 7.30654   1
  -8   7  -6 27.1445 6.91502   1
  -8   7  -6 58.6243 11.8101   6
   8  -7  -6 36.5945 7.18723   1
   8  -7  -6 33.7562 5.38892   2
  -7  -8  -6 24.7630 6.49626   1
  -7   8  -6 32.7804 10.3521   6
  -7   8  -6 45.0446 7.61296   1
  -8  -7  -6 36.4395 5.38959   2
  -8  -7  -6 26.4016 6.53540   1
   7  -8  -6 28.1110 5.18737   2
  -8  -7  -6 27.3575 7.31147   3
   7  -8  -6 44.4584 7.24718   1
   8   7  -6 22.8172 6.66376   1
   8  -8  -6 1934.50 36.7121   2
  -8  -8  -6 2014.54 36.5970   2
   8  -8  -6 1928.60 40.9448   1
  -8   8  -6 1964.02 51.2375   6
   8   8  -6 1968.43 40.6024   1
  -8  -8  -6 1979.62 41.0054   1
  -8   8  -6 2002.63 40.8920   1
  -9   0  -6 -2.4652 4.59000   1
  -9   0  -6 -7.2528 6.49503   3
   9   0  -6 -2.2402 4.48832   1
   0   9  -6 4.97968 4.84764   1
  -9   0  -6 -6.9084 4.98601   6
   0  -9  -6 -2.2158 3.36387   2
   0  -9  -6 -6.3564 4.37941   1
   0   9  -6 2.26035 5.72302   5
  -9   1  -6 208.853 14.4699   3
   9  -1  -6 202.329 10.6718   1
  -1  -9  -6 178.566 8.28963   2
   1   9  -6 186.122 10.6000   1
  -9   1  -6 191.449 12.1160   6
   9  -1  -6 175.474 8.33008   2
  -9   1  -6 192.599 10.6402   1
  -1  -9  -6 200.304 10.7424   1
   1   9  -6 197.240 11.5572   5
  -9  -1  -6 166.689 12.9586   3
   1  -9  -6 181.918 10.6978   1
  -9  -1  -6 200.098 10.6948   1
  -1   9  -6 179.437 10.8752   6
   1  -9  -6 206.822 10.7850   1
  -1   9  -6 179.602 10.4967   1
  -9  -1  -6 182.427 11.2232   6
   9   1  -6 169.329 10.2640   1
  -9  -1  -6 174.418 8.17964   2
   1  -9  -6 180.875 8.48466   2
   9   1  -6 176.858 11.3392   5
  -9   2  -6 60.4958 9.54484   3
   9  -2  -6 67.4656 5.76763   2
  -2  -9  -6 51.7617 6.84114   1
   9  -2  -6 53.6276 7.07845   1
   2   9  -6 64.7282 7.62482   5
  -9   2  -6 57.2615 8.18548   6
   2   9  -6 54.2011 7.01941   1
  -9   2  -6 50.7774 6.95033   1
  -2  -9  -6 61.9240 5.58963   2
   2  -9  -6 68.0699 7.53916   1
  -9  -2  -6 55.1166 7.07910   1
  -9  -2  -6 52.0548 5.30166   2
  -9  -2  -6 65.3575 7.71401   6
   9   2  -6 69.2851 7.32105   1
   9   2  -6 62.1415 7.78573   5
   2  -9  -6 68.9380 5.82265   2
  -9  -2  -6 69.1111 9.57675   3
  -2   9  -6 61.5520 7.27472   1
  -2   9  -6 58.6569 7.76490   6
  -9   3  -6 70.5774 7.59148   1
  -3  -9  -6 76.8621 5.90936   2
  -9   3  -6 62.7654 8.85534   6
   9  -3  -6 56.8001 7.27339   1
   9  -3  -6 72.9353 6.14191   2
  -9   3  -6 66.1240 9.64151   3
  -3  -9  -6 62.0908 7.40359   1
   3   9  -6 62.7997 7.40832   1
  -9  -3  -6 65.3608 5.63343   2
  -9  -3  -6 46.8605 8.82729   3
   3  -9  -6 67.6779 7.47511   1
   9   3  -6 74.1504 8.34748   5
   9   3  -6 84.4515 8.13111   1
  -3   9  -6 59.2843 8.30928   6
  -9  -3  -6 67.3020 7.54611   1
   3  -9  -6 70.8939 5.86214   2
  -3   9  -6 82.0991 8.07691   1
  -9   4  -6 10.4947 6.64616   3
  -9   4  -6 -4.1944 6.33122   6
  -4  -9  -6 1.73291 3.79321   2
   9  -4  -6 -6.3501 3.68219   2
  -9   4  -6 2.55694 5.05960   1
   4   9  -6 3.21368 5.42773   1
   9  -4  -6 -5.0666 5.05265   1
  -4  -9  -6 1.85157 5.24058   1
  -9  -4  -6 -3.4633 6.54386   3
  -9  -4  -6 -0.2343 3.77173   2
   4  -9  -6 0.10588 3.80883   2
  -4   9  -6 15.8910 6.79064   6
   4  -9  -6 -7.0508 4.67827   1
  -9  -4  -6 -1.6520 5.03317   1
   9   4  -6 0.59860 5.18145   5
  -4   9  -6 -4.2563 4.76883   1
   9   4  -6 -1.8097 5.13162   1
   9  -5  -6 475.641 16.5095   1
  -9   5  -6 443.008 17.4418   3
  -5  -9  -6 455.430 13.4477   2
  -9   5  -6 468.064 16.5780   1
  -9   5  -6 421.733 19.7311   6
   9  -5  -6 440.247 13.4676   2
   5   9  -6 490.470 16.9741   1
  -5  -9  -6 462.211 16.3774   1
  -9  -5  -6 462.963 13.2515   2
  -5   9  -6 467.769 16.6333   1
   5  -9  -6 432.660 13.5588   2
  -9  -5  -6 426.477 16.1710   1
  -9  -5  -6 459.029 18.2912   3
   9   5  -6 421.630 16.0505   1
   5  -9  -6 459.896 16.4499   1
  -5   9  -6 476.864 19.8065   6
  -9   6  -6 29.4057 10.1051   6
  -9   6  -6 20.8021 6.71240   3
   9  -6  -6 18.5712 4.89451   2
  -6  -9  -6 18.6042 4.91894   2
   9  -6  -6 18.6477 6.30660   1
   6   9  -6 13.6342 6.56220   1
  -9   6  -6 19.9666 6.64018   1
  -6  -9  -6 25.7259 6.61192   1
  -6   9  -6 23.8265 6.20065   1
   6  -9  -6 27.8729 5.12808   2
  -9  -6  -6 20.6340 5.25240   2
   6  -9  -6 31.4466 6.64120   1
  -9  -6  -6 12.2038 5.69404   1
  -9  -6  -6 17.3471 7.04515   3
   9   6  -6 14.2168 6.16317   1
  -6   9  -6 28.7395 9.36937   6
  -7  -9  -6 550.377 19.0444   1
  -7  -9  -6 546.549 15.9656   2
  -9   7  -6 554.884 26.4255   6
   9  -7  -6 524.682 15.8728   2
   9  -7  -6 562.964 19.2097   1
   7   9  -6 559.835 19.3275   1
  -9   7  -6 540.481 19.2077   1
   7  -9  -6 560.196 16.1800   2
  -9  -7  -6 584.289 15.9659   2
  -9  -7  -6 575.804 19.8940   3
  -7   9  -6 584.606 19.6342   1
  -7   9  -6 561.485 25.5838   6
   9   7  -6 534.622 18.9487   1
   7  -9  -6 550.499 19.0558   1
  -9  -7  -6 568.237 18.9297   1
   8   9  -6 85.2723 10.0160   1
  -9   8  -6 67.7586 9.26151   1
  -9   8  -6 79.4595 16.6819   6
  -8  -9  -6 86.8644 7.49139   2
   9  -8  -6 87.7450 9.70867   1
  -8  -9  -6 78.6190 9.54149   1
   9  -8  -6 73.2028 7.37612   2
   8  -9  -6 65.8744 8.76299   1
  -8   9  -6 64.8553 15.0116   6
   9   8  -6 70.0924 9.02185   1
  -8   9  -6 67.9807 8.98318   1
  -9  -8  -6 62.1450 8.53937   1
   8  -9  -6 80.3445 7.57112   2
  -9  -8  -6 71.7775 7.09333   2
  -9  -9  -6 606.520 21.1826   1
  -9   9  -6 637.377 21.7963   1
   9   9  -6 608.734 21.1957   1
   9  -9  -6 633.042 21.8087   1
   9  -9  -6 603.535 17.9823   2
  -9   9  -6 645.453 35.8716   6
  -9  -9  -6 619.066 17.8485   2
 -10   0  -6 2573.93 48.1232   6
   0  10  -6 2525.24 46.9123   1
  10   0  -6 2498.64 46.6734   1
   0 -10  -6 2565.00 42.9460   2
 -10   0  -6 2446.27 46.5663   1
 -10   0  -6 2483.80 52.1125   3
   0 -10  -6 2362.75 46.1392   1
  -1 -10  -6 484.343 13.7254   2
 -10   1  -6 481.651 16.5559   1
  10  -1  -6 461.696 16.5519   1
 -10   1  -6 477.350 21.5214   3
  -1 -10  -6 454.489 16.3143   1
   1  10  -6 447.955 16.3663   1
  10  -1  -6 477.673 13.8563   2
 -10   1  -6 479.360 17.9255   6
   1  10  -6 513.559 17.5207   5
 -10  -1  -6 470.726 20.0806   3
  10   1  -6 498.566 17.9288   5
  -1  10  -6 455.177 16.2982   1
 -10  -1  -6 472.321 16.6817   1
   1 -10  -6 470.284 13.6820   2
   1 -10  -6 460.285 16.3130   1
 -10  -1  -6 464.381 13.3551   2
 -10  -1  -6 504.475 17.2666   6
  10   1  -6 437.773 16.1433   1
   1 -10  -6 472.206 16.6325   1
  -2 -10  -6 1759.81 36.1184   1
  10  -2  -6 1732.10 36.2895   1
  -2 -10  -6 1724.50 32.0987   2
 -10   2  -6 1810.08 42.0586   3
  10  -2  -6 1737.91 32.3951   2
   2  10  -6 1725.24 36.1329   1
 -10   2  -6 1733.30 38.4463   6
 -10   2  -6 1700.04 35.8478   1
 -10  -2  -6 1718.17 35.9912   1
  -2  10  -6 1735.37 35.9595   1
 -10  -2  -6 1706.46 40.0288   3
  10   2  -6 1704.98 35.8508   1
 -10  -2  -6 1728.83 31.8351   2
   2 -10  -6 1695.62 35.9718   1
  10   2  -6 1798.35 36.8927   5
   2 -10  -6 1792.66 32.4769   2
  -3 -10  -6 31.6346 5.15013   2
 -10   3  -6 22.5491 8.99124   3
 -10   3  -6 15.1298 6.05673   1
 -10   3  -6 25.1531 7.79877   6
  10  -3  -6 23.3799 4.81824   2
  -3 -10  -6 15.7524 6.19028   1
   3  10  -6 19.5845 6.35849   1
  10  -3  -6 26.8267 6.49682   1
 -10  -3  -6 20.8030 4.70907   2
  -3  10  -6 16.1516 6.95772   6
  10   3  -6 29.6895 6.88427   5
 -10  -3  -6 11.2790 6.01411   1
  10   3  -6 20.0959 6.31962   1
   3 -10  -6 18.8803 6.24923   1
 -10  -3  -6 20.6672 8.27499   3
   3 -10  -6 20.0026 5.00477   2
  -3  10  -6 32.6468 6.86460   1
 -10   4  -6 1796.33 40.2959   3
 -10   4  -6 1747.37 41.0435   6
 -10   4  -6 1771.46 37.6647   1
  -4 -10  -6 1819.25 33.4188   2
   4  10  -6 1766.82 37.5863   1
  10  -4  -6 1795.26 33.5398   2
  -4 -10  -6 1793.69 37.4745   1
  10  -4  -6 1767.19 37.6273   1
  -4  10  -6 1766.76 37.2702   1
   4 -10  -6 1719.90 37.1319   1
 -10  -4  -6 1751.87 32.8665   2
  -4  10  -6 1791.88 39.5555   6
 -10  -4  -6 1773.24 39.9118   3
  10   4  -6 1744.75 37.1005   1
 -10  -4  -6 1804.14 37.3975   1
   4 -10  -6 1760.25 33.3462   2
  10  -5  -6 50.2850 6.21889   2
  -5 -10  -6 47.7662 6.25246   2
 -10   5  -6 42.6109 9.94480   6
 -10   5  -6 32.7590 8.56475   3
  10  -5  -6 50.1065 8.04607   1
  -5 -10  -6 55.4988 8.23671   1
   5  10  -6 41.8242 7.88021   1
 -10   5  -6 39.4971 7.49304   1
 -10  -5  -6 48.2261 9.14488   3
   5 -10  -6 34.5523 7.01832   1
  10   5  -6 51.6755 7.98908   1
  -5  10  -6 39.9336 7.74606   1
  -5  10  -6 48.2660 9.76472   6
 -10  -5  -6 36.8148 5.60860   2
 -10  -5  -6 38.6538 7.39291   1
   5 -10  -6 44.5620 6.09316   2
  -6 -10  -6 634.133 20.8024   1
 -10   6  -6 628.731 26.4648   6
 -10   6  -6 658.470 21.6530   3
  -6 -10  -6 636.616 17.5042   2
 -10   6  -6 663.927 21.0266   1
   6  10  -6 669.418 21.0954   1
  10  -6  -6 662.052 17.7672   2
  10  -6  -6 658.337 21.0007   1
  -6  10  -6 624.925 20.7314   1
 -10  -6  -6 673.023 21.1280   1
 -10  -6  -6 641.211 17.3944   2
  10   6  -6 635.677 20.7706   1
 -10  -6  -6 641.205 22.2719   3
  -6  10  -6 681.872 25.4043   6
   6 -10  -6 660.837 17.9072   2
   6 -10  -6 653.634 20.9693   1
   7  10  -6 196.462 13.2608   1
  10  -7  -6 226.704 13.6045   1
  10  -7  -6 195.971 10.9075   2
 -10   7  -6 207.309 13.2928   1
 -10   7  -6 189.195 18.4691   6
  -7 -10  -6 205.286 13.3564   1
  -7 -10  -6 200.025 11.0497   2
   7 -10  -6 224.709 11.3351   2
 -10  -7  -6 217.163 10.7649   2
  10   7  -6 208.230 13.3369   1
 -10  -7  -6 197.975 14.2955   3
   7 -10  -6 209.208 13.7790   1
  -7  10  -6 200.448 18.3068   6
 -10  -7  -6 184.933 13.1945   1
  -7  10  -6 213.738 13.7596   1
  10  -8  -6 850.285 25.7799   1
  10  -8  -6 868.603 22.2880   2
 -10   8  -6 891.073 26.1717   1
  -8 -10  -6 887.963 25.8857   1
   8  10  -6 873.105 25.5891   1
  -8 -10  -6 891.262 22.1726   2
 -10   8  -6 903.334 37.8094   6
   8 -10  -6 892.184 25.9890   1
 -10  -8  -6 903.767 21.9603   2
  10   8  -6 870.544 25.6500   1
  -8  10  -6 913.397 35.2658   6
 -10  -8  -6 906.049 25.9108   1
   8 -10  -6 901.492 22.5955   2
  -8  10  -6 887.963 26.0188   1
  10  -9  -6 -2.3182 5.22527   2
  -9 -10  -6 6.82410 5.75461   2
 -10   9  -6 18.4066 7.72785   1
   9  10  -6 9.54182 7.32797   1
  -9 -10  -6 2.05446 6.54868   1
  10  -9  -6 8.92199 7.25309   1
 -10   9  -6 9.52910 14.1494   6
   9 -10  -6 -7.2827 5.04661   2
  -9  10  -6 7.13169 6.72726   1
 -10  -9  -6 1.09001 6.49954   1
 -10  -9  -6 -1.7673 4.64910   2
  10   9  -6 0.30545 6.67834   1
   9 -10  -6 1.39317 6.59681   1
  -9  10  -6 3.83625 12.0394   6
  11   0  -6 -15.860 4.79522   1
   0 -11  -6 1.15375 5.26600   1
 -11   0  -6 5.31843 8.84197   3
   0  11  -6 -5.5221 5.21091   1
 -11   0  -6 1.72298 5.61443   1
   0 -11  -6 4.77085 4.16228   2
 -11   0  -6 9.56176 6.42355   6
  11  -1  -6 629.717 20.0275   1
   1  11  -6 630.722 20.0221   1
 -11   1  -6 614.992 19.9773   1
  -1 -11  -6 629.398 19.9249   1
 -11   1  -6 655.079 27.1064   3
  -1 -11  -6 640.029 16.9146   2
 -11   1  -6 634.537 21.2077   6
  11  -1  -6 639.264 17.0871   2
  -1  11  -6 630.707 20.0169   1
  11   1  -6 637.966 20.3510   1
 -11  -1  -6 588.899 19.5390   1
   1 -11  -6 608.562 19.9235   1
 -11  -1  -6 623.851 25.8976   3
  11   1  -6 629.165 20.9785   5
   1 -11  -6 615.762 19.8419   1
 -11  -1  -6 632.583 16.5625   2
   1 -11  -6 638.474 17.0265   2
  -2 -11  -6 -6.5249 5.28545   1
   2  11  -6 -5.3310 5.44630   1
 -11   2  -6 4.88418 7.14596   6
  -2 -11  -6 -3.6479 4.14169   2
 -11   2  -6 6.33099 5.95625   1
 -11   2  -6 -20.176 9.22212   3
  11  -2  -6 0.56490 5.74156   1
  11  -2  -6 2.43849 4.40460   2
 -11  -2  -6 4.70035 8.57483   3
  -2  11  -6 -4.3923 5.77641   1
 -11  -2  -6 -2.4123 5.84939   1
  11   2  -6 2.95585 6.10839   5
   2 -11  -6 -2.3468 5.53983   1
  11   2  -6 5.83193 6.10543   1
 -11  -2  -6 -0.7814 4.36973   2
   2 -11  -6 0.32884 4.18420   2
   3  11  -6 561.581 19.5360   1
 -11   3  -6 569.725 19.3917   1
 -11   3  -6 553.809 23.8212   3
 -11   3  -6 530.417 20.9660   6
  11  -3  -6 559.275 16.1319   2
  -3 -11  -6 555.885 19.2349   1
  -3 -11  -6 561.584 16.0435   2
  11  -3  -6 543.063 19.1724   1
   3 -11  -6 568.897 19.2690   1
 -11  -3  -6 551.853 19.0720   1
  -3  11  -6 594.002 19.5965   1
   3 -11  -6 559.067 16.0855   2
 -11  -3  -6 502.678 22.1847   3
 -11  -3  -6 572.721 16.0794   2
  11   3  -6 559.262 19.2207   1
  -4 -11  -6 10.6762 6.34230   1
 -11   4  -6 5.90732 8.71984   3
 -11   4  -6 15.9914 6.90078   1
  11  -4  -6 7.22081 6.23539   1
   4  11  -6 9.65193 6.57056   1
  -4 -11  -6 11.9226 5.12546   2
 -11   4  -6 10.5783 8.30509   6
  11  -4  -6 12.5278 5.21681   2
   4 -11  -6 9.02276 4.79301   2
  11   4  -6 11.0967 6.38284   1
  -4  11  -6 15.3098 6.61530   1
 -11  -4  -6 7.91868 4.58414   2
   4 -11  -6 1.52856 6.01128   1
 -11  -4  -6 11.8629 8.16137   3
 -11  -4  -6 6.68886 6.17914   1
  -4  11  -6 11.1499 7.50853   6
  11  -5  -6 195.809 10.8994   2
 -11   5  -6 231.535 16.0175   3
 -11   5  -6 197.785 13.6868   1
  11  -5  -6 202.273 13.5269   1
  -5 -11  -6 207.404 13.7913   1
 -11   5  -6 209.043 16.2036   6
   5  11  -6 179.143 13.3025   1
  -5 -11  -6 204.990 10.7330   2
   5 -11  -6 202.886 10.8434   2
 -11  -5  -6 196.993 10.6304   2
 -11  -5  -6 209.025 15.5595   3
   5 -11  -6 186.280 13.0968   1
  -5  11  -6 201.800 13.5925   1
 -11  -5  -6 205.894 13.4365   1
  11   5  -6 204.556 13.3667   1
  -5  11  -6 214.790 15.9963   6
  11  -6  -6 56.6334 6.95063   2
  -6 -11  -6 44.1514 6.65907   2
  -6 -11  -6 52.7670 8.71789   1
 -11   6  -6 36.1272 9.22471   3
 -11   6  -6 39.3767 11.2561   6
   6  11  -6 37.2890 8.33766   1
 -11   6  -6 40.0464 8.54639   1
  11  -6  -6 60.1990 9.23689   1
 -11  -6  -6 33.6715 6.08550   2
   6 -11  -6 54.3463 7.05878   2
   6 -11  -6 47.6245 8.33727   1
 -11  -6  -6 40.2344 8.96776   3
  11   6  -6 31.8649 7.68550   1
 -11  -6  -6 50.4830 8.78481   1
  -6  11  -6 44.8529 11.0419   6
  -6  11  -6 44.9401 8.69275   1
  11  -7  -6 16.6339 5.76715   2
  -7 -11  -6 21.0876 7.71839   1
  -7 -11  -6 28.5909 6.11803   2
  11  -7  -6 9.79378 7.07457   1
   7  11  -6 18.9792 7.33597   1
 -11   7  -6 20.0346 11.7874   6
 -11   7  -6 11.5508 6.93093   1
 -11  -7  -6 32.6049 8.57817   3
   7 -11  -6 12.3665 5.70280   2
   7 -11  -6 21.7172 7.75783   1
 -11  -7  -6 18.4534 5.74199   2
  -7  11  -6 32.6487 11.3855   6
  -7  11  -6 20.1123 7.61267   1
 -11  -7  -6 24.6647 7.79489   1
  11   7  -6 38.1520 8.49044   1
  -8 -11  -6 22.3811 8.04202   1
  11  -8  -6 8.09953 5.64277   2
  11  -8  -6 6.20798 6.90680   1
 -11   8  -6 9.52341 7.36027   1
   8  11  -6 12.9792 7.41673   1
  -8 -11  -6 12.2434 5.90181   2
 -11   8  -6 5.35639 13.0444   6
 -11  -8  -6 14.4961 7.33325   1
   8 -11  -6 18.2330 6.19485   2
   8 -11  -6 27.3285 8.03300   1
 -11  -8  -6 3.96934 5.33864   2
  11   8  -6 4.82504 7.13151   1
  -8  11  -6 14.5677 7.62651   1
  -8  11  -6 9.97820 10.7926   6
 -12   0  -6 1148.13 38.7554   3
   0 -12  -6 1090.19 28.4114   1
   0  12  -6 1110.77 28.7904   1
   0 -12  -6 1107.72 24.7682   2
  12   0  -6 1106.39 28.6160   1
   0 -12  -6 1072.67 28.0770   1
 -12   0  -6 1124.50 28.8655   1
  -1 -12  -6 17.5535 5.30543   2
  12  -1  -6 16.3183 6.85047   1
  -1 -12  -6 7.62029 6.38322   1
 -12   1  -6 16.8550 13.0791   3
 -12   1  -6 19.2331 7.46689   6
   1  12  -6 10.3195 6.76122   1
 -12   1  -6 19.8857 7.27289   1
  12  -1  -6 16.9894 5.39133   2
 -12  -1  -6 19.0700 7.25137   1
   1 -12  -6 16.2524 6.58749   1
 -12  -1  -6 19.1073 5.33471   2
  12   1  -6 24.1145 7.93072   5
  -1  12  -6 26.7374 7.27329   1
   1 -12  -6 25.4135 7.19425   1
  12   1  -6 26.7219 7.08339   1
 -12  -1  -6 14.0092 10.4671   3
   1 -12  -6 19.7528 5.68309   2
  12  -2  -6 1156.43 30.2422   1
 -12   2  -6 1228.07 39.2355   3
  12  -2  -6 1211.05 26.5901   2
   2  12  -6 1207.54 30.6953   1
 -12   2  -6 1225.30 31.7797   6
 -12   2  -6 1217.95 30.5704   1
  -2 -12  -6 1246.92 26.6602   2
  -2 -12  -6 1251.22 30.6769   1
 -12  -2  -6 1207.36 26.3092   2
 -12  -2  -6 1179.29 35.7485   3
   2 -12  -6 1179.70 26.2709   2
  12   2  -6 1261.36 31.7006   5
 -12  -2  -6 1182.26 30.0724   1
   2 -12  -6 1202.48 30.3173   1
  -2  12  -6 1198.87 30.2787   1
  12   2  -6 1196.99 30.3125   1
   3  12  -6 176.275 13.1407   1
  -3 -12  -6 192.262 13.3226   1
  -3 -12  -6 190.664 10.6731   2
  12  -3  -6 176.598 12.9649   1
 -12   3  -6 176.758 14.0456   6
 -12   3  -6 166.576 16.7390   3
 -12   3  -6 180.592 13.0029   1
  12  -3  -6 178.638 10.6912   2
   3 -12  -6 161.000 12.4531   1
 -12  -3  -6 169.853 15.0969   3
 -12  -3  -6 187.122 10.6338   2
 -12  -3  -6 199.745 13.3389   1
  -3  12  -6 180.277 13.1964   1
  12   3  -6 167.815 13.0507   1
   3 -12  -6 190.226 10.7942   2
  12  -4  -6 871.067 25.7078   1
  12  -4  -6 833.850 21.7969   2
   4  12  -6 874.876 26.0392   1
  -4 -12  -6 901.838 25.7325   1
 -12   4  -6 906.792 29.7545   3
 -12   4  -6 891.024 25.7550   1
  -4 -12  -6 928.443 22.0426   2
 -12   4  -6 931.515 28.6023   6
  12   4  -6 823.210 25.0960   1
 -12  -4  -6 820.864 27.7915   3
   4 -12  -6 863.899 21.7245   2
 -12  -4  -6 821.910 25.3292   1
 -12  -4  -6 885.101 21.5774   2
   4 -12  -6 870.777 25.6289   1
  -4  12  -6 870.561 25.5981   1
 -12   5  -6 11.4346 7.07669   1
   5  12  -6 17.7735 7.36249   1
  -5 -12  -6 -7.1834 4.67684   2
 -12   5  -6 6.22169 8.96298   3
  12  -5  -6 0.33450 5.10717   2
  -5 -12  -6 2.94994 6.61341   1
 -12   5  -6 1.08611 8.66710   6
  12  -5  -6 2.14006 6.52950   1
  -5  12  -6 5.74133 8.04731   6
 -12  -5  -6 3.76354 7.93750   3
 -12  -5  -6 4.61454 6.74880   1
 -12  -5  -6 1.67984 5.04024   2
  -5  12  -6 7.20525 6.79134   1
   5 -12  -6 6.00388 6.64145   1
   5 -12  -6 8.07300 5.21456   2
  12   5  -6 12.5426 7.03083   1
   6  12  -6 852.763 26.1153   1
 -12   6  -6 822.847 25.8948   1
  -6 -12  -6 819.740 21.6936   2
 -12   6  -6 860.058 27.1421   3
 -12   6  -6 836.936 30.3920   6
  12  -6  -6 824.191 21.7234   2
  -6 -12  -6 778.630 25.2075   1
  12  -6  -6 783.688 25.2249   1
   6 -12  -6 843.097 21.7925   2
  12   6  -6 781.481 25.2338   1
   6 -12  -6 803.376 25.3957   1
  -6  12  -6 833.484 28.8316   6
 -12  -6  -6 783.715 25.1261   1
 -12  -6  -6 812.139 26.7208   3
  -6  12  -6 786.461 25.2036   1
 -12  -6  -6 795.563 21.0662   2
   7  12  -6 -5.6605 7.32778   1
 -12   7  -6 0.91522 7.30097   1
 -12   7  -6 15.7907 11.2732   6
  12  -7  -6 7.38159 7.14459   1
  -7 -12  -6 -2.4785 6.89602   1
  12  -7  -6 5.53941 5.28846   2
  -7 -12  -6 -4.2793 5.38054   2
   7 -12  -6 3.31746 5.35499   2
  -7  12  -6 -8.6288 8.72407   6
 -12  -7  -6 4.06866 8.06703   3
  -7  12  -6 4.31354 7.14335   1
  12   7  -6 -10.442 6.67485   1
 -12  -7  -6 4.39524 7.07272   1
 -12  -7  -6 2.28703 5.16789   2
   7 -12  -6 -11.653 6.60104   1
   0 -13  -6 1.12774 6.57130   1
   0 -13  -6 13.0918 5.58385   2
 -13   0  -6 -1.7002 6.40150   1
   0 -13  -6 -0.1324 6.54847   1
 -13   0  -6 31.4155 14.4758   3
  13   0  -6 -10.470 6.26548   1
   0  13  -6 -0.4927 6.76027   1
  13  -1  -6 -0.1663 5.09611   2
 -13   1  -6 8.70331 6.67830   1
   1  13  -6 3.96857 6.70571   1
  -1 -13  -6 17.8972 7.04956   1
 -13   1  -6 3.74571 14.5487   3
  13  -1  -6 4.57101 6.63070   1
  -1 -13  -6 13.8308 5.74687   2
  13   1  -6 30.6551 8.61377   5
  13   1  -6 18.2108 7.55532   1
 -13  -1  -6 -3.6472 10.7457   3
   1 -13  -6 11.6882 7.30603   1
 -13  -1  -6 18.2595 5.72270   2
 -13  -1  -6 16.0917 7.34333   1
  -1  13  -6 11.4990 7.08171   1
   1 -13  -6 19.1511 5.74527   2
 -13   2  -6 -15.710 11.3451   3
  -2 -13  -6 -6.8795 4.83776   2
 -13   2  -6 -3.4777 6.55527   1
  13  -2  -6 5.72291 7.18586   1
  -2 -13  -6 5.01317 6.93351   1
 -13   2  -6 1.58759 7.31630   6
   2  13  -6 2.41256 6.66695   1
  13  -2  -6 -7.2011 4.84484   2
   2 -13  -6 -5.2426 4.86139   2
 -13  -2  -6 -11.391 6.05713   1
  13   2  -6 2.74475 6.95992   1
 -13  -2  -6 1.62384 10.1650   3
 -13  -2  -6 3.77150 5.32238   2
  -2  13  -6 3.87198 6.71260   1
   2 -13  -6 -4.3523 6.49729   1
  13  -3  -6 326.415 13.6608   2
 -13   3  -6 274.517 21.1968   3
  13  -3  -6 292.883 16.2425   1
  -3 -13  -6 273.662 15.6716   1
 -13   3  -6 306.776 18.0660   6
 -13   3  -6 291.927 16.4216   1
  -3 -13  -6 298.812 13.3244   2
   3  13  -6 297.468 16.6112   1
  13   3  -6 288.713 16.2568   1
   3 -13  -6 299.813 15.9768   1
 -13  -3  -6 309.859 19.7406   3
   3 -13  -6 301.177 13.3686   2
 -13  -3  -6 307.628 13.1612   2
 -13  -3  -6 301.076 16.2441   1
  -3  13  -6 267.287 15.7325   1
 -13   4  -6 22.4733 8.96547   6
 -13   4  -6 20.5871 10.0452   3
   4  13  -6 2.27422 7.21058   1
 -13   4  -6 12.3331 7.19954   1
  -4 -13  -6 15.9946 7.68160   1
  13  -4  -6 9.74686 5.50492   2
  -4 -13  -6 7.97553 5.65024   2
  13  -4  -6 14.1441 7.34237   1
  13   4  -6 11.4078 7.43338   1
 -13  -4  -6 16.8014 5.78091   2
  -4  13  -6 20.4511 7.38858   1
   4 -13  -6 19.2519 5.67260   2
 -13  -4  -6 8.24522 7.33770   1
 -13  -4  -6 8.62885 9.25626   3
   4 -13  -6 12.5897 7.49414   1
   5  13  -6 296.324 17.1351   1
 -13   5  -6 309.275 19.7514   3
  13  -5  -6 298.489 13.7638   2
  13  -5  -6 289.353 16.7659   1
  -5 -13  -6 320.776 17.0589   1
 -13   5  -6 306.549 19.6411   6
 -13   5  -6 295.192 16.8821   1
  -5 -13  -6 305.532 14.0658   2
 -13  -5  -6 299.879 18.6612   3
 -13  -5  -6 341.414 13.9040   2
  -5  13  -6 303.283 17.0475   1
  13   5  -6 311.706 16.9360   1
 -13  -5  -6 293.176 16.5816   1
   5 -13  -6 307.104 13.6200   2
   5 -13  -6 326.730 17.0525   1
   0  14  -6 557.921 21.7030   1
   0 -14  -6 551.319 21.3184   1
   0 -14  -6 577.231 18.3456   2
   0 -14  -6 555.292 21.7946   1
 -14   0  -6 509.446 29.1747   3
  14   0  -6 575.314 21.6808   1
 -14   0  -6 589.773 21.8740   1
  -1 -14  -6 -4.3387 7.01275   1
  14  -1  -6 15.0953 7.72141   1
  -1 -14  -6 -0.5920 5.37106   2
  -1 -14  -6 4.78026 6.92412   1
 -14   1  -6 -3.9721 11.7919   3
   1  14  -6 -1.5395 6.89364   1
 -14   1  -6 9.79664 7.41796   1
  14   1  -6 17.1735 7.68986   1
   1 -14  -6 -9.0709 5.07988   2
 -14  -1  -6 13.5909 10.9627   3
 -14  -1  -6 -0.5519 6.63105   1
  -1  14  -6 17.5974 7.76424   1
 -14  -1  -6 7.58767 5.49434   2
   1 -14  -6 -6.6123 6.49573   1
   0   0  -7 0.60880 3.68207   6
   0   0  -7 0.26522 3.64796   5
   0   0  -7 -0.9091 3.53847   3
   0   0   7 4.68029 2.85338   4
   0  -1   7 6.20174 2.83287   4
  -1   0   7 1.15999 2.87684   4
   0  -1  -7 -0.4561 3.68507   5
  -1   0  -7 2.57462 3.63363   5
   1   0  -7 4.10537 4.03195   3
   0   1   7 1.36407 3.10730   4
  -1   0  -7 5.45531 3.86530   6
   0   1  -7 6.21325 4.11197   5
  -1   0  -7 0.11019 3.78344   3
   0   1  -7 1.02206 3.62911   6
   0  -1  -7 -3.8652 3.49728   3
   1   0   7 -0.9902 3.03882   4
   0  -1  -7 -1.7429 3.61103   6
   0   1  -7 -5.2154 3.46987   3
   1   0  -7 4.04072 3.81899   5
   1   0  -7 3.44447 3.87439   6
  -1   1   7 3.48408 2.98732   4
   1   1  -7 -0.5357 3.65311   5
  -1   1  -7 -0.1448 3.68377   3
   1  -1  -7 -1.8263 3.69387   5
   1  -1  -7 -1.8333 3.63519   3
  -1  -1   7 -4.3072 2.71907   4
  -1   1  -7 -2.2652 3.67430   5
   1   1  -7 2.09748 3.85204   6
  -1  -1  -7 -1.5867 3.69632   5
  -1  -1  -7 -5.8551 3.55387   3
   1   1  -7 5.39938 3.97533   3
   1   1   7 -1.0874 2.95830   4
  -1  -1  -7 -2.8978 3.58551   6
  -1   1  -7 3.16512 3.92825   6
   1  -1   7 0.21678 2.87001   4
   1  -1  -7 -1.9445 3.74944   6
  -2   0   7 70.8570 5.51748   4
   2   0  -7 52.9275 3.25378   1
  -2   0  -7 48.6884 5.57968   3
   0   2  -7 55.6923 6.21785   5
   2   0  -7 49.2494 5.94896   5
   0   2  -7 53.3493 5.94449   6
   0  -2  -7 53.3744 6.25579   6
   0   2  -7 51.1765 5.92933   3
   0  -2  -7 64.1063 6.27059   3
   2   0  -7 48.9864 5.89454   6
   2   0  -7 60.6930 6.37538   3
   0   2  -7 46.0281 3.14564   1
   0  -2  -7 53.6106 3.27491   1
   2   0   7 57.0464 5.14936   4
  -2   0  -7 63.0186 6.43631   6
  -2   0  -7 49.4652 5.42924   5
   0  -2  -7 55.5244 5.67319   5
   0  -2  -7 57.0383 3.29163   1
   0   2   7 60.0136 5.56708   4
  -2   0  -7 52.4878 3.11673   1
  -2  -1   7 48.8547 4.69523   4
   2  -1  -7 47.6937 5.95814   5
  -2   1  -7 50.0199 3.12763   1
  -2   1  -7 51.0457 5.86291   6
  -1   2   7 48.5050 5.16708   4
   1   2  -7 48.5086 3.26345   1
   2   1   7 50.6739 5.11873   4
   1   2  -7 51.0179 5.75619   3
  -1  -2  -7 43.3425 5.85454   6
  -1  -2  -7 46.0379 5.50834   5
  -2   1  -7 55.4906 6.06781   5
   2  -1  -7 46.5193 3.34077   1
   2  -1  -7 35.3632 5.38304   3
   1   2  -7 37.0397 5.64164   5
  -1  -2  -7 49.1267 3.02181   1
  -1  -2  -7 44.9498 5.96236   3
  -2   1  -7 40.0606 5.42242   3
   1   2  -7 45.0595 5.66050   6
   2   1  -7 39.7994 5.47650   6
   2   1  -7 38.6973 5.58304   3
  -2  -1  -7 36.6781 5.48965   6
   2   1  -7 38.0835 5.60367   5
  -1   2  -7 37.4395 5.57377   5
  -2  -1  -7 54.1262 5.94442   3
  -1   2  -7 46.6930 5.91124   6
   1  -2  -7 45.9289 5.70870   5
   1  -2  -7 50.5769 5.98579   3
  -2   1   7 41.5500 4.88372   4
   2   1  -7 48.5513 3.38356   1
  -1   2  -7 44.2331 3.31094   1
  -1   2  -7 50.9961 5.77102   3
   1   2   7 48.8793 5.51494   4
   1  -2  -7 44.1705 3.33051   1
  -2  -1  -7 43.1489 3.22265   1
  -2  -1  -7 51.9815 5.53609   5
   2  -1   7 55.7615 4.94494   4
   2   2  -7 1.24024 3.74516   6
   2  -2  -7 -3.9045 2.03928   1
   2   2  -7 0.51362 4.06478   3
  -2   2  -7 1.34904 2.23494   1
   2   2  -7 -0.3049 2.09764   1
  -2   2  -7 0.64863 4.21413   5
   2  -2  -7 5.44244 4.17628   3
   2   2  -7 -0.0188 3.90334   5
  -2   2  -7 -2.3073 4.08306   6
  -2  -2  -7 -1.3223 3.72499   3
  -2  -2  -7 -0.6405 1.97583   1
  -2  -2  -7 0.62408 3.84723   6
   2  -2  -7 3.87171 3.91230   5
  -2   2  -7 -0.6010 3.77743   3
  -2  -2  -7 -0.8540 3.23451   5
  -3   0  -7 -0.5214 2.10148   1
  -3   0  -7 0.04220 4.09462   3
   0   3  -7 6.22171 4.15106   6
   0  -3  -7 -3.0864 2.01528   1
   0   3  -7 3.46764 4.18728   5
   0  -3  -7 -0.5242 3.48243   5
   0   3  -7 -2.0655 2.24852   1
   3   0  -7 1.36671 2.23999   1
  -3   0  -7 -3.0831 3.76331   6
   3   0  -7 2.88752 4.04493   3
  -3   0   7 1.76512 3.30839   4
  -3   0  -7 -1.3777 3.88662   5
   3   0  -7 0.56602 4.08630   5
   0   3  -7 3.65565 3.86301   3
   0  -3  -7 3.52303 4.13001   3
   1   3  -7 2.81721 3.97005   6
   3  -1  -7 -0.5698 4.18032   5
  -3   1  -7 -3.5272 3.86860   5
  -1  -3  -7 9.38701 4.23355   6
  -1  -3  -7 3.37937 3.60666   5
  -1  -3  -7 3.89647 4.01866   3
  -3   1  -7 6.80068 4.34114   6
  -3   1  -7 -2.4290 3.94355   3
   3  -1  -7 1.56287 4.00476   3
   3  -1  -7 -4.1718 2.25051   1
   1   3  -7 3.34486 4.00467   5
  -3   1  -7 3.71489 2.40952   1
  -1  -3  -7 5.49137 2.47912   1
  -3  -1   7 4.10306 3.11471   4
   1   3  -7 1.95422 2.29050   1
   1   3  -7 -0.4032 3.81420   3
  -3  -1  -7 -5.3953 3.82125   3
  -1   3  -7 1.34255 3.68187   3
   1  -3  -7 -6.9531 3.61370   3
   1  -3  -7 0.65494 2.16085   1
   3   1  -7 -8.2175 3.85288   5
   3   1  -7 -4.7004 2.65368   4
   3   1  -7 5.29849 4.22821   3
  -1   3  -7 -1.9420 2.18924   1
  -1   3  -7 -2.4876 4.03194   5
  -1   3  -7 1.73238 3.99343   6
  -3   1   7 3.60830 3.70466   4
  -3  -1  -7 -2.2518 2.14813   1
  -3  -1  -7 1.93388 3.83012   5
   3   1  -7 2.62380 2.31456   1
  -3  -1  -7 5.90952 4.16223   6
   1  -3  -7 1.59184 3.79710   5
  -3   2  -7 77.3254 4.81116   1
  -2  -3  -7 73.3407 4.66420   1
   2   3  -7 76.2507 6.65040   6
  -2  -3  -7 78.5993 6.32109   5
  -3   2  -7 75.0967 7.22860   6
   2   3  -7 93.8230 7.68579   5
  -3   2  -7 86.7157 7.72239   5
  -2  -3  -7 99.5468 7.77950   6
   2   3  -7 79.6360 6.94419   3
   3  -2  -7 84.1012 7.44136   5
   3  -2  -7 75.5255 4.86945   1
   3  -2  -7 71.8225 6.74442   3
  -2  -3  -7 72.5997 6.94013   3
  -3   2  -7 75.6725 6.87932   3
   2   3  -7 85.0918 4.87727   1
  -2   3  -7 74.3674 7.22089   5
  -3  -2  -7 71.9258 6.92287   6
   2  -3  -7 75.1924 4.70379   1
  -2   3  -7 70.8688 7.12170   6
   3   2  -7 63.6157 6.22907   6
   2  -3  -7 86.1481 7.36207   3
   3   2  -7 80.8722 7.29591   5
  -3  -2  -7 70.0488 6.04357   5
  -2   3  -7 85.0122 6.92159   3
  -3  -2  -7 80.8915 4.68403   1
   3   2  -7 77.4612 4.81790   1
  -3  -2  -7 78.3239 7.22724   3
   2  -3  -7 76.6141 6.86542   5
  -2   3  -7 79.4746 4.72641   1
   3   2  -7 81.7740 7.05660   3
   3  -3  -7 -2.7615 2.70102   1
  -3  -3  -7 -1.2704 3.41853   5
  -3   3  -7 4.20287 4.41085   5
   3   3  -7 3.27891 4.29313   3
  -3  -3  -7 -1.4100 4.16496   3
   3   3  -7 0.47099 2.84940   1
  -3   3  -7 -0.6741 2.72082   1
  -3   3  -7 -6.0080 4.16381   3
   3  -3  -7 -3.9906 4.32989   5
   3  -3  -7 -0.0641 4.11989   3
  -3  -3  -7 -0.0067 2.68398   1
   3   3  -7 -0.1619 3.72657   6
   3   3  -7 1.72743 4.29371   5
  -3  -3  -7 -0.0518 3.84102   6
  -3   3  -7 -6.8971 4.02516   6
   0   4  -7 42.6776 6.13287   5
  -4   0   7 46.3906 5.40186   4
  -4   0  -7 48.9070 4.15832   1
   0  -4  -7 49.0027 5.98358   3
   0   4  -7 43.7227 5.61300   3
   0   4  -7 57.0372 4.47733   1
   4   0  -7 45.7741 6.23128   5
   4   0  -7 40.5134 5.90830   3
  -4   0  -7 50.4956 6.50022   3
   0  -4  -7 59.6393 5.89815   5
   4   0  -7 53.0933 4.33142   1
  -4   0  -7 41.6817 5.79860   5
  -4   0  -7 58.4697 6.57648   6
   0   4  -7 48.8360 6.07532   6
   0  -4  -7 56.2733 4.33385   1
  -4   1  -7 16.5634 4.82749   5
   4  -1  -7 21.2138 5.21599   3
  -1  -4  -7 9.09899 3.92676   5
  -4   1  -7 17.4853 3.21931   1
  -4   1  -7 15.3132 5.20118   6
   1   4  -7 14.8381 4.50517   6
   1   4  -7 10.3410 3.09022   1
  -4  -1   7 12.8623 3.89295   4
   4  -1  -7 16.5714 5.18933   5
  -1  -4  -7 7.10305 4.42351   3
  -1  -4  -7 14.8885 3.16250   1
   1   4  -7 24.0642 4.81269   3
   4  -1  -7 14.3781 3.15220   1
  -4   1  -7 16.7914 5.25695   3
   1   4  -7 11.9123 4.88568   5
   4   1  -7 11.8512 3.86039   4
  -4  -1  -7 18.9039 3.25629   1
  -1   4  -7 9.32151 4.74441   6
   4   1  -7 12.3408 4.93239   5
  -1   4  -7 7.98565 4.67271   5
   4   1  -7 13.3612 5.14884   3
   1  -4  -7 15.7927 4.79066   3
   4   1  -7 12.8995 3.17490   1
  -4  -1  -7 16.5870 4.53170   5
   1  -4  -7 13.1974 4.55104   5
  -1   4  -7 8.68347 4.17438   3
   1  -4  -7 17.4802 3.19115   1
  -4  -1  -7 9.87545 4.86422   3
  -4  -1  -7 9.83269 4.51789   6
  -1   4  -7 9.81812 3.12480   1
  -2  -4  -7 150.669 7.96939   5
  -2  -4  -7 143.058 9.11557   6
   4  -2  -7 153.013 9.74311   3
  -4   2  -7 165.408 9.74555   3
  -2  -4  -7 151.032 9.01063   3
  -4   2  -7 130.084 8.85801   5
   2   4  -7 150.289 8.67270   6
   4  -2  -7 159.989 9.60895   5
   2   4  -7 148.451 6.43559   1
  -4   2  -7 139.097 9.89259   6
  -4   2  -7 155.175 6.58052   1
   4  -2  -7 150.992 6.65061   1
   2   4  -7 157.305 9.29946   5
  -2  -4  -7 157.168 6.66006   1
   2   4  -7 148.381 8.66825   3
  -4  -2  -7 160.556 8.33154   5
   4   2  -7 160.282 9.83546   5
   2  -4  -7 163.920 6.83238   1
   4   2  -7 155.873 9.28890   3
   4   2  -7 149.525 6.63179   1
  -4  -2  -7 167.167 6.79503   1
  -2   4  -7 154.760 6.82945   1
  -4  -2  -7 138.414 9.07625   6
  -2   4  -7 137.521 9.70879   6
   2  -4  -7 160.558 9.32117   5
  -4  -2  -7 148.533 9.37481   3
  -2   4  -7 138.475 8.32047   3
  -2   4  -7 108.655 8.56436   5
   2  -4  -7 148.798 8.83508   3
  -4   3  -7 22.3618 3.85018   1
   3   4  -7 10.8562 4.61521   6
  -3  -4  -7 11.3863 4.64453   6
   3   4  -7 10.4048 4.94505   5
  -3  -4  -7 13.3962 3.40935   1
  -4   3  -7 9.98135 4.74802   3
  -4   3  -7 10.2289 5.19370   6
   3   4  -7 12.7561 3.55893   1
  -4   3  -7 18.3722 5.53926   5
   4  -3  -7 20.3552 3.95031   1
   4  -3  -7 16.5479 5.16773   3
   4  -3  -7 13.9356 5.25090   5
   3   4  -7 18.0008 4.84367   3
  -3  -4  -7 17.6108 5.05398   3
  -3   4  -7 15.5114 3.51585   1
   3  -4  -7 16.3457 3.52788   1
  -3   4  -7 23.0816 5.05358   3
   3  -4  -7 13.4577 4.98594   3
  -4  -3  -7 15.4755 5.14795   3
   4   3  -7 18.9898 5.05568   3
  -3   4  -7 9.10756 4.82760   5
  -4  -3  -7 16.9170 4.54849   5
  -4  -3  -7 7.24200 3.07648   1
   4   3  -7 11.7547 4.91920   5
  -3   4  -7 19.1010 5.56703   6
  -4  -3  -7 15.2637 5.03852   6
   3  -4  -7 17.6579 5.22113   5
   4   3  -7 7.19600 3.32497   1
   4  -4  -7 4.63403 5.08002   5
  -4  -4  -7 -1.9726 4.45778   3
  -4   4  -7 4.60693 5.15462   5
   4  -4  -7 -3.2647 4.31457   3
   4  -4  -7 1.56204 3.43181   1
   4   4  -7 -2.7482 4.44017   3
  -4  -4  -7 -0.2866 3.31409   1
  -4   4  -7 -0.0185 4.97030   6
   4   4  -7 -0.5970 4.42822   5
  -4   4  -7 2.16832 3.37221   1
  -4  -4  -7 0.68020 4.20620   6
   4   4  -7 -0.8365 3.38758   1
  -4   4  -7 7.56133 4.85337   3
  -5   0  -7 -0.3429 3.08402   1
   5   0  -7 1.50594 4.85554   5
   0  -5  -7 3.73954 3.24944   1
   0   5  -7 -5.0282 4.04333   6
   0   5  -7 2.73258 3.20528   1
   5   0  -7 2.51253 4.73538   3
  -5   0  -7 -0.8266 4.22669   5
   0  -5  -7 6.48260 4.39002   3
   0   5  -7 2.54561 4.56208   5
  -5   0  -7 -0.5606 4.42907   3
  -5   0  -7 3.40749 4.49817   6
   0   5  -7 -1.0018 3.79529   3
   0  -5  -7 -2.0060 3.54466   5
   5   0  -7 0.16424 3.15096   1
   5  -1  -7 22.6753 5.85186   5
   1   5  -7 12.0079 4.44311   3
   5  -1  -7 4.32348 4.80724   3
   5  -1  -7 19.5201 3.66630   1
   1   5  -7 11.8523 4.68780   6
  -5   1  -7 6.18022 4.88516   3
   1   5  -7 14.7850 3.64932   1
  -1  -5  -7 23.2358 4.59069   5
  -1  -5  -7 8.02151 4.63942   3
  -1  -5  -7 8.03130 3.34676   1
  -5   1  -7 11.1875 3.49710   1
  -5   1  -7 19.8315 5.32920   5
  -5   1  -7 11.3661 5.21978   6
   1   5  -7 0.24386 4.75733   5
  -1   5  -7 12.1358 3.72652   1
  -1   5  -7 19.4378 5.49022   5
   1  -5  -7 14.2321 3.62355   1
  -5  -1  -7 11.4659 4.49538   5
  -1   5  -7 14.4661 5.25757   6
   5   1  -7 17.3862 5.47719   3
  -5  -1  -7 16.3322 3.54283   1
  -5  -1  -7 4.84787 4.53447   3
   1  -5  -7 14.8103 4.87007   3
   1  -5  -7 3.75343 4.08392   5
   1  -5  -7 13.1354 3.57631   1
   5   1  -7 12.8403 4.98607   5
  -1   5  -7 10.2583 4.28542   3
  -5  -1  -7 15.3254 5.00239   6
   5   1  -7 11.4497 3.55610   1
  -5   2  -7 7.85620 3.37187   1
   5  -2  -7 9.98582 3.49245   1
   5  -2  -7 15.9462 5.55644   3
  -5   2  -7 11.1186 5.08257   5
   2   5  -7 15.1554 5.16867   5
   5  -2  -7 14.1780 5.59747   5
  -2  -5  -7 14.4479 4.77042   3
  -2  -5  -7 7.25917 3.47348   1
   2   5  -7 6.36067 4.20052   6
   2   5  -7 15.7596 3.64983   1
   2   5  -7 8.75457 4.51872   3
  -5   2  -7 19.2920 5.34900   3
  -5   2  -7 15.3394 5.43860   6
   2  -5  -7 18.4337 3.93876   1
   5   2  -7 9.73460 4.90515   5
  -2   5  -7 9.45519 5.06496   6
   2  -5  -7 16.6733 5.24538   3
   5   2  -7 16.6806 5.83368   3
  -5  -2  -7 15.4661 5.26590   3
   5   2  -7 16.9280 3.92983   1
  -2   5  -7 7.93781 3.58501   1
   2  -5  -7 14.3876 4.87335   5
  -2   5  -7 15.0815 4.57616   3
  -5  -2  -7 6.65285 4.64960   6
  -5  -2  -7 5.77965 4.22153   5
  -5  -2  -7 7.11996 3.67039   1
  -2   5  -7 7.23504 4.92892   5
   5  -3  -7 0.90060 5.13508   5
  -5   3  -7 2.66176 5.05054   5
   3   5  -7 -1.3564 4.31906   3
   5  -3  -7 2.22832 3.53661   1
  -5   3  -7 1.24171 3.49998   1
   5  -3  -7 5.12253 4.94909   3
  -3  -5  -7 7.16707 4.58177   3
  -5   3  -7 2.60246 5.10361   6
   3   5  -7 8.59763 3.68246   1
   3   5  -7 10.7115 4.47596   6
  -5   3  -7 6.73252 4.77516   3
  -3  -5  -7 12.3233 3.83792   1
   3   5  -7 3.69382 4.77925   5
   3  -5  -7 4.99517 3.60394   1
  -5  -3  -7 5.19992 4.50800   6
  -5  -3  -7 5.70141 5.04080   3
  -5  -3  -7 11.3103 3.64270   1
   3  -5  -7 0.61489 4.91383   5
  -3   5  -7 5.52222 3.67271   1
  -3   5  -7 3.62675 5.35310   6
  -3   5  -7 -2.4095 4.86302   5
   5   3  -7 4.65542 3.46297   1
   5   3  -7 6.46404 4.97578   5
  -3   5  -7 3.60246 4.40647   3
   3  -5  -7 8.04113 4.95721   3
   5   3  -7 8.38046 5.43248   3
   4   5  -7 5.79609 3.81616   1
  -4  -5  -7 3.05145 3.67488   1
  -4  -5  -7 0.25053 4.55601   6
  -5   4  -7 7.01414 4.84992   3
   5  -4  -7 -4.5252 3.45566   1
   4   5  -7 5.60686 5.00516   5
  -4  -5  -7 2.38779 4.80722   3
   5  -4  -7 -4.9621 4.71497   3
   4   5  -7 3.75133 4.75537   3
  -5   4  -7 2.48443 3.73281   1
  -5   4  -7 -2.8001 5.02675   6
  -4   5  -7 6.41486 5.36233   6
  -4   5  -7 1.51835 3.64000   1
  -4   5  -7 -6.8088 4.31529   3
  -4   5  -7 8.17995 5.64317   5
   5   4  -7 3.90488 3.89524   1
   4  -5  -7 4.30781 5.03000   3
  -5  -4  -7 5.65255 4.56934   6
  -5  -4  -7 11.1855 5.21971   3
  -5  -4  -7 1.93535 3.45340   1
   4  -5  -7 -1.7892 3.31771   1
   5   4  -7 2.57828 4.71149   5
  -5  -5  -7 -3.6980 4.76076   3
  -5  -5  -7 4.47570 4.67766   6
   5  -5  -7 -0.7804 5.09840   3
  -5   5  -7 -3.9562 3.85025   1
  -5  -5  -7 -7.8796 3.49783   1
  -5   5  -7 -5.6580 4.77637   3
   5   5  -7 -6.8684 4.47314   5
   5  -5  -7 0.59109 3.80845   1
  -5   5  -7 2.61446 5.71465   6
   5   5  -7 0.93488 3.98370   1
   0   6  -7 248.760 9.60240   1
  -6   0  -7 272.304 12.5208   6
   0   6  -7 271.911 12.2822   5
   6   0  -7 269.015 12.3872   5
   0  -6  -7 262.918 11.2983   3
  -6   0  -7 272.122 9.68117   1
   6   0  -7 269.717 9.73045   1
  -6   0  -7 270.464 11.8155   5
   0  -6  -7 241.799 9.44527   1
   0   6  -7 275.316 11.7983   6
  -6   0  -7 249.101 12.1188   3
   0  -6  -7 247.440 10.3131   5
   6  -1  -7 6.82220 5.28138   5
   6  -1  -7 21.6571 5.85484   3
   1   6  -7 9.06569 4.60705   6
   1   6  -7 15.1322 4.06488   1
  -1  -6  -7 8.04951 3.92103   1
  -6   1  -7 13.2007 5.51095   3
   6  -1  -7 8.44851 3.77119   1
   1   6  -7 14.9310 5.54850   5
  -1  -6  -7 -0.4407 4.60864   3
  -6   1  -7 6.67827 3.73890   1
  -6   1  -7 5.15720 5.25335   6
   6   1  -7 14.1724 4.08430   1
  -6  -1  -7 5.06077 3.66819   1
   1  -6  -7 10.2488 3.81358   1
  -6  -1  -7 15.7910 5.05707   5
   6   1  -7 9.73290 5.37253   5
  -1   6  -7 10.2080 3.83336   1
   1  -6  -7 4.23599 4.50756   5
  -6  -1  -7 15.7693 5.86430   3
   1  -6  -7 4.99665 4.71707   3
   1  -6  -7 10.4550 3.96145   1
  -6  -1  -7 11.9084 5.24201   6
  -1   6  -7 1.02919 4.84733   6
  -1   6  -7 17.2078 5.29480   5
  -2  -6  -7 33.9546 4.90923   1
   6  -2  -7 21.5037 6.07528   5
   6  -2  -7 35.7953 5.01890   1
   6  -2  -7 24.2447 6.30980   3
  -6   2  -7 20.8826 6.33502   6
  -6   2  -7 19.1915 5.81479   3
   2   6  -7 28.4225 6.06066   5
  -2  -6  -7 33.5833 5.87021   3
   2   6  -7 20.4815 5.01378   6
  -6   2  -7 25.5048 4.67769   1
   2   6  -7 31.1155 4.78700   1
  -6  -2  -7 41.6279 6.79811   3
  -2   6  -7 22.6377 6.07382   6
   2  -6  -7 25.0479 5.68481   3
   2  -6  -7 30.4160 4.76208   1
  -2   6  -7 29.1776 4.65665   1
  -6  -2  -7 27.5844 4.48648   1
  -2   6  -7 23.6956 6.25351   5
  -6  -2  -7 25.5701 5.55030   6
   6   2  -7 30.5506 5.95411   5
   2  -6  -7 22.5456 5.51208   5
   6   2  -7 24.4507 4.70895   1
  -6   3  -7 76.9143 6.50286   1
   3   6  -7 98.4614 8.42455   5
  -3  -6  -7 91.1254 6.84601   1
   3   6  -7 83.0948 6.69213   1
   6  -3  -7 95.2807 7.28903   1
  -6   3  -7 92.5827 8.98724   6
  -6   3  -7 84.1107 8.38323   3
  -3  -6  -7 98.3088 8.22449   3
   6   3  -7 82.2266 8.06118   5
  -6  -3  -7 99.0340 8.26605   6
  -3   6  -7 89.4927 8.96679   5
   6   3  -7 87.7520 6.88613   1
  -3   6  -7 77.0933 8.23286   6
  -3   6  -7 94.5923 7.32373   1
  -6  -3  -7 101.674 8.99369   3
   3  -6  -7 83.6786 6.73639   1
   3  -6  -7 75.4953 7.55770   3
  -6  -3  -7 97.3417 7.36806   1
  -6   4  -7 54.2428 8.06012   6
  -6   4  -7 44.5426 5.96162   1
  -4  -6  -7 52.5585 5.90816   1
   6  -4  -7 67.6182 6.60408   1
  -4  -6  -7 57.4951 7.46823   3
   4   6  -7 53.6084 6.23391   1
  -6   4  -7 49.9748 7.14093   3
   4   6  -7 75.5326 7.75784   5
  -6  -4  -7 53.1446 6.73276   6
   6   4  -7 52.9526 5.82275   1
  -6  -4  -7 65.0527 6.22886   1
   4  -6  -7 58.3643 7.28851   3
  -4   6  -7 49.3948 5.88955   1
   6   4  -7 56.0600 7.23577   5
   4  -6  -7 57.9084 6.19774   1
  -6  -4  -7 61.2327 7.75117   3
  -4   6  -7 50.1668 7.76854   6
  -6   5  -7 2.61385 4.40330   1
  -5  -6  -7 0.05944 5.23067   3
  -5  -6  -7 3.14632 4.38845   1
  -6   5  -7 -3.0955 4.97779   3
  -6   5  -7 -9.3160 5.47609   6
   5   6  -7 -1.1449 4.38869   1
   6  -5  -7 -0.3219 4.40612   1
   5   6  -7 5.57614 5.29910   5
  -6  -5  -7 2.75553 4.50180   1
   6   5  -7 7.00959 4.57145   1
  -5   6  -7 4.99539 4.59077   1
  -5   6  -7 2.46984 5.93787   6
   6   5  -7 9.21219 5.38303   5
  -6  -5  -7 0.26788 5.43013   3
   5  -6  -7 3.23770 5.58561   3
   5  -6  -7 2.82110 4.52699   1
   6   6  -7 -0.1925 5.35464   5
  -6   6  -7 3.85582 4.63385   1
  -6  -6  -7 3.62267 5.88345   3
   6  -6  -7 -1.7748 4.25123   1
  -6  -6  -7 -1.4314 4.46840   1
  -6   6  -7 7.29224 7.03238   6
   6   6  -7 -1.8183 4.42311   1
   0  -7  -7 -1.5828 3.80206   1
  -7   0  -7 -2.4683 5.00767   3
   0   7  -7 -3.8197 4.67086   6
   7   0  -7 0.27910 5.10934   5
  -7   0  -7 -2.6046 4.90035   6
  -7   0  -7 -5.5441 3.60903   1
   0   7  -7 -0.6545 3.73327   1
   0   7  -7 11.5141 5.67472   5
   0  -7  -7 0.19337 4.50467   3
   7   0  -7 1.35047 3.88664   1
   7  -1  -7 57.9177 5.94714   1
  -1  -7  -7 48.4763 5.65283   1
   1   7  -7 53.3902 6.60837   6
   7  -1  -7 49.4715 7.52735   5
   1   7  -7 64.5275 7.78851   5
  -1  -7  -7 65.1725 7.02074   3
   1   7  -7 57.1607 5.81938   1
  -7   1  -7 61.2513 8.05410   3
  -7   1  -7 48.0902 5.56155   1
  -7   1  -7 53.3354 7.32044   6
  -1   7  -7 45.2026 6.89784   6
   1  -7  -7 60.4957 7.21001   5
  -7  -1  -7 64.2898 6.32534   1
   1  -7  -7 47.1207 6.52104   3
   1  -7  -7 46.3042 5.93927   1
  -7  -1  -7 60.4171 7.48415   6
   7   1  -7 56.6568 7.54718   5
  -7  -1  -7 51.8148 7.72328   3
   1  -7  -7 59.4054 6.30082   1
  -1   7  -7 52.9794 5.98491   1
   7   1  -7 59.5751 6.37085   1
  -1   7  -7 47.5920 7.37893   5
  -7   2  -7 29.8329 5.18370   1
   7  -2  -7 33.2760 5.37838   1
  -2  -7  -7 37.6923 5.57480   1
  -2  -7  -7 36.8931 6.11245   3
   2   7  -7 34.2795 6.41914   5
  -7   2  -7 34.8604 6.98422   6
  -7   2  -7 36.6399 6.96380   3
   2   7  -7 31.9925 5.41815   1
  -2   7  -7 38.0821 6.79397   6
   2  -7  -7 24.8453 5.07332   1
   7   2  -7 37.9562 5.55053   1
   2  -7  -7 33.4013 6.16633   3
   2  -7  -7 36.7763 6.27286   5
  -7  -2  -7 39.6138 5.52538   1
   7   2  -7 38.9077 6.58812   5
  -2   7  -7 39.0180 7.13780   5
  -7  -2  -7 35.1081 6.39295   6
  -2   7  -7 33.6197 5.40012   1
  -7  -2  -7 29.9090 6.90889   3
   3   7  -7 -0.6820 4.11871   1
  -7   3  -7 -4.6321 3.97856   1
   3   7  -7 4.55504 5.14431   5
  -3  -7  -7 4.93530 4.60328   1
  -3  -7  -7 -3.2815 4.50922   3
  -7   3  -7 9.73644 6.42287   6
  -7   3  -7 0.90820 5.28077   3
   7  -3  -7 1.36566 4.23431   1
   3  -7  -7 -2.5613 4.17811   1
   7   3  -7 -2.7640 4.17538   1
  -7  -3  -7 1.49889 4.88406   6
  -3   7  -7 9.53773 4.82204   1
   7   3  -7 3.57709 5.47336   5
  -7  -3  -7 -1.3979 4.23788   1
  -3   7  -7 3.31706 6.14639   5
  -7  -3  -7 -7.8060 5.12767   3
   3  -7  -7 2.56524 4.91489   3
  -3   7  -7 2.89452 5.47539   6
  -7   4  -7 15.8983 6.01249   3
  -7   4  -7 14.6525 6.71890   6
   7  -4  -7 8.39231 4.64004   1
  -4  -7  -7 9.69329 4.86729   1
   4   7  -7 1.32012 5.34378   5
  -7   4  -7 5.33365 4.68177   1
  -4  -7  -7 10.9182 5.64885   3
   4   7  -7 8.00619 4.86976   1
  -7  -4  -7 4.28936 4.94766   6
   4  -7  -7 4.23612 5.48970   3
  -4   7  -7 5.69084 4.87542   1
   4  -7  -7 8.65029 4.65178   1
   7   4  -7 8.53304 4.50924   1
  -7  -4  -7 -4.3099 5.55033   3
   7   4  -7 4.64577 5.39277   5
  -4   7  -7 7.35910 6.28893   6
  -7  -4  -7 7.98511 4.79858   1
  -5  -7  -7 0.36406 4.51884   1
   7  -5  -7 11.8990 5.12654   1
  -5  -7  -7 11.4150 5.84531   3
   5   7  -7 7.85156 5.11906   1
   5   7  -7 13.2940 5.88995   5
  -7   5  -7 17.0471 7.23296   6
  -7   5  -7 1.24582 5.76153   3
  -7   5  -7 3.87732 4.90450   1
   5  -7  -7 -1.6918 4.26671   1
   7   5  -7 14.9610 5.68694   5
  -7  -5  -7 -0.3348 4.27967   1
  -5   7  -7 1.09307 4.47634   1
   7   5  -7 10.3479 5.02291   1
  -5   7  -7 16.5629 7.05215   6
  -7  -5  -7 1.47710 5.86828   3
  -6  -7  -7 0.54647 5.60543   3
  -7   6  -7 14.0316 7.78895   6
  -7   6  -7 4.42202 6.15471   3
   6   7  -7 -4.7128 4.90702   1
  -7   6  -7 6.10274 5.40866   1
   7  -6  -7 6.42665 3.37379   2
   7  -6  -7 5.81272 5.26285   1
  -6  -7  -7 12.1511 5.52177   1
   7   6  -7 1.51776 5.16640   1
  -6   7  -7 2.42865 6.98233   6
  -7  -6  -7 -2.2876 5.51825   3
   7   6  -7 2.18285 5.79528   5
  -7  -6  -7 8.01460 5.26285   1
  -6   7  -7 13.6032 5.57138   1
   6  -7  -7 5.65689 5.25176   1
   6  -7  -7 1.29681 3.04914   2
  -7   7  -7 10.7257 5.72421   1
   7  -7  -7 -4.9231 4.75174   1
   7   7  -7 -0.1861 5.08497   1
  -7  -7  -7 -1.8930 5.26188   1
  -7  -7  -7 2.34473 3.37939   2
   7  -7  -7 -2.5936 3.27466   2
  -7  -7  -7 -6.6658 5.79007   3
  -7   7  -7 -4.0831 7.25002   6
   8   0  -7 0.91531 4.44488   1
   0  -8  -7 -1.6048 4.39989   1
  -8   0  -7 4.82359 5.70899   3
   0   8  -7 2.34792 5.58632   5
   8   0  -7 1.43303 5.56464   5
   0   8  -7 1.84069 5.08383   6
  -8   0  -7 3.88812 4.32924   1
   0   8  -7 4.97087 4.53872   1
  -8   0  -7 -2.6719 5.38785   6
  -8   1  -7 56.2595 6.47316   1
   8  -1  -7 53.1578 6.57624   1
   1   8  -7 46.6338 7.32355   5
   8  -1  -7 51.0012 8.16836   5
   1   8  -7 49.4854 6.28400   1
  -8   1  -7 42.1085 7.52120   3
  -8   1  -7 68.6974 8.38309   6
  -1  -8  -7 48.9828 6.11615   1
  -8  -1  -7 64.7445 8.55621   3
  -8  -1  -7 53.6375 7.61641   6
  -8  -1  -7 65.0984 6.78352   1
  -1   8  -7 63.7953 8.42231   5
   1  -8  -7 47.7121 6.47083   1
  -1   8  -7 46.2790 6.37305   1
   8   1  -7 41.1002 7.33843   5
   1  -8  -7 50.2631 6.34158   1
   8   1  -7 55.5146 6.73182   1
  -1   8  -7 55.5035 7.34874   6
   8  -2  -7 1.34388 4.73318   1
  -2  -8  -7 -0.9719 4.43680   1
  -8   2  -7 3.83374 4.78036   1
  -8   2  -7 3.71800 5.78933   6
  -8   2  -7 -0.0467 5.43282   3
   2   8  -7 9.99279 5.77315   5
   2   8  -7 6.50365 4.91286   1
  -2   8  -7 -0.7258 6.23941   5
  -2   8  -7 0.88768 4.73606   1
   8   2  -7 -8.4089 4.98109   5
  -2   8  -7 -2.9228 5.63511   6
  -8  -2  -7 1.45557 4.73209   1
   2  -8  -7 -0.2919 4.35069   1
   8   2  -7 7.12642 4.84653   1
  -8  -2  -7 -1.0469 5.62068   3
  -8  -2  -7 -1.9928 5.02280   6
  -8   3  -7 -8.0255 5.55693   3
  -8   3  -7 -1.1006 4.77238   1
  -8   3  -7 -5.3176 5.93127   6
  -3  -8  -7 3.40858 4.65243   1
   8  -3  -7 -1.1065 4.78828   1
   3   8  -7 2.95291 4.98681   1
   3   8  -7 7.37878 5.40029   5
   8   3  -7 5.71235 4.86201   1
   3  -8  -7 -6.7558 4.24605   1
  -8  -3  -7 11.8769 6.03940   3
  -8  -3  -7 6.51980 5.53725   6
  -3   8  -7 1.00800 4.71699   1
  -8  -3  -7 -9.7953 4.41227   1
   8   3  -7 3.78862 5.60483   5
  -3   8  -7 6.38829 6.09733   6
  -8   4  -7 64.0560 8.59638   3
   8  -4  -7 67.4107 4.73332   2
   4   8  -7 62.0221 7.35167   1
   8  -4  -7 63.2627 7.18991   1
  -4  -8  -7 61.1276 7.22896   1
  -8   4  -7 69.0706 7.47660   1
   4   8  -7 55.9209 7.85243   5
  -8   4  -7 58.1616 9.12918   6
  -8  -4  -7 62.8785 7.29551   1
  -4   8  -7 73.9069 7.81994   1
   8   4  -7 77.9598 8.51652   5
   4  -8  -7 58.5106 7.29266   1
   8   4  -7 63.5835 7.25423   1
  -8  -4  -7 58.5656 8.80523   3
  -4   8  -7 72.5873 9.31641   6
   4  -8  -7 65.9219 5.04194   2
   8  -5  -7 19.0042 3.68457   2
  -5  -8  -7 17.2617 6.06184   1
  -8   5  -7 2.58938 7.24726   6
   5   8  -7 10.7873 5.61153   1
  -8   5  -7 22.4760 6.52920   3
   8  -5  -7 3.52920 5.28051   1
  -5  -8  -7 13.8792 3.23499   2
  -8   5  -7 11.5877 5.44727   1
  -5   8  -7 15.8237 5.81993   1
   8   5  -7 15.0178 5.51617   1
  -5   8  -7 16.3713 7.49386   6
   8   5  -7 11.0896 6.19255   5
   5  -8  -7 14.0950 5.31740   1
  -8  -5  -7 3.65622 5.30053   1
  -8  -5  -7 1.51320 6.35440   3
   5  -8  -7 14.9285 3.59636   2
  -8   6  -7 2.62170 6.13858   3
   6   8  -7 18.2595 6.35203   1
  -8   6  -7 9.74836 8.27817   6
  -8   6  -7 23.8490 6.34712   1
  -6  -8  -7 14.5707 5.70988   1
   8  -6  -7 18.2371 6.14363   1
   8  -6  -7 15.7733 4.15629   2
  -6  -8  -7 15.0836 3.75624   2
  -8  -6  -7 15.5424 3.88626   2
  -8  -6  -7 14.6178 6.05336   1
  -6   8  -7 12.9796 7.88597   6
   6  -8  -7 15.0968 6.16713   1
   6  -8  -7 16.9467 4.19278   2
  -8  -6  -7 11.3525 6.87948   3
   8   6  -7 22.7474 6.19459   1
  -6   8  -7 14.3635 5.93273   1
  -7  -8  -7 81.2452 6.00624   2
   7   8  -7 87.7983 9.15862   1
  -8   7  -7 82.2537 9.01103   1
   8  -7  -7 78.2280 6.12568   2
  -7  -8  -7 82.5529 8.84984   1
   8  -7  -7 74.8257 8.94620   1
  -8   7  -7 72.6891 12.1932   6
  -8  -7  -7 72.7449 5.72984   2
  -7   8  -7 76.6077 8.82808   1
  -7   8  -7 79.5913 12.0119   6
   7  -8  -7 78.3426 6.10737   2
   7  -8  -7 57.5648 8.05707   1
  -8  -7  -7 87.2411 9.95043   3
  -8  -7  -7 70.2186 8.63924   1
   8   7  -7 75.9111 8.54546   1
  -8   8  -7 -0.1226 5.99765   1
  -8  -8  -7 -1.3235 3.98622   2
  -8   8  -7 -1.1030 9.76802   6
   8  -8  -7 5.46007 4.31929   2
  -8  -8  -7 1.33520 5.82887   1
   8  -8  -7 -1.1960 6.07623   1
   8   8  -7 -10.592 5.85370   1
   0   9  -7 -9.8324 4.23779   1
  -9   0  -7 6.95905 7.03536   3
   9   0  -7 -0.7577 5.96058   5
   0  -9  -7 -0.8873 4.46269   1
   0   9  -7 -1.9354 5.90889   5
   9   0  -7 -5.9024 4.39504   1
  -9   0  -7 -0.5704 5.76551   6
  -9   0  -7 4.92499 5.01048   1
   0  -9  -7 1.93998 2.68604   2
   9  -1  -7 -3.7439 5.03014   1
  -1  -9  -7 -4.3537 2.65477   2
  -9   1  -7 10.1890 5.48055   1
   9  -1  -7 -6.2377 6.15921   5
   1   9  -7 -7.2574 4.92522   1
  -1  -9  -7 -0.0014 4.80292   1
   1   9  -7 5.03087 5.79687   5
  -9   1  -7 -4.4780 5.77496   6
  -9   1  -7 2.17937 6.60708   3
   1  -9  -7 2.13848 2.81945   2
  -1   9  -7 0.77922 4.84531   1
   1  -9  -7 -1.5292 4.91323   1
   1  -9  -7 5.33901 4.97003   1
  -9  -1  -7 1.48276 5.87174   6
  -9  -1  -7 2.59370 4.94436   1
  -9  -1  -7 2.54726 6.86147   3
  -1   9  -7 -1.9625 5.62217   6
  -1   9  -7 -3.9992 6.19127   5
   9   1  -7 -2.3716 4.96392   1
   9   1  -7 -2.9768 5.87561   5
  -9   2  -7 7.13962 6.59641   6
   2   9  -7 7.98035 5.29803   1
  -9   2  -7 5.45067 5.32767   1
  -2  -9  -7 4.94741 5.11768   1
   2   9  -7 7.36962 5.93874   5
  -2  -9  -7 7.86450 3.20875   2
   9  -2  -7 3.70159 5.28427   1
  -9   2  -7 6.82863 7.04822   3
   2  -9  -7 10.9232 3.33582   2
   9   2  -7 7.75957 6.20656   5
  -9  -2  -7 7.70409 5.88596   6
  -9  -2  -7 0.90106 5.19302   1
  -9  -2  -7 3.15906 6.84022   3
  -2   9  -7 0.67661 5.29372   1
   2  -9  -7 6.33164 5.22361   1
  -2   9  -7 10.5164 6.42905   6
   9   2  -7 9.82166 5.38950   1
   3   9  -7 40.9566 7.34717   5
   9  -3  -7 35.2475 6.48796   1
  -3  -9  -7 34.4475 4.06965   2
  -9   3  -7 27.7001 8.32296   3
  -9   3  -7 15.0149 7.25860   6
   3   9  -7 28.6018 6.49959   1
  -9   3  -7 44.8901 7.01831   1
  -3  -9  -7 29.2727 6.27819   1
  -9  -3  -7 46.5635 8.23292   3
   9   3  -7 33.6375 7.14872   5
   3  -9  -7 32.7281 6.37781   1
  -3   9  -7 30.9804 6.53304   1
  -3   9  -7 50.6786 8.31459   6
   3  -9  -7 30.5309 4.03320   2
  -9  -3  -7 40.8805 6.77827   1
   9   3  -7 28.9005 6.48433   1
   4   9  -7 22.6371 6.31039   1
  -9   4  -7 20.4183 7.92764   6
   9  -4  -7 9.18306 5.72401   1
  -9   4  -7 16.9284 6.71750   3
  -4  -9  -7 14.7986 6.00784   1
  -9   4  -7 16.5714 5.80675   1
  -4  -9  -7 11.2779 3.63975   2
   9  -4  -7 12.4836 3.87038   2
   4  -9  -7 11.7306 3.80949   2
  -9  -4  -7 16.4590 5.98760   1
  -4   9  -7 27.8962 7.86171   6
   4  -9  -7 2.25802 5.25142   1
  -9  -4  -7 16.0799 7.32614   3
   9   4  -7 -0.3956 5.84413   5
   9   4  -7 7.65035 5.44091   1
  -9  -4  -7 14.9413 3.50335   2
  -4   9  -7 15.9276 5.90569   1
   5   9  -7 13.7502 6.10913   1
  -9   5  -7 6.12404 8.30672   6
  -9   5  -7 1.46808 6.43989   3
  -9   5  -7 15.2486 5.87911   1
   9  -5  -7 10.7546 4.07039   2
  -5  -9  -7 9.89061 3.77713   2
   9  -5  -7 8.06467 5.65003   1
  -5  -9  -7 13.3291 6.06903   1
  -9  -5  -7 21.9140 6.25147   1
  -5   9  -7 8.89662 7.60671   6
  -5   9  -7 0.32453 5.65261   1
  -9  -5  -7 16.4677 3.89853   2
   9   5  -7 11.1486 5.76035   1
  -9  -5  -7 13.0617 7.06507   3
   5  -9  -7 7.76761 5.63212   1
   5  -9  -7 13.1144 4.13055   2
   6   9  -7 151.577 11.3343   1
  -6  -9  -7 156.410 8.12169   2
  -6  -9  -7 143.392 10.9329   1
   9  -6  -7 156.540 11.7603   1
  -9   6  -7 143.951 11.8389   3
  -9   6  -7 156.005 11.6460   1
   9  -6  -7 143.354 8.33998   2
  -9   6  -7 152.388 14.7525   6
  -6   9  -7 149.441 14.2103   6
   6  -9  -7 151.921 8.26162   2
  -6   9  -7 129.127 10.6018   1
   9   6  -7 157.689 11.4144   1
  -9  -6  -7 166.192 8.04744   2
   6  -9  -7 152.516 11.7093   1
  -9  -6  -7 147.676 12.4990   3
  -9  -6  -7 134.382 10.6587   1
  -9   7  -7 33.5663 11.1596   6
  -7  -9  -7 33.5395 7.63756   1
   9  -7  -7 39.5319 5.53456   2
   7   9  -7 20.0450 6.97438   1
   9  -7  -7 32.5108 7.50961   1
  -7  -9  -7 41.1340 5.32613   2
  -9   7  -7 29.0126 7.31511   1
   7  -9  -7 35.9849 5.37687   2
   7  -9  -7 40.0808 7.58725   1
  -9  -7  -7 28.8490 8.53749   3
  -7   9  -7 36.2478 7.67441   1
  -9  -7  -7 34.7164 7.51140   1
  -7   9  -7 49.3170 11.5727   6
   9   7  -7 22.1515 7.10938   1
  -9  -7  -7 30.1368 5.18124   2
   9  -8  -7 12.6817 4.87547   2
   9  -8  -7 12.8768 6.94509   1
   8   9  -7 7.24949 6.54536   1
  -8  -9  -7 8.84457 4.53028   2
  -9   8  -7 -2.3339 6.53690   1
  -9   8  -7 13.0917 11.6825   6
  -8  -9  -7 16.6033 6.90313   1
   8  -9  -7 13.3138 4.95638   2
  -8   9  -7 5.82597 10.7277   6
  -8   9  -7 -1.5798 5.78138   1
  -9  -8  -7 1.26049 6.39372   1
   8  -9  -7 3.54051 6.00742   1
   9   8  -7 4.91775 6.44081   1
  -9  -8  -7 0.16884 4.37352   2
  -9  -9  -7 -1.9918 6.28857   1
  -9   9  -7 -20.964 11.7880   6
   9  -9  -7 -1.9240 4.54302   2
  -9  -9  -7 -6.3025 4.44598   2
  -9   9  -7 -11.084 6.12189   1
   9  -9  -7 -4.0097 6.48753   1
   9   9  -7 8.16190 7.04519   1
  10   0  -7 59.6485 7.38372   1
   0 -10  -7 60.8419 5.27578   2
   0 -10  -7 59.6591 7.72941   1
 -10   0  -7 65.2229 7.81188   1
 -10   0  -7 62.7408 8.56903   6
 -10   0  -7 86.3595 11.4971   3
   0  10  -7 51.0961 7.35828   1
  10   0  -7 56.8009 8.93974   5
 -10   0  -7 71.9583 5.14157   2
 -10   1  -7 14.1771 6.87311   6
   1  10  -7 10.8271 6.96621   5
  -1 -10  -7 11.8659 4.06582   2
 -10   1  -7 6.27354 5.73595   1
  10  -1  -7 7.33280 5.74597   1
 -10   1  -7 33.5578 9.82218   3
  -1 -10  -7 0.09398 5.38669   1
 -10   1  -7 10.0020 3.63761   2
   1  10  -7 3.33011 5.72635   1
 -10  -1  -7 -0.2081 5.32452   1
 -10  -1  -7 10.9216 3.57367   2
   1 -10  -7 10.4285 3.78238   2
  10   1  -7 4.24018 5.31471   1
  -1  10  -7 13.3484 5.87047   1
 -10  -1  -7 1.99133 7.67147   3
  10   1  -7 14.7028 6.79208   5
 -10  -1  -7 13.1850 6.60504   6
   1 -10  -7 2.76296 5.55238   1
   1 -10  -7 0.31847 5.28988   1
 -10   2  -7 13.3722 6.93426   6
  -2 -10  -7 13.4563 5.82994   1
 -10   2  -7 14.1808 8.88863   3
  -2 -10  -7 13.7093 3.87487   2
  10  -2  -7 10.7437 5.86207   1
   2  10  -7 19.3225 6.05859   1
 -10   2  -7 2.54654 5.38845   1
  -2  10  -7 11.7052 6.04512   1
 -10  -2  -7 10.3320 5.78909   1
 -10  -2  -7 12.3266 3.85353   2
   2 -10  -7 5.62216 5.55010   1
 -10  -2  -7 12.3400 7.82220   3
  10   2  -7 17.1760 6.29074   1
   2 -10  -7 18.6584 4.16653   2
  10   2  -7 19.9533 6.98381   5
 -10   3  -7 -2.0076 6.54597   6
 -10   3  -7 0.76404 5.40049   1
  10  -3  -7 -5.8142 5.20007   1
  10  -3  -7 3.28375 3.94438   2
  -3 -10  -7 5.07940 5.56205   1
   3  10  -7 11.0374 6.04374   1
  -3 -10  -7 1.27930 3.76041   2
 -10   3  -7 -0.6436 7.46654   3
  -3  10  -7 4.42660 5.80144   1
   3 -10  -7 5.16233 3.99806   2
 -10  -3  -7 1.91837 5.65471   1
 -10  -3  -7 -0.5587 6.92191   3
  10   3  -7 4.29039 6.02083   1
  -3  10  -7 7.91232 6.96325   6
  10   3  -7 6.37832 6.27456   5
   3 -10  -7 0.39248 5.68052   1
 -10  -3  -7 2.41252 3.56962   2
 -10   4  -7 27.8184 8.76846   6
  -4 -10  -7 45.7990 5.22209   2
   4  10  -7 46.4537 7.86206   1
 -10   4  -7 36.4707 8.78712   3
 -10   4  -7 29.9523 7.15665   1
  10  -4  -7 38.2880 7.31003   1
  -4 -10  -7 49.3084 7.95785   1
  10  -4  -7 40.3459 5.18067   2
 -10  -4  -7 33.5917 7.21629   1
  -4  10  -7 34.3387 7.22191   1
 -10  -4  -7 40.4223 4.80759   2
 -10  -4  -7 32.5125 8.63904   3
   4 -10  -7 42.3158 7.32494   1
  -4  10  -7 34.4359 8.53908   6
   4 -10  -7 37.6178 5.10169   2
  10   4  -7 38.4885 7.51269   1
  -5 -10  -7 150.085 11.4403   1
 -10   5  -7 136.983 14.1897   6
 -10   5  -7 121.899 11.5081   3
  10  -5  -7 134.076 11.0154   1
  10  -5  -7 146.561 8.41406   2
   5  10  -7 129.252 10.7717   1
  -5 -10  -7 132.891 7.95763   2
 -10   5  -7 118.723 10.4557   1
   5 -10  -7 130.688 10.4976   1
   5 -10  -7 128.894 8.22387   2
  -5  10  -7 124.804 10.7146   1
 -10  -5  -7 114.710 11.9252   3
 -10  -5  -7 134.874 11.2093   1
 -10  -5  -7 134.243 7.95268   2
  -5  10  -7 134.559 12.8792   6
  10   5  -7 118.092 10.5103   1
 -10   6  -7 19.1100 6.77747   1
   6  10  -7 23.3304 7.18650   1
  10  -6  -7 11.6449 4.87389   2
  -6 -10  -7 12.7482 4.75905   2
  -6 -10  -7 24.8543 6.98182   1
 -10   6  -7 3.00200 7.33404   3
 -10   6  -7 8.01006 9.49367   6
  10  -6  -7 17.6168 6.75827   1
   6 -10  -7 19.7459 4.99125   2
   6 -10  -7 16.4062 6.60904   1
 -10  -6  -7 14.8953 7.85466   3
 -10  -6  -7 3.46716 5.89586   1
  10   6  -7 9.39183 6.64440   1
  -6  10  -7 17.9489 6.92865   1
 -10  -6  -7 10.0800 4.53130   2
  -6  10  -7 21.8001 9.74529   6
  10  -7  -7 7.65983 4.83161   2
   7  10  -7 2.80318 6.63537   1
 -10   7  -7 20.9768 11.6201   6
  -7 -10  -7 6.99917 6.55481   1
 -10   7  -7 -0.7608 6.19195   1
  10  -7  -7 8.39710 6.47351   1
  -7 -10  -7 5.65822 4.47215   2
   7 -10  -7 3.91881 6.55471   1
 -10  -7  -7 6.08370 7.67745   3
 -10  -7  -7 9.82821 6.49837   1
  -7  10  -7 1.19780 9.90014   6
   7 -10  -7 6.64280 4.84460   2
  10   7  -7 7.39949 6.35206   1
 -10  -7  -7 10.2717 4.82250   2
  -7  10  -7 7.25912 6.38072   1
 -10   8  -7 23.3684 13.9792   6
  -8 -10  -7 12.9945 7.03189   1
   8  10  -7 25.5405 7.98463   1
  10  -8  -7 17.5260 5.25562   2
  10  -8  -7 33.0423 7.72170   1
  -8 -10  -7 24.2527 5.55776   2
 -10   8  -7 26.8886 7.79744   1
  10   8  -7 17.9273 7.42095   1
   8 -10  -7 30.2078 7.77644   1
 -10  -8  -7 33.2053 5.84296   2
   8 -10  -7 13.6520 5.31737   2
  -8  10  -7 18.7655 7.29803   1
  -8  10  -7 14.7601 11.5564   6
 -10  -8  -7 31.0026 7.78928   1
 -10   9  -7 6.06963 7.23328   1
  -9 -10  -7 3.09008 6.97559   1
 -10   9  -7 7.86297 16.4361   6
  10  -9  -7 13.1022 7.43652   1
   9  10  -7 5.17264 7.19181   1
  10  -9  -7 0.99230 4.81623   2
  -9 -10  -7 5.53424 5.04539   2
   9 -10  -7 6.49459 7.16888   1
  -9  10  -7 11.0956 7.55465   1
 -10  -9  -7 -5.3405 6.58623   1
  10   9  -7 2.52897 6.89938   1
  -9  10  -7 15.9883 13.9216   6
   9 -10  -7 -5.8476 4.85860   2
 -10  -9  -7 -2.5779 4.85335   2
 -11   0  -7 -0.3336 3.87441   2
   0  11  -7 2.96106 5.75841   1
 -11   0  -7 -9.4112 5.16588   1
   0 -11  -7 1.37607 4.08954   2
  11   0  -7 0.40665 7.05733   5
   0 -11  -7 4.47967 5.81444   1
   0 -11  -7 -2.5404 5.53941   1
 -11   0  -7 -1.0498 6.26875   6
 -11   0  -7 8.22616 9.50154   3
  11   0  -7 0.62974 5.88510   1
 -11   1  -7 4.66479 4.01481   2
  -1 -11  -7 6.32347 4.23704   2
 -11   1  -7 -5.8193 6.14641   6
 -11   1  -7 5.14625 5.92816   1
   1  11  -7 1.68101 5.85968   1
  -1 -11  -7 3.27964 5.71416   1
  11  -1  -7 2.25691 5.84957   1
 -11   1  -7 17.8796 10.4606   3
  11   1  -7 -1.9824 5.68328   1
   1 -11  -7 0.89871 5.69502   1
 -11  -1  -7 2.50651 9.49894   3
 -11  -1  -7 4.03213 5.88303   1
   1 -11  -7 2.24196 5.96665   1
 -11  -1  -7 6.45284 3.98795   2
  -1  11  -7 4.50497 5.98243   1
  11   1  -7 2.00648 7.03590   5
   1 -11  -7 -0.9328 4.13094   2
  11  -2  -7 2.53259 5.90118   1
 -11   2  -7 15.3749 7.49569   6
  -2 -11  -7 1.70606 6.00812   1
   2  11  -7 3.91460 6.24022   1
 -11   2  -7 -1.2641 5.94125   1
 -11   2  -7 -6.2489 9.38073   3
  -2 -11  -7 -2.3203 3.78698   2
   2 -11  -7 -2.2584 4.02351   2
 -11  -2  -7 1.58176 6.07141   1
  11   2  -7 8.10064 6.49010   1
 -11  -2  -7 -1.5063 8.59266   3
   2 -11  -7 -6.1155 5.34073   1
 -11  -2  -7 -1.5836 3.70902   2
  11   2  -7 -5.7676 5.87420   5
  -2  11  -7 11.0277 6.20539   1
  11  -3  -7 11.5534 6.49120   1
 -11   3  -7 10.5010 8.95938   3
 -11   3  -7 9.86010 7.71867   6
  -3 -11  -7 5.79506 5.92814   1
  11  -3  -7 -0.3464 4.27715   2
  -3 -11  -7 2.85381 4.44846   2
 -11   3  -7 -0.6064 5.89270   1
   3  11  -7 7.31996 6.30316   1
   3 -11  -7 4.98132 6.11383   1
  11   3  -7 0.68012 6.50857   5
 -11  -3  -7 11.6390 6.37146   1
   3 -11  -7 3.93910 4.61488   2
 -11  -3  -7 0.50507 4.10426   2
  11   3  -7 2.53574 6.28657   1
  -3  11  -7 0.47876 6.00740   1
 -11  -3  -7 2.79740 7.93235   3
 -11   4  -7 0.36210 7.40644   3
  11  -4  -7 -3.1288 4.30626   2
  -4 -11  -7 1.78801 6.23339   1
   4  11  -7 10.1068 6.81220   1
  11  -4  -7 -6.6511 6.02773   1
 -11   4  -7 7.91853 8.18261   6
  -4 -11  -7 4.73189 4.42642   2
 -11   4  -7 -2.4079 6.20111   1
  -4  11  -7 19.2337 6.94825   1
 -11  -4  -7 9.78296 8.20102   3
 -11  -4  -7 11.5833 4.45268   2
   4 -11  -7 9.52141 6.18696   1
  11   4  -7 0.57804 6.18245   1
 -11  -4  -7 9.06607 6.51010   1
   4 -11  -7 8.35549 4.64845   2
  -4  11  -7 -7.1262 7.29843   6
  -5 -11  -7 0.82218 4.22532   2
  -5 -11  -7 1.56316 6.23433   1
  11  -5  -7 2.72565 4.57412   2
 -11   5  -7 -6.9224 8.39042   6
   5  11  -7 -10.385 5.89351   1
  11  -5  -7 7.35377 6.41208   1
 -11   5  -7 -3.7262 7.24611   3
 -11   5  -7 -3.8440 6.18258   1
 -11  -5  -7 0.81404 7.11913   3
   5 -11  -7 4.70528 4.66680   2
 -11  -5  -7 -1.4879 4.22885   2
  -5  11  -7 -11.453 7.41705   6
  -5  11  -7 5.83585 6.56032   1
 -11  -5  -7 -5.0143 6.10844   1
  11   5  -7 -2.2602 5.92342   1
   5 -11  -7 3.85318 6.15459   1
 -11   6  -7 -9.5852 9.19339   6
  11  -6  -7 -0.3408 4.63008   2
  11  -6  -7 -2.5130 6.24093   1
 -11   6  -7 -5.2668 6.28064   1
  -6 -11  -7 -4.9567 4.34141   2
   6  11  -7 -4.8444 6.45180   1
  -6 -11  -7 7.67529 6.40370   1
 -11  -6  -7 -2.0349 4.51563   2
 -11  -6  -7 -0.4926 5.96290   1
   6 -11  -7 0.18299 4.87547   2
  -6  11  -7 -0.7066 9.33029   6
 -11  -6  -7 3.06517 7.41093   3
   6 -11  -7 8.08615 6.39899   1
  11   6  -7 4.01409 6.54980   1
  -6  11  -7 -1.3794 5.74477   1
  -7 -11  -7 -6.0822 6.41885   1
  11  -7  -7 2.06844 5.01616   2
   7  11  -7 3.41407 7.28812   1
  -7 -11  -7 3.54002 4.67468   2
 -11   7  -7 -10.305 10.3934   6
  11  -7  -7 -2.8724 6.30587   1
 -11   7  -7 3.57748 6.59100   1
 -11  -7  -7 6.91417 7.51127   3
   7 -11  -7 -1.9690 6.52986   1
  11   7  -7 -2.3616 6.39201   1
 -11  -7  -7 2.22070 4.71821   2
  -7  11  -7 16.3340 11.0501   6
  -7  11  -7 3.86688 7.11685   1
 -11  -7  -7 4.27737 6.93358   1
   7 -11  -7 7.83996 5.31142   2
   0 -12  -7 86.0682 9.78471   1
 -12   0  -7 107.732 16.3100   3
  12   0  -7 82.0671 9.76966   1
  12   0  -7 87.6700 11.1206   5
 -12   0  -7 107.993 8.32839   2
   0 -12  -7 101.166 7.34395   2
   0 -12  -7 101.461 10.1451   1
 -12   0  -7 91.6496 9.99036   1
   0  12  -7 90.3974 9.74561   1
 -12   1  -7 17.0386 7.06673   1
 -12   1  -7 15.7126 4.87310   2
  12  -1  -7 20.9225 7.11711   1
   1  12  -7 14.9686 6.85204   1
  -1 -12  -7 15.4849 6.59700   1
  -1 -12  -7 9.92879 4.84968   2
 -12   1  -7 13.5235 7.66491   6
 -12   1  -7 9.55379 12.2876   3
   1 -12  -7 21.5239 7.00162   1
 -12  -1  -7 31.1097 11.9935   3
 -12  -1  -7 20.6423 5.11647   2
  12   1  -7 23.7640 8.00027   5
 -12  -1  -7 26.7624 7.31680   1
  -1  12  -7 16.5422 7.04770   1
  12   1  -7 22.4711 7.21238   1
   1 -12  -7 22.0268 5.25991   2
 -12   2  -7 9.92518 7.09979   1
  -2 -12  -7 -7.4758 6.12484   1
 -12   2  -7 3.54352 7.62088   6
 -12   2  -7 1.57514 11.4775   3
  -2 -12  -7 7.12915 4.67475   2
  12  -2  -7 10.9975 6.82622   1
   2  12  -7 1.49710 6.51296   1
   2 -12  -7 5.10527 6.18964   1
 -12  -2  -7 0.61286 9.47516   3
 -12  -2  -7 6.39957 4.31211   2
   2 -12  -7 1.52657 4.44756   2
  12   2  -7 11.0114 7.57721   5
 -12  -2  -7 -10.782 5.98587   1
  -2  12  -7 -1.0028 6.05860   1
  12   2  -7 -4.5493 6.27274   1
  -3 -12  -7 99.0873 10.4441   1
  -3 -12  -7 86.4707 7.12850   2
  12  -3  -7 96.6573 10.4249   1
 -12   3  -7 73.3425 9.59200   1
 -12   3  -7 85.3229 11.4679   6
 -12   3  -7 85.3033 13.8722   3
   3  12  -7 91.0367 10.1277   1
  12  -3  -7 100.061 7.89756   2
  12   3  -7 88.7656 9.85537   1
  -3  12  -7 75.6680 9.46488   1
 -12  -3  -7 85.5306 7.04367   2
 -12  -3  -7 94.2844 10.5004   1
 -12  -3  -7 88.8579 13.1718   3
   3 -12  -7 99.9659 7.64285   2
   3 -12  -7 82.0672 9.92556   1
  12  -4  -7 5.94198 5.02635   2
   4  12  -7 -1.0940 6.27144   1
  12  -4  -7 -1.0483 6.42643   1
 -12   4  -7 9.10437 8.50712   6
  -4 -12  -7 -5.9569 6.41272   1
 -12   4  -7 2.02521 6.62847   1
 -12   4  -7 -4.5787 9.39026   3
  -4 -12  -7 4.87043 4.88466   2
   4 -12  -7 2.26556 6.33482   1
  -4  12  -7 5.41350 6.51368   1
 -12  -4  -7 6.63841 4.72008   2
  12   4  -7 6.74647 6.64852   1
   4 -12  -7 7.48611 4.94281   2
 -12  -4  -7 6.35983 6.58339   1
 -12  -4  -7 -8.6174 7.88217   3
  -5 -12  -7 -6.9288 6.41420   1
  12  -5  -7 17.4436 5.30807   2
 -12   5  -7 12.1968 7.27431   1
   5  12  -7 13.7551 7.52185   1
 -12   5  -7 1.35425 8.37206   3
 -12   5  -7 1.62718 8.98601   6
  12  -5  -7 -2.0637 6.78645   1
  -5 -12  -7 9.96806 5.02222   2
  12   5  -7 6.86182 7.00461   1
  -5  12  -7 1.76159 8.56102   6
 -12  -5  -7 -2.2739 7.91637   3
   5 -12  -7 18.1241 5.53819   2
 -12  -5  -7 7.02821 5.11024   2
   5 -12  -7 9.51034 7.03367   1
 -12  -5  -7 7.98440 7.07735   1
  -5  12  -7 10.2935 7.12604   1
 -12   6  -7 13.1507 11.0507   6
  -6 -12  -7 21.6409 7.94362   1
   6  12  -7 17.7675 7.72189   1
  -6 -12  -7 14.4901 5.20927   2
 -12   6  -7 16.7738 7.75695   1
  12  -6  -7 11.8887 5.31061   2
  12  -6  -7 19.1135 7.81543   1
   6 -12  -7 13.0955 5.57937   2
 -12  -6  -7 11.0424 8.26927   3
 -12  -6  -7 13.1817 6.97057   1
 -12  -6  -7 21.6403 5.55535   2
   6 -12  -7 12.2500 7.18159   1
  12   6  -7 14.1804 7.62932   1
  -6  12  -7 6.28481 6.70110   1
  -6  12  -7 8.67017 9.24402   6
  13   0  -7 0.39765 6.83500   1
   0 -13  -7 3.00347 6.66722   1
 -13   0  -7 -13.507 12.9481   3
  13   0  -7 1.56513 7.84278   5
   0 -13  -7 5.51441 4.86187   2
 -13   0  -7 6.85165 6.94946   1
   0  13  -7 -3.6798 6.28551   1
 -13   0  -7 -6.0099 4.71944   2
   0 -13  -7 -11.224 5.94975   1
 -13   1  -7 68.7175 6.95601   2
  -1 -13  -7 59.1236 9.25924   1
 -13   1  -7 77.5489 18.5774   3
  13  -1  -7 66.4964 9.60828   1
 -13   1  -7 72.8542 9.99966   1
  -1 -13  -7 51.5675 9.16445   1
  -1 -13  -7 66.9406 7.11524   2
   1  13  -7 46.7594 9.18853   1
  -1  13  -7 45.6209 8.88573   1
  13   1  -7 70.5586 9.80747   1
 -13  -1  -7 75.2817 15.2967   3
   1 -13  -7 46.4185 8.82433   1
 -13  -1  -7 53.8394 9.03227   1
  13   1  -7 60.5557 10.1783   5
   1 -13  -7 63.4506 6.92088   2
 -13  -1  -7 53.8275 6.53060   2
  -2 -13  -7 8.18253 5.21148   2
   2  13  -7 -6.2203 6.50311   1
  -2 -13  -7 5.24851 6.76125   1
 -13   2  -7 9.33988 7.05566   1
  13  -2  -7 10.7679 7.28421   1
 -13   2  -7 -1.8524 7.24716   6
 -13   2  -7 3.78595 13.1520   3
  13   2  -7 8.81813 7.10076   1
  -2  13  -7 9.35651 6.95721   1
 -13  -2  -7 16.3472 7.39105   1
   2 -13  -7 8.09932 5.01350   2
 -13  -2  -7 2.30431 4.60087   2
 -13  -2  -7 2.39985 10.4165   3
   2 -13  -7 11.2347 7.24693   1
   3  13  -7 8.16248 7.72581   1
  -3 -13  -7 29.5114 8.16006   1
  13  -3  -7 -0.3322 6.97246   1
 -13   3  -7 10.1725 8.23698   6
 -13   3  -7 36.6160 13.3301   3
  -3 -13  -7 8.43532 5.01241   2
 -13   3  -7 14.0434 7.57546   1
  -3  13  -7 3.49211 7.18170   1
 -13  -3  -7 9.07407 7.57632   1
  13   3  -7 9.93217 7.56209   1
 -13  -3  -7 12.9875 5.29925   2
   3 -13  -7 9.02911 7.53853   1
 -13  -3  -7 11.0681 10.0085   3
   3 -13  -7 17.6881 5.62287   2
   0   0  -8 3962.41 64.6604   3
   0   0  -8 3951.22 65.9549   6
   0   0   8 3921.77 63.0462   4
   0   0  -8 3838.07 64.9157   5
   1   0   8 1.33790 3.42818   4
   1   0  -8 -0.0391 4.29077   3
  -1   0  -8 2.92889 4.35797   6
   0   1  -8 -1.1298 3.93622   3
   0   1  -8 -1.8262 4.37484   5
  -1   0  -8 -0.2910 4.29996   3
   1   0  -8 -5.0951 4.19047   6
   0   1  -8 -4.3421 4.21673   6
   1   0  -8 0.32225 4.15843   5
   0  -1  -8 -4.0135 3.94814   6
  -1   0   8 -0.5605 3.24579   4
   0  -1  -8 -2.3205 4.12756   3
  -1   0  -8 1.82475 4.34506   5
   0  -1  -8 1.32102 4.28385   5
   1   1  -8 463.825 14.7733   6
  -1  -1  -8 435.824 14.1186   5
   1   1  -8 439.004 14.3078   3
   1   1  -8 453.097 14.7100   5
   1  -1  -8 436.461 14.4659   3
  -1   1  -8 450.915 14.7675   5
   1  -1  -8 471.604 15.3171   6
  -1  -1  -8 426.905 14.6586   6
   1  -1  -8 464.187 14.6360   5
  -1   1  -8 449.967 14.8033   6
  -1  -1  -8 442.018 14.6077   3
  -1   1  -8 436.389 14.2822   3
  -2   0  -8 2752.52 48.7776   5
   2   0  -8 2798.96 48.8828   3
   0   2  -8 2827.24 48.4929   3
   2   0  -8 2773.54 49.6395   6
   2   0   8 2837.33 47.3805   4
   0   2  -8 2780.06 49.4952   5
   0   2  -8 2794.47 49.6993   6
  -2   0  -8 2732.84 49.8534   6
   0  -2  -8 2777.87 48.5536   5
   2   0  -8 2789.76 49.5495   5
  -2   0  -8 2786.96 48.8648   3
  -2   0   8 2832.76 47.4391   4
   0  -2  -8 2824.38 48.9525   3
   0  -2  -8 2714.87 49.8612   6
  -2   1  -8 188.956 10.4022   6
  -1  -2  -8 183.808 9.55025   5
   1   2  -8 198.855 10.1916   3
   2  -1  -8 199.684 10.3065   5
   2  -1  -8 163.662 9.83792   3
  -1  -2  -8 171.813 9.87496   3
   1   2  -8 189.605 10.0754   6
  -2   1  -8 198.579 10.5445   3
  -1  -2  -8 205.303 10.7795   6
  -2   1  -8 194.731 10.1065   5
   1   2  -8 193.622 10.3395   5
   2   1  -8 172.072 10.1292   6
  -2  -1  -8 182.173 10.4748   3
  -1   2  -8 182.014 10.1973   5
  -2  -1  -8 194.997 9.86637   5
   1  -2  -8 171.106 9.65076   5
  -1   2  -8 199.641 10.0273   3
   2   1  -8 166.329 10.0381   5
   2   1  -8 168.443 9.79478   3
  -1   2  -8 193.391 10.7280   6
  -2  -1  -8 188.544 10.5794   6
   1  -2  -8 197.583 10.2635   3
  -2   2  -8 2343.00 42.2212   3
   2   2  -8 2293.07 43.2160   5
   2   2  -8 2347.12 42.3592   3
  -2  -2  -8 2341.12 43.3565   6
  -2   2  -8 2318.37 43.6664   6
   2   2  -8 2247.44 42.5195   6
  -2   2  -8 2308.39 43.3286   5
   2  -2  -8 2361.56 43.1421   5
   2  -2  -8 2359.53 42.6956   3
  -2  -2  -8 2360.76 42.7863   3
  -2  -2  -8 2347.45 41.6022   5
  -3   0  -8 6.28419 4.75665   3
   0   3  -8 -2.8875 3.97840   3
   3   0  -8 -1.4855 4.62233   5
   0  -3  -8 -4.8052 3.90383   5
  -3   0  -8 -5.2697 4.39192   6
   0  -3  -8 -5.1231 4.29431   3
  -3   0  -8 -1.6455 4.37006   5
   3   0  -8 -0.8421 4.39537   3
   0   3  -8 6.26571 4.60022   6
   0   3  -8 1.81639 4.52380   5
   1   3  -8 538.870 16.4082   6
  -1  -3  -8 573.650 15.6659   5
  -1  -3  -8 527.608 16.7871   6
   3  -1  -8 565.544 11.6637   1
  -3   1  -8 552.367 17.0125   6
   3  -1  -8 560.499 16.8019   3
  -3   1  -8 568.916 16.6258   5
   1   3  -8 562.349 17.3096   5
   1   3  -8 553.980 16.1760   3
  -1  -3  -8 525.983 16.1789   3
   3  -1  -8 558.238 16.9150   5
  -1   3  -8 527.345 16.6977   6
   3   1  -8 557.552 16.8431   5
   1  -3  -8 529.869 16.0022   5
  -3  -1  -8 540.171 15.7567   5
  -1   3  -8 560.504 16.1262   3
   1  -3  -8 553.015 16.3991   3
   3   1  -8 563.491 16.7919   3
  -1   3  -8 577.370 17.1403   5
  -3  -1  -8 549.329 16.7601   6
  -3  -1  -8 535.806 16.5005   3
   3   1  -8 590.002 11.8220   1
  -2  -3  -8 2.60803 4.48934   6
   3  -2  -8 -2.4050 4.68281   5
   2   3  -8 -0.5537 4.15603   6
   3  -2  -8 1.70149 2.63728   1
  -2  -3  -8 -1.1847 2.38552   1
   3  -2  -8 5.47895 5.01952   3
  -3   2  -8 11.9987 4.93833   5
  -3   2  -8 5.62786 2.64285   1
   2   3  -8 -5.1828 4.43601   5
   2   3  -8 1.91454 4.71896   3
  -2  -3  -8 13.2085 5.18045   3
  -2  -3  -8 1.11112 3.71773   5
  -3   2  -8 -1.3257 4.61326   3
  -3   2  -8 3.49785 4.84465   6
   2   3  -8 -0.9620 2.59598   1
   2  -3  -8 -0.3308 4.61950   5
   3   2  -8 3.85487 2.76863   1
   3   2  -8 3.87334 4.65603   3
  -2   3  -8 -0.6817 4.77546   5
   2  -3  -8 3.62762 2.85888   1
  -3  -2  -8 1.50963 4.61910   6
  -2   3  -8 10.9806 5.13264   6
  -2   3  -8 -3.5152 4.21563   3
  -2   3  -8 -0.3557 2.48663   1
  -3  -2  -8 -3.0526 3.79600   5
  -3  -2  -8 4.97649 4.94238   3
  -3  -2  -8 0.23058 2.62836   1
   3   2  -8 2.91404 4.87360   5
   2  -3  -8 0.48235 4.62767   3
   3   2  -8 7.02415 4.74886   6
  -3  -3  -8 226.356 11.4173   6
   3   3  -8 204.274 10.7147   6
  -3  -3  -8 224.112 11.2472   3
  -3  -3  -8 226.188 10.0389   5
   3   3  -8 227.291 11.1605   3
  -3   3  -8 235.014 11.3005   3
  -3   3  -8 215.284 11.5187   5
   3   3  -8 242.550 7.82512   1
   3  -3  -8 224.715 11.4964   5
  -3   3  -8 212.589 11.6007   6
   3  -3  -8 233.842 7.96627   1
  -3   3  -8 224.621 7.64576   1
   3  -3  -8 240.287 11.5542   3
   3   3  -8 241.824 11.6550   5
  -3  -3  -8 233.633 7.65362   1
   0   4  -8 1111.26 24.4316   3
   4   0  -8 1090.88 25.7807   3
  -4   0  -8 1097.11 25.6671   3
   4   0  -8 1114.98 20.1607   1
  -4   0  -8 1138.77 20.0728   1
  -4   0  -8 1104.96 26.1074   6
   0   4  -8 1069.81 25.1577   6
   0  -4  -8 1118.42 20.1106   1
   0  -4  -8 1112.45 20.1501   1
   0   4  -8 1098.68 20.0874   1
   0   4  -8 1131.87 26.1123   5
   4   0  -8 1095.76 26.0340   5
   0  -4  -8 1079.71 24.1121   5
  -4   0  -8 1115.16 25.0427   5
   0  -4  -8 1059.45 24.8548   3
   4  -1  -8 89.3379 5.66788   1
  -1  -4  -8 93.3171 5.57866   1
   1   4  -8 103.737 8.17654   3
   4  -1  -8 93.8545 8.24181   3
  -1  -4  -8 85.0000 7.91620   3
   1   4  -8 91.7656 8.45741   5
  -4   1  -8 109.958 9.01690   3
   1   4  -8 96.1581 7.94295   6
   1   4  -8 103.895 5.64144   1
   4  -1  -8 105.899 9.18254   5
  -4   1  -8 97.1576 8.34123   5
  -4   1  -8 103.548 5.48696   1
  -4   1  -8 104.971 8.98914   6
  -1  -4  -8 100.536 7.47726   5
   4   1  -8 114.723 9.40658   5
  -4  -1  -8 83.7862 8.09134   6
   1  -4  -8 102.191 8.40281   3
  -1   4  -8 83.0339 7.48812   3
  -4  -1  -8 103.504 8.78008   3
   4   1  -8 92.3419 5.69086   1
   1  -4  -8 87.3094 7.84029   5
  -1   4  -8 100.971 5.70775   1
  -4  -1  -8 93.5770 5.53424   1
  -1   4  -8 97.6324 8.45367   6
  -4  -1  -8 122.859 8.78655   5
   4   1  -8 96.2142 8.56684   3
   1  -4  -8 94.4796 5.57239   1
  -1   4  -8 103.988 9.10099   5
  -2  -4  -8 1509.75 31.7199   6
   2   4  -8 1460.76 31.7957   5
   4  -2  -8 1514.02 26.5743   1
   2   4  -8 1507.35 30.5283   3
  -2  -4  -8 1513.28 29.3206   5
  -4   2  -8 1511.79 31.8843   5
   4  -2  -8 1509.55 31.8580   3
   2   4  -8 1521.68 30.9895   6
   2   4  -8 1526.10 26.3348   1
  -4   2  -8 1503.45 26.3193   1
  -4   2  -8 1513.41 31.3860   3
  -2  -4  -8 1542.21 26.3047   1
  -2  -4  -8 1498.27 31.0262   3
   4  -2  -8 1492.60 32.2295   5
  -4   2  -8 1490.64 32.5560   6
  -4  -2  -8 1453.17 31.5275   3
  -4  -2  -8 1523.53 26.3868   1
   4   2  -8 1555.51 32.2708   5
   4   2  -8 1476.73 31.3507   3
  -2   4  -8 1507.82 32.4534   5
  -4  -2  -8 1463.48 31.3308   6
  -2   4  -8 1501.26 30.0414   3
   2  -4  -8 1497.81 26.4957   1
   2  -4  -8 1475.43 30.9303   3
  -2   4  -8 1540.94 26.4894   1
  -2   4  -8 1493.19 32.3131   6
  -4  -2  -8 1516.98 30.0291   5
   4   2  -8 1517.74 26.5236   1
   2  -4  -8 1488.79 31.0943   5
   3   4  -8 120.699 9.48691   5
   4  -3  -8 106.514 9.10158   3
   3   4  -8 115.576 8.83182   3
  -4   3  -8 104.547 9.42456   6
   4  -3  -8 118.440 9.70777   5
  -4   3  -8 119.248 9.27209   3
   3   4  -8 116.041 8.88229   6
  -3  -4  -8 114.139 9.35752   3
   3   4  -8 117.083 6.43196   1
  -3  -4  -8 115.448 9.09476   6
  -4   3  -8 114.874 9.36695   5
  -4   3  -8 117.211 6.66307   1
   4  -3  -8 98.4130 6.54479   1
  -3  -4  -8 115.185 6.52045   1
  -4  -3  -8 121.724 9.61365   3
  -3   4  -8 118.713 8.67994   3
  -3   4  -8 99.0226 8.91743   5
  -4  -3  -8 108.143 8.79276   6
   3  -4  -8 130.959 9.58963   3
   4   3  -8 105.363 6.56711   1
   3  -4  -8 110.556 6.78167   1
   4   3  -8 127.202 9.46923   3
  -4  -3  -8 104.543 6.48099   1
  -3   4  -8 117.948 9.78140   6
   4   3  -8 132.606 9.72099   5
  -3   4  -8 110.640 6.56793   1
   3  -4  -8 110.684 9.13289   5
  -4  -4  -8 4039.01 68.9028   6
  -4  -4  -8 4160.90 64.6792   1
  -4   4  -8 4121.46 64.5401   1
  -4   4  -8 3975.45 70.3212   5
   4   4  -8 4073.04 64.5169   1
  -4   4  -8 4011.32 71.0882   6
   4  -4  -8 4120.37 64.7567   1
   4   4  -8 4001.35 69.4418   5
   4   4  -8 4070.60 67.8995   3
   4  -4  -8 4152.97 68.7832   3
  -4   4  -8 4111.75 67.7967   3
  -4  -4  -8 4205.18 69.2174   3
   4  -4  -8 4041.83 69.8867   5
   5   0  -8 2.46773 5.14850   3
   0   5  -8 -0.0451 5.06714   5
   0   5  -8 0.10364 4.34995   3
   5   0  -8 -1.4158 3.12669   1
  -5   0  -8 -1.1635 4.65988   5
   0  -5  -8 -0.1638 3.14243   1
   0  -5  -8 2.77902 4.40298   5
   5   0  -8 -0.2853 4.98403   5
   0  -5  -8 8.37719 5.13859   3
  -5   0  -8 4.76187 5.07434   6
   0   5  -8 -0.5155 3.17573   1
   0   5  -8 -9.1085 4.29387   6
  -5   0  -8 3.85953 3.24117   1
  -5   0  -8 -4.6294 5.15897   3
  -5   1  -8 344.371 14.2399   6
   1   5  -8 355.526 13.3260   6
   1   5  -8 324.576 14.1697   5
   5  -1  -8 345.442 14.4372   5
  -1  -5  -8 359.679 12.3214   5
  -1  -5  -8 351.113 10.2362   1
  -1  -5  -8 342.230 13.2714   3
  -5   1  -8 360.244 14.2909   3
  -5   1  -8 341.950 13.5405   5
   1   5  -8 345.301 12.9085   3
   5  -1  -8 352.264 10.2992   1
   5  -1  -8 339.377 14.0314   3
   1   5  -8 344.808 10.1417   1
  -5   1  -8 353.598 10.1137   1
  -5  -1  -8 360.962 10.2589   1
   1  -5  -8 356.275 12.9307   5
  -1   5  -8 364.797 12.7968   3
  -5  -1  -8 344.056 13.0743   5
  -5  -1  -8 342.235 14.1550   6
  -1   5  -8 333.252 10.2893   1
  -1   5  -8 340.866 14.1410   5
   1  -5  -8 346.897 13.7706   3
  -1   5  -8 328.202 13.8136   6
  -5  -1  -8 328.616 13.9250   3
   5   1  -8 334.494 10.2473   1
   5   1  -8 329.314 14.0573   5
   5   1  -8 359.503 14.5181   3
   1  -5  -8 343.928 10.2997   1
   2   5  -8 28.5370 6.42266   5
   5  -2  -8 29.8674 6.58565   5
  -5   2  -8 39.9920 7.12831   6
   5  -2  -8 26.0667 6.44250   3
  -2  -5  -8 36.7075 4.77255   1
   5  -2  -8 34.7485 4.61037   1
  -5   2  -8 41.8163 7.05852   5
  -5   2  -8 32.1334 4.55814   1
   2   5  -8 36.3718 4.70830   1
  -5   2  -8 38.0429 6.64831   3
   2   5  -8 42.1559 6.36589   3
   2   5  -8 31.6710 6.09643   6
  -2  -5  -8 23.5087 6.10814   3
  -5  -2  -8 30.0588 4.57732   1
  -2   5  -8 34.8916 6.73297   6
  -5  -2  -8 48.4586 7.18309   3
  -2   5  -8 26.4640 6.42814   5
   5   2  -8 20.8423 6.32305   3
  -2   5  -8 38.5223 6.02996   3
   2  -5  -8 34.8173 6.74863   3
   5   2  -8 43.2163 4.82435   1
   2  -5  -8 38.7600 6.59657   5
  -5  -2  -8 41.6617 6.51562   6
   2  -5  -8 40.8038 4.77812   1
  -2   5  -8 29.4198 4.60203   1
  -5  -2  -8 32.2443 5.74334   5
   5   2  -8 34.8109 6.64503   5
   3   5  -8 285.298 13.2266   5
   5  -3  -8 273.676 13.3805   3
  -3  -5  -8 259.463 9.68490   1
  -5   3  -8 251.135 13.2627   5
  -5   3  -8 291.081 12.9047   3
   5  -3  -8 279.816 13.8164   5
  -3  -5  -8 278.616 12.9573   3
   3   5  -8 265.132 11.8815   6
   5  -3  -8 277.149 9.98593   1
   3   5  -8 264.606 9.70632   1
  -5   3  -8 258.517 9.61468   1
   3   5  -8 300.568 12.4853   3
  -5   3  -8 283.556 13.8178   6
   3  -5  -8 282.846 13.1095   3
   5   3  -8 272.096 13.0367   5
  -5  -3  -8 249.893 9.61612   1
   3  -5  -8 277.965 12.6303   5
   5   3  -8 294.412 13.5870   3
  -5  -3  -8 273.315 12.5948   6
   3  -5  -8 269.425 9.89342   1
  -5  -3  -8 275.463 13.4775   3
  -3   5  -8 278.158 9.87083   1
  -3   5  -8 264.647 13.7343   6
  -3   5  -8 277.180 11.8946   3
   5   3  -8 261.669 9.60997   1
  -3   5  -8 258.825 13.2968   5
   5  -4  -8 248.982 10.0686   1
  -5   4  -8 243.058 13.1397   5
  -4  -5  -8 249.161 12.3034   3
   4   5  -8 223.361 9.67956   1
  -4  -5  -8 240.730 9.69232   1
  -5   4  -8 242.284 13.5148   6
   4   5  -8 238.206 12.7879   5
   5  -4  -8 259.506 12.8092   3
   4   5  -8 216.881 11.7126   3
  -4  -5  -8 201.847 11.4467   6
  -5   4  -8 238.884 12.3363   3
  -5   4  -8 233.407 9.69245   1
   5  -4  -8 204.587 12.4838   5
  -4   5  -8 232.522 9.67087   1
  -4   5  -8 207.755 11.4305   3
  -5  -4  -8 232.676 11.8564   6
   4  -5  -8 250.705 9.93811   1
   5   4  -8 244.543 12.6932   5
   5   4  -8 228.292 9.71016   1
   5   4  -8 241.505 12.8190   3
  -5  -4  -8 233.754 12.4588   3
   4  -5  -8 254.067 12.7510   5
   4  -5  -8 228.589 12.1963   3
  -4   5  -8 230.162 13.0018   5
  -5  -4  -8 252.452 9.89885   1
  -4   5  -8 221.885 13.4576   6
   5  -5  -8 582.187 18.9329   3
  -5   5  -8 600.643 16.0203   1
   5  -5  -8 579.357 19.9778   5
   5  -5  -8 632.968 16.3166   1
   5   5  -8 605.858 16.0220   1
  -5  -5  -8 586.362 15.9576   1
   5   5  -8 584.894 18.8644   5
  -5  -5  -8 571.747 18.0996   6
  -5   5  -8 591.553 18.1907   3
  -5  -5  -8 621.449 19.4900   3
  -5   5  -8 598.652 20.2111   6
   0   6  -8 2447.85 47.1975   5
   6   0  -8 2497.33 47.7411   5
   0   6  -8 2448.20 41.9229   1
   0  -6  -8 2533.49 45.4181   3
  -6   0  -8 2481.18 47.0744   3
  -6   0  -8 2502.61 41.9188   1
   0   6  -8 2490.96 46.2461   6
  -6   0  -8 2536.35 46.1746   5
   6   0  -8 2446.78 41.9867   1
  -6   0  -8 2402.27 46.9484   6
   0  -6  -8 2491.42 42.0481   1
   6   0  -8 2439.05 46.9035   3
   6  -1  -8 0.52725 5.63659   5
  -6   1  -8 6.29749 5.73719   5
  -6   1  -8 7.86859 5.63692   6
  -1  -6  -8 17.5505 5.86275   3
   1   6  -8 7.97144 5.18324   6
   1   6  -8 -2.3738 5.09767   5
   6  -1  -8 12.2848 6.50870   3
  -1  -6  -8 9.50245 3.92951   1
  -6   1  -8 -2.5866 5.43013   3
   6  -1  -8 11.9481 4.13404   1
   1   6  -8 6.62913 3.80493   1
  -6   1  -8 8.93856 4.04061   1
  -6  -1  -8 8.08220 4.05360   1
   1  -6  -8 17.6387 4.25499   1
  -1   6  -8 1.48118 3.89885   1
  -1   6  -8 5.38939 5.56358   6
  -6  -1  -8 16.0409 6.13692   3
   1  -6  -8 4.69614 4.78653   5
  -1   6  -8 10.9970 5.77851   5
   6   1  -8 2.90945 5.46235   5
   1  -6  -8 17.0314 5.74749   3
   6   1  -8 10.7615 5.98977   3
   6   1  -8 15.7987 4.29934   1
  -6  -1  -8 11.6673 5.76643   6
  -6  -1  -8 14.9279 5.74028   5
   6  -2  -8 1422.45 32.8170   5
   6  -2  -8 1417.26 32.4445   3
   6  -2  -8 1407.16 27.7095   1
   2   6  -8 1407.56 30.1303   6
   2   6  -8 1464.33 31.8686   5
  -6   2  -8 1428.15 31.9547   3
  -6   2  -8 1387.49 32.8276   6
  -2  -6  -8 1490.65 27.8476   1
   2   6  -8 1436.62 27.6337   1
  -2  -6  -8 1486.10 30.9792   3
  -6   2  -8 1440.54 32.2322   5
  -6   2  -8 1481.81 27.7158   1
  -6  -2  -8 1442.42 27.5927   1
  -6  -2  -8 1431.39 32.3386   3
  -6  -2  -8 1443.73 31.6985   6
  -2   6  -8 1503.91 27.9268   1
   2  -6  -8 1479.05 27.9498   1
  -2   6  -8 1475.17 32.5731   6
   6   2  -8 1423.46 27.6799   1
   2  -6  -8 1463.00 30.9601   3
   6   2  -8 1462.41 32.3034   5
  -2   6  -8 1470.65 32.7857   5
   2  -6  -8 1475.84 30.8665   5
  -3  -6  -8 519.996 14.5913   1
  -6   3  -8 518.547 14.4286   1
   6  -3  -8 542.657 18.3513   3
   6  -3  -8 544.396 14.8795   1
   3   6  -8 544.156 14.5684   1
  -6   3  -8 547.164 18.1542   3
   6  -3  -8 564.283 19.1510   5
  -6   3  -8 527.367 18.9147   6
   3   6  -8 528.036 17.9025   5
  -3  -6  -8 547.940 17.5114   3
  -3   6  -8 557.589 18.6240   6
   6   3  -8 534.151 14.7246   1
  -6  -3  -8 559.873 14.8162   1
  -6  -3  -8 536.753 18.6833   3
   6   3  -8 547.708 18.3071   5
  -3   6  -8 536.688 14.9158   1
   3  -6  -8 541.906 17.5206   3
   3  -6  -8 549.476 17.5961   5
  -3   6  -8 556.911 18.8622   5
  -6  -3  -8 548.732 17.3956   6
   3  -6  -8 537.109 14.8138   1
   6  -4  -8 2387.58 45.3763   3
   4   6  -8 2278.41 44.7144   5
  -4  -6  -8 2345.31 44.0495   3
  -6   4  -8 2304.61 44.4706   3
   4   6  -8 2248.24 41.0117   1
   6  -4  -8 2375.95 47.1673   5
  -6   4  -8 2288.13 41.0678   1
   6  -4  -8 2367.72 41.5078   1
  -4  -6  -8 2360.71 41.2380   1
  -6   4  -8 2335.66 47.3594   6
   6   4  -8 2268.11 41.0544   1
   4  -6  -8 2299.02 41.4763   1
  -6  -4  -8 2337.88 41.3917   1
   6   4  -8 2253.91 44.6117   5
  -4   6  -8 2328.65 46.6690   6
   4  -6  -8 2293.85 45.4195   5
  -6  -4  -8 2354.96 45.5400   3
  -4   6  -8 2317.59 41.0811   1
  -6  -4  -8 2361.17 44.0654   6
  -4   6  -8 2266.71 46.5611   5
   4  -6  -8 2369.30 44.4505   3
   5   6  -8 14.4323 5.13340   1
  -6   5  -8 16.5715 7.19035   6
  -5  -6  -8 25.8844 5.50265   1
  -6   5  -8 16.7929 5.42066   1
  -5  -6  -8 18.8448 6.60974   3
  -6   5  -8 21.6070 6.56437   3
   6  -5  -8 17.6294 5.31603   1
   5   6  -8 12.9223 6.43737   5
   5  -6  -8 19.0759 5.36352   1
  -5   6  -8 5.43418 6.68637   6
  -6  -5  -8 13.1327 5.79919   6
  -6  -5  -8 14.6632 4.98498   1
  -6  -5  -8 5.96082 6.32293   3
   6   5  -8 15.5283 5.15759   1
  -5   6  -8 23.8793 5.44361   1
   6   5  -8 15.6650 6.37762   5
   5  -6  -8 13.1219 7.32107   5
   5  -6  -8 21.3035 6.77379   3
   6  -6  -8 540.363 16.8729   1
  -6  -6  -8 568.649 16.9152   1
   6   6  -8 569.207 16.8451   1
  -6   6  -8 563.029 21.1916   6
  -6   6  -8 556.201 16.8197   1
  -6  -6  -8 585.983 19.1966   3
   6   6  -8 570.651 18.8205   5
   0   7  -8 1.93173 5.37147   6
   0  -7  -8 -0.8997 3.81869   1
   7   0  -8 -9.8514 3.57465   1
   0   7  -8 4.32584 4.12331   1
  -7   0  -8 -0.4099 5.97428   3
  -7   0  -8 -4.4255 5.32289   6
   0   7  -8 -2.2345 5.59121   5
   7   0  -8 -0.8647 5.83096   5
   0  -7  -8 0.30811 5.16129   3
  -7   0  -8 4.65091 4.21827   1
   1   7  -8 358.831 15.5257   5
   7  -1  -8 384.684 12.5819   1
  -7   1  -8 350.114 15.4888   6
  -1  -7  -8 374.740 12.5429   1
   1   7  -8 360.890 14.5206   6
   1   7  -8 386.286 12.6260   1
  -7   1  -8 369.134 16.1828   3
   7  -1  -8 350.150 15.8060   5
  -7   1  -8 374.889 12.5227   1
  -1  -7  -8 382.090 14.4910   3
  -1   7  -8 367.766 15.9791   5
  -7  -1  -8 389.580 15.4697   6
  -7  -1  -8 369.192 12.3573   1
  -1   7  -8 376.472 12.5435   1
  -7  -1  -8 382.294 16.0750   3
   7   1  -8 381.072 12.6109   1
   1  -7  -8 392.829 14.5534   3
  -1   7  -8 377.974 15.2295   6
   1  -7  -8 360.723 12.4634   1
   7   1  -8 352.584 15.1766   5
  -7   2  -8 118.181 10.6004   6
   2   7  -8 131.991 10.5348   5
  -7   2  -8 126.323 10.8246   3
  -2  -7  -8 140.695 8.52586   1
  -7   2  -8 120.161 8.53109   1
   2   7  -8 122.081 8.57500   1
   7  -2  -8 144.033 8.88462   1
   7  -2  -8 125.840 10.8795   5
  -2  -7  -8 136.189 10.0111   3
  -7  -2  -8 134.032 10.8848   3
   2  -7  -8 129.978 9.93224   3
   2  -7  -8 143.617 10.2951   5
   2  -7  -8 123.416 8.44798   1
  -2   7  -8 173.633 12.0089   6
   7   2  -8 143.405 11.1169   5
  -2   7  -8 132.216 8.82960   1
   7   2  -8 136.245 8.80915   1
  -2   7  -8 124.528 11.1139   5
  -7  -2  -8 135.604 8.61446   1
  -7  -2  -8 127.863 10.2794   6
   7  -3  -8 486.720 14.8466   1
  -7   3  -8 442.293 17.4206   3
   3   7  -8 459.098 14.2534   1
  -7   3  -8 494.390 18.8885   6
  -3  -7  -8 473.778 16.4433   3
  -3  -7  -8 477.456 14.6451   1
   7  -3  -8 490.812 19.0712   5
   3   7  -8 478.106 17.4429   5
  -7   3  -8 438.050 14.3944   1
  -3   7  -8 488.694 14.7332   1
   7   3  -8 453.259 16.8105   5
  -7  -3  -8 468.356 18.1351   3
  -3   7  -8 452.597 17.8537   5
  -7  -3  -8 454.848 16.4788   6
  -7  -3  -8 490.144 14.6167   1
   3  -7  -8 461.127 16.5563   5
   3  -7  -8 477.166 14.4016   1
   7   3  -8 479.769 14.7578   1
  -3   7  -8 468.123 18.1474   6
   3  -7  -8 491.923 16.7801   3
  -7   4  -8 7.66134 4.83322   1
   4   7  -8 14.0334 5.06421   1
   7  -4  -8 15.3454 5.43745   1
  -7   4  -8 11.9531 6.55824   3
  -4  -7  -8 18.9266 5.22314   1
  -7   4  -8 2.70732 6.55532   6
   4   7  -8 26.0625 6.65183   5
  -4  -7  -8 21.4633 6.45027   3
   7   4  -8 7.23629 4.64894   1
  -7  -4  -8 17.1279 5.24546   1
  -7  -4  -8 14.4254 6.01753   6
   7   4  -8 7.58480 5.85167   5
  -4   7  -8 1.10528 6.53358   6
   4  -7  -8 16.0871 6.54428   5
   4  -7  -8 13.2892 6.13609   3
  -7  -4  -8 15.5377 6.74525   3
  -4   7  -8 8.90991 4.94142   1
   4  -7  -8 12.3318 4.86302   1
   5   7  -8 384.206 14.1939   1
  -7   5  -8 383.209 14.0314   1
   5   7  -8 373.785 15.6915   5
   7  -5  -8 386.051 14.1637   1
  -7   5  -8 400.194 16.2778   3
  -7   5  -8 398.791 18.3593   6
  -5  -7  -8 367.654 13.9032   1
  -5  -7  -8 384.549 15.4286   3
  -7  -5  -8 396.923 16.6511   3
   7   5  -8 387.172 15.8613   5
   5  -7  -8 360.210 14.2553   1
  -7  -5  -8 386.425 14.0370   1
  -5   7  -8 383.267 14.1276   1
   5  -7  -8 413.766 16.3814   3
   7   5  -8 369.481 13.6843   1
  -5   7  -8 392.525 18.0470   6
   6   7  -8 -2.4787 5.90678   5
  -6  -7  -8 6.80054 6.31241   3
  -7   6  -8 6.46445 7.67708   6
  -6  -7  -8 -3.7803 4.87896   1
   7  -6  -8 -0.3527 4.96653   1
  -7   6  -8 -8.0906 4.80434   1
   6   7  -8 8.20362 5.62738   1
  -7  -6  -8 2.19791 5.16626   1
  -7  -6  -8 -8.8581 6.31686   3
  -6   7  -8 -8.5293 6.94523   6
  -6   7  -8 6.34712 5.26187   1
   6  -7  -8 0.19774 4.95153   1
   7   6  -8 1.92061 5.12901   1
   7   6  -8 -2.3023 6.07773   5
  -7  -7  -8 23.6492 7.46829   3
  -7   7  -8 20.6494 9.23722   6
  -7  -7  -8 11.7313 6.07586   1
  -7   7  -8 13.6829 6.14961   1
   7   7  -8 15.3634 6.27964   1
   7  -7  -8 14.6437 6.17090   1
   0  -8  -8 2605.92 46.8117   1
  -8   0  -8 2595.36 46.7368   1
   0  -8  -8 2602.67 46.9855   1
  -8   0  -8 2717.64 51.5747   6
   0   8  -8 2622.06 46.6591   1
   8   0  -8 2756.74 47.1785   1
   0   8  -8 2674.25 49.8114   6
   8   0  -8 2641.41 51.7174   5
   0   8  -8 2636.91 51.0159   5
  -8   0  -8 2653.32 51.8203   3
  -1  -8  -8 53.2763 6.63146   1
   1   8  -8 59.8175 6.92281   1
  -8   1  -8 37.4442 8.14612   3
   8  -1  -8 55.3589 6.90675   1
  -8   1  -8 54.6949 8.51937   6
   1   8  -8 44.8482 7.87310   5
   8  -1  -8 47.4713 8.09277   5
  -8   1  -8 54.6430 6.68633   1
  -1   8  -8 47.0401 6.52439   1
   8   1  -8 43.8485 6.52296   1
  -1   8  -8 57.2693 8.08652   6
  -8  -1  -8 58.2055 6.56055   1
  -8  -1  -8 66.1912 8.59714   6
  -8  -1  -8 57.9710 8.98918   3
   1  -8  -8 55.5133 6.72960   1
   8   1  -8 38.4832 7.83456   5
  -1   8  -8 29.8100 7.61000   5
  -8   2  -8 1369.77 33.3508   6
  -2  -8  -8 1425.35 29.0883   1
  -8   2  -8 1343.16 32.9590   3
  -8   2  -8 1396.48 28.9143   1
   2   8  -8 1383.75 32.0264   5
   8  -2  -8 1324.70 33.1425   5
   2   8  -8 1346.31 28.7549   1
   8  -2  -8 1398.28 29.3184   1
  -2   8  -8 1475.73 33.0185   6
   8   2  -8 1292.26 31.6675   5
   2  -8  -8 1344.99 28.8512   1
  -8  -2  -8 1427.97 31.8309   6
  -2   8  -8 1407.99 28.9017   1
   8   2  -8 1394.28 29.1060   1
  -8  -2  -8 1417.82 28.9151   1
  -2   8  -8 1422.70 33.5645   5
  -8  -2  -8 1362.96 33.0648   3
  -8   3  -8 96.8367 10.7731   6
   8  -3  -8 91.4819 8.26263   1
   8  -3  -8 80.1025 10.3854   5
  -3  -8  -8 97.5088 8.40872   1
   3   8  -8 89.7732 8.11615   1
   3   8  -8 83.3663 9.46521   5
  -8   3  -8 83.6403 7.79012   1
  -8   3  -8 93.7524 10.4591   3
  -8  -3  -8 94.7852 8.30901   1
   8   3  -8 94.6356 9.75700   5
   3  -8  -8 88.5835 8.20009   1
   3  -8  -8 92.4058 9.15173   5
  -8  -3  -8 81.4002 8.85914   6
   8   3  -8 90.5973 8.12748   1
  -3   8  -8 91.3991 9.84862   6
  -3   8  -8 92.8015 8.11194   1
  -8  -3  -8 83.2356 9.85070   3
   4   8  -8 1680.77 35.6564   5
  -8   4  -8 1595.90 36.2617   3
  -4  -8  -8 1599.75 32.8496   1
   8  -4  -8 1615.32 33.4673   1
  -8   4  -8 1595.33 38.3646   6
  -8   4  -8 1606.66 32.9379   1
   4   8  -8 1572.24 32.8534   1
   8   4  -8 1613.93 33.1873   1
  -4   8  -8 1621.12 33.2102   1
  -8  -4  -8 1596.85 36.9755   3
   4  -8  -8 1619.59 33.2123   1
   4  -8  -8 1621.63 35.9590   5
  -8  -4  -8 1615.72 33.0157   1
   8   4  -8 1651.37 35.6924   5
  -4   8  -8 1606.11 37.4411   6
   5   8  -8 55.4539 7.41225   1
  -8   5  -8 46.8363 6.95027   1
  -8   5  -8 76.2675 10.7227   6
  -5  -8  -8 53.1386 7.36736   1
  -8   5  -8 39.8815 8.41910   3
   8  -5  -8 66.1418 7.77346   1
   5   8  -8 66.4004 9.54054   5
  -5   8  -8 52.3673 9.37924   6
   8   5  -8 56.4314 7.34434   1
  -8  -5  -8 60.6631 7.24798   1
  -8  -5  -8 59.5703 9.25288   3
   8   5  -8 61.8282 8.51871   5
  -5   8  -8 59.7076 7.51173   1
   5  -8  -8 49.8170 7.48341   1
  -8   6  -8 1010.64 25.0737   1
   8  -6  -8 980.807 24.8734   1
   6   8  -8 985.398 25.0078   1
  -8   6  -8 920.476 30.6416   6
  -6  -8  -8 992.909 24.7750   1
  -6   8  -8 981.936 29.8641   6
  -8  -6  -8 1023.67 27.5506   3
   6  -8  -8 968.476 25.0619   1
  -6   8  -8 975.515 24.9146   1
  -8  -6  -8 982.399 24.8241   1
   8   6  -8 1003.54 24.9175   1
   8  -7  -8 0.13990 5.83947   1
  -7  -8  -8 0.94788 5.57379   1
   7   8  -8 3.92314 6.41306   1
  -8   7  -8 1.98619 9.08927   6
  -8   7  -8 2.71954 6.05846   1
  -7   8  -8 -2.5297 5.87384   1
  -7   8  -8 -8.2961 8.24712   6
  -8  -7  -8 8.90570 7.48723   3
   7  -8  -8 4.39048 5.94537   1
   8   7  -8 18.4218 6.51796   1
  -8  -7  -8 -4.4028 5.81763   1
  -8  -8  -8 1439.38 33.2692   1
   8  -8  -8 1426.78 33.6888   1
   8   8  -8 1446.84 33.5945   1
  -8   8  -8 1462.20 33.5836   1
  -8   8  -8 1441.45 41.7586   6
   0   9  -8 -3.9658 4.90076   1
   0  -9  -8 -9.8182 4.61483   1
   9   0  -8 -1.6770 6.69200   5
   9   0  -8 -4.1151 4.92801   1
  -9   0  -8 3.25029 5.11750   1
  -9   0  -8 -2.5595 5.71093   6
   0  -9  -8 0.84112 5.03465   1
  -9   0  -8 3.40641 7.04801   3
   0   9  -8 3.95359 6.64124   5
   1   9  -8 137.426 11.5128   5
  -9   1  -8 151.828 12.1623   6
  -9   1  -8 148.488 10.4331   1
   1   9  -8 158.269 10.4095   1
  -9   1  -8 123.430 12.1785   3
   9  -1  -8 119.280 11.6106   5
  -1  -9  -8 136.382 10.0522   1
   9  -1  -8 142.839 10.2526   1
  -9  -1  -8 153.900 10.2314   1
   9   1  -8 135.231 10.0552   1
  -9  -1  -8 133.685 12.4921   3
  -1   9  -8 153.192 12.3713   5
  -1   9  -8 149.396 10.4872   1
  -9  -1  -8 144.614 11.4787   6
   1  -9  -8 156.122 10.4648   1
   9   1  -8 138.279 11.8403   5
  -2  -9  -8 -1.1511 4.82534   1
  -9   2  -8 5.39209 6.84916   3
   9  -2  -8 6.50117 7.04862   5
  -9   2  -8 0.23149 5.07959   1
   2   9  -8 5.72143 5.33538   1
   9  -2  -8 3.52388 5.19936   1
   2   9  -8 5.95591 6.53422   5
  -9   2  -8 13.8458 7.30361   6
  -9  -2  -8 2.81533 5.98624   6
   9   2  -8 7.20510 6.39193   5
  -2   9  -8 -4.2599 4.81651   1
  -2   9  -8 -1.9318 6.08886   6
  -9  -2  -8 17.8226 7.62037   3
   2  -9  -8 -1.0144 5.10211   1
   9   2  -8 3.46018 5.25653   1
  -9  -2  -8 6.43705 5.24529   1
  -9   3  -8 426.739 18.5403   3
   3   9  -8 438.448 15.8259   1
   9  -3  -8 428.492 15.8396   1
  -9   3  -8 433.729 15.7419   1
  -9   3  -8 445.124 19.4972   6
   3   9  -8 426.192 17.5905   5
  -3  -9  -8 441.480 15.6484   1
  -3   9  -8 415.627 15.7062   1
  -3   9  -8 455.994 18.3372   6
   9   3  -8 417.495 15.4918   1
  -9  -3  -8 418.296 19.2885   3
   9   3  -8 424.801 17.6578   5
   3  -9  -8 444.931 15.8777   1
  -9  -3  -8 472.685 15.9868   1
   9  -4  -8 12.8130 6.09770   1
   4   9  -8 -2.9955 5.45373   1
  -4  -9  -8 3.84119 5.74945   1
  -9   4  -8 -2.8951 7.12123   6
  -9   4  -8 9.78436 5.71731   1
  -9   4  -8 20.8548 8.09765   3
  -4   9  -8 15.6028 6.13312   1
  -9  -4  -8 8.52828 5.86645   1
   4  -9  -8 4.07609 5.21346   1
  -9  -4  -8 11.1635 7.61024   3
   9   4  -8 5.92699 6.43083   5
  -4   9  -8 -5.7296 6.93344   6
   9   4  -8 2.89829 5.38005   1
  -9   5  -8 549.599 18.4900   1
   5   9  -8 567.500 18.5900   1
  -9   5  -8 525.287 23.0236   6
  -5  -9  -8 531.064 18.0870   1
   9  -5  -8 521.416 18.3370   1
  -9   5  -8 510.580 19.9398   3
  -5   9  -8 558.340 22.0420   6
  -9  -5  -8 570.963 18.3829   1
   9   5  -8 502.161 20.1747   5
  -5   9  -8 538.197 17.9365   1
   5  -9  -8 582.597 18.4590   1
   9   5  -8 543.716 18.1133   1
  -9  -5  -8 511.848 20.7768   3
  -9   6  -8 45.5149 10.9905   6
  -9   6  -8 4.65167 6.08419   1
   9  -6  -8 17.2008 6.50350   1
  -6  -9  -8 26.9823 7.03584   1
   6   9  -8 26.4099 7.04500   1
  -9  -6  -8 34.7403 8.64598   3
  -6   9  -8 18.3777 6.89709   1
  -9  -6  -8 22.1003 6.81820   1
   9   6  -8 29.5783 7.05338   1
  -6   9  -8 36.9713 9.83302   6
   6  -9  -8 35.7864 7.39445   1
  -9   7  -8 188.260 12.8201   1
   9  -7  -8 180.022 12.7487   1
  -9   7  -8 148.659 16.2481   6
   7   9  -8 170.375 12.6678   1
  -7  -9  -8 183.539 12.4248   1
  -9  -7  -8 186.151 12.6727   1
   9   7  -8 173.792 12.5320   1
   7  -9  -8 185.468 12.7309   1
  -7   9  -8 167.334 12.5702   1
  -7   9  -8 167.460 16.1112   6
  -9  -7  -8 183.089 13.7602   3
   8   9  -8 9.34743 7.03880   1
  -8  -9  -8 1.48068 6.27106   1
  -9   8  -8 9.14113 6.69332   1
   9  -8  -8 2.48068 6.45191   1
  -9   8  -8 -1.7325 11.0867   6
   8  -9  -8 9.04572 6.87008   1
  -9  -8  -8 4.46670 6.69826   1
  -8   9  -8 -15.266 10.2907   6
   9   8  -8 9.75173 6.96678   1
  -8   9  -8 0.03435 6.69127   1
   0 -10  -8 1158.76 27.5420   1
   0 -10  -8 1152.44 27.5238   1
  10   0  -8 1118.63 30.4899   5
 -10   0  -8 1157.44 27.4328   1
   0  10  -8 1156.79 27.4628   1
 -10   0  -8 1109.75 32.5952   3
   0  10  -8 1138.63 30.3131   5
 -10   0  -8 1165.55 30.3471   6
  10   0  -8 1165.45 27.5760   1
   1  10  -8 2.29663 5.49846   1
  10  -1  -8 8.74354 7.35836   5
 -10   1  -8 -9.0067 6.48068   6
   1  10  -8 -3.0834 6.89288   5
  10  -1  -8 12.1246 6.06771   1
 -10   1  -8 1.45220 5.60293   1
 -10   1  -8 2.49418 7.99466   3
  -1 -10  -8 4.30660 5.43111   1
   1 -10  -8 4.84416 5.63040   1
 -10  -1  -8 -8.0670 5.88082   6
  10   1  -8 19.3632 7.42564   5
 -10  -1  -8 5.90871 5.67311   1
 -10  -1  -8 10.3288 8.09087   3
  10   1  -8 -6.3382 5.02599   1
  -1  10  -8 9.97012 5.94217   1
  10  -2  -8 1131.29 27.1437   1
   2  10  -8 1063.69 26.6565   1
  10  -2  -8 1017.69 29.8854   5
   2  10  -8 1084.75 28.7922   5
  -2 -10  -8 1092.24 26.7379   1
 -10   2  -8 1083.20 26.7675   1
 -10   2  -8 1108.12 32.0839   3
 -10   2  -8 1051.13 29.7839   6
 -10  -2  -8 1080.57 31.5554   3
  -2  10  -8 1095.09 26.5633   1
   2 -10  -8 1092.65 26.7367   1
 -10  -2  -8 1088.59 26.4799   1
  10   2  -8 1086.35 26.8037   1
  10   2  -8 1118.21 29.0760   5
  -3 -10  -8 18.5304 6.30860   1
 -10   3  -8 14.7186 8.79747   3
   3  10  -8 8.85249 6.20883   1
 -10   3  -8 10.2871 6.08841   1
  10  -3  -8 4.10356 5.97466   1
 -10   3  -8 28.1401 8.44715   6
  -3  10  -8 15.9767 7.65706   6
  10   3  -8 17.5415 7.18595   5
 -10  -3  -8 20.0057 8.58911   3
  10   3  -8 9.83469 6.26596   1
   3 -10  -8 30.4751 7.10595   1
 -10  -3  -8 13.3356 6.34633   1
  -3  10  -8 13.7776 6.46813   1
  -4 -10  -8 937.967 25.5502   1
 -10   4  -8 994.243 25.7884   1
   4  10  -8 947.174 25.5998   1
 -10   4  -8 985.758 30.3524   6
 -10   4  -8 981.456 29.0270   3
  10  -4  -8 1004.44 25.8832   1
  -4  10  -8 961.008 25.5641   1
   4 -10  -8 1029.10 26.0076   1
 -10  -4  -8 1022.10 29.9245   3
  -4  10  -8 1037.83 29.3500   6
 -10  -4  -8 1024.27 26.0389   1
  10   4  -8 985.148 27.1358   5
  10   4  -8 956.512 25.5237   1
  -5 -10  -8 160.462 12.0505   1
 -10   5  -8 158.879 13.6443   3
   5  10  -8 139.268 11.3990   1
 -10   5  -8 151.680 15.0996   6
 -10   5  -8 130.073 11.0319   1
  10  -5  -8 178.734 12.6801   1
  -5  10  -8 158.430 14.2197   6
   5 -10  -8 163.975 12.1757   1
  -5  10  -8 143.556 11.2480   1
  10   5  -8 155.534 12.0906   1
 -10  -5  -8 141.838 13.2039   3
 -10  -5  -8 162.506 12.1820   1
 -10   6  -8 1164.06 29.9383   1
  -6 -10  -8 1245.27 30.2074   1
   6  10  -8 1142.81 29.5496   1
  10  -6  -8 1196.36 30.2887   1
 -10   6  -8 1216.08 37.5355   6
  10   6  -8 1200.65 29.8513   1
  -6  10  -8 1234.57 35.7050   6
 -10  -6  -8 1168.12 29.7784   1
 -10  -6  -8 1275.85 33.0684   3
   6 -10  -8 1164.26 30.0703   1
  -6  10  -8 1204.95 29.9707   1
  -7 -10  -8 26.9874 7.66954   1
 -10   7  -8 24.3535 7.53109   1
  10  -7  -8 26.1436 7.66296   1
   7  10  -8 28.4116 7.88194   1
 -10   7  -8 14.3746 11.9654   6
  -7  10  -8 32.9714 8.11903   1
  10   7  -8 26.7055 7.42639   1
 -10  -7  -8 31.1136 8.77492   3
   7 -10  -8 31.7332 7.72949   1
  -7  10  -8 40.9868 11.8965   6
 -10  -7  -8 32.6716 7.70317   1
  11   0  -8 -0.6470 6.03880   1
  11   0  -8 -5.1538 6.58655   5
 -11   0  -8 -4.1664 8.68517   3
   0 -11  -8 -4.8125 5.56097   1
 -11   0  -8 -3.6750 6.71557   6
   0  11  -8 -4.4303 5.54530   1
   0 -11  -8 4.11711 6.10395   1
 -11   0  -8 -2.9295 5.51744   1
 -11   1  -8 352.071 21.6114   3
 -11   1  -8 355.002 17.8975   6
  11  -1  -8 307.600 14.7254   1
 -11   1  -8 349.560 15.2781   1
   1  11  -8 313.861 14.8885   1
  11  -1  -8 324.068 17.7583   5
  -1 -11  -8 332.290 14.7858   1
 -11  -1  -8 287.487 14.5394   1
  11   1  -8 336.194 17.5106   5
 -11  -1  -8 313.861 20.6281   3
   1 -11  -8 318.109 15.1391   1
  -1  11  -8 336.615 15.1660   1
  11   1  -8 327.309 15.2304   1
 -11   2  -8 -6.3606 9.03848   3
 -11   2  -8 15.0731 7.77155   6
 -11   2  -8 5.95703 6.26847   1
  11  -2  -8 9.75476 8.38141   5
  11  -2  -8 -7.4625 6.02122   1
  -2 -11  -8 -0.2455 6.05643   1
   2  11  -8 3.61747 6.33079   1
  11   2  -8 -1.5660 6.77052   5
  11   2  -8 -2.9868 6.07171   1
   2 -11  -8 -0.6959 5.81015   1
 -11  -2  -8 1.64470 6.07659   1
  -2  11  -8 1.14073 5.92230   1
 -11  -2  -8 0.86664 8.45422   3
 -11   3  -8 144.331 14.7134   3
   3  11  -8 146.951 11.4659   1
 -11   3  -8 147.133 13.6827   6
 -11   3  -8 143.519 11.4945   1
  11  -3  -8 135.893 11.3270   1
  -3 -11  -8 121.736 10.5094   1
  11   3  -8 143.668 12.5385   5
 -11  -3  -8 127.760 13.7842   3
   3 -11  -8 146.572 11.6646   1
  -3  11  -8 146.350 11.6500   1
  11   3  -8 151.008 11.7225   1
 -11  -3  -8 163.257 12.3151   1
   4  11  -8 35.8687 7.98202   1
  11  -4  -8 31.5432 7.71560   1
 -11   4  -8 20.8430 9.30089   3
  -4 -11  -8 22.5811 7.21788   1
 -11   4  -8 33.7920 7.84369   1
 -11   4  -8 6.93745 8.81588   6
  -4  11  -8 27.4185 7.42744   1
   4 -11  -8 19.0262 7.06338   1
 -11  -4  -8 19.2954 8.94454   3
 -11  -4  -8 27.5117 7.51808   1
  11   4  -8 29.4203 7.57067   1
  -4  11  -8 24.1447 8.84870   6
 -11   5  -8 76.3793 12.8589   6
  -5 -11  -8 70.9499 9.53625   1
   5  11  -8 72.1839 9.91082   1
 -11   5  -8 76.5234 9.91382   1
  11  -5  -8 85.4656 9.81610   1
 -11   5  -8 62.7845 10.4642   3
   5 -11  -8 75.6849 9.60258   1
 -11  -5  -8 58.5022 8.75260   1
  11   5  -8 80.7775 9.56238   1
 -11  -5  -8 74.9353 11.5009   3
  -5  11  -8 69.4780 11.0259   6
  -5  11  -8 68.6459 9.41319   1
  11  -6  -8 9.56165 6.87268   1
 -11   6  -8 10.3542 10.5438   6
 -11   6  -8 6.56043 6.68334   1
   6  11  -8 0.42051 6.55524   1
  -6 -11  -8 -4.0913 6.27497   1
   6 -11  -8 -14.592 5.97237   1
  -6  11  -8 4.24365 9.44429   6
 -11  -6  -8 -10.388 7.42797   3
  -6  11  -8 1.64399 6.66885   1
 -11  -6  -8 -2.8977 6.24452   1
  11   6  -8 0.51989 6.64298   1
 -12   0  -8 579.291 20.3498   1
 -12   0  -8 547.725 27.1407   3
   0 -12  -8 584.307 20.6450   1
   0 -12  -8 579.920 20.1952   1
  12   0  -8 603.607 23.0233   5
   0  12  -8 563.935 20.2015   1
  12   0  -8 572.111 20.3393   1
  12  -1  -8 -8.6848 6.34702   1
 -12   1  -8 14.9387 8.00766   6
  -1 -12  -8 -5.2364 5.98551   1
   1  12  -8 -1.0066 6.73309   1
 -12   1  -8 -2.6260 6.36465   1
  -1 -12  -8 6.93353 6.80894   1
  12  -1  -8 1.51353 7.48785   5
 -12   1  -8 17.1432 11.2784   3
 -12  -1  -8 8.97253 9.83179   3
  -1  12  -8 -2.0297 6.55974   1
   1 -12  -8 -1.7531 6.28218   1
  12   1  -8 -2.9939 7.58479   5
 -12  -1  -8 -7.7688 6.30170   1
  12   1  -8 4.27008 6.76253   1
  12  -2  -8 1257.90 35.0691   5
  -2 -12  -8 1234.08 30.9454   1
 -12   2  -8 1272.44 34.3935   6
  12  -2  -8 1229.99 31.3143   1
   2  12  -8 1255.39 31.4995   1
 -12   2  -8 1294.99 31.5564   1
 -12   2  -8 1372.71 40.8437   3
  12   2  -8 1335.65 33.7644   5
 -12  -2  -8 1190.62 30.7805   1
  -2  12  -8 1252.16 31.1089   1
 -12  -2  -8 1241.97 37.8615   3
   2 -12  -8 1281.38 31.7315   1
  12   2  -8 1199.51 31.1335   1
   3  12  -8 45.2338 9.11693   1
 -12   3  -8 33.4711 9.86977   6
  12  -3  -8 34.0391 8.15898   1
  -3 -12  -8 54.1667 8.78377   1
 -12   3  -8 29.0785 10.7179   3
 -12   3  -8 51.6305 8.99127   1
  -3  12  -8 34.5217 8.39657   1
 -12  -3  -8 38.2829 11.1618   3
 -12  -3  -8 32.4672 8.11918   1
   3 -12  -8 39.1306 8.48410   1
  12   3  -8 41.3418 8.38437   1
  12  -4  -8 743.957 23.8986   1
 -12   4  -8 785.254 28.7244   3
   4  12  -8 767.114 24.0587   1
  -4 -12  -8 802.599 24.4599   1
 -12   4  -8 757.534 23.9748   1
 -12   4  -8 750.767 27.5302   6
 -12  -4  -8 731.197 27.8765   3
   4 -12  -8 749.054 24.1131   1
  -4  12  -8 751.147 24.0587   1
  12   4  -8 745.544 23.9338   1
 -12  -4  -8 806.274 24.3679   1
   0   0  -9 -6.8811 4.73736   5
   0   0  -9 -6.0537 4.46357   3
   0   0  -9 -3.5635 4.57665   6
  -1   0  -9 -0.7621 4.74185   3
   0  -1  -9 1.80358 4.87313   6
   0  -1  -9 -2.4538 4.70872   5
  -1   0  -9 3.56151 4.95481   5
   0   1  -9 -6.7570 4.24441   3
   0   1  -9 -0.8336 4.70420   6
   1   0  -9 -1.3895 4.79894   6
   1   0  -9 2.88086 4.84155   5
   1   0  -9 1.87106 4.92278   3
  -1   0  -9 -1.0693 4.81411   6
   0   1  -9 -4.1814 4.65721   5
   0  -1  -9 2.89064 4.77435   3
   1   1  -9 7.66227 5.10018   3
   1   1  -9 5.77150 5.25626   5
   1  -1  -9 2.67300 5.04852   3
   1  -1  -9 -0.5164 4.82668   5
  -1  -1  -9 -2.6897 5.02545   6
  -1   1  -9 7.30309 5.18097   5
   1   1  -9 -3.4965 4.62643   6
  -1  -1  -9 4.41654 4.63059   5
  -1   1  -9 -3.8889 4.52041   3
  -1   1  -9 7.79269 5.23912   6
   1  -1  -9 6.74369 5.18098   6
  -1  -1  -9 1.76610 4.87435   3
  -2   0  -9 85.7444 8.09063   5
   2   0  -9 72.2594 7.95819   3
   0  -2  -9 86.4555 8.40206   3
   0   2  -9 95.7386 8.47930   3
   0  -2  -9 89.4982 8.14021   5
   0   2  -9 82.2058 8.67511   5
  -2   0  -9 100.590 9.11934   6
   2   0  -9 89.4973 8.55423   5
   0  -2  -9 95.2199 8.90781   6
   0   2  -9 90.1914 8.57230   6
  -2   0  -9 98.5207 8.89601   3
   2  -1  -9 201.950 11.3537   3
  -1  -2  -9 202.940 11.6545   3
  -2   1  -9 209.500 11.6090   5
  -1  -2  -9 229.598 10.8978   5
  -1  -2  -9 221.903 12.2351   6
   1   2  -9 196.711 11.4764   6
   2  -1  -9 207.227 11.3827   5
  -2   1  -9 198.866 11.6217   6
  -2   1  -9 216.909 11.4142   3
   1   2  -9 176.805 11.1306   3
   1   2  -9 228.100 11.7303   5
  -1   2  -9 199.770 11.3005   5
   2   1  -9 225.888 12.0516   3
   1  -2  -9 232.188 11.5200   3
  -2  -1  -9 184.477 11.2416   6
   2   1  -9 202.424 11.9141   5
   1  -2  -9 206.867 11.4493   5
   2   1  -9 194.558 11.5794   6
  -1   2  -9 199.184 11.7807   6
  -1   2  -9 201.187 11.4201   3
  -2  -1  -9 205.424 11.0948   5
  -2  -1  -9 199.502 11.3648   3
  -2   2  -9 -1.8603 4.88428   5
   2   2  -9 -4.0083 4.92232   3
   2   2  -9 -0.7213 5.06751   5
  -2   2  -9 6.00540 4.93925   3
  -2  -2  -9 5.75503 5.36067   3
   2   2  -9 1.91387 5.03209   6
   2  -2  -9 2.44812 4.96179   5
   2  -2  -9 1.87059 5.35000   3
  -2  -2  -9 3.14961 4.62131   5
  -2   2  -9 -3.4815 5.19037   6
  -2  -2  -9 -7.6061 4.83807   6
   0   3  -9 1.94624 5.18748   6
   0   3  -9 -2.8335 4.93919   3
   0  -3  -9 -9.5742 4.01616   5
   3   0  -9 -0.3446 5.18578   5
  -3   0  -9 4.68336 5.30843   6
   3   0  -9 -4.0140 5.02880   3
   0   3  -9 -2.8532 4.74436   5
   0  -3  -9 4.52495 5.08987   3
  -3   0  -9 -0.9682 4.99316   5
  -3   0  -9 -0.3975 5.22929   3
  -1  -3  -9 17.7461 5.94610   6
  -3   1  -9 18.9043 6.41808   6
  -1  -3  -9 13.8373 5.17692   5
   3  -1  -9 19.9985 6.16722   3
  -3   1  -9 13.8021 5.78974   5
   1   3  -9 14.2172 5.72501   6
   1   3  -9 17.1384 5.91810   5
  -1  -3  -9 25.5778 6.13730   3
  -3   1  -9 17.8457 6.02109   3
   3  -1  -9 19.0815 6.26407   5
   1   3  -9 15.0042 5.65932   3
  -3  -1  -9 9.50333 5.74096   6
  -1   3  -9 3.80167 5.32031   3
  -1   3  -9 15.5246 6.04518   5
   1  -3  -9 16.6759 5.66736   3
   3   1  -9 5.56767 5.37176   5
  -3  -1  -9 23.5430 5.84021   5
   1  -3  -9 13.2701 5.61947   5
  -1   3  -9 12.4287 5.75801   6
   3   1  -9 13.5730 5.87209   3
  -3  -1  -9 14.7560 5.89185   3
   2   3  -9 7.36694 5.61168   6
  -2  -3  -9 6.87257 5.49460   3
  -3   2  -9 1.37850 5.32278   5
   3  -2  -9 9.09519 5.71027   5
   3  -2  -9 14.5739 5.82766   3
   2   3  -9 8.03770 5.62705   3
   2   3  -9 5.13276 5.87566   5
  -3   2  -9 13.5833 5.95750   6
  -2  -3  -9 1.56912 5.22798   6
  -2  -3  -9 5.51197 4.92768   5
  -3   2  -9 11.0601 5.83102   3
  -3  -2  -9 11.2724 5.83629   3
   3   2  -9 9.98618 5.61709   3
  -2   3  -9 4.98293 5.27898   3
   3   2  -9 10.3035 5.76878   5
  -3  -2  -9 1.04736 5.32644   6
   2  -3  -9 7.63757 5.60318   3
   2  -3  -9 6.49409 5.38071   5
  -2   3  -9 10.9493 5.94078   5
  -2   3  -9 11.0957 5.96569   6
  -3  -2  -9 8.18200 4.92152   5
  -3   3  -9 -0.8994 5.11259   5
  -3  -3  -9 -7.4779 5.29313   3
   3   3  -9 2.82799 5.27143   3
  -3  -3  -9 -2.3824 4.57091   5
   3  -3  -9 11.8109 5.81609   3
  -3  -3  -9 -6.9412 4.56015   6
   3   3  -9 -4.0390 4.72261   6
  -3   3  -9 -0.0139 5.35120   6
   3  -3  -9 -2.5975 5.06703   5
   3   3  -9 6.28857 5.64019   5
  -3   3  -9 -1.9660 5.07565   3
   0  -4  -9 21.8792 5.78325   5
   4   0  -9 20.5211 6.46812   5
   0  -4  -9 16.5618 5.96040   3
   0   4  -9 27.0926 6.90229   5
   0   4  -9 27.9253 6.53648   6
   0   4  -9 24.5969 6.25803   3
  -4   0  -9 28.1325 6.84659   6
   4   0  -9 32.9204 6.88663   3
  -4   0  -9 19.6442 6.10020   5
  -4   0  -9 17.8375 6.32081   3
   4  -1  -9 104.296 9.77238   5
  -1  -4  -9 104.772 9.17401   3
   1   4  -9 108.630 9.68479   5
  -4   1  -9 101.216 9.15203   3
   1   4  -9 120.274 9.53917   6
   4  -1  -9 94.6482 9.34367   3
  -4   1  -9 109.938 9.53355   5
  -1  -4  -9 109.455 8.62336   5
   1   4  -9 117.235 9.21739   3
  -4   1  -9 101.720 9.60414   6
   1  -4  -9 108.859 9.10281   5
  -4  -1  -9 89.4156 9.10312   6
  -1   4  -9 114.845 9.93444   6
   1  -4  -9 113.957 9.79114   3
  -1   4  -9 96.7955 9.23397   5
  -1   4  -9 97.0374 8.60821   3
  -4  -1  -9 110.740 9.82091   3
   4   1  -9 90.1382 9.16726   3
  -4  -1  -9 103.818 8.91210   5
   4   1  -9 83.3170 8.99526   5
   2   4  -9 71.7373 7.94673   6
   2   4  -9 69.9386 8.39569   5
  -4   2  -9 57.0749 8.25315   6
  -4   2  -9 71.0995 8.42669   3
   2   4  -9 67.3921 7.86902   3
  -2  -4  -9 67.7865 8.25206   3
  -2  -4  -9 75.7411 7.38668   5
   4  -2  -9 54.0737 7.90296   3
   4  -2  -9 77.9432 8.47816   5
  -4   2  -9 68.2542 8.44598   5
   2  -4  -9 62.4866 8.09107   3
  -2   4  -9 52.4939 7.90843   6
  -2   4  -9 67.1342 7.70983   3
  -4  -2  -9 59.3586 8.04594   3
  -4  -2  -9 61.9083 8.04394   6
   2  -4  -9 51.1947 7.33679   5
   4   2  -9 62.0402 8.16324   3
  -2   4  -9 50.4570 7.63802   5
   4   2  -9 72.5585 8.40053   5
  -4  -2  -9 77.0102 7.84726   5
  -4   3  -9 246.419 12.8545   3
  -3  -4  -9 243.218 12.7049   3
   3   4  -9 229.854 9.01474   1
   4  -3  -9 239.220 12.9533   3
  -4   3  -9 248.187 13.0272   5
  -4   3  -9 251.802 14.0624   6
   4  -3  -9 240.027 8.74982   1
   3   4  -9 237.510 12.1955   6
  -3  -4  -9 232.778 12.7370   6
   3   4  -9 272.046 12.9380   3
   3   4  -9 220.004 12.8736   5
   4  -3  -9 251.563 13.1123   5
   4   3  -9 256.852 8.86284   1
  -3   4  -9 229.632 13.1435   5
   3  -4  -9 259.337 8.90333   1
  -3   4  -9 229.658 11.7845   3
   3  -4  -9 239.090 12.7008   3
   3  -4  -9 257.522 13.3667   5
  -4  -3  -9 237.512 12.3823   6
   4   3  -9 238.870 12.5592   3
  -4  -3  -9 242.076 12.8645   3
   4   3  -9 199.954 12.7104   5
  -3   4  -9 247.813 13.6206   6
  -4  -4  -9 -0.4846 5.06563   6
  -4  -4  -9 -3.7025 5.41306   3
  -4   4  -9 0.76724 3.75171   1
   4  -4  -9 -4.0577 5.41595   5
  -4   4  -9 -7.2721 5.42155   6
  -4  -4  -9 -1.2570 3.59206   1
  -4   4  -9 -0.3398 6.09731   5
   4   4  -9 0.04586 5.72339   5
   4  -4  -9 3.89987 3.98287   1
   4   4  -9 2.41443 5.45308   3
   4   4  -9 3.24788 3.87088   1
   4  -4  -9 16.3081 6.46223   3
  -4   4  -9 10.9616 5.94919   3
   0  -5  -9 5.64972 5.01724   5
   5   0  -9 0.10828 5.53559   5
   5   0  -9 0.69678 5.45951   3
   0  -5  -9 -6.4985 5.15888   3
   0   5  -9 5.91255 6.01259   5
  -5   0  -9 1.42632 6.03714   3
   0   5  -9 4.17925 5.70307   6
  -5   0  -9 2.00858 5.44302   5
  -5   0  -9 -7.2872 4.95191   6
   0   5  -9 0.94122 4.93315   3
   5   0  -9 5.63303 3.50223   1
  -1  -5  -9 1.68629 5.26384   3
   1   5  -9 6.43587 5.90239   5
  -5   1  -9 6.03846 5.57783   5
   1   5  -9 2.18757 5.19705   3
  -1  -5  -9 8.35497 3.80303   1
   5  -1  -9 11.5458 5.98108   5
  -5   1  -9 -1.3742 5.62750   3
   5  -1  -9 -0.0723 3.54066   1
  -5   1  -9 0.75146 5.56293   6
   1   5  -9 5.90820 3.83774   1
   1   5  -9 -4.6621 5.19271   6
   5  -1  -9 6.48761 5.96437   3
   5   1  -9 4.53670 5.79416   3
  -5  -1  -9 6.35268 5.37160   5
  -1   5  -9 1.43176 5.70897   5
   1  -5  -9 1.96937 5.02036   5
   1  -5  -9 1.81789 5.40218   3
  -5  -1  -9 9.04020 6.35373   3
  -1   5  -9 -0.4932 5.60117   6
   5   1  -9 1.60432 3.68315   1
   5   1  -9 1.18009 5.78566   5
  -5  -1  -9 -1.0794 5.66400   6
  -1   5  -9 6.24726 5.23300   3
   1  -5  -9 7.93775 3.90971   1
   5  -2  -9 121.320 10.3664   3
  -5   2  -9 116.387 7.43824   1
   2   5  -9 137.297 10.4465   3
  -5   2  -9 131.127 10.6442   3
   2   5  -9 109.779 9.87880   5
  -2  -5  -9 113.642 9.75688   3
   5  -2  -9 114.496 10.5677   5
   5  -2  -9 117.502 7.26931   1
   2   5  -9 113.937 9.51817   6
  -2  -5  -9 119.777 7.24124   1
  -5   2  -9 119.139 10.4719   5
   2   5  -9 114.813 7.04961   1
  -5   2  -9 113.311 10.3443   6
   2  -5  -9 118.508 7.09039   1
  -2   5  -9 112.473 7.23480   1
   2  -5  -9 115.901 9.49074   5
  -5  -2  -9 117.872 7.04937   1
  -2   5  -9 114.808 9.27637   3
   5   2  -9 124.905 7.26566   1
  -5  -2  -9 111.892 10.1794   3
   5   2  -9 120.295 10.2640   3
  -5  -2  -9 128.642 10.2945   6
   2  -5  -9 116.315 10.0180   3
   5   2  -9 125.563 10.5886   5
  -2   5  -9 112.269 10.5458   5
  -2   5  -9 129.998 10.4480   6
  -5   3  -9 -2.3148 5.78670   5
   5  -3  -9 12.7966 6.54560   5
  -3  -5  -9 5.09646 5.83426   3
  -5   3  -9 13.8458 6.47040   3
   5  -3  -9 17.7333 4.58480   1
   3   5  -9 10.9623 5.68605   6
   5  -3  -9 10.0250 6.64454   3
   3   5  -9 7.84328 4.10702   1
  -3  -5  -9 8.26838 4.04368   1
   3   5  -9 1.54164 5.34410   3
  -5   3  -9 16.3763 6.83550   6
   3   5  -9 18.6925 6.71796   5
  -5   3  -9 14.2661 4.45407   1
  -5  -3  -9 9.33784 6.38451   3
  -3   5  -9 11.2380 6.32371   6
   5   3  -9 8.89347 6.40596   3
  -5  -3  -9 17.0551 4.36011   1
   5   3  -9 1.99340 5.63840   5
  -3   5  -9 8.20836 5.49698   3
  -3   5  -9 6.48570 4.16971   1
   3  -5  -9 8.29268 6.13418   5
   3  -5  -9 8.01056 6.28524   3
  -5  -3  -9 5.42398 5.66029   6
  -3   5  -9 6.29355 6.36566   5
   5   3  -9 11.5459 4.39349   1
   3  -5  -9 15.9823 4.47709   1
   5  -4  -9 15.9765 6.91254   5
  -4  -5  -9 9.89610 6.19936   3
  -5   4  -9 11.5416 6.52516   5
   4   5  -9 9.71637 4.44476   1
  -4  -5  -9 14.8585 4.51314   1
   4   5  -9 4.70777 5.85547   3
  -5   4  -9 6.74469 6.27961   3
  -5   4  -9 6.11848 4.30359   1
   5  -4  -9 7.48644 6.47486   3
  -5   4  -9 -0.8066 6.11144   6
   4   5  -9 6.42394 5.86512   5
  -4  -5  -9 11.5004 6.07484   6
   5  -4  -9 0.36412 4.01329   1
   4  -5  -9 7.24891 4.21295   1
   4  -5  -9 -0.0981 6.03401   3
  -4   5  -9 13.8128 6.07594   3
  -4   5  -9 3.85058 6.49961   5
  -5  -4  -9 3.15049 6.31932   3
   4  -5  -9 4.09049 5.79444   5
   5   4  -9 1.00566 4.07835   1
  -5  -4  -9 11.8553 6.27386   6
  -4   5  -9 2.55566 6.47652   6
  -4   5  -9 8.51563 4.34296   1
   5   4  -9 14.9942 6.91827   3
  -5  -4  -9 6.36891 4.18536   1
   5   4  -9 -0.7402 5.65949   5
   5   5  -9 2.70026 4.42395   1
  -5  -5  -9 -6.8827 5.70245   3
  -5  -5  -9 2.61211 4.40850   1
   5  -5  -9 1.98672 6.62149   5
  -5   5  -9 8.75295 7.28444   5
  -5   5  -9 6.18037 4.72859   1
   5  -5  -9 -1.3553 4.58960   1
   5   5  -9 3.18329 5.88328   5
   5   5  -9 4.54011 6.17332   3
  -5   5  -9 -2.8014 6.21173   6
  -5   5  -9 6.93116 6.38610   3
  -5  -5  -9 -3.6686 5.50771   6
   5  -5  -9 -5.2561 5.75228   3
  -6   0  -9 245.278 9.49432   1
   6   0  -9 235.319 9.71446   1
   0  -6  -9 239.187 12.7928   3
   6   0  -9 262.515 14.3579   3
   0   6  -9 228.073 9.61705   1
   0   6  -9 251.666 13.7918   5
   0  -6  -9 267.849 9.87839   1
  -6   0  -9 246.270 13.0059   5
  -6   0  -9 250.079 14.0964   6
   6   0  -9 258.707 14.2928   5
   0  -6  -9 245.918 9.72709   1
  -6   0  -9 236.096 13.6089   3
   0   6  -9 244.855 13.2530   6
  -1  -6  -9 80.1065 8.71282   3
  -6   1  -9 78.0631 6.28764   1
   6  -1  -9 80.3013 6.58283   1
   1   6  -9 72.2033 8.94548   5
   6  -1  -9 45.4156 8.50187   5
   6  -1  -9 75.7699 9.50748   3
   1   6  -9 86.5019 8.80799   6
  -6   1  -9 80.8255 9.51278   6
   1   6  -9 87.6632 6.53005   1
  -6   1  -9 68.8302 9.17366   3
  -1  -6  -9 80.2282 6.33967   1
  -6   1  -9 72.4718 8.85086   5
  -6  -1  -9 65.1690 8.80966   3
   6   1  -9 78.4889 9.07440   5
   6   1  -9 81.1796 6.48757   1
   1  -6  -9 93.1949 8.82266   5
  -1   6  -9 78.1810 9.22971   5
  -6  -1  -9 83.0817 9.39729   6
  -1   6  -9 74.3246 6.31574   1
  -1   6  -9 70.8965 8.78635   6
  -6  -1  -9 82.5444 6.40198   1
   1  -6  -9 74.6042 8.44418   3
  -6  -1  -9 80.3840 8.57923   5
   1  -6  -9 77.3079 6.40011   1
   6   1  -9 76.8178 9.66676   3
   2   6  -9 65.1635 8.64622   5
  -6   2  -9 46.4595 8.26587   6
  -6   2  -9 51.1225 8.40779   3
   2   6  -9 58.4567 7.71817   6
  -2  -6  -9 62.8445 6.06459   1
  -6   2  -9 47.8350 8.14787   5
   6  -2  -9 51.0044 8.49467   5
   2   6  -9 54.1162 5.84858   1
   6  -2  -9 67.5981 6.36151   1
  -6   2  -9 58.7415 5.90075   1
  -2  -6  -9 69.1216 8.49934   3
   6  -2  -9 48.5232 8.33899   3
  -2   6  -9 60.0052 8.49151   6
  -6  -2  -9 65.1911 8.38140   6
   2  -6  -9 59.3641 6.06857   1
  -2   6  -9 75.7178 6.37490   1
  -6  -2  -9 55.9144 8.78876   3
   2  -6  -9 56.8450 8.00930   3
   6   2  -9 49.7609 5.83538   1
  -2   6  -9 65.5043 9.03711   5
   6   2  -9 52.9650 8.41436   3
   6   2  -9 58.3202 8.70568   5
  -6  -2  -9 51.0081 5.66338   1
   2  -6  -9 48.4556 7.32326   5
  -6   3  -9 34.7514 7.70339   3
  -6   3  -9 42.8817 5.72226   1
   3   6  -9 32.4203 5.25034   1
  -6   3  -9 40.9071 8.48333   6
   3   6  -9 27.9225 7.33470   5
  -3  -6  -9 26.2191 6.97789   3
  -3  -6  -9 39.2573 5.60214   1
   6  -3  -9 25.3205 7.94855   3
   6  -3  -9 25.6539 5.37494   1
   6  -3  -9 16.6418 7.33183   5
  -3   6  -9 35.9570 8.02024   5
   6   3  -9 31.6508 5.38545   1
  -3   6  -9 38.4165 8.00578   6
  -6  -3  -9 34.4092 7.23247   6
   3  -6  -9 30.1399 7.32257   5
   3  -6  -9 44.2577 5.75791   1
  -6  -3  -9 38.8570 5.40503   1
  -6  -3  -9 27.1097 7.33553   3
   6   3  -9 28.6606 7.13625   5
  -3   6  -9 38.4507 5.54906   1
   3  -6  -9 37.4953 7.47234   3
   6  -4  -9 4.37520 7.22537   3
   6  -4  -9 0.72365 6.59418   5
  -4  -6  -9 -5.9552 4.25450   1
  -4  -6  -9 -0.9342 5.64247   3
   4   6  -9 0.23247 6.22576   5
  -6   4  -9 -0.7053 6.28076   3
  -6   4  -9 7.16085 6.96779   6
   4   6  -9 -3.0705 4.32752   1
   6  -4  -9 11.3296 4.80776   1
  -6   4  -9 6.56363 4.56191   1
   4  -6  -9 -0.0813 6.31896   3
  -4   6  -9 1.73177 6.88199   6
   6   4  -9 8.47844 4.62512   1
   4  -6  -9 10.0475 4.84281   1
  -6  -4  -9 5.25455 4.45405   1
  -6  -4  -9 5.41155 5.86095   6
  -4   6  -9 -3.0927 6.45354   5
   6   4  -9 5.66351 6.20964   5
   4  -6  -9 11.9088 6.57778   5
  -4   6  -9 -0.0889 4.57112   1
  -6  -4  -9 -8.2529 5.78451   3
  -6   5  -9 45.1313 8.09111   3
   6  -5  -9 43.4549 8.69564   5
   6  -5  -9 33.9103 6.05924   1
  -5  -6  -9 38.3644 7.92393   3
  -5  -6  -9 26.8367 5.84762   1
   6  -5  -9 33.4171 7.97500   3
   5   6  -9 33.7797 7.48377   5
   5   6  -9 40.2726 6.34767   1
  -6   5  -9 44.9932 6.35016   1
  -6   5  -9 30.3292 8.55131   6
   5  -6  -9 37.6437 8.22592   5
  -5   6  -9 30.5110 8.25400   6
  -6  -5  -9 28.8579 6.08663   1
  -6  -5  -9 32.7990 7.81812   3
   5  -6  -9 27.8927 7.77245   3
  -6  -5  -9 35.9569 7.39151   6
   6   5  -9 35.6787 6.08230   1
  -5   6  -9 42.7829 6.30498   1
   6   5  -9 28.1940 7.65788   5
   5  -6  -9 39.6522 6.00192   1
  -6   6  -9 5.55357 5.25961   1
   6   6  -9 -3.3756 4.76115   1
  -6  -6  -9 2.38115 6.24328   3
  -6   6  -9 3.61080 7.35381   6
   6   6  -9 4.09538 6.14538   5
   6  -6  -9 -6.9189 6.33830   5
   6  -6  -9 -7.6458 4.57475   1
  -6  -6  -9 -1.2487 4.75415   1
   0   7  -9 4.01295 5.81812   6
  -7   0  -9 0.01010 6.68277   3
   0   7  -9 1.05019 6.41222   5
   0   7  -9 7.17599 4.51733   1
   0  -7  -9 4.84728 5.60370   3
   7   0  -9 3.25219 6.16651   5
   0  -7  -9 -0.3353 4.26612   1
   7   0  -9 4.69249 4.47301   1
  -7   0  -9 -9.6715 5.86315   6
   0  -7  -9 2.10220 4.27164   1
  -7   0  -9 5.59251 4.26434   1
  -1  -7  -9 1.23788 5.58744   3
   1   7  -9 -0.9362 5.88988   6
  -7   1  -9 6.30139 4.50916   1
  -1  -7  -9 2.64376 4.34726   1
   1   7  -9 6.20891 6.36401   5
  -7   1  -9 -1.1100 6.24878   6
   1   7  -9 3.23968 4.27981   1
  -7   1  -9 0.53327 6.19506   3
   7  -1  -9 4.75391 6.46609   5
   7  -1  -9 8.85954 4.57588   1
  -1   7  -9 7.21237 6.25288   6
  -1   7  -9 7.26297 6.64458   5
  -7  -1  -9 10.4842 4.62409   1
  -7  -1  -9 -5.8222 5.79975   6
   7   1  -9 5.91798 4.39805   1
   7   1  -9 7.08106 6.41277   5
   1  -7  -9 3.38227 5.68105   3
  -7  -1  -9 2.33941 6.46887   3
   1  -7  -9 3.64568 4.53262   1
  -1   7  -9 -2.1243 4.24405   1
   7  -2  -9 103.474 10.7664   5
   7  -2  -9 112.432 8.29844   1
   2   7  -9 117.759 8.20634   1
  -7   2  -9 111.287 8.19818   1
   2   7  -9 103.096 10.4783   5
  -2  -7  -9 113.994 8.10638   1
  -2  -7  -9 102.450 9.78899   3
  -7   2  -9 76.1585 9.91780   6
  -7   2  -9 95.7984 10.5702   3
  -2   7  -9 89.7054 10.1729   5
   2  -7  -9 86.9633 8.88817   5
  -7  -2  -9 116.932 10.4404   6
   7   2  -9 87.0223 9.73051   5
  -7  -2  -9 106.806 8.27529   1
   7   2  -9 120.790 8.55588   1
  -2   7  -9 106.014 7.95886   1
  -2   7  -9 98.7389 10.2593   6
   2  -7  -9 112.212 8.59836   1
   2  -7  -9 97.4743 9.89888   3
  -7  -2  -9 91.9601 10.5690   3
   3   7  -9 4.04030 6.49377   5
   3   7  -9 6.48667 5.01950   1
  -7   3  -9 3.00625 6.60754   3
  -7   3  -9 7.26970 4.90531   1
  -7   3  -9 6.16417 6.93490   6
   7  -3  -9 19.1323 5.42468   1
   7  -3  -9 20.4241 7.96574   5
  -3  -7  -9 14.6834 5.35159   1
  -3  -7  -9 6.48153 6.45127   3
  -7  -3  -9 5.21821 7.15015   3
  -3   7  -9 16.6536 7.32402   6
   7   3  -9 7.74481 4.84381   1
  -3   7  -9 7.27787 4.94111   1
  -7  -3  -9 20.6485 5.31200   1
  -3   7  -9 13.9331 7.73805   5
   3  -7  -9 23.8382 6.99222   5
   7   3  -9 8.96327 6.23695   5
  -7  -3  -9 3.46946 6.07331   6
   3  -7  -9 5.41269 6.12540   3
   3  -7  -9 17.5920 5.23779   1
  -7   4  -9 62.0974 7.12765   1
  -4  -7  -9 59.0945 8.87093   3
   4   7  -9 58.3668 6.98973   1
  -7   4  -9 54.8723 9.39163   6
  -7   4  -9 55.8260 8.86470   3
   4   7  -9 54.0084 8.72327   5
   7  -4  -9 51.6170 6.73623   1
   7  -4  -9 41.1029 9.06400   5
  -4  -7  -9 55.0721 6.71252   1
   4  -7  -9 45.5803 6.74781   1
   7   4  -9 48.4122 8.52772   5
   4  -7  -9 49.1309 8.77215   5
  -7  -4  -9 53.5675 9.17901   3
   7   4  -9 71.4237 7.38447   1
  -7  -4  -9 49.6381 8.15679   6
  -7  -4  -9 56.5309 6.50901   1
   4  -7  -9 53.3914 8.50355   3
  -4   7  -9 57.0024 9.41110   6
  -4   7  -9 58.5713 6.81038   1
  -5  -7  -9 48.6024 8.49449   3
   7  -5  -9 48.7346 6.77628   1
  -7   5  -9 45.3271 8.56434   3
   7  -5  -9 48.3407 9.63468   5
  -5  -7  -9 53.0505 7.23297   1
   5   7  -9 37.7911 7.94715   5
  -7   5  -9 41.3226 9.35857   6
   5   7  -9 37.4022 6.82990   1
  -7   5  -9 43.8223 6.61989   1
   5  -7  -9 43.6634 8.80404   3
  -5   7  -9 49.0846 7.18319   1
  -7  -5  -9 42.2989 6.56833   1
   7   5  -9 32.6449 6.33964   1
   5  -7  -9 32.6045 6.37688   1
  -5   7  -9 39.3001 9.14786   6
  -7  -5  -9 54.7447 9.05657   3
   5  -7  -9 44.4137 8.55482   5
   7   5  -9 31.0597 7.57131   5
  -6  -7  -9 -4.0873 6.33039   3
   6   7  -9 -2.4271 6.50622   5
  -6  -7  -9 1.48619 5.33749   1
   7  -6  -9 -0.1780 5.33764   1
   6   7  -9 5.62502 5.47850   1
  -7   6  -9 6.05385 7.69089   6
   7  -6  -9 9.43554 8.08324   5
  -7   6  -9 -10.288 4.98227   1
   6  -7  -9 7.82916 5.60944   1
  -6   7  -9 -0.5748 7.72357   6
  -7  -6  -9 1.87323 7.10795   3
   7   6  -9 -8.0103 6.13019   5
   7   6  -9 5.82363 5.44921   1
  -6   7  -9 -10.913 4.85422   1
   6  -7  -9 3.33155 7.87074   5
  -7  -6  -9 -0.9200 5.14615   1
  -7   7  -9 -7.7397 7.91722   6
   7   7  -9 -5.2921 5.55416   1
  -7   7  -9 -3.2535 5.60097   1
   7  -7  -9 -10.004 8.13244   5
   7  -7  -9 2.93299 5.49674   1
  -7  -7  -9 -5.7793 7.20948   3
  -7  -7  -9 -0.7109 5.42996   1
   0  -8  -9 157.031 10.0352   1
  -8   0  -9 168.376 10.1012   1
   0  -8  -9 183.794 10.1804   1
   8   0  -9 153.753 10.0634   1
  -8   0  -9 164.596 12.4854   6
   0   8  -9 173.288 10.1126   1
   8   0  -9 170.246 12.9444   5
   0  -8  -9 175.329 12.9843   3
  -8   0  -9 160.250 13.0979   3
   0   8  -9 156.775 12.5033   5
   8  -1  -9 0.82063 4.55439   1
  -1  -8  -9 3.90301 6.26209   3
   1   8  -9 -7.8588 6.19151   5
  -1  -8  -9 -3.2803 4.36748   1
   1   8  -9 -8.2427 4.39939   1
   8  -1  -9 0.91654 6.76048   5
  -8   1  -9 0.60257 6.75764   3
  -8   1  -9 4.34798 4.92850   1
  -8   1  -9 0.13503 6.78402   6
  -8  -1  -9 2.45022 4.93138   1
   8   1  -9 7.14257 6.75395   5
  -1   8  -9 11.0750 6.62764   6
  -8  -1  -9 7.31397 7.12324   3
   8   1  -9 -2.5949 4.50065   1
  -1   8  -9 -1.4908 4.83886   1
   1  -8  -9 7.60517 6.66343   3
   1  -8  -9 -10.425 4.08773   1
  -8  -1  -9 -3.3420 6.27286   6
  -1   8  -9 -7.6263 6.99780   5
   8  -2  -9 12.9123 7.47021   5
  -2  -8  -9 10.4925 6.67547   3
   8  -2  -9 6.85616 5.17455   1
  -8   2  -9 11.8851 7.35715   6
  -8   2  -9 10.5720 7.10136   3
  -2  -8  -9 6.15843 5.05117   1
   2   8  -9 12.3368 7.19937   5
  -8   2  -9 6.74258 5.03837   1
   2   8  -9 3.46527 5.07298   1
   8   2  -9 1.53237 6.13352   5
  -2   8  -9 2.85516 4.96300   1
  -8  -2  -9 9.85827 6.83458   6
   2  -8  -9 3.52528 5.12283   1
  -2   8  -9 20.1520 7.94989   5
   8   2  -9 11.7437 5.14971   1
   2  -8  -9 7.37122 7.37154   3
  -8  -2  -9 5.50603 6.98836   3
  -2   8  -9 14.1210 6.92258   6
  -8  -2  -9 14.8075 5.43395   1
  -8   3  -9 12.7237 7.68752   3
  -8   3  -9 -0.0313 7.15320   6
   3   8  -9 17.7069 7.36337   5
   3   8  -9 20.5517 5.83100   1
   8  -3  -9 7.76846 7.13954   5
   8  -3  -9 13.4268 5.66477   1
  -8   3  -9 17.1173 5.77998   1
  -3  -8  -9 15.1609 6.86937   3
  -3  -8  -9 10.3310 5.27276   1
   8   3  -9 12.7601 5.42223   1
  -3   8  -9 12.1664 5.50625   1
   8   3  -9 -2.3304 6.59976   5
  -8  -3  -9 26.4511 6.05372   1
  -3   8  -9 22.5371 7.91855   5
  -3   8  -9 5.34720 7.10097   6
  -8  -3  -9 10.6765 6.37857   6
  -8  -3  -9 3.47414 7.67989   3
   3  -8  -9 15.8121 5.38129   1
  -8   4  -9 10.4767 7.09759   3
   4   8  -9 10.4952 6.72919   5
   8  -4  -9 9.38345 5.77130   1
  -8   4  -9 11.1121 7.90214   6
  -4  -8  -9 11.0535 6.66136   3
  -8   4  -9 -1.5778 4.95675   1
   4   8  -9 8.37253 5.66827   1
  -4  -8  -9 3.59298 5.35655   1
   8  -4  -9 3.77277 7.48441   5
   4  -8  -9 2.58781 6.59313   5
  -4   8  -9 7.15338 5.36113   1
   4  -8  -9 12.1711 5.40295   1
   8   4  -9 -0.1214 4.74949   1
  -8  -4  -9 8.04854 5.05414   1
   8   4  -9 -3.6566 6.60839   5
  -4   8  -9 5.29004 7.07787   6
  -8  -4  -9 5.09390 7.58241   3
   5   8  -9 9.19791 5.86839   1
  -5  -8  -9 26.1060 7.77769   3
  -5  -8  -9 16.6621 6.09514   1
  -8   5  -9 18.5558 8.82886   6
   8  -5  -9 17.0051 8.58395   5
  -8   5  -9 19.7044 6.46564   1
   8  -5  -9 16.4260 6.33424   1
   5   8  -9 11.1068 7.23137   5
  -8   5  -9 22.6660 7.89104   3
  -5   8  -9 22.9391 6.51648   1
  -8  -5  -9 14.5569 7.57465   3
   5  -8  -9 8.20718 7.27532   5
   8   5  -9 25.3445 6.63434   1
  -5   8  -9 23.7872 8.51086   6
  -8  -5  -9 20.7320 6.30350   1
   5  -8  -9 16.0833 6.13171   1
   8   5  -9 16.0348 7.46334   5
  -6  -8  -9 142.005 12.1969   3
   8  -6  -9 144.368 11.1847   1
  -8   6  -9 138.634 10.7143   1
   6   8  -9 147.178 11.3616   1
   8  -6  -9 142.645 14.4305   5
  -6  -8  -9 155.281 11.1945   1
  -8   6  -9 161.976 15.3764   6
   6  -8  -9 141.585 10.8704   1
   8   6  -9 149.496 11.1112   1
  -8  -6  -9 162.875 11.0932   1
   8   6  -9 163.288 12.6909   5
  -6   8  -9 111.808 13.0263   6
  -6   8  -9 144.848 11.1427   1
   6  -8  -9 161.041 14.4313   5
  -8  -6  -9 178.358 13.8832   3
  -7  -8  -9 36.3966 7.38061   1
  -7  -8  -9 31.9055 8.68983   3
   7   8  -9 16.6654 6.90277   1
   8  -7  -9 20.9177 6.72033   1
  -8   7  -9 28.7751 7.11531   1
  -8   7  -9 15.9120 9.61833   6
   7  -8  -9 37.8412 10.4303   5
  -7   8  -9 15.3078 9.70141   6
  -7   8  -9 20.0729 7.11485   1
  -8  -7  -9 15.9056 6.75888   1
  -8  -7  -9 27.8844 8.53212   3
   7  -8  -9 20.0017 7.06044   1
   8   7  -9 21.2460 6.93707   1
  -8   8  -9 -5.8031 9.32999   6
  -8  -8  -9 6.66790 7.79672   3
   8  -8  -9 -3.6466 6.23700   1
   8   8  -9 -9.3192 6.34564   1
  -8   8  -9 4.23867 6.56031   1
  -8  -8  -9 0.22501 6.11357   1
   9   0  -9 -9.2637 6.43298   5
   0  -9  -9 0.18756 5.21067   1
  -9   0  -9 12.5482 5.43406   1
   0   9  -9 0.60761 7.23651   5
   9   0  -9 10.5977 5.75935   1
   0   9  -9 -0.8199 4.95176   1
  -9   0  -9 -5.0212 6.38290   6
  -9   0  -9 5.28544 7.80465   3
   0  -9  -9 4.60909 5.27216   1
   9  -1  -9 32.4587 6.45121   1
   1   9  -9 54.9338 7.29787   1
   1   9  -9 45.1950 8.81450   5
  -9   1  -9 37.9247 9.13585   3
  -9   1  -9 44.7351 6.58191   1
   9  -1  -9 25.4679 7.91889   5
  -9   1  -9 35.5360 8.91729   6
  -1  -9  -9 43.1081 6.81842   1
  -9  -1  -9 42.5586 9.38667   3
   9   1  -9 40.1002 6.83103   1
  -1   9  -9 46.2469 9.47709   5
  -1   9  -9 37.0712 6.75578   1
  -9  -1  -9 35.5284 6.70918   1
   9   1  -9 41.4013 8.50217   5
   1  -9  -9 42.4715 6.90499   1
  -9  -1  -9 42.0782 8.49299   6
   9  -2  -9 -8.7184 7.00253   5
   9  -2  -9 -5.4381 5.40080   1
  -9   2  -9 -8.5375 4.93556   1
   2   9  -9 0.11205 6.58470   5
  -9   2  -9 -0.1633 7.52625   3
   2   9  -9 -0.0024 5.45239   1
  -2  -9  -9 3.00935 5.45893   1
  -9   2  -9 -5.7318 6.97416   6
   2  -9  -9 7.65566 5.57210   1
  -9  -2  -9 5.95823 5.58379   1
  -2   9  -9 9.70000 5.57639   1
  -9  -2  -9 -1.0010 6.45437   6
   9   2  -9 2.24237 7.02496   5
  -2   9  -9 -2.7306 6.96389   6
  -2   9  -9 5.59326 8.31789   5
  -9  -2  -9 4.54996 7.47718   3
   9   2  -9 0.86068 5.56989   1
  -3  -9  -9 24.8828 6.64772   1
   9  -3  -9 29.1107 6.57503   1
   3   9  -9 31.7306 6.73974   1
  -9   3  -9 23.3744 8.71800   3
   3   9  -9 31.4739 8.03332   5
   9  -3  -9 22.0005 8.64222   5
  -9   3  -9 28.6760 8.83137   6
  -9   3  -9 11.1773 5.88564   1
  -9  -3  -9 11.5795 8.16846   3
  -9  -3  -9 23.2509 6.42157   1
   9   3  -9 19.6870 6.15946   1
  -3   9  -9 27.4097 6.62336   1
   3  -9  -9 19.7560 6.19843   1
   9   3  -9 33.0195 8.13639   5
  -3   9  -9 29.3722 8.53939   6
   9  -4  -9 75.8644 11.4915   5
  -4  -9  -9 98.3669 9.14266   1
   9  -4  -9 91.9339 8.82562   1
  -9   4  -9 72.4253 8.46245   1
   4   9  -9 103.049 10.9707   5
   4   9  -9 103.489 9.35762   1
  -9   4  -9 71.9563 10.5961   3
  -9   4  -9 86.1779 11.5692   6
  -4   9  -9 97.4123 9.21785   1
   9   4  -9 91.9932 9.01847   1
  -4   9  -9 83.6291 11.0994   6
   9   4  -9 96.4141 10.4273   5
   4  -9  -9 82.7188 8.88801   1
  -9  -4  -9 89.1103 8.84718   1
  -9  -4  -9 73.5419 11.0376   3
  -9   5  -9 28.6469 7.26286   1
   9  -5  -9 29.2077 7.35481   1
  -9   5  -9 18.0828 8.22296   3
  -5  -9  -9 28.7498 6.94332   1
   9  -5  -9 11.2611 9.33038   5
   5   9  -9 29.2071 7.16150   1
  -9   5  -9 31.1720 9.86154   6
   9   5  -9 11.9931 7.28569   5
   5  -9  -9 24.4374 6.95594   1
  -5   9  -9 12.1086 8.54079   6
   5  -9  -9 40.3111 9.22289   5
  -5   9  -9 27.6847 6.87307   1
  -9  -5  -9 26.9726 8.97428   3
  -9  -5  -9 15.2167 6.37818   1
   9   5  -9 36.0576 7.24353   1
  -9   6  -9 72.6813 12.2325   6
  -6  -9  -9 61.5243 8.57621   1
   9  -6  -9 43.0733 11.5065   5
  -9   6  -9 60.7988 8.63338   1
   6   9  -9 90.7814 9.53254   1
   9  -6  -9 65.9915 8.98446   1
   6  -9  -9 93.7411 12.0006   5
  -9  -6  -9 68.4490 10.7500   3
  -6   9  -9 70.1580 12.0213   6
  -6   9  -9 77.0229 9.27329   1
   6  -9  -9 64.9698 8.49140   1
   9   6  -9 72.6641 8.76090   1
  -9  -6  -9 85.4290 9.38245   1
  -9   7  -9 14.1445 10.0025   6
  -7  -9  -9 14.1860 6.84730   1
   7   9  -9 15.9605 6.99027   1
   9  -7  -9 9.31125 6.32412   1
  -9   7  -9 9.52631 6.47418   1
   7  -9  -9 12.1329 6.69299   1
  -7   9  -9 4.92618 9.29862   6
  -9  -7  -9 15.8543 6.78934   1
  -7   9  -9 17.0701 6.71998   1
   9   7  -9 19.1325 6.85898   1
  -9  -7  -9 10.6476 8.02269   3
  10   0  -9 72.5118 10.7414   5
 -10   0  -9 72.8660 11.6622   3
   0  10  -9 96.6753 9.11882   1
   0  10  -9 82.1794 11.0530   5
 -10   0  -9 83.1155 8.86602   1
   0 -10  -9 70.5809 8.34463   1
 -10   0  -9 75.5641 10.3125   6
   0 -10  -9 81.4136 8.78717   1
  10   0  -9 73.1685 8.36421   1
   1  10  -9 1.85994 5.55514   1
 -10   1  -9 -5.1897 8.28550   3
   1  10  -9 0.18764 7.31582   5
  10  -1  -9 -8.1577 7.40706   5
  -1 -10  -9 1.38500 5.67202   1
 -10   1  -9 5.33692 7.63700   6
  -1 -10  -9 2.89278 5.58643   1
  10  -1  -9 0.53832 5.67381   1
 -10   1  -9 -3.0530 5.44492   1
  10   1  -9 -0.6016 7.25617   5
   1 -10  -9 -6.7067 5.42007   1
 -10  -1  -9 10.0283 7.08136   6
 -10  -1  -9 5.16217 8.69805   3
 -10  -1  -9 -3.9988 5.68310   1
  -1  10  -9 4.34441 5.72817   1
  10   1  -9 -2.6653 5.64482   1
   2  10  -9 -6.4009 5.26537   1
  10  -2  -9 14.7402 8.47142   5
  -2 -10  -9 4.96036 5.94068   1
   2  10  -9 -3.7369 6.68591   5
 -10   2  -9 0.33227 7.76681   6
  10  -2  -9 -2.9798 5.58408   1
 -10   2  -9 12.5312 9.08688   3
 -10   2  -9 -7.9547 5.25638   1
  10   2  -9 -9.2541 6.58702   5
   2 -10  -9 7.92948 5.81762   1
  -2  10  -9 0.07296 5.49781   1
 -10  -2  -9 -2.5654 5.66934   1
 -10  -2  -9 8.80370 8.38013   3
  10   2  -9 -1.8897 5.85372   1
  10  -3  -9 132.152 10.6805   1
 -10   3  -9 142.012 11.2895   1
  -3 -10  -9 131.856 10.3205   1
  10  -3  -9 110.993 12.7925   5
 -10   3  -9 156.389 13.8399   6
 -10   3  -9 113.144 13.1347   3
   3  10  -9 130.046 10.3741   1
  -3  10  -9 120.989 12.4590   6
 -10  -3  -9 129.162 10.2988   1
  -3  10  -9 130.360 10.5227   1
  10   3  -9 151.705 11.4587   1
  10   3  -9 130.955 12.3554   5
   3 -10  -9 145.779 11.1302   1
 -10  -3  -9 133.108 13.5788   3
   4  10  -9 44.2256 7.93376   1
  -4 -10  -9 54.5381 8.51964   1
 -10   4  -9 29.9420 9.54945   6
 -10   4  -9 52.5986 8.20263   1
  10  -4  -9 30.3539 7.61292   1
  10  -4  -9 46.9524 10.5980   5
 -10   4  -9 55.7956 10.3108   3
  10   4  -9 55.8308 7.97196   1
  -4  10  -9 44.4967 7.83353   1
 -10  -4  -9 46.1299 10.1151   3
   4 -10  -9 34.3298 7.48902   1
 -10  -4  -9 50.6329 7.96068   1
  -4  10  -9 39.3538 9.69225   6
  10   4  -9 46.0086 9.21984   5
  10  -5  -9 69.0754 12.2486   5
 -10   5  -9 91.7557 13.2331   6
 -10   5  -9 91.6038 11.5772   3
   5  10  -9 94.5498 9.95109   1
 -10   5  -9 75.3400 9.40551   1
  -5 -10  -9 90.8811 9.98481   1
  10  -5  -9 86.6870 9.73779   1
  10   5  -9 106.562 10.4047   1
  -5  10  -9 86.9628 9.92517   1
 -10  -5  -9 75.7308 8.80382   1
 -10  -5  -9 91.3986 12.1321   3
  -5  10  -9 100.296 12.4021   6
   5 -10  -9 91.8373 9.97099   1
  10  -6  -9 27.4493 7.66680   1
   6  10  -9 27.0673 7.98016   1
 -10   6  -9 17.0894 10.7123   6
 -10   6  -9 23.2942 7.98013   1
  -6 -10  -9 31.9067 7.86781   1
   6 -10  -9 28.8098 7.67178   1
  -6  10  -9 33.6926 8.02755   1
 -10  -6  -9 23.0933 7.21107   1
  10   6  -9 25.0074 7.50241   1
  -6  10  -9 41.3352 11.0299   6
 -10  -6  -9 38.3839 9.94473   3
 -11   0  -9 0.19556 5.86037   1
   0  11  -9 -3.1402 5.80204   1
 -11   0  -9 2.36302 8.97136   3
 -11   0  -9 4.37917 7.26572   6
   0 -11  -9 2.56400 5.96977   1
   0 -11  -9 -9.8904 5.30524   1
  11   0  -9 6.80537 6.50497   1
  11   0  -9 -8.5089 6.92817   5
   1  11  -9 24.6921 7.22392   1
 -11   1  -9 30.6670 9.22348   6
 -11   1  -9 21.8064 10.3715   3
  11  -1  -9 20.2729 7.00752   1
   1  11  -9 28.8720 9.30449   5
  -1 -11  -9 33.7645 7.24748   1
  11  -1  -9 21.6771 8.93676   5
 -11   1  -9 17.6991 6.91281   1
  -1 -11  -9 6.38553 6.56683   1
  11   1  -9 13.4099 8.26273   5
  11   1  -9 20.6062 7.26318   1
 -11  -1  -9 22.7049 7.08734   1
 -11  -1  -9 25.4103 10.1593   3
  -1  11  -9 18.6036 6.71480   1
   1 -11  -9 9.76572 6.63338   1
   2  11  -9 8.79466 6.58301   1
  -2 -11  -9 10.0142 6.62456   1
  11  -2  -9 8.13053 6.27362   1
 -11   2  -9 10.2702 8.19632   6
  11  -2  -9 5.28434 8.09842   5
 -11   2  -9 10.7769 10.0820   3
 -11   2  -9 9.03230 6.62287   1
  11   2  -9 8.68185 6.79474   1
 -11  -2  -9 9.41592 6.96303   1
  11   2  -9 1.59905 7.57383   5
  -2  11  -9 -0.1703 6.40111   1
 -11  -2  -9 6.93313 9.25559   3
   2 -11  -9 10.7011 6.73939   1
  -3 -11  -9 -6.9792 5.88916   1
   3  11  -9 10.8195 6.88816   1
  11  -3  -9 4.62480 8.29994   5
  11  -3  -9 4.76636 6.61990   1
 -11   3  -9 -5.7223 6.38544   1
 -11   3  -9 -13.892 8.46530   3
 -11   3  -9 -5.7807 7.85843   6
   3 -11  -9 2.79599 6.08405   1
  11   3  -9 3.39901 6.16367   1
 -11  -3  -9 4.64470 9.00780   3
 -11  -3  -9 0.22464 6.18959   1
  -3  11  -9 12.3710 6.61521   1
  11   3  -9 2.26187 7.55353   5
  11  -4  -9 11.3495 9.03627   5
   4  11  -9 2.19209 6.60685   1
  -4 -11  -9 3.12783 6.27426   1
 -11   4  -9 -3.0346 8.33420   6
 -11   4  -9 3.09534 9.25505   3
 -11   4  -9 13.7971 6.60845   1
  11  -4  -9 1.46614 6.40499   1
 -11  -4  -9 -1.8161 8.37761   3
  11   4  -9 8.33674 6.79088   1
  -4  11  -9 -0.6267 6.55631   1
 -11  -4  -9 -1.4342 6.35265   1
   4 -11  -9 0.47230 6.22426   1
   0   0 -10 296.355 14.3802   6
   0   0 -10 283.946 13.6175   3
   0   0 -10 285.844 13.2789   5
   0   1 -10 -0.3774 5.41886   6
   0   1 -10 1.91503 5.60305   5
   1   0 -10 14.9610 6.09622   3
   1   0 -10 2.90384 5.43889   6
   0  -1 -10 6.52596 5.81226   3
   1   0 -10 1.87262 5.74163   5
   0   1 -10 -2.3918 5.18953   3
   0  -1 -10 -4.0338 5.46608   6
  -1   0 -10 1.19703 5.49679   3
   0  -1 -10 -3.0106 5.36190   5
  -1   0 -10 5.79855 5.80660   5
  -1   0 -10 3.58423 5.67287   6
   1  -1 -10 285.474 13.8054   3
   1  -1 -10 281.190 13.4469   5
   1   1 -10 280.624 14.2413   6
  -1  -1 -10 268.447 14.0843   3
  -1  -1 -10 277.943 13.8036   6
   1   1 -10 285.604 13.6285   3
  -1   1 -10 296.641 14.0331   6
  -1   1 -10 288.255 13.6773   3
  -1  -1 -10 277.108 13.2566   5
   1   1 -10 281.191 14.2924   5
  -1   1 -10 304.831 13.8017   5
   2   0 -10 1579.75 34.8197   5
   2   0 -10 1662.68 35.1091   3
  -2   0 -10 1612.34 34.6361   3
   0   2 -10 1587.29 34.2738   3
   0  -2 -10 1600.95 33.9523   5
   0   2 -10 1623.61 35.4014   6
   0  -2 -10 1569.88 34.5946   3
   0   2 -10 1568.55 34.8606   5
  -2   0 -10 1588.02 35.3594   6
  -2   0 -10 1574.16 34.1206   5
  -2   1 -10 40.8458 7.43128   5
   1   2 -10 57.5501 8.19048   5
   1   2 -10 57.9207 8.07682   6
  -2   1 -10 63.3199 8.42203   3
  -1  -2 -10 42.0323 7.71318   3
  -2   1 -10 47.2257 7.89601   6
   1   2 -10 40.8152 7.34819   3
   2  -1 -10 51.3031 7.69325   5
  -1  -2 -10 44.8268 7.71443   6
   2  -1 -10 52.2064 8.07777   3
  -1  -2 -10 56.2666 7.61275   5
   2   1 -10 48.3598 7.73638   6
  -2  -1 -10 42.1313 6.81975   5
  -1   2 -10 41.4715 7.07342   3
   2   1 -10 53.6797 8.09568   3
   1  -2 -10 44.7145 7.44991   5
   2   1 -10 15.6382 6.52877   5
  -2  -1 -10 46.1524 7.94557   3
  -1   2 -10 44.9215 7.71603   6
  -1   2 -10 39.3788 7.44265   5
  -2  -1 -10 41.5631 7.45686   6
   1  -2 -10 40.1520 7.57261   3
   2  -2 -10 2375.36 46.9622   5
   2   2 -10 2439.92 47.4934   6
  -2  -2 -10 2418.62 47.9098   6
   2  -2 -10 2441.88 47.2711   3
  -2  -2 -10 2474.71 46.2595   5
  -2  -2 -10 2443.42 47.2061   3
   2   2 -10 2524.58 47.4677   3
  -2   2 -10 2481.27 48.4347   6
  -2   2 -10 2401.46 47.5498   5
   2   2 -10 2490.33 47.9960   5
  -2   2 -10 2440.18 46.5508   3
   0  -3 -10 -0.7410 5.27933   5
  -3   0 -10 0.20332 5.92975   3
   3   0 -10 -7.7632 5.63180   3
  -3   0 -10 -1.6320 5.41447   5
   0   3 -10 -3.0474 5.24876   5
   0   3 -10 -11.093 5.41438   6
   0  -3 -10 7.67651 6.28516   3
   0   3 -10 -2.3115 5.50014   3
  -3   0 -10 2.49888 5.75074   6
   3   0 -10 6.20114 6.07696   5
   3  -1 -10 305.428 14.6496   5
  -3   1 -10 332.731 15.6249   6
   1   3 -10 341.139 14.9944   6
  -1  -3 -10 308.766 14.7004   3
  -3   1 -10 321.506 15.0266   3
   3  -1 -10 288.706 14.5117   3
  -3   1 -10 305.059 14.5972   5
   1   3 -10 321.601 14.9261   5
  -1  -3 -10 344.784 14.0509   5
   1   3 -10 333.149 14.2309   3
  -1   3 -10 279.135 14.5635   5
   1  -3 -10 319.513 14.2956   5
  -3  -1 -10 324.777 15.4063   6
  -3  -1 -10 307.078 14.2147   5
  -1   3 -10 319.598 15.1759   6
  -1   3 -10 317.153 14.4690   3
   3   1 -10 326.570 14.9358   5
  -3  -1 -10 337.386 15.1114   3
   3   1 -10 328.167 14.8954   3
   1  -3 -10 311.439 14.4976   3
   2   3 -10 23.3145 6.79807   6
   3  -2 -10 33.3453 7.42160   5
  -3   2 -10 32.2477 7.45513   5
  -2  -3 -10 53.4940 7.28950   5
  -3   2 -10 31.4563 7.24142   3
  -2  -3 -10 32.6466 7.34991   6
   2   3 -10 41.1826 7.80148   5
  -3   2 -10 39.7623 7.81442   6
   3  -2 -10 28.7816 7.53550   3
  -2  -3 -10 22.9059 7.28044   3
   2   3 -10 21.6890 6.92614   3
   2  -3 -10 37.5422 7.81772   3
  -3  -2 -10 34.7900 6.79676   5
   3   2 -10 32.0968 7.57109   5
  -2   3 -10 28.8910 7.18050   3
  -3  -2 -10 33.6984 7.43250   6
   2  -3 -10 46.4120 7.66862   5
  -2   3 -10 40.2955 7.63183   5
  -2   3 -10 39.4938 7.79982   6
   3   2 -10 32.6680 7.24615   3
  -3  -2 -10 36.1179 7.60017   3
  -3  -3 -10 586.433 18.1431   5
   3   3 -10 563.167 19.2234   3
  -3   3 -10 584.416 19.0808   3
   3   3 -10 503.379 19.0873   5
  -3  -3 -10 536.938 18.9574   3
   3   3 -10 579.589 18.9142   6
   3  -3 -10 559.137 19.4205   5
   3  -3 -10 558.411 19.2781   3
  -3   3 -10 574.296 20.0445   5
  -3   3 -10 557.333 19.7885   6
  -3  -3 -10 541.943 19.3564   6
   4   0 -10 2138.01 43.7383   3
   0  -4 -10 2153.68 43.2563   3
  -4   0 -10 2180.92 43.1625   5
   0  -4 -10 2156.31 42.0370   5
   0   4 -10 2176.49 41.9858   3
  -4   0 -10 2109.01 43.2974   3
   0   4 -10 2214.95 44.1344   6
   0   4 -10 2203.95 44.4801   5
   4   0 -10 2095.81 43.9235   5
  -4   0 -10 2134.89 44.4067   6
   4  -1 -10 -9.1482 5.37834   3
  -4   1 -10 -1.5950 5.76691   5
  -4   1 -10 -6.0061 5.55027   3
  -4   1 -10 9.16561 6.82029   6
   1   4 -10 -0.5497 5.79216   5
   1   4 -10 -4.1550 5.70509   3
   4  -1 -10 6.09739 6.45810   5
   1   4 -10 15.1632 6.52829   6
  -1  -4 -10 5.52072 5.77849   3
  -1  -4 -10 6.58400 5.68813   5
  -1   4 -10 -0.4196 5.51053   3
  -4  -1 -10 -3.4210 5.79283   6
   4   1 -10 -2.0931 5.84021   5
   4   1 -10 4.28439 6.11760   3
  -1   4 -10 3.77920 6.17442   5
   1  -4 -10 2.85887 5.91409   3
   1  -4 -10 -8.4309 5.22601   5
  -4  -1 -10 -7.5118 5.98808   3
  -1   4 -10 14.2470 6.54919   6
  -4  -1 -10 6.94296 5.74280   5
   4  -2 -10 1736.85 37.9027   5
   4  -2 -10 1710.44 37.5304   3
  -4   2 -10 1677.11 37.2515   5
  -2  -4 -10 1638.38 36.2053   3
   2   4 -10 1781.49 36.8067   6
  -4   2 -10 1629.11 36.2376   3
   2   4 -10 1773.46 36.2551   3
   2   4 -10 1703.84 37.3517   5
  -4   2 -10 1718.53 38.2062   6
  -2   4 -10 1670.37 37.7411   6
  -2   4 -10 1649.25 37.4434   5
  -4  -2 -10 1757.35 35.5325   5
   4   2 -10 1667.00 36.5926   3
  -4  -2 -10 1662.74 36.8283   3
  -2   4 -10 1732.02 35.9011   3
   2  -4 -10 1601.42 36.2482   3
   2  -4 -10 1669.18 36.2889   5
   4   2 -10 1649.02 37.0303   5
  -4  -2 -10 1646.17 37.0821   6
   3   4 -10 31.9928 7.44851   5
   3   4 -10 35.7675 7.31990   6
  -4   3 -10 22.2643 7.21332   6
   4  -3 -10 44.9201 8.09540   3
  -4   3 -10 33.4011 7.91421   5
   4  -3 -10 19.8769 7.21526   5
  -3  -4 -10 28.3695 7.37453   6
  -4   3 -10 26.8615 7.50436   3
   3   4 -10 41.5282 7.63565   3
  -3  -4 -10 28.1528 7.31298   3
   4   3 -10 26.3953 7.50991   5
   3  -4 -10 41.6748 8.02534   3
   3  -4 -10 25.2054 7.19689   5
   4   3 -10 38.5619 7.77720   3
  -4  -3 -10 32.6231 7.61318   3
  -3   4 -10 26.4063 7.32373   6
  -3   4 -10 42.7549 7.64509   3
  -4  -3 -10 35.7475 7.56109   6
  -3   4 -10 43.2517 8.05030   5
  -4  -4 -10 573.409 19.8521   6
   4  -4 -10 579.440 19.9337   3
  -4   4 -10 573.071 19.1669   3
  -4   4 -10 585.289 20.8080   6
   4   4 -10 570.922 19.7964   3
  -4   4 -10 549.725 20.7909   5
   4   4 -10 543.418 20.1543   5
  -4  -4 -10 555.623 20.1095   3
   4  -4 -10 560.402 20.1972   5
  -5   0 -10 -10.059 5.34202   5
   0  -5 -10 4.90675 5.50802   5
   0   5 -10 -3.1934 6.17876   5
   0  -5 -10 -0.4911 5.57087   3
  -5   0 -10 -5.7139 6.20959   6
   0   5 -10 1.01600 5.50719   3
   5   0 -10 0.68495 6.25614   5
   0   5 -10 -4.9435 5.80751   6
   5   0 -10 1.36922 6.33179   3
  -5   0 -10 -8.6736 5.63863   3
  -5   1 -10 233.692 14.5995   6
  -1  -5 -10 242.661 13.3701   3
   5  -1 -10 252.292 14.2727   3
   1   5 -10 272.650 13.7663   3
   1   5 -10 258.209 13.7755   6
  -5   1 -10 247.676 13.9889   3
   5  -1 -10 248.578 14.4188   5
   1   5 -10 230.684 14.0367   5
  -5   1 -10 250.801 14.2560   5
   5   1 -10 247.814 14.0646   3
  -1   5 -10 249.041 13.2360   3
  -5  -1 -10 272.062 14.2068   6
  -1   5 -10 235.615 13.7445   6
   5   1 -10 254.779 14.1792   5
   1  -5 -10 237.741 13.3561   3
   1  -5 -10 254.563 13.2634   5
  -5  -1 -10 264.011 13.6478   5
  -5  -1 -10 270.767 14.9798   3
  -1   5 -10 232.301 14.7825   5
  -2  -5 -10 -3.6828 5.70637   3
   2   5 -10 -1.2275 5.86660   6
   2   5 -10 -0.6919 6.11158   3
  -5   2 -10 6.97328 6.43072   3
   5  -2 -10 0.38787 6.25567   3
   5  -2 -10 16.2336 6.84812   5
   2   5 -10 4.85701 6.27705   5
  -5   2 -10 2.61584 6.51086   6
  -5   2 -10 3.93794 6.42526   5
   2  -5 -10 7.72536 6.18019   5
   2  -5 -10 -0.1285 6.25219   3
  -2   5 -10 -2.8712 6.64678   5
  -5  -2 -10 -0.2857 6.40632   6
  -2   5 -10 1.81792 5.53975   3
  -2   5 -10 1.96591 6.35273   6
  -5  -2 -10 -0.3897 6.19642   3
   5   2 -10 7.50496 6.69907   3
   5   2 -10 4.89598 6.27761   5
  -5   3 -10 311.000 16.3355   5
   5  -3 -10 288.072 15.8995   3
  -5   3 -10 286.411 16.0838   6
  -5   3 -10 306.643 14.9176   3
   3   5 -10 286.438 15.5598   5
   3   5 -10 328.434 15.1377   6
   3   5 -10 352.140 15.2876   3
  -3  -5 -10 326.399 15.2742   3
   5  -3 -10 346.922 16.8189   5
  -3   5 -10 303.659 15.5923   6
  -5  -3 -10 329.496 15.5488   6
   5   3 -10 328.871 15.6290   3
   5   3 -10 314.264 16.0552   5
  -5  -3 -10 324.010 16.1975   3
  -3   5 -10 310.341 14.5339   3
   3  -5 -10 327.590 15.6306   5
   3  -5 -10 312.533 15.3585   3
  -3   5 -10 332.992 16.2627   5
  -5   4 -10 14.1447 7.74186   5
   5  -4 -10 29.4452 8.11451   3
  -5   4 -10 18.1164 7.79620   6
   4   5 -10 27.1572 7.66248   5
   5  -4 -10 46.7038 8.71087   5
   4   5 -10 43.5564 8.25732   3
  -4  -5 -10 14.6564 7.10492   3
  -5   4 -10 33.6481 7.84016   3
  -5  -4 -10 48.7171 8.17358   6
   5   4 -10 51.9700 8.85732   3
   4  -5 -10 35.0987 7.87257   3
  -5  -4 -10 27.8870 7.73379   3
  -4   5 -10 41.3725 7.87040   3
   5   4 -10 29.8909 7.71216   5
  -4   5 -10 34.9325 8.29125   6
   4  -5 -10 32.5532 7.74857   5
  -4   5 -10 20.8477 7.99046   5
   5  -5 -10 227.210 14.7323   5
   5  -5 -10 217.936 13.9767   3
   5   5 -10 212.915 13.6249   5
  -5  -5 -10 237.399 13.8957   6
  -5   5 -10 259.059 14.2730   3
  -5   5 -10 221.844 15.6512   5
   5   5 -10 227.941 14.6018   3
   5   5 -10 249.481 11.2553   1
  -5   5 -10 224.665 15.4591   6
   5  -5 -10 237.527 10.7976   1
  -5  -5 -10 249.439 15.0415   3
   0   6 -10 1857.42 39.7448   6
   0   6 -10 1892.26 41.2990   5
   6   0 -10 1875.87 41.2320   5
  -6   0 -10 1801.46 40.7849   6
  -6   0 -10 1835.43 39.1607   5
   6   0 -10 1837.29 40.9337   3
   0  -6 -10 1876.70 38.9836   3
  -6   0 -10 1827.53 40.5878   3
   1   6 -10 12.7928 7.01637   5
   6  -1 -10 13.9289 7.81050   3
  -1  -6 -10 12.4920 6.97584   3
  -6   1 -10 17.1182 7.03147   5
   1   6 -10 19.8484 7.11777   6
  -6   1 -10 18.1612 7.46634   3
  -6   1 -10 12.9676 7.30192   6
   6  -1 -10 20.7352 7.51714   5
   1  -6 -10 24.0393 7.22287   3
   6   1 -10 8.56316 7.20476   5
   6   1 -10 7.59584 7.32932   3
  -6  -1 -10 15.5117 6.86628   6
  -6  -1 -10 20.8885 7.50504   3
  -1   6 -10 27.6655 7.71838   5
   1  -6 -10 19.0744 7.06624   5
  -1   6 -10 5.94527 6.44132   6
  -6   2 -10 1567.17 36.1291   3
   2   6 -10 1547.32 34.6455   6
  -2  -6 -10 1542.75 35.0798   3
  -6   2 -10 1574.00 36.1815   5
   2   6 -10 1562.62 36.5719   5
   6  -2 -10 1573.42 37.2578   5
   6  -2 -10 1529.04 36.6530   3
  -6   2 -10 1536.51 36.9814   6
  -2   6 -10 1583.56 36.5678   6
  -6  -2 -10 1540.50 36.6127   3
  -6  -2 -10 1592.41 36.2436   6
   6   2 -10 1589.95 36.5087   5
   6   2 -10 1589.74 36.3620   3
  -2   6 -10 1576.08 37.2163   5
   2  -6 -10 1549.60 34.6210   5
   2  -6 -10 1576.94 35.2951   3
  -6   3 -10 191.977 13.5642   3
  -6   3 -10 181.139 13.8510   5
   6  -3 -10 145.700 12.9124   3
   3   6 -10 174.731 13.4725   5
   6  -3 -10 164.391 13.4119   5
  -3  -6 -10 169.129 12.5350   3
  -6   3 -10 153.102 12.7959   6
  -6  -3 -10 152.294 12.9294   3
  -3   6 -10 138.352 12.6331   5
   6   3 -10 172.507 12.7202   5
   3  -6 -10 179.505 12.6773   5
   3  -6 -10 173.687 12.5402   3
  -6  -3 -10 210.130 13.5102   6
  -3   6 -10 183.590 13.8810   6
  -4  -6 -10 1144.36 29.8496   3
   4   6 -10 1155.91 30.3204   5
   6  -4 -10 1219.22 25.4947   1
   4   6 -10 1171.28 24.7526   1
  -6   4 -10 1166.16 30.0002   3
  -6   4 -10 1199.75 32.1798   6
   6  -4 -10 1205.20 31.9862   5
   6  -4 -10 1181.26 31.0952   3
   6   4 -10 1190.38 30.7462   5
   4  -6 -10 1171.22 30.2283   3
   4  -6 -10 1193.57 25.1232   1
   6   4 -10 1201.43 25.0930   1
  -6  -4 -10 1146.07 29.8896   6
  -4   6 -10 1126.66 31.3280   5
  -4   6 -10 1151.45 31.7044   6
   4  -6 -10 1186.44 30.1643   5
  -6  -4 -10 1180.22 31.0097   3
  -5  -6 -10 20.1215 7.57719   3
   5   6 -10 12.1281 7.64056   5
  -6   5 -10 13.1057 5.14147   1
  -5  -6 -10 9.37560 5.34608   1
  -6   5 -10 19.0390 8.68598   6
   5   6 -10 15.7357 5.60967   1
   6  -5 -10 30.5914 5.89001   1
   6  -5 -10 6.76392 7.18330   3
  -6   5 -10 23.5581 7.73639   3
   6  -5 -10 10.8346 7.38904   5
   5  -6 -10 19.3580 7.67655   3
  -6  -5 -10 8.02680 6.80727   6
  -6  -5 -10 6.78960 5.15710   1
   5  -6 -10 29.1887 8.33745   5
   6   5 -10 18.8459 8.12659   5
   5  -6 -10 15.6480 5.63226   1
   6   5 -10 21.1084 5.85165   1
  -5   6 -10 30.7898 8.79720   6
  -6  -5 -10 7.24390 7.11300   3
  -5   6 -10 22.7930 5.76564   1
  -6   6 -10 1589.45 32.4523   1
   6   6 -10 1583.91 37.2067   5
   6  -6 -10 1615.03 32.8913   1
  -6  -6 -10 1602.86 32.5323   1
   6  -6 -10 1591.84 37.4396   3
  -6   6 -10 1598.48 40.1129   6
   6  -6 -10 1590.39 39.2680   5
  -6  -6 -10 1585.25 37.5239   3
   6   6 -10 1640.27 32.7012   1
   7   0 -10 -7.6578 6.77846   5
   0   7 -10 7.28573 6.45546   6
   0  -7 -10 -2.2406 6.25393   3
  -7   0 -10 9.59047 6.84299   6
   7   0 -10 3.98347 4.72880   1
  -7   0 -10 -8.1123 6.33384   3
   0   7 -10 -4.2835 6.29901   5
  -1  -7 -10 443.019 17.3536   3
   7  -1 -10 436.520 13.8356   1
  -7   1 -10 449.777 18.6734   6
  -7   1 -10 417.581 18.4080   3
   1   7 -10 441.991 19.2015   5
   7  -1 -10 445.928 19.4454   5
  -7  -1 -10 446.406 18.7319   6
   1  -7 -10 420.027 17.8121   3
   7   1 -10 436.698 13.8679   1
  -7  -1 -10 442.178 18.9338   3
  -1   7 -10 435.956 18.8882   5
   7   1 -10 428.402 19.0151   5
  -1   7 -10 462.045 18.8246   6
   7  -2 -10 47.0667 6.32796   1
  -7   2 -10 56.2598 9.61501   6
   2   7 -10 49.4348 9.16043   5
  -2  -7 -10 46.3848 7.15762   1
   7  -2 -10 26.5497 8.59176   5
   2   7 -10 45.9995 6.64557   1
  -7   2 -10 52.4225 9.27416   3
  -2  -7 -10 45.1374 8.33633   3
   7   2 -10 42.8218 6.15221   1
   2  -7 -10 44.8266 8.31939   3
  -7  -2 -10 42.1336 8.26655   6
   7   2 -10 54.6891 9.21971   5
   2  -7 -10 50.5860 6.24969   1
  -2   7 -10 50.1079 9.51902   5
  -7  -2 -10 45.9580 8.87263   3
  -2   7 -10 25.3685 8.13290   6
  -3  -7 -10 174.019 13.1243   3
  -7   3 -10 143.156 13.0085   6
  -3  -7 -10 155.057 9.80857   1
   3   7 -10 167.374 13.5166   5
  -7   3 -10 173.913 13.5292   3
   7  -3 -10 145.688 13.3882   5
   3   7 -10 172.410 9.83890   1
   7  -3 -10 156.428 10.1630   1
  -7  -3 -10 157.472 10.3527   1
  -3   7 -10 169.928 9.63633   1
   3  -7 -10 164.160 12.7300   5
  -7  -3 -10 149.338 12.8774   3
   3  -7 -10 149.592 12.3942   3
   7   3 -10 177.747 10.1345   1
   7   3 -10 152.792 12.4861   5
  -3   7 -10 190.332 14.4780   6
  -3   7 -10 158.986 13.3473   5
   3  -7 -10 143.180 9.46664   1
  -7  -3 -10 189.857 13.2991   6
  -4  -7 -10 -10.667 6.54386   3
   7  -4 -10 9.19228 8.20056   5
  -7   4 -10 -4.0415 4.83672   1
   7  -4 -10 9.18922 5.30784   1
  -4  -7 -10 1.21767 4.99959   1
  -7   4 -10 2.35120 6.98244   3
   4   7 -10 14.3701 7.12715   5
   4   7 -10 6.27237 5.15715   1
  -7   4 -10 6.12855 7.79753   6
   4  -7 -10 -8.6873 6.54378   5
   4  -7 -10 -6.0595 4.65250   1
  -7  -4 -10 -4.3049 7.08885   3
   7   4 -10 4.49865 5.26274   1
  -7  -4 -10 -7.9604 5.97066   6
  -7  -4 -10 -5.1869 4.82632   1
  -4   7 -10 6.45904 5.16911   1
  -4   7 -10 -4.5795 7.26586   5
  -4   7 -10 14.8415 7.83272   6
   7   4 -10 -2.4265 6.29289   5
   4  -7 -10 1.33401 6.44521   3
  -7   5 -10 170.755 14.8085   6
   7  -5 -10 207.601 11.7388   1
  -5  -7 -10 233.982 11.5047   1
   5   7 -10 209.794 14.5338   5
   7  -5 -10 220.622 16.6268   5
  -7   5 -10 201.319 11.5631   1
   5   7 -10 252.151 12.0028   1
  -5  -7 -10 237.412 15.1683   3
  -7   5 -10 201.329 14.3553   3
  -7  -5 -10 180.505 14.4118   3
   5  -7 -10 205.175 11.5250   1
   7   5 -10 198.952 14.4800   5
  -5   7 -10 243.589 11.8266   1
   7   5 -10 216.696 11.5810   1
  -7  -5 -10 216.070 11.4138   1
   5  -7 -10 193.191 14.9806   5
  -5   7 -10 214.488 16.4431   6
   5  -7 -10 219.728 15.0678   3
   7  -6 -10 -6.6956 8.07988   5
  -7   6 -10 -0.7926 5.35262   1
  -6  -7 -10 -0.0732 6.84237   3
  -7   6 -10 1.70248 7.96161   6
  -6  -7 -10 -1.3702 5.57933   1
   6   7 -10 7.54178 5.94221   1
   7  -6 -10 1.90743 5.45982   1
   6   7 -10 3.06560 7.14587   5
  -6   7 -10 -9.2818 5.31938   1
  -7  -6 -10 6.10346 7.38082   3
   7   6 -10 7.87849 6.07494   1
   7   6 -10 7.94732 6.98277   5
   6  -7 -10 -1.9526 5.52440   1
  -7  -6 -10 4.29697 5.39948   1
   6  -7 -10 -4.1157 7.91283   5
  -6   7 -10 11.6740 8.68067   6
   7   7 -10 484.202 20.0309   5
   7  -7 -10 487.137 17.3629   1
  -7   7 -10 463.805 23.0016   6
   7  -7 -10 476.219 22.2717   5
   7   7 -10 500.757 17.3969   1
  -7  -7 -10 504.780 17.3676   1
  -7   7 -10 457.013 17.0252   1
  -7  -7 -10 493.117 20.5694   3
   0   8 -10 732.646 24.2032   5
  -8   0 -10 726.805 19.1229   1
  -8   0 -10 732.382 24.2968   6
   0   8 -10 721.602 18.9467   1
  -8   0 -10 699.961 24.6812   3
   8   0 -10 705.283 24.4846   5
   0  -8 -10 731.433 19.2958   1
   8   0 -10 763.399 19.4454   1
   0  -8 -10 731.512 22.5348   3
  -8   1 -10 28.1952 6.06891   1
  -1  -8 -10 35.2810 6.56322   1
   8  -1 -10 34.5478 6.50172   1
  -8   1 -10 35.2144 8.73489   6
  -1  -8 -10 36.4431 6.51090   1
   8  -1 -10 28.0018 8.33725   5
   1   8 -10 61.8858 9.69199   5
   1   8 -10 39.0837 6.51174   1
  -1  -8 -10 37.8744 8.20065   3
  -8   1 -10 32.6644 8.94322   3
  -1   8 -10 39.2632 6.35714   1
  -1   8 -10 35.7165 8.67155   6
  -8  -1 -10 37.7966 8.66304   6
  -8  -1 -10 25.7691 8.53599   3
  -8  -1 -10 37.2916 6.27236   1
  -1   8 -10 28.4694 8.81165   5
   1  -8 -10 47.9721 8.79557   3
   8   1 -10 36.6174 8.41824   5
   8   1 -10 41.3854 6.51712   1
   1  -8 -10 39.0940 6.40536   1
   2   8 -10 868.902 26.5779   5
   8  -2 -10 828.196 21.2791   1
  -8   2 -10 869.195 27.3028   6
  -8   2 -10 839.212 21.0112   1
  -2  -8 -10 885.852 25.2389   3
  -2  -8 -10 919.572 21.5178   1
   2   8 -10 895.851 21.4094   1
   8  -2 -10 811.194 27.0424   5
  -8   2 -10 806.649 26.1052   3
  -2   8 -10 850.916 21.2744   1
  -2   8 -10 828.389 27.2177   5
  -8  -2 -10 836.524 27.0411   3
  -8  -2 -10 869.097 26.0148   6
  -2   8 -10 871.406 26.1949   6
   8   2 -10 829.962 26.4034   5
  -8  -2 -10 832.728 21.1276   1
   2  -8 -10 846.065 21.2667   1
   2  -8 -10 853.500 25.0646   3
   8   2 -10 860.045 21.2970   1
  -8   3 -10 -0.9978 7.56663   6
   8  -3 -10 5.41831 5.57916   1
  -8   3 -10 -1.1037 5.17988   1
  -3  -8 -10 5.17456 5.12732   1
  -8   3 -10 0.13921 7.49180   3
   3   8 -10 -1.5714 4.99945   1
   8  -3 -10 6.25340 7.85867   5
  -3  -8 -10 6.38785 6.99678   3
   3   8 -10 6.66629 7.42335   5
  -8  -3 -10 2.64031 6.52122   6
  -8  -3 -10 9.97142 7.80240   3
   3  -8 -10 9.64433 5.31768   1
   8   3 -10 2.74003 7.19069   5
   8   3 -10 0.73490 5.12788   1
  -3   8 -10 8.22961 5.44331   1
  -3   8 -10 8.97083 7.67781   6
  -3   8 -10 -4.2991 8.12212   5
  -8  -3 -10 6.62699 5.44106   1
   3  -8 -10 5.08049 7.02312   3
  -8   4 -10 1306.27 35.7906   6
  -8   4 -10 1349.26 29.2068   1
   8  -4 -10 1345.65 36.0598   5
  -4  -8 -10 1331.95 32.5758   3
   4   8 -10 1316.60 33.6461   5
  -8   4 -10 1348.42 34.2489   3
   8  -4 -10 1294.06 29.4152   1
  -4  -8 -10 1311.91 28.9093   1
   4   8 -10 1348.68 29.2812   1
  -4   8 -10 1311.98 35.2063   6
   4  -8 -10 1322.09 29.5113   1
  -4   8 -10 1330.04 29.1133   1
  -8  -4 -10 1273.35 34.4733   3
   4  -8 -10 1321.79 33.3336   5
   8   4 -10 1386.40 29.3941   1
   4  -8 -10 1296.56 32.6820   3
  -8  -4 -10 1329.32 29.0624   1
   8   4 -10 1305.70 33.4130   5
   8  -5 -10 14.7414 9.12351   5
  -8   5 -10 14.3022 8.19860   3
   5   8 -10 20.8258 6.54555   1
  -5  -8 -10 18.0266 6.40642   1
  -5  -8 -10 22.5358 8.04595   3
  -8   5 -10 13.3541 6.14551   1
   5   8 -10 20.2053 8.23076   5
  -8   5 -10 -0.3179 8.70343   6
   8  -5 -10 22.0691 6.58701   1
  -8  -5 -10 21.6795 6.38470   1
   8   5 -10 20.1852 6.47089   1
  -5   8 -10 32.6360 6.80517   1
   5  -8 -10 25.1338 6.56237   1
   5  -8 -10 15.1912 8.50023   5
  -5   8 -10 25.1516 9.10700   6
  -8  -5 -10 21.7619 8.54612   3
   8   5 -10 29.4897 8.42642   5
   5  -8 -10 9.34167 8.08462   3
  -8   6 -10 1165.90 28.1803   1
  -6  -8 -10 1199.23 28.3357   1
  -6  -8 -10 1160.01 31.4169   3
   8  -6 -10 1208.50 35.4263   5
  -8   6 -10 1219.56 36.3919   6
   6   8 -10 1235.62 28.7328   1
   8  -6 -10 1206.42 28.7151   1
   6  -8 -10 1254.74 34.1841   5
  -6   8 -10 1129.72 34.7911   6
  -6   8 -10 1213.14 28.5953   1
   6  -8 -10 1232.01 28.9959   1
   8   6 -10 1173.70 28.3795   1
   8   6 -10 1186.10 31.6619   5
  -8  -6 -10 1166.95 32.9387   3
  -8  -6 -10 1176.44 28.2023   1
   7   8 -10 15.0820 6.87255   1
   8  -7 -10 -0.4307 5.74505   1
   8  -7 -10 14.3461 10.0962   5
  -8   7 -10 18.9587 10.4517   6
  -7  -8 -10 9.66331 6.45263   1
  -7  -8 -10 27.0855 9.02365   3
  -8   7 -10 18.8315 6.77796   1
   8   7 -10 -0.4424 6.10369   1
  -8  -7 -10 6.79169 6.18721   1
  -8  -7 -10 6.17149 8.11694   3
   7  -8 -10 10.7239 6.54790   1
   7  -8 -10 4.84554 8.63726   5
  -7   8 -10 6.04419 6.49327   1
  -7   8 -10 -0.4080 9.44479   6
   0   9 -10 -11.064 7.36569   5
  -9   0 -10 -0.8067 6.97924   6
   0  -9 -10 2.45424 5.61950   1
   9   0 -10 -1.8091 7.38311   5
   9   0 -10 6.05872 5.79870   1
  -9   0 -10 0.63668 5.42336   1
   0   9 -10 -4.4383 4.86367   1
  -9   0 -10 18.0206 9.26136   3
  -9   1 -10 264.190 12.6868   1
   1   9 -10 244.633 15.5342   5
  -9   1 -10 279.806 17.2810   3
  -1  -9 -10 270.276 12.9460   1
  -9   1 -10 246.484 16.3832   6
   9  -1 -10 255.995 16.3086   5
   1   9 -10 272.101 13.0547   1
   9  -1 -10 260.185 12.8803   1
  -1  -9 -10 257.206 12.8100   1
   9   1 -10 255.335 16.1284   5
   9   1 -10 261.429 12.8565   1
   1  -9 -10 288.035 13.1872   1
  -1   9 -10 276.951 12.9277   1
  -1   9 -10 264.875 17.2981   5
  -9  -1 -10 269.878 12.8599   1
  -9  -1 -10 261.854 17.7950   3
  -9  -1 -10 253.796 16.1381   6
   2   9 -10 7.51471 7.51198   5
  -2  -9 -10 9.93754 5.92196   1
   9  -2 -10 -1.0728 5.34497   1
  -9   2 -10 5.71091 5.64297   1
   9  -2 -10 -8.8981 7.65175   5
  -9   2 -10 -7.3451 8.13953   3
   2   9 -10 14.3674 5.86240   1
  -9   2 -10 11.3824 8.13111   6
  -2   9 -10 -0.1007 8.26620   5
   9   2 -10 3.54166 5.81190   1
   2  -9 -10 -2.0139 5.45939   1
  -2   9 -10 8.75974 7.59215   6
   9   2 -10 0.28930 7.62840   5
  -2   9 -10 -0.8392 5.56861   1
  -9  -2 -10 4.18376 6.99345   6
  -9  -2 -10 13.5980 5.86428   1
  -9  -2 -10 1.00928 8.00137   3
   9  -3 -10 95.0850 9.19180   1
  -9   3 -10 81.4200 11.8829   6
  -9   3 -10 92.4545 9.17268   1
  -3  -9 -10 95.3679 9.30245   1
   9  -3 -10 85.3009 11.9267   5
  -9   3 -10 88.6742 11.9245   3
   3   9 -10 84.0643 9.01973   1
   3   9 -10 77.7398 10.8741   5
   3  -9 -10 79.5476 8.47970   1
  -3   9 -10 93.2161 11.7802   6
  -9  -3 -10 92.9591 12.2650   3
   9   3 -10 84.3738 10.9265   5
   9   3 -10 71.3552 8.25939   1
  -9  -3 -10 92.5415 8.59384   1
  -3   9 -10 93.4269 9.00785   1
  -4  -9 -10 5.24554 5.88081   1
  -9   4 -10 0.93419 8.08865   3
  -9   4 -10 -0.6732 5.61239   1
   9  -4 -10 -3.2699 5.87808   1
   4   9 -10 7.55040 5.75213   1
  -9   4 -10 -19.331 7.35835   6
   4   9 -10 6.32392 7.38500   5
   9  -4 -10 -9.1246 7.67069   5
   9   4 -10 4.47042 5.87950   1
  -4   9 -10 14.0557 8.72402   6
   9   4 -10 8.69692 7.84881   5
  -9  -4 -10 8.23956 8.30110   3
   4  -9 -10 2.98417 6.19927   1
  -4   9 -10 11.2663 6.31471   1
  -9  -4 -10 7.80470 5.52726   1
   9  -5 -10 161.228 12.0896   1
  -9   5 -10 179.079 14.1872   3
  -9   5 -10 168.656 12.0589   1
  -5  -9 -10 183.471 12.2546   1
   5   9 -10 187.502 12.5974   1
   9  -5 -10 164.006 15.5184   5
  -9   5 -10 152.513 15.1077   6
  -9  -5 -10 147.912 13.8617   3
  -5   9 -10 144.762 11.0616   1
   9   5 -10 183.284 14.2071   5
   9   5 -10 148.851 11.1891   1
   5  -9 -10 156.972 12.0709   1
  -9  -5 -10 163.577 11.9276   1
  -5   9 -10 162.745 15.1468   6
   0 -10 -10 1414.28 31.4388   1
   0  10 -10 1350.19 36.1233   5
  10   0 -10 1334.07 35.9246   5
 -10   0 -10 1438.95 31.4510   1
 -10   0 -10 1358.59 38.1240   3
  10   0 -10 1421.58 31.6374   1
 -10   0 -10 1395.01 35.7928   6
   0  10 -10 1359.28 30.9062   1
  10  -1 -10 81.2737 9.10727   1
  -1 -10 -10 83.5908 8.96512   1
 -10   1 -10 82.9676 11.3032   6
 -10   1 -10 75.8816 12.5590   3
  10  -1 -10 88.3871 11.7397   5
 -10   1 -10 74.5688 8.78711   1
   1  10 -10 78.0022 11.2418   5
  -1 -10 -10 81.2909 9.05374   1
   1  10 -10 86.8685 9.18635   1
  -1  10 -10 79.1110 11.6744   5
   1 -10 -10 85.5385 9.06573   1
 -10  -1 -10 77.9157 12.2058   3
 -10  -1 -10 76.7737 10.6876   6
 -10  -1 -10 94.7586 9.18267   1
  10   1 -10 65.2261 10.7854   5
  -1  10 -10 68.2251 8.46813   1
  10   1 -10 101.461 9.77557   1
   2  10 -10 1154.73 31.6524   5
  10  -2 -10 1088.74 27.1952   1
 -10   2 -10 1037.00 32.0497   6
  -2 -10 -10 1131.19 27.2288   1
 -10   2 -10 1073.48 33.1745   3
 -10   2 -10 1107.16 26.9973   1
   2  10 -10 1091.91 26.9524   1
  10  -2 -10 1077.62 32.4223   5
  10   2 -10 1136.04 27.4421   1
  -2  10 -10 1072.49 26.8347   1
 -10  -2 -10 1116.47 27.3291   1
 -10  -2 -10 1118.96 33.7403   3
   2 -10 -10 1120.86 27.5594   1
  10   2 -10 1126.50 31.8184   5
 -10   3 -10 5.80527 8.71717   3
   3  10 -10 17.3438 6.69886   1
 -10   3 -10 17.2309 7.03714   1
  -3 -10 -10 15.6357 6.76284   1
   3  10 -10 5.88877 8.75278   5
  10  -3 -10 7.32535 6.61947   1
 -10   3 -10 9.64320 8.65399   6
  10  -3 -10 16.6820 8.95825   5
  -3  10 -10 10.5072 8.99034   6
  10   3 -10 22.4177 8.69690   5
   3 -10 -10 14.4490 6.28249   1
  -3  10 -10 11.9401 6.70704   1
  10   3 -10 11.8964 6.65483   1
 -10  -3 -10 8.59037 6.27964   1
 -10  -3 -10 18.7729 9.38303   3
   0   0 -11 5.70189 6.42535   6
   0   0 -11 -2.0719 5.97103   3
   0   0 -11 -1.1696 5.68615   5
  -1   0 -11 2.87955 6.15500   6
   0   1 -11 -1.8606 6.11341   3
  -1   0 -11 -2.6943 5.76395   5
   0   1 -11 5.12523 6.25526   6
   0  -1 -11 -5.4808 6.01875   3
   0  -1 -11 -0.4315 6.02213   6
   0   1 -11 7.95307 6.53703   5
   1   0 -11 -5.4223 6.05702   3
  -1   0 -11 4.10546 6.11184   3
   1   0 -11 3.12551 6.12072   5
   0  -1 -11 -6.0731 5.67241   5
   1   1 -11 -4.0586 5.57771   6
   1   1 -11 3.40348 6.11668   3
   1  -1 -11 -2.6120 5.91654   3
  -1   1 -11 2.27051 6.29071   3
  -1   1 -11 -2.8073 5.92723   6
  -1  -1 -11 2.23991 5.96274   5
   1   1 -11 3.23806 6.47219   5
  -1  -1 -11 0.61546 5.99105   3
  -1  -1 -11 -0.5660 5.77967   6
  -1   1 -11 -1.4102 5.65774   5
   1  -1 -11 11.7586 6.53515   5
   2   0 -11 233.458 13.8525   5
   0  -2 -11 255.113 13.2954   5
  -2   0 -11 215.047 13.5119   3
   0   2 -11 235.130 13.2271   3
   0  -2 -11 177.779 12.7031   3
   2   0 -11 205.172 13.3740   3
   0   2 -11 215.863 13.4052   5
  -2   0 -11 218.716 14.1111   6
   0   2 -11 208.393 13.4290   6
  -2   0 -11 208.936 13.2327   5
   1   2 -11 9.81998 6.23398   6
   1   2 -11 -2.2384 5.88483   3
   2  -1 -11 -3.2933 6.50934   3
   2  -1 -11 -3.2117 5.93616   5
  -2   1 -11 -3.7869 6.09561   3
   1   2 -11 6.09576 6.43550   5
  -2   1 -11 -2.7111 6.35313   6
  -1  -2 -11 -0.3975 6.31616   6
  -2   1 -11 1.13368 6.47683   5
  -1  -2 -11 6.92883 5.64148   5
  -1  -2 -11 1.05783 6.26169   3
   1  -2 -11 1.12305 5.84976   5
   1  -2 -11 -1.5929 6.36425   3
  -2  -1 -11 4.09256 6.29310   3
  -1   2 -11 -1.4216 6.25452   5
  -1   2 -11 -5.7346 5.82766   6
  -1   2 -11 -0.4132 5.80668   3
   2   1 -11 1.97735 6.46160   3
  -2  -1 -11 2.11410 6.53163   6
  -2  -1 -11 -1.8736 5.33645   5
   2   1 -11 -1.8683 5.98593   5
  -2  -2 -11 -2.3077 5.40047   5
   2   2 -11 6.13051 6.49106   3
  -2   2 -11 -3.2651 6.06392   5
   2   2 -11 3.53859 6.31480   6
  -2   2 -11 -7.8139 6.32164   6
  -2   2 -11 -2.0189 6.43321   3
  -2  -2 -11 0.99748 6.67060   3
   2  -2 -11 -5.0184 6.26350   3
   2  -2 -11 1.76806 6.17053   5
   2   2 -11 -5.0150 5.86770   5
  -2  -2 -11 3.42409 6.49455   6
   0   3 -11 4.04359 6.48450   6
   3   0 -11 6.97554 6.61092   3
   0   3 -11 -7.0267 6.05889   5
   0   3 -11 7.24668 6.19001   3
  -3   0 -11 -1.2392 6.25416   6
  -3   0 -11 -9.5121 6.41987   3
  -3   0 -11 -0.6299 6.19773   5
   3   0 -11 0.66788 6.47244   5
   0  -3 -11 16.5738 6.50362   5
   0  -3 -11 -6.3252 5.86995   3
  -1  -3 -11 -1.1518 6.27353   3
   1   3 -11 2.27621 6.40240   3
  -1  -3 -11 4.65551 6.16708   5
   3  -1 -11 0.18832 6.56039   3
  -3   1 -11 -0.1636 5.84467   5
   3  -1 -11 -2.5435 6.24903   5
   1   3 -11 17.7682 6.69428   6
   1   3 -11 -1.3407 6.45644   5
  -3   1 -11 -3.8033 6.58923   6
  -3   1 -11 -0.6907 6.56105   3
   3   1 -11 5.48173 6.64082   3
   1  -3 -11 -1.5476 6.11864   3
  -3  -1 -11 4.66419 6.50708   6
   3   1 -11 -3.8199 6.29106   5
   1  -3 -11 -6.0864 6.03144   5
  -1   3 -11 -8.9235 6.00072   3
  -1   3 -11 -3.4202 6.29051   5
  -3  -1 -11 -4.5754 6.42814   3
  -1   3 -11 0.62322 6.36890   6
  -3  -1 -11 11.8256 6.53783   5
   3  -2 -11 90.3340 10.2236   5
  -2  -3 -11 66.4161 9.51227   6
  -2  -3 -11 85.2368 10.1446   3
   2   3 -11 94.9786 10.3913   5
   3  -2 -11 74.2283 9.48048   3
  -3   2 -11 85.2243 10.2414   6
   2   3 -11 74.2507 9.28851   3
   2   3 -11 81.9580 9.76637   6
  -3   2 -11 93.2735 10.1320   3
  -2  -3 -11 87.5877 9.36242   5
  -3   2 -11 88.4449 9.85114   5
  -2   3 -11 78.2120 9.34795   3
   3   2 -11 91.9212 10.4066   3
   2  -3 -11 94.0479 10.6161   3
  -3  -2 -11 94.3891 9.83372   5
  -2   3 -11 76.2904 9.87280   5
  -2   3 -11 98.7643 10.5835   6
   2  -3 -11 107.512 10.6443   5
   3   2 -11 110.459 11.2124   5
  -3  -2 -11 94.0234 10.2505   6
  -3  -2 -11 89.7916 10.4310   3
   3  -3 -11 3.22070 6.55464   5
  -3   3 -11 4.24274 6.91363   5
  -3   3 -11 -9.5875 5.78313   3
  -3  -3 -11 5.39036 6.56524   6
   3   3 -11 7.34254 6.66212   3
  -3   3 -11 -3.9466 6.44639   6
   3   3 -11 -5.8624 6.03894   5
   3  -3 -11 3.65690 6.54784   3
  -3  -3 -11 10.7020 7.22000   3
  -4   0 -11 130.375 11.7918   3
   0   4 -11 104.336 10.7799   6
  -4   0 -11 127.824 11.9096   6
   0   4 -11 122.352 11.6335   5
   0  -4 -11 120.656 10.6603   5
   4   0 -11 128.050 11.8646   3
   4   0 -11 120.253 11.3889   5
   0  -4 -11 114.572 10.7485   3
  -4   0 -11 125.363 11.2361   5
   0   4 -11 145.482 11.5757   3
  -4   1 -11 2.39592 6.42307   5
   1   4 -11 -11.333 5.54639   3
   4  -1 -11 20.6829 7.78106   3
   1   4 -11 14.1746 7.13820   6
  -4   1 -11 10.8406 7.35108   6
  -4   1 -11 6.20702 6.91502   3
   4  -1 -11 -2.4898 6.85089   5
   1   4 -11 10.0326 7.03838   5
  -1  -4 -11 10.1574 6.24560   5
  -1  -4 -11 1.99356 6.50382   3
  -1   4 -11 3.16919 6.69706   6
   1  -4 -11 7.10454 6.81254   3
   4   1 -11 0.23480 6.37180   5
  -1   4 -11 4.39091 6.68048   3
  -1   4 -11 9.29574 6.74056   5
  -4  -1 -11 14.3256 7.16517   3
   1  -4 -11 8.70295 6.55992   5
  -4  -1 -11 -3.6793 5.75679   5
   4   1 -11 6.62620 7.09821   3
  -4  -1 -11 1.75391 6.82378   6
  -4   2 -11 142.162 12.5076   6
   2   4 -11 142.027 11.9449   6
  -4   2 -11 146.187 12.1184   5
   4  -2 -11 130.450 12.1136   3
  -2  -4 -11 113.201 11.1546   3
   4  -2 -11 139.955 12.4233   5
   2   4 -11 124.804 11.7716   5
   2   4 -11 124.372 11.2412   3
  -4   2 -11 112.433 11.2319   3
   2  -4 -11 145.667 12.2901   3
   4   2 -11 110.596 11.4591   5
  -2   4 -11 139.298 12.2023   6
  -4  -2 -11 145.827 12.3263   3
  -2   4 -11 140.454 11.4051   3
   2  -4 -11 129.132 11.5007   5
  -2   4 -11 125.734 12.1945   5
   4   2 -11 149.250 12.7781   3
  -4  -2 -11 143.316 12.3450   6
  -3  -4 -11 14.2570 7.79228   3
  -4   3 -11 29.4247 8.50018   6
   3   4 -11 26.0173 7.98537   5
  -4   3 -11 20.9012 7.86569   5
   3   4 -11 16.7084 7.60326   3
  -4   3 -11 18.8056 7.63175   3
   4  -3 -11 22.8868 7.68526   3
   4  -3 -11 12.5916 8.09359   5
   3  -4 -11 11.5277 7.33667   5
  -4  -3 -11 29.8842 8.21603   6
  -3   4 -11 19.9531 7.59044   5
  -3   4 -11 34.0976 8.34230   6
   4   3 -11 26.0034 7.89541   3
  -3   4 -11 25.6430 7.63340   3
   3  -4 -11 25.5091 8.11164   3
  -4  -3 -11 30.8834 8.50648   3
   4   3 -11 26.0084 7.85144   5
   4  -4 -11 -0.2938 6.35994   3
   4  -4 -11 4.18756 7.14721   5
  -4   4 -11 -5.5562 6.56768   6
  -4  -4 -11 1.59576 6.60824   6
   4   4 -11 7.26681 7.38117   3
  -4   4 -11 -3.1700 6.47883   3
   4   4 -11 2.20307 6.97618   5
  -4  -4 -11 0.74247 6.96226   3
  -4   4 -11 -0.8586 6.87196   5
  -5   0 -11 -4.4020 6.64687   3
   0   5 -11 3.42458 6.93697   5
   5   0 -11 0.17299 6.96959   5
   0   5 -11 3.92556 6.75331   3
  -5   0 -11 3.26351 7.01994   6
   0   5 -11 -3.2993 6.38103   6
   0  -5 -11 3.23087 6.77730   3
   5   0 -11 -3.5329 6.70568   3
  -5   0 -11 2.21011 6.74381   5
  -1  -5 -11 40.5121 8.37570   3
   1   5 -11 36.0105 8.07075   3
   5  -1 -11 33.5925 8.52711   3
  -5   1 -11 29.8930 8.14497   3
   5  -1 -11 30.1573 8.40894   5
  -5   1 -11 39.7915 8.41357   5
   1   5 -11 37.5808 8.30528   6
   1   5 -11 45.3527 9.08447   5
  -5   1 -11 35.2356 8.55687   6
   1  -5 -11 28.5955 7.54550   5
  -5  -1 -11 38.1058 8.10714   5
  -5  -1 -11 38.6947 8.75496   6
   1  -5 -11 40.7965 8.58302   3
  -1   5 -11 31.9758 7.64770   3
  -1   5 -11 28.7765 7.89035   5
   5   1 -11 26.2206 8.21640   5
  -1   5 -11 44.0371 8.67708   6
   5   1 -11 38.7445 8.64208   3
  -5  -1 -11 19.8218 7.77831   3
   5  -2 -11 5.46407 7.19116   3
   2   5 -11 10.3502 6.90428   5
   2   5 -11 3.37008 6.55111   6
  -2  -5 -11 0.41250 6.96022   3
  -5   2 -11 -0.6431 7.10602   5
   2   5 -11 -1.8079 6.60167   3
  -5   2 -11 -5.7105 6.78674   3
  -5   2 -11 6.63006 7.53075   6
   5  -2 -11 7.66972 7.68444   5
  -2   5 -11 10.0049 7.08373   6
  -5  -2 -11 6.13117 7.06936   6
   5   2 -11 4.19873 7.28906   5
   5   2 -11 10.4756 7.37701   3
  -2   5 -11 17.0766 7.35943   5
  -5  -2 -11 5.95841 7.23093   3
   2  -5 -11 0.48275 7.05839   3
  -2   5 -11 13.2470 6.70125   3
   2  -5 -11 2.44870 6.70876   5
  -3  -5 -11 -6.3346 6.86266   3
   5  -3 -11 -1.8537 6.64618   3
  -5   3 -11 11.0824 7.60181   6
   3   5 -11 13.3348 6.68627   6
   5  -3 -11 1.28375 7.16586   5
   3   5 -11 4.56042 7.04642   3
   3   5 -11 4.89586 7.24705   5
  -5   3 -11 -0.4319 7.40442   5
  -5   3 -11 3.64219 7.25027   3
   5   3 -11 -0.7748 6.62962   5
  -5  -3 -11 4.76223 6.80483   6
   3  -5 -11 -5.9298 6.92289   5
  -3   5 -11 0.91970 7.69713   5
  -5  -3 -11 9.55550 7.44399   3
  -3   5 -11 -10.454 6.48182   3
   5   3 -11 2.21306 6.96399   3
   3  -5 -11 -14.786 6.12447   3
  -3   5 -11 8.03067 7.31030   6
  -5   4 -11 8.01597 7.27761   6
  -5   4 -11 13.8658 7.64278   5
  -4  -5 -11 20.6432 7.82514   3
   5  -4 -11 10.7326 7.69820   3
  -5   4 -11 25.7374 8.16129   3
   4   5 -11 13.6905 7.48433   3
   4   5 -11 28.5874 8.01262   5
   5  -4 -11 15.1530 8.02060   5
  -4   5 -11 14.1758 8.21566   5
  -4   5 -11 15.0356 7.89871   6
  -5  -4 -11 11.3337 7.18190   6
   5   4 -11 -4.9022 7.03968   5
  -4   5 -11 19.3063 7.68903   3
   5   4 -11 16.3079 8.22065   3
   4  -5 -11 13.7000 7.68910   3
  -5  -4 -11 26.1441 8.27691   3
   4  -5 -11 9.05592 7.60172   5
   5   5 -11 -2.9221 7.03586   3
  -5   5 -11 3.66514 8.15065   5
   5  -5 -11 0.20187 7.36390   5
   5  -5 -11 -5.4928 7.05403   3
  -5  -5 -11 4.38895 7.09382   3
  -5   5 -11 -1.6264 7.14680   3
   5   5 -11 2.29946 6.98182   5
  -5   5 -11 15.6638 8.63071   6
   6   0 -11 154.392 13.2237   3
  -6   0 -11 125.695 12.3180   6
   0  -6 -11 85.9106 10.4853   3
   6   0 -11 117.679 12.0961   5
  -6   0 -11 129.786 11.9605   5
  -6   0 -11 148.390 12.8987   3
   0   6 -11 149.618 12.5006   6
   0   6 -11 124.414 12.0593   5
  -6   1 -11 1.27308 7.15863   5
  -1  -6 -11 -0.7573 6.54261   3
   1   6 -11 -13.797 6.00014   6
   6  -1 -11 -5.4572 7.37042   3
   6  -1 -11 1.78430 7.48413   5
   1   6 -11 3.40250 7.57096   5
  -6   1 -11 1.23669 7.35995   6
  -6   1 -11 8.55444 7.52741   3
  -1   6 -11 0.40306 6.81253   6
  -1   6 -11 6.31759 7.12177   5
  -6  -1 -11 -2.1084 7.27301   6
   6   1 -11 4.80609 8.25421   3
   1  -6 -11 20.0403 7.69055   3
  -6  -1 -11 0.38569 6.80560   3
   6   1 -11 -10.013 6.81964   5
   6  -2 -11 106.771 12.2435   3
  -6   2 -11 137.004 12.7437   5
  -6   2 -11 104.076 11.3536   3
  -2  -6 -11 112.916 11.2380   3
   2   6 -11 113.915 12.0772   5
  -6   2 -11 106.198 11.8429   6
   6  -2 -11 101.983 11.6757   5
   6   2 -11 120.836 12.4129   3
  -2   6 -11 115.096 12.2602   5
   2  -6 -11 125.454 11.8364   3
  -2   6 -11 133.885 12.6517   6
  -6  -2 -11 125.243 12.4015   3
   6   2 -11 131.223 12.2536   5
  -6  -2 -11 144.143 12.3339   6
   2  -6 -11 121.145 11.3619   5
   6  -3 -11 73.1597 10.6735   5
  -6   3 -11 48.1564 9.88718   6
  -3  -6 -11 42.6753 8.79236   3
  -6   3 -11 54.5775 10.3878   5
   3   6 -11 51.8681 9.34745   5
  -6   3 -11 53.2087 9.53418   3
   6  -3 -11 56.1333 10.5081   3
  -3   6 -11 66.3605 10.7444   5
  -3   6 -11 41.4396 9.55781   6
   3  -6 -11 45.2212 8.97022   3
  -6  -3 -11 46.1954 9.36231   3
   3  -6 -11 76.9172 9.90733   5
   6   3 -11 45.3610 9.55272   3
   6   3 -11 49.8582 9.47706   5
  -6  -3 -11 55.1751 9.37880   6
   6  -4 -11 98.2178 12.1474   5
  -6   4 -11 90.6829 11.7693   6
   6  -4 -11 113.622 12.7501   3
  -6   4 -11 110.972 11.8068   3
  -4  -6 -11 86.6474 10.7503   3
   4   6 -11 105.784 11.5669   5
  -4   6 -11 62.7613 10.8310   5
   4  -6 -11 86.4398 10.8503   5
   4  -6 -11 76.2728 10.4971   3
  -4   6 -11 103.217 12.1516   6
  -6  -4 -11 101.300 11.5251   3
   6   4 -11 104.112 11.2914   5
  -6  -4 -11 120.083 11.8103   6
   6  -5 -11 41.5612 9.98966   3
   6  -5 -11 37.4887 9.60959   5
  -6   5 -11 17.7748 8.26708   3
  -6   5 -11 7.32552 8.43668   6
   5   6 -11 46.1721 9.40934   5
  -5  -6 -11 25.0377 8.52345   3
  -6  -5 -11 17.3628 7.69274   6
  -6  -5 -11 25.0088 8.77257   3
   6   5 -11 34.0740 8.75022   5
   5  -6 -11 10.6394 7.98342   5
  -5   6 -11 33.8955 9.65171   6
   5  -6 -11 22.7775 8.77618   3
  -6   6 -11 -2.4286 7.69214   6
   6  -6 -11 -1.5747 8.04369   3
   6  -6 -11 7.16179 8.28763   5
   6   6 -11 1.04783 7.05313   5
  -6  -6 -11 2.97697 7.88185   3
  -7   0 -11 10.5065 7.37851   3
   0   7 -11 -1.9145 6.79584   6
   7   0 -11 5.14597 7.84203   5
  -7   0 -11 -3.6890 7.08454   6
   0  -7 -11 -4.9378 6.85749   3
   0   7 -11 -12.752 6.71086   5
  -7   1 -11 75.1889 10.7123   3
   7  -1 -11 64.1690 10.5599   5
  -1  -7 -11 64.6401 9.77420   3
   1   7 -11 57.5458 9.51618   5
  -7   1 -11 60.5141 10.3769   6
   1  -7 -11 67.2518 10.1100   3
  -7  -1 -11 70.9691 10.4513   6
  -1   7 -11 64.1303 10.5437   5
  -1   7 -11 78.5249 10.2794   6
  -7  -1 -11 72.0310 10.8720   3
   7   1 -11 70.5685 10.5165   5
   7  -2 -11 -1.5897 7.65337   5
  -7   2 -11 3.39216 7.89922   6
   2   7 -11 3.48185 7.72692   5
  -7   2 -11 -0.3120 7.63691   3
  -2  -7 -11 8.04818 7.30324   3
   7   2 -11 0.09266 7.46792   5
  -2   7 -11 12.3366 8.16174   5
  -7  -2 -11 7.17127 7.47164   3
   2  -7 -11 1.96134 7.04583   3
  -2   7 -11 1.56030 7.76025   6
  -7  -2 -11 -3.2115 6.86241   6
  -7   3 -11 12.1813 8.00076   6
   3   7 -11 21.0219 8.03837   5
   7  -3 -11 17.6989 8.59855   5
  -3  -7 -11 8.62942 6.88115   3
  -7   3 -11 11.3331 7.78274   3
   3  -7 -11 7.41455 7.78831   5
   3  -7 -11 11.2213 7.38567   3
  -3   7 -11 21.2627 8.56514   6
   7   3 -11 17.1948 7.83783   5
  -7  -3 -11 22.6288 8.46954   3
  -3   7 -11 23.0492 9.07576   5
  -7  -3 -11 5.05124 7.22765   6
   7  -4 -11 2.59217 7.93796   5
  -7   4 -11 -11.226 7.52327   6
  -4  -7 -11 6.19774 7.18185   3
  -7   4 -11 -13.553 6.68206   3
   4   7 -11 2.16748 7.61722   5
   7   4 -11 -4.9674 6.98973   5
  -7  -4 -11 -8.4848 6.51603   6
  -4   7 -11 -0.5204 8.24052   5
  -4   7 -11 -6.0444 7.30374   6
  -7  -4 -11 11.5787 8.25022   3
   4  -7 -11 4.30000 7.65194   3
   4  -7 -11 -9.4141 6.39674   5
  -5  -7 -11 29.3161 9.14683   3
  -7   5 -11 53.3277 10.0023   3
  -7   5 -11 25.3807 9.90932   6
   7  -5 -11 34.7356 10.0284   5
   5   7 -11 35.9874 9.28921   5
   7   5 -11 35.9825 9.13595   5
   5  -7 -11 34.5389 9.74479   3
  -7  -5 -11 40.0987 9.78696   3
   5  -7 -11 27.1878 9.04194   5
  -5   7 -11 29.2758 9.58746   6
  -6  -7 -11 18.3441 8.94614   3
  -7   6 -11 4.27255 9.02792   6
   7  -6 -11 22.8313 9.72996   5
   6   7 -11 9.00890 7.90546   5
   6  -7 -11 -0.0026 8.07455   5
  -6   7 -11 1.05914 8.07366   6
  -7  -6 -11 1.24519 7.96063   3
   7   6 -11 16.4985 8.34273   5
   0   8 -11 42.1617 9.60252   5
   0  -8 -11 48.2657 9.17045   3
  -8   0 -11 55.4428 10.6822   3
  -8   0 -11 31.7234 9.04087   6
   8   0 -11 32.2507 9.59735   5
  -1  -8 -11 85.9291 10.4643   3
   8  -1 -11 79.3030 11.5775   5
  -8   1 -11 76.5885 11.1952   6
   1   8 -11 77.1597 11.0984   5
  -8   1 -11 69.4015 11.3737   3
  -1   8 -11 68.7637 10.3167   6
  -8  -1 -11 80.5609 10.6652   6
  -8  -1 -11 55.3476 10.5763   3
   1  -8 -11 72.5632 10.0141   3
   8   1 -11 67.3478 11.0098   5
  -1   8 -11 66.4512 11.1587   5
  -8   2 -11 7.30862 7.96050   6
   2   8 -11 6.16624 7.85110   5
   8  -2 -11 6.00022 7.84813   5
  -8   2 -11 12.8948 8.86589   3
  -2  -8 -11 8.06212 7.33235   3
  -8  -2 -11 9.83832 8.57553   3
  -2   8 -11 14.5224 8.70355   5
   2  -8 -11 12.8410 8.08188   3
   8   2 -11 18.0685 8.32058   5
  -8  -2 -11 19.3789 8.18979   6
  -2   8 -11 6.80799 7.85523   6
   3   8 -11 8.51534 7.88285   5
   8  -3 -11 -4.8171 7.70330   5
  -8   3 -11 9.09559 8.34509   3
  -8   3 -11 1.53425 7.86885   6
  -3  -8 -11 -4.7627 7.07709   3
  -3   8 -11 -0.4649 7.64498   6
   3  -8 -11 -4.5088 7.35784   3
  -8  -3 -11 9.85869 7.65751   6
  -8  -3 -11 4.62542 9.17856   3
  -3   8 -11 12.8529 8.87277   5
   8   3 -11 3.82549 6.85300   5
   8  -4 -11 71.5935 11.7215   5
  -8   4 -11 89.2108 11.5387   3
  -4  -8 -11 109.116 11.9134   3
  -8   4 -11 70.4871 11.8164   6
   4   8 -11 87.1136 11.5184   5
   8   4 -11 82.4424 11.5962   5
  -4   8 -11 106.057 12.7548   6
   4  -8 -11 96.0455 11.8323   3
  -8  -4 -11 82.9912 11.9577   3
   0   9 -11 -12.800 7.93059   5
   9   0 -11 -1.3275 7.83728   5
  -9   0 -11 2.34185 7.83137   6
  -9   0 -11 0.93783 8.14026   3
   1   9 -11 15.0690 8.65226   5
  -9   1 -11 16.3443 9.36915   3
   9  -1 -11 8.71687 8.63953   5
  -9   1 -11 7.39892 8.25380   6
  -9  -1 -11 7.32748 7.63867   6
  -9  -1 -11 15.2147 9.48779   3
  -1   9 -11 21.6155 8.81448   5
   9   1 -11 14.1888 9.04916   5
   2   9 -11 -2.3323 7.99804   5
  -9   2 -11 10.5196 8.48057   3
  -9   2 -11 16.5529 8.63163   6
   9  -2 -11 9.09958 8.65693   5
  -9  -2 -11 7.79614 8.46320   3
   9   2 -11 5.18762 8.01757   5
  -2   9 -11 -5.1446 8.76191   5
  -2   9 -11 8.28492 8.17853   6
  -9  -2 -11 9.36413 7.85119   6
   0   0 -12 4470.02 79.3385   3
   0   0 -12 4564.20 81.3558   6
   0   0 -12 4551.95 80.0257   5
  -1   0 -12 1.96259 6.82448   6
   0   1 -12 4.46207 6.88592   5
  -1   0 -12 -2.3462 6.55937   3
   1   0 -12 0.00099 6.85830   3
   0   1 -12 2.43183 6.76584   6
   0  -1 -12 3.57773 7.08764   3
   0  -1 -12 -4.6022 6.46170   5
   0   1 -12 -4.4371 6.58534   3
  -1   0 -12 -10.059 5.97557   5
   1   0 -12 -0.6120 6.40073   5
   1  -1 -12 317.075 16.2553   5
  -1   1 -12 338.787 17.4975   6
  -1  -1 -12 356.617 16.7427   5
  -1   1 -12 361.335 17.7511   3
   1  -1 -12 349.097 17.3960   3
  -1   1 -12 374.613 17.5676   5
  -1  -1 -12 374.064 17.7023   6
  -1  -1 -12 344.264 17.1819   3
   1   1 -12 378.420 17.8939   6
   1   1 -12 366.496 17.5817   3
   1   1 -12 352.916 17.0668   5
   0  -2 -12 1161.99 30.3755   5
   0  -2 -12 1209.81 31.3738   3
  -2   0 -12 1247.76 31.5964   5
  -2   0 -12 1171.38 31.0946   3
  -2   0 -12 1150.18 31.4810   6
   2   0 -12 1186.31 31.3225   5
   0   2 -12 1186.01 30.6634   3
   0   2 -12 1202.76 31.8111   5
   0   2 -12 1188.43 31.8868   6
   2   0 -12 1230.24 31.9136   3
   2  -1 -12 5.09591 7.03275   3
  -2   1 -12 16.4676 7.46042   5
  -1  -2 -12 -8.4183 6.91273   3
   1   2 -12 16.6466 7.93223   3
  -2   1 -12 3.12342 6.95350   6
   1   2 -12 3.45567 6.85457   5
  -2   1 -12 2.88377 7.11170   3
   1   2 -12 9.99754 7.38251   6
  -1  -2 -12 2.36681 6.67747   5
   2  -1 -12 -12.675 5.85678   5
  -2  -1 -12 -4.7527 6.43267   3
   1  -2 -12 7.97750 6.90008   5
   1  -2 -12 1.48607 7.04116   3
  -1   2 -12 5.55767 7.02604   3
  -2  -1 -12 -0.3232 6.45575   5
   2   1 -12 16.1524 8.01838   3
  -1   2 -12 -21.281 6.00764   6
  -2  -1 -12 9.33702 7.47274   6
  -1   2 -12 -3.4243 6.77006   5
   2   1 -12 0.13153 6.83785   5
  -2  -2 -12 464.731 19.9811   6
   2   2 -12 476.706 20.0033   5
   2  -2 -12 501.215 19.9841   5
  -2  -2 -12 502.262 19.1385   5
  -2  -2 -12 470.218 19.5793   3
  -2   2 -12 475.583 19.7669   5
   2   2 -12 478.145 19.2060   3
  -2   2 -12 496.720 20.0014   3
   2  -2 -12 437.517 19.7188   3
  -2   2 -12 484.852 20.5922   6
  -3   0 -12 -6.4926 6.59303   6
   0   3 -12 7.65553 7.47774   6
  -3   0 -12 -1.0847 6.58043   5
   0   3 -12 0.53275 6.85723   5
   0  -3 -12 1.98529 7.20547   3
   3   0 -12 8.61275 7.41832   3
   0   3 -12 15.2252 7.56039   3
   3   0 -12 8.38955 7.25610   5
   0  -3 -12 17.9874 7.25199   5
  -3   0 -12 -9.7476 6.45283   3
   3  -1 -12 226.551 15.3868   5
   1   3 -12 233.095 14.8956   5
  -3   1 -12 228.509 15.6711   6
  -3   1 -12 221.017 14.5276   3
  -3   1 -12 178.924 13.5608   5
   1   3 -12 213.472 14.8503   6
  -1  -3 -12 209.213 14.5191   3
  -1  -3 -12 215.121 14.0261   5
   1   3 -12 218.927 14.3740   3
   3  -1 -12 184.260 14.2856   3
  -1   3 -12 244.597 15.0659   3
  -1   3 -12 228.694 14.9945   5
   3   1 -12 226.583 14.9041   5
   3   1 -12 213.800 14.5519   3
  -3  -1 -12 206.340 14.2241   5
  -3  -1 -12 207.778 15.0442   6
   1  -3 -12 210.270 14.2333   5
   1  -3 -12 195.710 14.9626   3
  -1   3 -12 229.659 15.4867   6
  -3  -1 -12 209.753 14.6208   3
   3  -2 -12 111.127 11.6770   3
  -2  -3 -12 111.155 11.7985   3
  -3   2 -12 106.213 11.7183   5
   3  -2 -12 98.0086 10.9725   5
  -3   2 -12 91.5005 10.7756   3
  -3   2 -12 105.585 11.8329   6
   2   3 -12 88.6928 10.6006   3
  -2  -3 -12 98.8705 11.3602   5
   2   3 -12 92.3792 11.0923   5
   2   3 -12 113.148 11.5977   6
  -3  -2 -12 119.497 10.9898   5
   3   2 -12 102.208 11.4172   5
   2  -3 -12 114.300 11.5688   5
  -3  -2 -12 111.958 11.6040   6
   2  -3 -12 99.4627 11.6738   3
  -2   3 -12 104.451 11.0347   3
   3   2 -12 92.7070 10.6875   3
  -3  -2 -12 113.181 11.5294   3
  -2   3 -12 106.823 11.8568   6
  -2   3 -12 99.2390 11.5516   5
  -3  -3 -12 111.092 12.0058   6
   3  -3 -12 133.927 12.6648   3
   3  -3 -12 103.488 11.5123   5
   3   3 -12 115.743 12.0800   5
   3   3 -12 97.0909 11.3690   3
  -3   3 -12 138.139 13.0382   6
  -3   3 -12 109.728 11.7325   3
  -3   3 -12 115.111 12.3122   5
  -3  -3 -12 99.6962 11.7142   3
   0  -4 -12 982.052 28.3932   3
   0   4 -12 1035.62 29.6994   5
   0   4 -12 1012.48 29.0871   6
   0   4 -12 1030.92 28.1406   3
  -4   0 -12 1102.40 29.0825   5
  -4   0 -12 1032.20 29.6362   3
   4   0 -12 1032.03 29.1839   3
   4   0 -12 989.053 29.2423   5
   0  -4 -12 1018.69 27.8482   5
  -4   0 -12 974.816 29.6210   6
   1   4 -12 27.9031 8.96017   5
  -4   1 -12 47.8342 9.50971   3
   1   4 -12 47.7930 9.37236   6
   4  -1 -12 42.2613 9.37291   3
  -1  -4 -12 52.7124 9.36736   3
   4  -1 -12 22.9796 8.63310   5
   1   4 -12 40.3687 8.68730   3
  -4   1 -12 25.1315 8.79043   6
  -4   1 -12 46.1727 8.67397   5
  -1   4 -12 49.8530 9.12520   3
  -1   4 -12 38.7963 9.26492   5
  -1   4 -12 42.1575 9.23473   6
  -4  -1 -12 56.8027 9.73659   3
  -4  -1 -12 43.5334 9.03832   5
   4   1 -12 62.8568 10.1000   3
   1  -4 -12 40.9197 8.91219   3
   4   1 -12 38.7253 9.23130   5
   1  -4 -12 49.4256 9.13734   5
  -4  -1 -12 43.7645 9.22410   6
   2   4 -12 1384.08 35.6107   5
   2   4 -12 1389.94 34.2481   3
  -4   2 -12 1416.70 35.1649   3
   4  -2 -12 1406.70 35.8309   5
   2   4 -12 1430.85 34.9195   6
  -4   2 -12 1408.27 35.2866   5
  -4   2 -12 1426.85 36.5024   6
  -2  -4 -12 1364.35 34.5811   3
   4  -2 -12 1310.59 34.6811   3
  -4  -2 -12 1358.12 35.1819   3
   2  -4 -12 1382.32 34.6125   3
   4   2 -12 1298.74 34.8226   5
   4   2 -12 1399.54 35.1337   3
  -2   4 -12 1374.53 34.1331   3
   2  -4 -12 1379.76 34.3417   5
  -4  -2 -12 1419.42 35.7492   6
  -2   4 -12 1358.58 35.5590   6
  -2   4 -12 1377.56 35.7163   5
  -4   3 -12 5.06673 7.80072   6
  -4   3 -12 12.3778 7.97517   5
   3   4 -12 13.2977 8.34967   5
  -3  -4 -12 -2.6084 7.24656   3
   4  -3 -12 -6.1344 7.10553   3
  -4   3 -12 1.03885 7.40081   3
   3   4 -12 3.11499 7.25035   3
   4  -3 -12 -0.3438 7.41776   5
  -4  -3 -12 -0.1673 7.40765   3
  -3   4 -12 7.05889 8.21049   6
   3  -4 -12 9.88386 7.78460   3
  -4  -3 -12 -2.4122 7.32879   6
   4   3 -12 -7.3257 6.52702   5
   3  -4 -12 1.20674 7.19869   5
  -3   4 -12 4.19406 7.46767   5
  -3   4 -12 6.94489 7.36468   3
   4   3 -12 -13.684 6.89201   3
  -4   4 -12 1808.45 43.5329   6
  -4   4 -12 1878.11 41.7706   3
   4   4 -12 1788.53 42.2151   5
   4   4 -12 1875.10 41.9177   3
   4  -4 -12 1739.56 42.0927   3
   4  -4 -12 1878.59 42.9282   5
  -4  -4 -12 1890.20 42.5035   3
  -4   4 -12 1874.34 43.7614   5
  -5   0 -12 -2.5289 7.17669   3
   0  -5 -12 -0.9280 7.05394   3
  -5   0 -12 7.87445 7.82719   6
   0   5 -12 6.07897 7.39371   6
   0   5 -12 -0.0799 7.26051   3
  -5   0 -12 -0.3892 7.21719   5
   0   5 -12 -14.376 6.58012   5
   5   0 -12 7.97348 7.76983   5
   5   0 -12 6.34218 7.61266   3
   5  -1 -12 377.708 19.3941   5
   5  -1 -12 364.539 18.2497   3
  -5   1 -12 336.550 18.6244   6
   1   5 -12 342.236 18.4870   5
  -5   1 -12 363.045 18.0449   3
  -1  -5 -12 368.034 17.9500   3
  -5   1 -12 360.893 18.0725   5
   1   5 -12 364.829 18.0048   6
   1   5 -12 322.599 16.7572   3
   1  -5 -12 349.006 16.9647   5
  -5  -1 -12 363.437 18.1649   3
  -1   5 -12 340.236 18.0980   6
   5   1 -12 326.235 18.0632   3
  -5  -1 -12 368.566 18.1696   6
  -1   5 -12 354.175 17.1200   3
   5   1 -12 337.633 18.5976   5
  -1   5 -12 358.614 18.9805   5
   1  -5 -12 334.797 17.9932   3
   5  -2 -12 -4.0138 7.16782   5
   2   5 -12 4.32689 7.72641   5
   5  -2 -12 12.9329 7.87337   3
  -2  -5 -12 -3.5010 6.76743   3
   2   5 -12 -0.2292 7.06392   3
  -5   2 -12 5.90217 7.64043   3
   2   5 -12 9.87271 7.49872   6
  -5   2 -12 2.74320 7.92889   5
  -5   2 -12 18.7716 8.67636   6
  -5  -2 -12 -9.0158 6.96992   3
   5   2 -12 -1.2387 7.30507   5
  -2   5 -12 7.66434 8.23043   6
   5   2 -12 3.53238 8.02243   3
   2  -5 -12 9.64055 7.73845   3
  -5  -2 -12 5.50595 7.69309   6
  -2   5 -12 9.03850 7.86659   5
  -2   5 -12 5.81563 7.56280   3
   2  -5 -12 4.24572 7.42331   5
   3   5 -12 285.674 16.3716   3
   5  -3 -12 273.815 17.7426   5
   3   5 -12 259.338 16.2853   5
   5  -3 -12 286.916 16.8174   3
  -5   3 -12 250.704 16.9160   5
  -5   3 -12 261.962 16.3354   3
  -5   3 -12 255.031 17.5709   6
  -3  -5 -12 259.914 16.0244   3
  -3   5 -12 275.072 17.8166   5
   5   3 -12 261.943 16.8252   5
   5   3 -12 274.770 17.0588   3
   3  -5 -12 259.525 16.2297   5
  -5  -3 -12 275.727 16.7231   3
   3  -5 -12 288.091 17.0952   3
  -5  -3 -12 286.512 16.9552   6
  -3   5 -12 272.354 16.1796   3
  -3   5 -12 292.296 17.6916   6
   5  -4 -12 -1.1071 7.17465   3
   4   5 -12 1.72512 8.01661   3
  -5   4 -12 -10.544 7.67761   6
  -5   4 -12 -0.8482 7.95689   5
  -4  -5 -12 -6.4022 7.02223   3
  -5   4 -12 -3.8780 7.14779   3
   5  -4 -12 -1.1511 7.99399   5
   4   5 -12 9.21127 7.46457   5
  -4   5 -12 4.62330 7.70314   5
   5   4 -12 2.14346 7.76414   5
  -5  -4 -12 -12.007 6.69620   6
  -4   5 -12 -7.8497 7.12056   3
  -5  -4 -12 -15.374 6.45473   3
   4  -5 -12 5.27280 7.83863   3
   4  -5 -12 0.86319 7.82930   5
  -4   5 -12 1.46842 8.26716   6
   5   4 -12 -10.332 8.04707   3
   5  -5 -12 149.491 14.0354   5
   5   5 -12 148.015 13.5858   3
  -5   5 -12 127.073 14.1092   5
   5   5 -12 150.664 13.4970   5
   5  -5 -12 160.580 14.1541   3
  -5  -5 -12 129.157 13.1992   3
  -5   5 -12 144.119 13.2748   3
  -5   5 -12 145.817 13.9980   6
   6   0 -12 397.403 20.4927   3
   0  -6 -12 398.857 18.2104   3
  -6   0 -12 397.126 19.8813   3
  -6   0 -12 400.675 19.9877   6
   0   6 -12 418.967 19.4595   6
   6   0 -12 393.391 20.1160   5
   0   6 -12 394.986 19.9568   5
   6  -1 -12 15.8649 9.33908   3
  -6   1 -12 15.6772 8.81450   3
  -6   1 -12 12.8262 8.50088   6
  -1  -6 -12 19.3948 8.06115   3
  -6   1 -12 5.87681 7.98197   5
   6  -1 -12 1.13018 7.74279   5
   1   6 -12 15.7075 8.08950   6
   1   6 -12 23.9670 8.89428   5
   1  -6 -12 2.37339 7.71173   3
  -1   6 -12 23.8772 8.58640   6
   6   1 -12 7.54973 7.64411   5
  -6  -1 -12 13.0496 8.12211   6
  -1   6 -12 2.96216 7.81417   5
  -6  -1 -12 6.39334 7.88435   3
   6   1 -12 19.0626 9.45535   3
   6  -2 -12 1087.48 32.0981   5
   2   6 -12 1049.21 31.2824   5
  -2  -6 -12 1001.31 29.9963   3
  -6   2 -12 1107.86 31.2236   5
  -6   2 -12 1065.75 31.1203   3
   6  -2 -12 1050.13 31.7446   3
  -6   2 -12 1093.78 32.3420   6
  -2   6 -12 1085.75 32.0102   5
   2  -6 -12 1048.12 30.4532   3
  -6  -2 -12 1122.98 31.3308   6
   6   2 -12 1082.63 31.2733   5
  -2   6 -12 1071.68 31.3808   6
  -6  -2 -12 1059.63 31.0898   3
  -6   3 -12 33.1092 10.1481   6
   6  -3 -12 37.2527 10.7053   3
   3   6 -12 23.1444 8.79186   5
   6  -3 -12 35.2860 10.1531   5
  -6   3 -12 39.8996 9.79724   5
  -6   3 -12 47.5065 9.53769   3
  -3  -6 -12 30.5578 8.82163   3
   3  -6 -12 33.7106 8.85912   5
  -3   6 -12 36.8750 10.0015   6
  -3   6 -12 39.7573 9.71885   5
   6   3 -12 53.7623 10.3429   5
   3  -6 -12 23.7493 9.06058   3
  -6  -3 -12 49.9913 9.75370   3
  -6  -3 -12 50.7130 9.30823   6
   6  -4 -12 910.788 29.8048   5
   6  -4 -12 884.094 29.3883   3
  -4  -6 -12 918.929 28.6123   3
  -6   4 -12 958.377 30.6662   6
  -6   4 -12 955.365 28.6265   3
   4   6 -12 885.564 28.5742   5
  -6  -4 -12 911.924 28.3498   6
   4  -6 -12 915.336 28.6181   3
   6   4 -12 901.481 28.7685   5
  -6  -4 -12 890.379 28.6554   3
  -4   6 -12 936.427 30.3549   6
  -4   6 -12 920.543 30.1604   5
   4  -6 -12 936.433 28.7506   5
  -7   0 -12 0.24716 7.79601   6
   0   7 -12 -2.4322 7.11146   6
  -7   0 -12 -6.3439 7.69123   3
   0   7 -12 4.51156 8.18997   5
   7   0 -12 14.0713 8.45746   5
   0  -7 -12 -0.9875 7.51647   3
  -7   1 -12 65.4724 11.0446   6
   1   7 -12 53.2317 10.7461   5
  -7   1 -12 67.7377 10.6826   3
  -1  -7 -12 58.3262 10.2593   3
   7  -1 -12 66.7343 11.1487   5
  -1   7 -12 68.7052 11.1893   5
   1  -7 -12 66.9730 10.4738   3
   7   1 -12 59.2285 10.6378   5
  -7  -1 -12 68.5278 10.7426   6
  -1   7 -12 79.4129 11.3602   6
  -7  -1 -12 64.2931 11.1213   3
  -2  -7 -12 0.58695 7.66318   3
  -7   2 -12 -1.5531 8.37723   6
  -7   2 -12 15.8526 8.84711   3
   7  -2 -12 10.8692 9.29355   5
   2   7 -12 2.68250 8.11636   5
  -2   7 -12 4.07420 8.14351   6
  -2   7 -12 -11.594 8.02091   5
   7   2 -12 -1.2405 7.93915   5
   2  -7 -12 -5.5341 7.40552   3
  -7  -2 -12 -5.4103 8.07720   3
  -7  -2 -12 9.61018 8.12652   6
   0   0 -13 -1.9771 6.84054   5
   0   0 -13 4.30980 7.59520   3
   0  -1 -13 12.0042 7.70989   5
   0   1 -13 -15.071 6.51640   6
  -1   0 -13 -4.6089 7.14856   3
   0  -1 -13 6.74465 7.76435   3
   1   0 -13 -1.0119 7.76069   5
  -1   0 -13 -7.1989 7.03141   5
   0   1 -13 3.63069 7.54955   5
  -1   0 -13 -1.8161 7.31664   6
   0   1 -13 2.90156 7.43287   3
   1   0 -13 2.91400 7.56457   3
  -1   1 -13 -5.8315 7.02368   6
  -1   1 -13 -2.9769 7.40169   3
  -1   1 -13 6.76150 7.54465   5
   1  -1 -13 -4.8537 6.35888   5
  -1  -1 -13 -8.1477 6.72963   3
   1  -1 -13 -3.0561 7.82245   3
   1   1 -13 -0.2913 7.71379   3
  -1  -1 -13 -1.3290 6.70972   5
   1   1 -13 4.78682 7.54879   5
  -2   0 -13 12.1266 8.23597   6
   0  -2 -13 8.60859 7.60068   3
   0  -2 -13 10.1150 7.73606   5
   0   2 -13 9.48115 7.72998   6
   2   0 -13 5.19774 8.21281   3
   2   0 -13 -0.1861 7.05078   5
  -2   0 -13 7.13548 7.01629   5
   0   2 -13 7.33545 7.92119   5
   0   2 -13 -2.7417 7.02801   3
  -2   0 -13 -3.9687 7.14340   3
  -2   1 -13 31.5344 9.11284   5
  -1  -2 -13 33.3720 9.00710   3
   1   2 -13 26.4003 8.78004   3
   1   2 -13 26.8497 8.42319   5
  -1  -2 -13 21.8675 8.22381   5
  -2   1 -13 23.6890 8.71923   3
   2  -1 -13 37.9575 8.97391   3
  -2   1 -13 49.5793 9.77048   6
   2  -1 -13 34.2848 9.41743   5
  -2  -1 -13 24.7980 8.91650   6
  -1   2 -13 35.9560 9.04601   6
   1  -2 -13 31.8795 8.85345   3
  -2  -1 -13 19.3180 8.63016   3
   2   1 -13 45.9504 9.71690   3
  -1   2 -13 23.7610 8.65441   5
  -1   2 -13 39.8694 9.14403   3
   2   1 -13 29.4253 8.93460   5
   1  -2 -13 30.8110 8.67424   5
  -2  -1 -13 39.5841 9.29667   5
  -2  -2 -13 11.5754 8.21173   3
  -2   2 -13 -6.1165 7.16887   3
   2   2 -13 8.23477 7.94447   3
   2  -2 -13 -5.9756 6.80337   3
  -2   2 -13 -3.0613 7.51878   6
   2  -2 -13 -8.0401 7.19403   5
  -2  -2 -13 -1.0566 7.13277   5
  -2   2 -13 13.8238 7.65026   5
   2   2 -13 5.57485 7.57836   5
   0  -3 -13 -0.6425 6.91650   5
   3   0 -13 5.78220 7.47224   3
   0  -3 -13 5.02342 7.82354   3
   0   3 -13 -9.7306 7.13887   3
  -3   0 -13 7.69879 7.67563   3
  -3   0 -13 5.71674 7.66651   5
   3   0 -13 6.90660 7.90396   5
   0   3 -13 -2.3552 7.32696   6
  -3   0 -13 -0.8247 7.37864   6
   0   3 -13 10.2819 8.03951   5
   3  -1 -13 0.53166 7.61060   5
   3  -1 -13 4.45461 8.33909   3
  -3   1 -13 1.72217 7.23914   5
   1   3 -13 10.9954 7.97451   5
  -3   1 -13 3.22795 7.20756   3
   1   3 -13 -8.9951 7.34590   3
  -1  -3 -13 1.64918 7.35024   3
  -3   1 -13 7.88402 7.87435   6
  -1  -3 -13 -2.1262 6.51259   5
   1   3 -13 -1.5381 7.16130   6
   3   1 -13 -1.8908 7.16597   3
   1  -3 -13 7.14705 8.31568   3
  -3  -1 -13 4.95972 7.79894   6
  -1   3 -13 -9.6033 7.27652   6
  -3  -1 -13 3.71277 7.58770   3
  -3  -1 -13 -4.6211 6.76453   5
   3   1 -13 7.95309 7.52586   5
  -1   3 -13 -13.823 7.11390   3
  -1   3 -13 6.58966 7.78283   5
   1  -3 -13 0.99367 7.68573   5
   2   3 -13 18.3111 8.85789   3
  -2  -3 -13 24.8412 8.74269   3
   3  -2 -13 13.0382 8.26037   3
   3  -2 -13 20.1893 8.71940   5
  -3   2 -13 30.1763 8.97981   3
  -3   2 -13 17.9895 8.59300   6
   2   3 -13 16.0511 8.50386   5
  -3   2 -13 25.8227 8.42939   5
   2  -3 -13 12.0174 8.67950   3
   3   2 -13 18.5010 8.15152   5
  -2   3 -13 19.5891 8.46942   3
   2  -3 -13 33.0877 9.00909   5
   3   2 -13 18.3677 8.62268   3
  -3  -2 -13 9.71158 8.19012   6
  -2   3 -13 25.9563 8.86264   6
  -2   3 -13 23.8160 8.93854   5
  -3  -2 -13 -3.7807 7.44785   3
  -3  -3 -13 -7.0614 7.22464   3
  -3   3 -13 22.5680 8.29946   3
   3  -3 -13 -0.5017 7.26560   3
  -3   3 -13 -0.2929 7.69095   5
   3   3 -13 -3.4010 7.49042   3
   3   3 -13 0.40375 8.00461   5
  -3   3 -13 14.8191 8.55282   6
   3  -3 -13 -16.398 7.22276   5
  -4   0 -13 4.10992 7.88022   6
  -4   0 -13 0.61468 7.95710   3
   4   0 -13 0.07007 7.72187   3
   0   4 -13 2.51253 8.05612   5
   0   4 -13 -1.5761 7.45911   6
   0   4 -13 10.8975 7.85956   3
  -4   0 -13 3.11887 7.37500   5
   0  -4 -13 -8.0003 7.42989   3
   4   0 -13 1.16996 7.75769   5
  -4   1 -13 12.5036 8.71268   6
  -4   1 -13 7.31456 8.32584   3
   1   4 -13 21.1344 8.93746   5
   1   4 -13 13.2728 8.22433   6
   4  -1 -13 27.9422 9.14523   3
   4  -1 -13 10.2102 8.34451   5
   1   4 -13 13.7005 8.13225   3
  -1  -4 -13 16.6450 8.89648   3
  -4   1 -13 16.4544 8.31337   5
   4   1 -13 3.56823 7.98684   3
  -4  -1 -13 16.5314 8.61148   3
  -4  -1 -13 22.2288 9.10681   5
  -4  -1 -13 15.9177 8.30721   6
  -1   4 -13 13.4189 7.89041   3
  -1   4 -13 10.9103 7.97580   5
  -1   4 -13 8.65565 7.74566   6
   1  -4 -13 24.7046 9.20786   3
   1  -4 -13 9.42690 8.05333   5
   4   1 -13 9.75798 8.44192   5
   4  -2 -13 50.0553 10.2173   5
   2   4 -13 56.1692 10.0997   3
   2   4 -13 51.9774 10.1472   5
  -4   2 -13 37.9438 10.0468   6
  -2  -4 -13 25.5091 9.53304   3
  -4   2 -13 28.4298 9.07328   5
  -4   2 -13 49.6917 10.3236   3
   4  -2 -13 50.6717 10.5447   3
   4   2 -13 37.8765 9.52060   5
   4   2 -13 34.8119 9.74274   3
  -4  -2 -13 42.0396 9.65626   3
  -4  -2 -13 43.7526 9.85750   6
  -2   4 -13 50.3128 9.70840   3
  -2   4 -13 46.5060 10.5910   5
  -2   4 -13 29.4192 9.58638   6
   2  -4 -13 42.7176 10.0720   3
   2  -4 -13 44.2437 9.51106   5
   0   0   0    0.00    0.00   0
;
_shelx_hkl_checksum              4809
#END Tags that were not found in dictionaries
loop_
_space_group_symop_operation_xyz
'x, y, z'
'-y, x, z+1/2'
'-x, -y, z'
'y, -x, z+1/2'
'x+1/2, -y+1/2, -z'
'-x+1/2, y+1/2, -z'
'y+1/2, x+1/2, -z+1/2'
'-y+1/2, -x+1/2, -z+1/2'
'-x, -y, -z'
'y, -x, -z-1/2'
'x, y, -z'
'-y, x, -z-1/2'
'-x-1/2, y-1/2, z'
'x-1/2, -y-1/2, z'
'-y-1/2, -x-1/2, z-1/2'
'y-1/2, x-1/2, z-1/2'
loop_
_atom_site_label
_atom_site_type_symbol
_atom_site_fract_x
_atom_site_fract_y
_atom_site_fract_z
_atom_site_U_iso_or_equiv
_atom_site_adp_type
_atom_site_occupancy
_atom_site_site_symmetry_order
_atom_site_calc_flag
_atom_site_refinement_flags_posn
_atom_site_refinement_flags_adp
_atom_site_refinement_flags_occupancy
U1 U 0.0000 0.0000 0.2500 0.00461(5) Uani 1 4 d S T P
Sr1 Sr 0.0000 0.5000 0.2500 0.00650(8) Uani 1 4 d S T P
P1 P 0.03525(6) 0.23717(6) 0.0000 0.00506(13) Uani 1 2 d S T P
S1 S 0.23154(4) 0.07144(4) 0.32491(4) 0.00705(9) Uani 1 1 d . . .
S2 S 0.13578(6) 0.07830(6) 0.0000 0.00573(13) Uani 1 2 d S T P
S3 S 0.13659(6) 0.38865(6) 0.0000 0.00719(13) Uani 1 2 d S T P
loop_
_atom_site_aniso_label
_atom_site_aniso_U_11
_atom_site_aniso_U_22
_atom_site_aniso_U_33
_atom_site_aniso_U_23
_atom_site_aniso_U_13
_atom_site_aniso_U_12
U1 0.00511(6) 0.00511(6) 0.00362(7) 0.000 0.000 0.000
Sr1 0.00709(11) 0.00709(11) 0.00532(16) 0.000 0.000 -0.00018(13)
P1 0.0058(3) 0.0060(3) 0.0034(3) 0.000 0.000 0.0005(2)
S1 0.0066(2) 0.0088(2) 0.00576(19) 0.00257(16) -0.00007(16) -0.00081(17)
S2 0.0060(3) 0.0068(3) 0.0044(3) 0.000 0.000 0.0011(2)
S3 0.0074(3) 0.0066(3) 0.0076(3) 0.000 0.000 -0.0009(2)
loop_
_atom_type_symbol
_atom_type_description
_atom_type_scat_dispersion_real
_atom_type_scat_dispersion_imag
_atom_type_scat_source
P P 0.1023 0.0942 'International Tables Vol C Tables 4.2.6.8 and 6.1.1.4'
S S 0.1246 0.1234 'International Tables Vol C Tables 4.2.6.8 and 6.1.1.4'
Sr Sr -1.5307 3.2498 'International Tables Vol C Tables 4.2.6.8 and 6.1.1.4'
U U -9.6767 9.6646 'International Tables Vol C Tables 4.2.6.8 and 6.1.1.4'
loop_
_geom_angle_atom_site_label_1
_geom_angle_atom_site_label_2
_geom_angle_atom_site_label_3
_geom_angle
_geom_angle_site_symmetry_1
_geom_angle_site_symmetry_3
S1 U1 S1 149.807(17) . 3
S1 U1 S1 93.890(4) . 10_556
S1 U1 S1 93.890(4) 3 10_556
S1 U1 S1 93.889(5) . 12_556
S1 U1 S1 93.890(4) 3 12_556
S1 U1 S1 149.806(17) 10_556 12_556
S1 U1 S2 70.256(14) . .
S1 U1 S2 139.538(14) 3 .
S1 U1 S2 85.040(15) 10_556 .
S1 U1 S2 70.332(15) 12_556 .
S1 U1 S2 139.538(14) . 9
S1 U1 S2 70.256(14) 3 9
S1 U1 S2 70.333(16) 10_556 9
S1 U1 S2 85.040(15) 12_556 9
S2 U1 S2 71.40(2) . 9
S1 U1 S2 85.040(15) . 2
S1 U1 S2 70.333(15) 3 2
S1 U1 S2 139.539(14) 10_556 2
S1 U1 S2 70.256(14) 12_556 2
S2 U1 S2 131.262(13) . 2
S2 U1 S2 131.262(13) 9 2
S1 U1 S2 70.333(15) . 10_556
S1 U1 S2 85.040(15) 3 10_556
S1 U1 S2 70.256(14) 10_556 10_556
S1 U1 S2 139.539(14) 12_556 10_556
S2 U1 S2 131.263(13) . 10_556
S2 U1 S2 131.262(13) 9 10_556
S2 U1 S2 71.40(2) 2 10_556
S3 Sr1 S3 172.70(2) . 7_455
S3 Sr1 S3 77.87(2) . 9_565
S3 Sr1 S3 102.61(2) 7_455 9_565
S3 Sr1 S3 102.61(2) . 15_666
S3 Sr1 S3 77.87(2) 7_455 15_666
S3 Sr1 S3 172.70(2) 9_565 15_666
S3 Sr1 S1 79.593(14) . 13_665
S3 Sr1 S1 94.211(14) 7_455 13_665
S3 Sr1 S1 122.478(14) 9_565 13_665
S3 Sr1 S1 64.548(15) 15_666 13_665
S3 Sr1 S1 64.547(15) . 12_556
S3 Sr1 S1 122.478(14) 7_455 12_556
S3 Sr1 S1 94.211(14) 9_565 12_556
S3 Sr1 S1 79.592(14) 15_666 12_556
S1 Sr1 S1 121.559(17) 13_665 12_556
S3 Sr1 S1 94.212(14) . 10_566
S3 Sr1 S1 79.592(14) 7_455 10_566
S3 Sr1 S1 64.548(15) 9_565 10_566
S3 Sr1 S1 122.478(14) 15_666 10_566
S1 Sr1 S1 65.263(16) 13_665 10_566
S1 Sr1 S1 153.519(15) 12_556 10_566
S3 Sr1 S1 122.477(14) . 14_565
S3 Sr1 S1 64.548(15) 7_455 14_565
S3 Sr1 S1 79.592(14) 9_565 14_565
S3 Sr1 S1 94.211(14) 15_666 14_565
S1 Sr1 S1 153.519(15) 13_665 14_565
S1 Sr1 S1 65.263(16) 12_556 14_565
S1 Sr1 S1 121.559(17) 10_566 14_565
S3 Sr1 Sr1 141.066(10) . 9_566
S3 Sr1 Sr1 38.935(10) 7_455 9_566
S3 Sr1 Sr1 141.065(10) 9_565 9_566
S3 Sr1 Sr1 38.935(10) 15_666 9_566
S1 Sr1 Sr1 76.759(8) 13_665 9_566
S1 Sr1 Sr1 103.241(8) 12_556 9_566
S1 Sr1 Sr1 103.241(8) 10_566 9_566
S1 Sr1 Sr1 76.759(8) 14_565 9_566
S3 Sr1 Sr1 38.934(10) . 9_565
S3 Sr1 Sr1 141.065(10) 7_455 9_565
S3 Sr1 Sr1 38.935(10) 9_565 9_565
S3 Sr1 Sr1 141.065(10) 15_666 9_565
S1 Sr1 Sr1 103.241(8) 13_665 9_565
S1 Sr1 Sr1 76.759(8) 12_556 9_565
S1 Sr1 Sr1 76.759(8) 10_566 9_565
S1 Sr1 Sr1 103.241(8) 14_565 9_565
Sr1 Sr1 Sr1 180.0 9_566 9_565
S3 P1 S1 110.08(3) . 2_554
S3 P1 S1 110.08(3) . 12_556
S1 P1 S1 110.07(4) 2_554 12_556
S3 P1 S2 113.89(4) . .
S1 P1 S2 106.29(3) 2_554 .
S1 P1 S2 106.29(3) 12_556 .
P1 S1 U1 94.50(2) 10_556 .
P1 S1 Sr1 90.92(2) 10_556 10_556
U1 S1 Sr1 137.472(16) . 10_556
P1 S2 U1 88.627(19) . 9
P1 S2 U1 88.627(19) . .
U1 S2 U1 108.60(2) 9 .
P1 S3 Sr1 93.39(2) . 9_565
P1 S3 Sr1 93.39(2) . .
Sr1 S3 Sr1 102.13(2) 9_565 .
loop_
_geom_bond_atom_site_label_1
_geom_bond_atom_site_label_2
_geom_bond_distance
_geom_bond_site_symmetry_2
U1 S1 2.7535(5) .
U1 S1 2.7536(5) 3
U1 S1 2.7536(5) 10_556
U1 S1 2.7536(5) 12_556
U1 S2 2.9471(4) .
U1 S2 2.9471(4) 9
U1 S2 2.9471(4) 2
U1 S2 2.9471(4) 10_556
Sr1 S3 3.0768(4) .
Sr1 S3 3.0768(4) 7_455
Sr1 S3 3.0768(4) 9_565
Sr1 S3 3.0768(4) 15_666
Sr1 S1 3.1312(5) 13_665
Sr1 S1 3.1312(5) 12_556
Sr1 S1 3.1312(5) 10_566
Sr1 S1 3.1312(5) 14_565
Sr1 Sr1 4.78670(9) 9_566
Sr1 Sr1 4.78670(10) 9_565
P1 S3 1.9996(9) .
P1 S1 2.0454(6) 2_554
P1 S1 2.0454(6) 12_556
P1 S2 2.0627(10) .
S1 P1 2.0454(6) 10_556
S1 Sr1 3.1312(5) 10_556
S2 U1 2.9471(4) 9
S3 Sr1 3.0768(4) 9_565
