#------------------------------------------------------------------------------
#$Date: 2016-03-24 00:05:28 +0200 (Thu, 24 Mar 2016) $
#$Revision: 179523 $
#$URL: svn://www.crystallography.net/cod/cif/4/34/20/4342083.cif $
#------------------------------------------------------------------------------
#
# This file is available in the Crystallography Open Database (COD),
# http://www.crystallography.net/
#
# All data on this site have been placed in the public domain by the
# contributors.
#
data_4342083
loop_
_publ_author_name
'Hayes, Thomas R.'
'Lyon, Patrice A.'
'Barnes, Charles L.'
'Trabue, Steven'
'Benny, Paul D.'
_publ_section_title
;
 Influence of Functionalized Pyridine Ligands on the Radio/Chemical
 Behavior of [M(I)(CO)3](+) (M = Re and (99m)Tc) 2 + 1 Complexes.
;
_journal_issue                   4
_journal_name_full               'Inorganic chemistry'
_journal_page_first              1528
_journal_page_last               1534
_journal_paper_doi               10.1021/ic502520x
_journal_volume                  54
_journal_year                    2015
_chemical_formula_moiety         'C14 H10 N3 O5 Re, C1 H4 O'
_chemical_formula_sum            'C15 H14 N3 O6 Re'
_chemical_formula_weight         518.49
_space_group_crystal_system      triclinic
_space_group_IT_number           2
_space_group_name_Hall           '-P 1'
_space_group_name_H-M_alt        'P -1'
_symmetry_cell_setting           triclinic
_symmetry_Int_Tables_number      2
_symmetry_space_group_name_Hall  '-P 1'
_symmetry_space_group_name_H-M   'P -1'
_atom_sites_solution_hydrogens   mixed
_audit_creation_method           SHELXL-2013
_cell_angle_alpha                85.8580(10)
_cell_angle_beta                 83.2510(10)
_cell_angle_gamma                82.3300(10)
_cell_formula_units_Z            2
_cell_length_a                   8.1472(8)
_cell_length_b                   8.7294(8)
_cell_length_c                   12.1803(11)
_cell_measurement_reflns_used    8249
_cell_measurement_temperature    100(2)
_cell_measurement_theta_max      27.5
_cell_measurement_theta_min      2.5
_cell_volume                     851.16(14)
_computing_cell_refinement       'APEX2 (Bruker AXS, 2008)'
_computing_data_collection       'APEX2 (Bruker AXS, 2008)'
_computing_data_reduction        'APEX2 (Bruker AXS, 2008)'
_computing_molecular_graphics    'X-SEED, Barbour, 2001'
_computing_publication_material  'CIFTAB (Sheldrick, 2013)'
_computing_structure_refinement  'SHELXL-2013 (Sheldrick, 2013)'
_computing_structure_solution    'SHELXS-2013 (Sheldrick, 2013)'
_diffrn_ambient_temperature      100(2)
_diffrn_measured_fraction_theta_full 0.999
_diffrn_measured_fraction_theta_max 0.989
_diffrn_measurement_device_type  'Bruker APEXII CCD area detector'
_diffrn_measurement_method       'omega scans'
_diffrn_radiation_type           MoK\a
_diffrn_radiation_wavelength     0.71073
_diffrn_reflns_av_R_equivalents  0.0257
_diffrn_reflns_av_unetI/netI     0.0294
_diffrn_reflns_Laue_measured_fraction_full 0.999
_diffrn_reflns_Laue_measured_fraction_max 0.989
_diffrn_reflns_limit_h_max       10
_diffrn_reflns_limit_h_min       -10
_diffrn_reflns_limit_k_max       11
_diffrn_reflns_limit_k_min       -11
_diffrn_reflns_limit_l_max       15
_diffrn_reflns_limit_l_min       -15
_diffrn_reflns_number            10121
_diffrn_reflns_point_group_measured_fraction_full 0.999
_diffrn_reflns_point_group_measured_fraction_max 0.989
_diffrn_reflns_theta_full        25.242
_diffrn_reflns_theta_max         27.544
_diffrn_reflns_theta_min         1.686
_diffrn_standards_decay_%        0.0
_exptl_absorpt_coefficient_mu    7.175
_exptl_absorpt_correction_T_max  0.67
_exptl_absorpt_correction_T_min  0.35
_exptl_absorpt_correction_type   multi-scan
_exptl_absorpt_process_details
;
 Data were corrected for decay and absorption using the program SADABS 
 (Sheldrick, G. M. (2003). SADABS. Version 2.10. University of
 G\"ottingen, Germany).
;
_exptl_crystal_colour            Yellow
_exptl_crystal_density_diffrn    2.023
_exptl_crystal_description       Plate
_exptl_crystal_F_000             496
_exptl_crystal_size_max          0.500
_exptl_crystal_size_mid          0.300
_exptl_crystal_size_min          0.060
_refine_diff_density_max         2.113
_refine_diff_density_min         -1.648
_refine_diff_density_rms         0.129
_refine_ls_extinction_method     none
_refine_ls_goodness_of_fit_ref   1.047
_refine_ls_hydrogen_treatment    mixed
_refine_ls_matrix_type           full
_refine_ls_number_parameters     231
_refine_ls_number_reflns         3891
_refine_ls_number_restraints     0
_refine_ls_restrained_S_all      1.047
_refine_ls_R_factor_all          0.0199
_refine_ls_R_factor_gt           0.0192
_refine_ls_shift/su_max          0.001
_refine_ls_shift/su_mean         0.000
_refine_ls_structure_factor_coef Fsqd
_refine_ls_weighting_details
'w=1/[\s^2^(Fo^2^)+(0.0265P)^2^+0.5995P] where P=(Fo^2^+2Fc^2^)/3'
_refine_ls_weighting_scheme      calc
_refine_ls_wR_factor_gt          0.0476
_refine_ls_wR_factor_ref         0.0480
_reflns_Friedel_coverage         0.000
_reflns_number_gt                3783
_reflns_number_total             3891
_reflns_threshold_expression     'I > 2\s(I)'
_cod_data_source_file            ic502520x_si_002.cif
_cod_data_source_block           Re(CO)3(pic)(4-NH2-Py)
_cod_depositor_comments
'Adding full bibliography for 4342080--4342084.cif.'
_cod_database_code               4342083
#BEGIN Tags that were not found in dictionaries:
_shelx_space_group_comment
;
The symmetry employed for this shelxl refinement is uniquely defined
by the following loop, which should always be used as a source of
symmetry information in preference to the above space-group names.
They are only intended as comments.
;
_shelx_estimated_absorpt_t_min   0.124
_shelx_estimated_absorpt_t_max   0.673
_shelxl_version_number           2013-4
_shelx_res_file
;
REM  ReCO3pic4NH2 in P-1
REM R1 =  0.0192 for    3783 Fo > 4sig(Fo)  and  0.0199 for all    3891 data
REM    231 parameters refined using      0 restraints
REM Highest difference peak  2.111,  deepest hole -1.647,  1-sigma level  0.129
TITL ReCO3pic4NH2 in P-1
CELL 0.71073 8.1472 8.7294 12.1803 85.858 83.251 82.330
ZERR 2.0000 0.0008 0.0008 0.0011 0.001 0.001 0.001
LATT 1
SFAC C H N O RE
UNIT 30 28 6 12 2
MERG 2
FMAP 2
GRID
PLAN 20
TEMP -173
SIZE 0.06 0.3 0.5
BOND $H
CONF
HTAB O6 O2
L.S. 10
ACTA
WGHT    0.026500    0.599500
FVAR       0.13003
RE1   5    0.301513    0.351952    0.713413    11.00000    0.00808    0.00728 =
         0.01057   -0.00062   -0.00137   -0.00170
O1    4    0.416301    0.140761    0.787994    11.00000    0.01287    0.00925 =
         0.01360   -0.00055   -0.00454   -0.00121
O2    4    0.453554   -0.116943    0.783477    11.00000    0.02224    0.01231 =
         0.01571    0.00257   -0.00600   -0.00016
O3    4    0.097242    0.619907    0.595242    11.00000    0.01818    0.01589 =
         0.03229    0.00596   -0.00557    0.00022
O4    4    0.619931    0.467865    0.595037    11.00000    0.01433    0.02265 =
         0.01899    0.00340   -0.00035   -0.00748
O5    4    0.335609    0.559397    0.901622    11.00000    0.03226    0.02347 =
         0.02471   -0.01160    0.00152   -0.01083
O6    4    0.780196   -0.212431    0.849193    11.00000    0.03412    0.02522 =
         0.04004   -0.00914   -0.01975    0.00845
H1O6  2    0.686731   -0.183310    0.845683    11.00000    0.03700
N1    3    0.285571    0.176907    0.597863    11.00000    0.00864    0.01082 =
         0.01124   -0.00024   -0.00155   -0.00181
N2    3    0.077856    0.265911    0.800439    11.00000    0.01000    0.01110 =
         0.01072    0.00025   -0.00005   -0.00236
N3    3   -0.362241    0.136796    0.970746    11.00000    0.01508    0.02188 =
         0.01161   -0.00052   -0.00188   -0.00771
AFIX  93
H3A   2   -0.448207    0.132584    0.934058    11.00000   -1.20000
H3B   2   -0.369907    0.114701    1.042664    11.00000   -1.20000
AFIX   0
C1    1    0.406641    0.013368    0.744083    11.00000    0.00674    0.01297 =
         0.01025   -0.00023    0.00032   -0.00142
C2    1    0.334523    0.029347    0.634634    11.00000    0.00817    0.01127 =
         0.01031   -0.00079   -0.00055   -0.00269
C3    1    0.321742   -0.096937    0.575747    11.00000    0.01488    0.01178 =
         0.01694   -0.00095   -0.00103   -0.00226
AFIX  43
H3    2    0.356689   -0.198913    0.603926    11.00000   -1.20000
AFIX   0
C4    1    0.256969   -0.072446    0.474658    11.00000    0.01796    0.01703 =
         0.01641   -0.00665   -0.00191   -0.00577
AFIX  43
H4    2    0.245415   -0.157492    0.432948    11.00000   -1.20000
AFIX   0
C5    1    0.209207    0.078612    0.435338    11.00000    0.01463    0.02176 =
         0.01223   -0.00158   -0.00355   -0.00332
AFIX  43
H5    2    0.165687    0.098255    0.365959    11.00000   -1.20000
AFIX   0
C6    1    0.225933    0.199818    0.498617    11.00000    0.01305    0.01478 =
         0.01299    0.00285   -0.00215   -0.00181
AFIX  43
H6    2    0.194250    0.302846    0.471121    11.00000   -1.20000
AFIX   0
C7    1    0.175823    0.521043    0.640947    11.00000    0.01254    0.01029 =
         0.02060   -0.00100   -0.00054   -0.00307
C8    1    0.500630    0.421756    0.638520    11.00000    0.01578    0.01048 =
         0.01310   -0.00066   -0.00463   -0.00247
C9    1    0.320694    0.483097    0.831215    11.00000    0.01651    0.01110 =
         0.01894   -0.00386    0.00177   -0.00220
C10   1    0.064067    0.228901    0.911547    11.00000    0.01218    0.01299 =
         0.01267   -0.00031   -0.00365   -0.00045
AFIX  43
H10   2    0.158426    0.232201    0.949913    11.00000   -1.20000
AFIX   0
C11   1   -0.077825    0.187334    0.970817    11.00000    0.01462    0.01150 =
         0.01160   -0.00007   -0.00304   -0.00149
AFIX  43
H11   2   -0.080875    0.165418    1.048518    11.00000   -1.20000
AFIX   0
C12   1   -0.219675    0.176853    0.917105    11.00000    0.01325    0.00816 =
         0.01366   -0.00211   -0.00056   -0.00100
C13   1   -0.204424    0.212725    0.802019    11.00000    0.01195    0.01577 =
         0.01356   -0.00123   -0.00284   -0.00415
AFIX  43
H13   2   -0.295285    0.206576    0.760958    11.00000   -1.20000
AFIX   0
C14   1   -0.058378    0.256529    0.749258    11.00000    0.01326    0.01400 =
         0.00988   -0.00052   -0.00201   -0.00198
AFIX  43
H14   2   -0.052763    0.281851    0.671844    11.00000   -1.20000
AFIX   0
C15   1    0.790943   -0.372943    0.834066    11.00000    0.03472    0.02315 =
         0.02657   -0.00566   -0.00680    0.00486
AFIX 137
H15A  2    0.899078   -0.424646    0.853104    11.00000   -1.50000
H15B  2    0.779708   -0.388606    0.756568    11.00000   -1.50000
H15C  2    0.701479   -0.416650    0.882057    11.00000   -1.50000
AFIX   0
HKLF 4

REM  ReCO3pic4NH2 in P-1
REM R1 =  0.0192 for    3783 Fo > 4sig(Fo)  and  0.0199 for all    3891 data
REM    231 parameters refined using      0 restraints

END

WGHT      0.0265      0.5995

REM Highest difference peak  2.113,  deepest hole -1.648,  1-sigma level  0.129
Q1    1   0.3303  0.3351  0.6424  11.00000  0.05    2.11
Q2    1   0.2768  0.3692  0.7875  11.00000  0.05    2.03
Q3    1   0.3629  0.4256  0.7187  11.00000  0.05    1.01
Q4    1   0.2427  0.2860  0.7109  11.00000  0.05    0.89
Q5    1   0.3812  0.3003  0.7286  11.00000  0.05    0.80
Q6    1   0.2105  0.4076  0.7025  11.00000  0.05    0.79
Q7    1   0.3628  0.4096  0.8061  11.00000  0.05    0.78
Q8    1  -0.0295  0.1196  1.2342  11.00000  0.05    0.69
Q9    1   0.4327  0.4942  0.7179  11.00000  0.05    0.66
Q10   1   0.4452  0.3659  0.7058  11.00000  0.05    0.63
Q11   1   0.1712  0.2089  0.7196  11.00000  0.05    0.59
Q12   1   0.3283  0.2203  0.6126  11.00000  0.05    0.50
Q13   1   0.0574  0.2570  0.8607  11.00000  0.05    0.43
Q14   1   0.2828  0.5200  0.8887  11.00000  0.05    0.42
Q15   1   0.2889  0.5290  0.7217  11.00000  0.05    0.41
Q16   1   0.4619  0.1886  0.7220  11.00000  0.05    0.41
Q17   1   0.2240  0.4707  0.8127  11.00000  0.05    0.41
Q18   1   0.3151 -0.0853  0.5208  11.00000  0.05    0.40
Q19   1   0.2585  0.4973  0.6567  11.00000  0.05    0.39
Q20   1   0.3075  0.1789  0.5422  11.00000  0.05    0.38
;
_shelx_res_checksum              38439
_shelx_hkl_file
;
   1   0   0   71.71    2.84
   1   0   0   76.44    2.99
   1   0   0   71.49    2.55
   2   0   0  419.65   15.67
   2   0   0  425.64   16.51
   2   0   0  396.11   13.96
   2   0   0  397.06   13.70
   3   0   0  226.88    8.66
   3   0   0  225.99    9.13
   3   0   0  226.90    7.63
   3   0   0  220.94    7.74
   4   0   0    8.83    0.45
   4   0   0    9.73    0.50
   4   0   0    9.91    0.48
   4   0   0   10.23    0.51
  -5   0   0  166.20    6.27
   5   0   0  159.75    6.59
   5   0   0  161.31    5.58
   5   0   0  154.66    5.60
  -6   0   0    7.04    0.43
   6   0   0    7.75    0.42
   6   0   0    6.84    0.49
   6   0   0    6.89    0.44
  -7   0   0   20.86    0.99
   7   0   0   21.11    1.00
   7   0   0   19.54    1.01
  -8   0   0  110.28    4.33
   8   0   0  108.11    3.94
   8   0   0  101.97    4.51
  -9   0   0    2.79    0.40
   9   0   0    2.06    0.32
 -10   0   0   72.68    2.89
  10  -1   0   18.36    1.17
   9  -1   0   29.48    1.50
   8  -1   0   84.03    3.69
   8  -1   0   84.07    3.34
  -8   1   0   89.74    3.58
   7  -1   0    0.68    0.17
   7  -1   0    0.62    0.24
  -7   1   0    0.58    0.18
   6  -1   0  173.71    7.30
   6  -1   0  176.35    6.29
  -6   1   0  178.59    6.98
  -6   1   0  182.24    6.19
   5  -1   0  105.29    4.33
   5  -1   0  103.97    3.80
  -5   1   0  104.00    4.15
   4  -1   0   83.30    3.12
   4  -1   0   86.41    3.56
  -4   1   0   87.80    3.41
   3  -1   0  307.85   12.16
   3  -1   0  280.77   10.20
  -3   1   0  305.51   11.57
  -3   1   0  307.63   10.26
   2  -1   0    0.23    0.08
   2  -1   0   -0.06    0.10
  -2   1   0   -0.13    0.06
  -2   1   0   -0.03    0.05
   1  -1   0  243.65    9.63
   1  -1   0  228.72    8.02
  -1   1   0  240.13    9.15
  -1   1   0  240.77    8.11
   0  -1   0   61.41    2.49
   0  -1   0   59.91    2.05
   0   1   0   62.10    2.36
   0   1   0   60.24    2.09
  -1  -1   0  206.70    6.88
   1   1   0  210.74    7.89
   1   1   0  204.32    7.07
   1   1   0  203.64    8.33
  -2  -1   0  203.54    6.76
   2   1   0  210.50    8.17
   2   1   0  181.82    6.99
   2   1   0  209.97    7.73
  -3  -1   0    8.19    0.37
   3   1   0    8.32    0.42
   3   1   0    8.28    0.37
   3   1   0    6.92    0.45
   4   1   0  110.84    3.83
   4   1   0  111.70    4.32
   4   1   0  109.14    4.01
   4   1   0  112.39    4.58
   5   1   0   78.12    3.26
   5   1   0   75.34    2.76
   5   1   0   77.96    3.07
   5   1   0   78.90    2.89
  -6  -1   0   18.51    0.85
  -6  -1   0   19.00    0.87
   6   1   0   20.11    0.86
   6   1   0   20.01    0.91
   6   1   0   18.11    0.93
  -7  -1   0   91.09    3.52
  -7  -1   0   85.86    3.18
   7   1   0   86.38    3.23
   7   1   0   85.54    3.71
  -8  -1   0    0.46    0.20
   8   1   0    0.72    0.21
  -9  -1   0   97.04    3.54
   9   1   0   92.43    4.08
 -10  -1   0   36.22    1.62
  10   1   0   36.25    1.78
  10  -2   0    7.48    0.88
   9  -2   0   57.69    2.60
  -9   2   0   60.77    2.65
   8  -2   0    0.57    0.30
  -8   2   0    0.34    0.20
   7  -2   0   67.57    2.92
   7  -2   0   64.96    2.74
  -7   2   0   69.60    2.86
   6  -2   0  145.17    5.97
   6  -2   0  140.89    5.26
  -6   2   0  146.75    5.75
   5  -2   0   13.90    0.82
   5  -2   0   15.08    0.74
  -5   2   0   14.18    0.75
  -5   2   0   15.70    0.61
   4  -2   0  249.22    9.19
   4  -2   0  266.54   10.84
  -4   2   0  278.66    9.13
  -4   2   0  272.20   10.35
   3  -2   0   60.56    2.38
   3  -2   0   63.33    2.66
  -3   2   0   63.79    2.57
  -3   2   0   67.09    2.23
   2  -2   0  168.12    6.80
   2  -2   0  159.50    5.76
  -2   2   0  168.82    6.49
  -2   2   0  172.49    5.72
   1  -2   0  502.90   16.78
   1  -2   0  461.48   20.27
  -1   2   0  503.72   19.22
  -1   2   0  539.11   17.05
   0  -2   0   39.85    1.66
   0  -2   0   37.82    1.36
   0   2   0   38.95    1.57
   0   2   0   39.17    1.39
  -1  -2   0   83.80    2.60
  -1  -2   0   78.25    3.15
   1   2   0   78.87    2.70
   1   2   0   65.01    3.00
  -2  -2   0   54.04    1.87
   2   2   0   55.74    2.12
   2   2   0   53.28    2.02
   2   2   0   54.86    2.28
  -3  -2   0  121.15    4.06
   3   2   0  117.38    4.32
   3   2   0  119.35    4.91
   3   2   0  120.78    4.61
  -4  -2   0   82.08    2.75
   4   2   0   78.18    3.09
   4   2   0   73.62    3.01
   4   2   0   82.59    3.32
  -5  -2   0   15.71    0.67
   5   2   0   16.28    0.69
   5   2   0   16.17    0.79
   5   2   0   13.93    0.84
  -6  -2   0   72.93    2.68
   6   2   0   76.20    2.94
   6   2   0   76.06    3.20
   6   2   0   75.11    2.98
  -7  -2   0   46.48    1.76
   7   2   0   47.28    1.95
   7   2   0   44.46    2.06
  -8  -2   0   53.40    2.09
   8   2   0   53.38    2.44
   8   2   0   57.13    2.25
  -9  -2   0   47.08    1.88
   9   2   0   46.37    2.17
  10   2   0    2.12    0.37
   9  -3   0   21.94    1.44
  -9   3   0   26.78    1.38
   8  -3   0   17.43    1.19
  -8   3   0   20.01    1.09
   7  -3   0  108.39    4.26
  -7   3   0  112.68    4.55
   6  -3   0    1.21    0.20
   6  -3   0    1.69    0.38
  -6   3   0    1.08    0.24
   5  -3   0  170.12    7.00
   5  -3   0  173.84    6.13
  -5   3   0  167.85    6.73
   4  -3   0   29.83    1.36
   4  -3   0   29.65    1.35
  -4   3   0   31.05    1.10
  -4   3   0   30.43    1.35
   3  -3   0   41.70    1.69
   3  -3   0   40.30    1.79
  -3   3   0   42.91    1.48
  -3   3   0   41.43    1.75
   2  -3   0  116.20    4.16
   2  -3   0  116.42    4.89
  -2   3   0  115.99    4.65
  -2   3   0  124.38    4.08
   1  -3   0   -0.01    0.09
   1  -3   0    0.18    0.14
  -1   3   0   -0.16    0.05
  -1   3   0   -0.12    0.08
   0  -3   0   31.46    1.38
   0  -3   0   30.46    1.12
   0   3   0   30.68    1.14
   0   3   0   31.56    1.30
  -1  -3   0   14.20    0.53
  -1  -3   0   14.37    0.65
   1   3   0   14.19    0.58
   1   3   0   11.57    0.65
  -2  -3   0   47.68    1.64
  -2  -3   0   46.48    2.00
   2   3   0   46.36    1.78
   2   3   0   48.06    1.87
  -3  -3   0  242.94   10.15
  -3  -3   0  250.49    8.37
   3   3   0  245.36   10.15
   3   3   0  257.38    9.57
   3   3   0  251.49    8.73
  -4  -3   0    0.85    0.12
   4   3   0    0.74    0.23
   4   3   0    0.68    0.15
   4   3   0    0.73    0.09
  -5  -3   0  180.19    5.98
   5   3   0  170.73    6.78
   5   3   0  181.37    7.25
   5   3   0  170.78    6.42
  -6  -3   0   46.44    1.71
   6   3   0   43.32    2.03
   6   3   0   48.10    2.07
  -7  -3   0   32.98    1.29
   7   3   0   31.89    1.59
   7   3   0   32.08    1.53
  -8  -3   0   95.79    3.38
   8   3   0   95.24    3.72
   8   3   0   91.28    4.04
   9   3   0    3.40    0.43
  10   3   0   36.42    1.81
   9  -4   0   17.19    1.24
  -9   4   0   16.34    1.08
   8  -4   0   47.95    2.20
  -8   4   0   42.72    2.10
   7  -4   0   13.16    0.97
  -7   4   0   12.95    0.84
   6  -4   0   46.57    2.05
  -6   4   0   45.10    2.05
   5  -4   0   63.39    2.75
   5  -4   0   66.74    2.61
  -5   4   0   62.69    2.71
   4  -4   0    7.90    0.47
   4  -4   0    7.10    0.57
  -4   4   0    9.15    0.54
   3  -4   0   96.62    4.09
   3  -4   0   97.65    3.59
  -3   4   0   96.98    3.93
  -3   4   0   98.75    3.39
   2  -4   0   16.37    0.93
   2  -4   0   18.83    0.85
  -2   4   0   18.76    0.88
  -2   4   0   18.60    0.71
   1  -4   0  221.53    9.70
   1  -4   0  230.85    7.98
  -1   4   0  243.55    8.07
  -1   4   0  243.78    9.13
   0  -4   0  165.01    5.64
   0  -4   0  162.84    6.86
   0   4   0  170.78    6.51
   0   4   0  166.17    5.76
  -1  -4   0    3.03    0.25
  -1  -4   0    3.15    0.20
   1   4   0    2.95    0.23
   1   4   0    3.33    0.29
  -2  -4   0  190.66    7.71
  -2  -4   0  202.02    6.35
   2   4   0  171.26    7.32
   2   4   0  189.21    6.59
  -3  -4   0   39.01    1.72
  -3  -4   0   38.50    1.39
   3   4   0   39.27    1.55
   3   4   0   38.37    1.58
  -4  -4   0  112.61    3.87
  -4  -4   0  112.70    4.73
   4   4   0  114.75    4.23
   4   4   0  112.91    4.38
  -5  -4   0  187.72    6.38
  -5  -4   0  190.47    7.77
   5   4   0  185.01    7.75
   5   4   0  189.09    6.89
  -6  -4   0    0.61    0.14
   6   4   0    0.58    0.18
   6   4   0    0.49    0.29
  -7  -4   0  140.73    4.79
   7   4   0  140.70    5.82
   7   4   0  131.98    5.30
   8   4   0   18.41    1.03
   8   4   0   18.16    1.20
  -9  -4   0   32.33    1.61
   9   4   0   29.53    1.56
   9   4   0   31.74    1.67
 -10  -4   0   47.75    2.33
   8  -5   0   37.74    1.91
  -8   5   0   35.12    1.83
   7  -5   0   49.32    2.19
  -7   5   0   44.62    2.18
   6  -5   0   72.38    2.88
  -6   5   0   66.56    2.99
   5  -5   0    0.08    0.19
  -5   5   0    0.31    0.19
   4  -5   0   79.01    3.46
   4  -5   0   84.69    3.15
  -4   5   0   80.21    3.37
   3  -5   0   56.21    2.53
   3  -5   0   54.94    2.25
  -3   5   0   58.02    2.43
  -3   5   0   58.19    2.04
   2  -5   0   58.45    2.15
   2  -5   0   45.34    2.51
  -2   5   0   59.75    2.38
  -2   5   0   59.95    2.02
   1  -5   0  129.66    4.60
   1  -5   0  128.41    5.62
  -1   5   0  136.10    5.27
  -1   5   0  134.45    4.62
   0  -5   0    9.95    0.62
   0  -5   0    9.27    0.47
   0   5   0   10.19    0.58
   0   5   0    9.91    0.48
  -1  -5   0  238.12    7.72
  -1  -5   0  241.65    9.38
   1   5   0  228.97    7.92
   1   5   0  203.76    8.92
  -2  -5   0  159.36    5.15
  -2  -5   0  159.43    6.27
   2   5   0  153.43    5.36
   2   5   0  131.93    5.96
  -3  -5   0   86.65    2.97
  -3  -5   0   85.50    3.64
   3   5   0   85.15    3.38
   3   5   0   85.84    3.21
  -4  -5   0  160.73    6.71
  -4  -5   0  160.06    5.49
   4   5   0  164.54    5.89
  -5  -5   0    3.12    0.24
  -5  -5   0    3.14    0.36
   5   5   0    3.40    0.51
  -6  -5   0  136.32    4.66
  -6  -5   0  131.76    5.69
   6   5   0  137.52    5.21
  -7  -5   0   30.98    1.59
   7   5   0   35.20    1.78
  -8  -5   0   44.74    2.10
   8   5   0   42.59    2.19
  -9  -5   0   61.74    2.75
   9   5   0   54.36    2.70
  -8   6   0    6.26    0.73
   7  -6   0  111.04    4.37
  -7   6   0  113.22    4.77
   6  -6   0    5.59    0.68
  -6   6   0    4.78    0.58
   5  -6   0   51.34    2.19
  -5   6   0   49.01    2.28
   4  -6   0   52.53    2.20
  -4   6   0   52.28    2.33
   3  -6   0    7.26    0.60
   3  -6   0    8.12    0.61
  -3   6   0    7.63    0.58
   2  -6   0  233.66    7.99
   2  -6   0  199.63    9.60
  -2   6   0  251.04    9.11
  -2   6   0  237.89    7.97
   1  -6   0   32.23    1.61
   1  -6   0   29.12    1.27
  -1   6   0   31.76    1.24
  -1   6   0   32.30    1.47
   0  -6   0   83.62    3.83
   0  -6   0   89.06    3.12
   0   6   0   89.52    3.63
   0   6   0   88.72    3.17
  -1  -6   0  229.62    8.97
  -1  -6   0  225.07    7.36
   1   6   0  195.52    8.51
   1   6   0  213.88    7.55
  -2  -6   0    3.49    0.38
  -2  -6   0    2.42    0.23
   2   6   0    2.17    0.29
   2   6   0    2.38    0.32
  -3  -6   0  186.67    7.62
  -3  -6   0  181.40    6.24
   3   6   0  183.14    6.57
  -4  -6   0   31.06    1.18
  -4  -6   0   32.05    1.51
   4   6   0   30.03    1.44
  -5  -6   0   34.65    1.64
  -5  -6   0   32.67    1.27
   5   6   0   34.43    1.64
  -6  -6   0   61.93    2.82
   6   6   0   63.64    2.75
  -7  -6   0    3.51    0.45
   7   6   0    4.55    0.67
  -8  -6   0   72.17    3.29
   8   6   0   73.24    3.26
  -9  -6   0    7.33    0.67
   9   6   0    7.09    0.91
   7  -7   0   10.59    1.00
  -7   7   0   10.82    0.94
   6  -7   0   39.16    1.86
  -6   7   0   36.48    1.92
   5  -7   0   70.73    2.91
  -5   7   0   71.23    3.16
   4  -7   0    0.13    0.25
  -4   7   0    0.32    0.25
   3  -7   0   76.36    2.98
  -3   7   0   75.70    3.27
   2  -7   0   70.74    3.33
   2  -7   0   71.60    2.74
  -2   7   0   71.96    3.08
   1  -7   0   13.70    0.91
   1  -7   0   13.69    0.74
  -1   7   0   13.81    0.68
  -1   7   0   14.58    0.87
   0  -7   0  124.51    5.78
   0  -7   0  139.14    4.74
   0   7   0  138.29    5.51
   0   7   0  137.28    4.82
  -1  -7   0    3.74    0.35
  -1  -7   0    3.65    0.47
   1   7   0    3.39    0.36
   1   7   0    3.49    0.44
  -2  -7   0  239.64    8.28
  -2  -7   0  246.73   10.10
   2   7   0  252.70    9.65
   2   7   0  235.01    8.57
  -3  -7   0   41.52    1.57
  -3  -7   0   42.29    1.97
   3   7   0   41.25    1.78
  -4  -7   0   66.71    2.97
   4   7   0   65.96    2.70
  -5  -7   0   95.47    4.18
   5   7   0   96.40    3.81
  -6  -7   0    1.01    0.29
   6   7   0    1.61    0.45
  -7  -7   0   65.28    3.15
   7   7   0   74.52    3.12
  -8  -7   0   43.07    2.15
   8   7   0   42.50    2.24
   9   7   0    7.80    1.01
   6  -8   0   44.00    2.10
  -6   8   0   45.06    2.29
   5  -8   0   11.91    0.92
  -5   8   0   11.00    0.92
   4  -8   0   75.98    3.07
  -4   8   0   75.18    3.36
   3  -8   0   87.28    3.39
  -3   8   0   85.80    3.75
   2  -8   0    7.72    0.62
  -2   8   0    7.32    0.69
   1  -8   0   89.47    3.36
  -1   8   0   90.56    3.34
  -1   8   0   90.97    3.88
   0  -8   0   24.89    1.10
   0  -8   0   21.21    1.34
   0   8   0   25.95    1.11
   0   8   0   22.62    1.30
  -1  -8   0   50.41    1.89
  -1  -8   0   47.98    2.38
   1   8   0   48.22    1.97
   1   8   0   47.82    2.25
  -2  -8   0   28.87    1.53
  -2  -8   0   28.53    1.18
   2   8   0   28.17    1.33
  -3  -8   0    7.29    0.61
   3   8   0    6.22    0.62
  -4  -8   0   67.10    3.11
   4   8   0   70.24    2.84
  -5  -8   0   13.09    0.88
   5   8   0   11.68    0.94
  -6  -8   0   42.35    2.12
   6   8   0   43.11    2.12
  -7  -8   0   65.69    3.10
   7   8   0   65.96    2.99
  -8  -8   0    0.40    0.32
   8   8   0    0.80    0.51
   5  -9   0    8.83    0.88
  -5   9   0    9.67    0.97
   4  -9   0   72.75    3.02
  -4   9   0   72.21    3.33
   3  -9   0    0.16    0.29
  -3   9   0   -0.06    0.31
   2  -9   0   70.82    2.85
  -2   9   0   70.86    3.22
   1  -9   0   26.66    1.31
  -1   9   0   27.32    1.53
   0  -9   0   23.55    1.10
   0   9   0   22.26    1.08
   0   9   0   20.01    1.28
  -1  -9   0  124.31    4.34
  -1  -9   0  113.15    5.36
   1   9   0  125.66    4.51
  -2  -9   0    7.08    0.71
   2   9   0    6.82    0.65
  -3  -9   0   68.80    3.29
   3   9   0   73.38    2.92
  -4  -9   0   55.46    2.63
   4   9   0   53.39    2.41
  -5  -9   0   12.60    0.95
   5   9   0   15.05    1.07
  -6  -9   0  100.85    4.54
   6   9   0  100.91    4.17
  -7  -9   0    3.34    0.55
   7   9   0    3.08    0.66
   3 -10   0   34.24    1.74
  -3  10   0   32.50    1.88
   2 -10   0   43.29    2.01
  -2  10   0   43.31    2.26
   1 -10   0    5.61    0.63
  -1  10   0    4.32    0.66
   1  10   0   12.45    0.88
  -2 -10   0   22.62    1.49
   2  10   0   24.63    1.31
  -3 -10   0   86.60    4.16
   3  10   0   94.68    3.67
  -4 -10   0    0.80    0.34
   4  10   0    0.00    0.38
  -5 -10   0   60.31    3.04
   5  10   0   66.14    2.88
  -6 -10   0   17.69    1.25
   2  11   0   65.17    2.80
   3  11   0    6.58    0.80
   3  11  -1   34.36    1.79
   2  11  -1    2.85    0.53
   5  10  -1   22.84    1.49
  -5 -10   1   24.69    1.48
   4  10  -1   75.95    3.16
  -4 -10   1   71.95    3.45
   3  10  -1    1.81    0.46
  -3 -10   1    2.77    0.51
   2  10  -1   58.29    2.49
   1  10  -1   58.23    2.43
   0 -10   1    4.18    0.53
   1 -10   1   76.72    3.04
  -2  10  -1    9.72    0.92
   2 -10   1   10.03    0.92
  -3  10  -1   42.31    2.19
   3 -10   1   41.84    2.04
   7   9  -1   49.32    2.58
  -7  -9   1   49.61    2.49
   6   9  -1    1.34    0.47
  -6  -9   1    1.12    0.36
   5   9  -1   50.29    2.34
  -5  -9   1   50.12    2.45
   4   9  -1    8.46    0.80
  -4  -9   1    7.72    0.70
   3   9  -1   64.17    2.65
  -3  -9   1   62.86    2.96
   2   9  -1   66.24    2.67
  -2  -9   1   67.10    2.48
  -2  -9   1   64.10    3.07
   1   9  -1    0.74    0.28
  -1  -9   1    0.90    0.26
   0   9  -1   89.71    3.38
   0  -9   1   88.83    3.34
  -1   9  -1   42.63    2.12
   1  -9   1   44.10    1.86
  -2   9  -1   26.63    1.52
   2  -9   1   28.66    1.40
  -3   9  -1   77.54    3.52
   3  -9   1   81.25    3.23
  -4   9  -1    0.73    0.35
   4  -9   1    0.20    0.32
  -5   9  -1   56.31    2.75
   5  -9   1   57.28    2.56
   8   8  -1   44.21    2.35
  -8  -8   1   45.82    2.35
   7   8  -1    6.22    0.84
  -7  -8   1    7.11    0.67
   6   8  -1   71.63    3.06
  -6  -8   1   68.30    3.20
   5   8  -1   70.68    3.00
  -5  -8   1   72.08    3.25
   4   8  -1    0.93    0.33
  -4  -8   1    1.03    0.29
   3   8  -1   94.60    3.59
  -3  -8   1   95.03    4.08
  -3  -8   1   89.43    3.31
   2   8  -1   21.16    1.08
  -2  -8   1   22.10    0.96
  -2  -8   1   20.83    1.19
   1   8  -1   72.34    2.82
  -1  -8   1   74.24    3.35
  -1  -8   1   74.45    2.73
   0   8  -1   52.10    2.30
   0   8  -1   50.22    1.98
   0  -8   1   45.33    2.40
   0  -8   1   51.70    1.97
  -1   8  -1    5.71    0.46
  -1   8  -1    6.68    0.61
   1  -8   1    6.39    0.53
  -2   8  -1   95.30    4.00
   2  -8   1   93.39    3.56
  -3   8  -1   20.93    1.23
   3  -8   1   23.29    1.21
  -4   8  -1   39.54    1.96
   4  -8   1   40.20    1.90
  -5   8  -1   34.14    1.83
   5  -8   1   37.11    1.80
  -6   8  -1    5.49    0.71
   6  -8   1    4.46    0.69
   8   7  -1   16.40    1.27
  -8  -7   1   13.76    0.97
   7   7  -1   35.81    1.90
  -7  -7   1   34.69    1.79
   6   7  -1  109.66    4.40
  -6  -7   1  111.85    4.81
   5   7  -1   -0.11    0.25
  -5  -7   1   -0.01    0.18
   4   7  -1  172.04    6.31
  -4  -7   1  176.16    7.25
  -4  -7   1  170.81    5.93
   3   7  -1   42.10    1.83
  -3  -7   1   43.83    1.64
  -3  -7   1   44.05    2.02
   2   7  -1   29.74    1.31
  -2  -7   1   29.80    1.19
  -2  -7   1   29.56    1.47
   1   7  -1  142.05    6.10
   1   7  -1  153.10    5.44
  -1  -7   1  153.10    5.28
  -1  -7   1  160.11    6.43
   0   7  -1    0.15    0.17
   0   7  -1    0.34    0.16
   0  -7   1    0.25    0.15
   0  -7   1    0.32    0.20
  -1   7  -1   93.38    3.44
  -1   7  -1   97.65    3.94
   1  -7   1   95.13    3.46
   1  -7   1   93.12    4.18
  -2   7  -1   25.14    1.28
  -2   7  -1   25.25    1.07
   2  -7   1   26.37    1.20
  -3   7  -1   41.69    1.94
   3  -7   1   42.41    1.83
  -4   7  -1  163.28    6.66
   4  -7   1  165.85    6.01
  -5   7  -1    0.33    0.28
   5  -7   1    0.96    0.36
  -6   7  -1   73.19    3.25
   6  -7   1   71.30    3.04
  -7   7  -1   31.20    1.72
   7  -7   1   31.90    1.70
   9   6  -1   39.05    2.17
  -9  -6   1   39.35    1.99
   8   6  -1    9.58    1.05
  -8  -6   1   11.87    0.82
   7   6  -1  113.37    4.58
  -7  -6   1  112.93    4.89
   6   6  -1    3.28    0.55
  -6  -6   1    3.71    0.32
  -6  -6   1    2.74    0.38
   5   6  -1   89.10    3.51
  -5  -6   1   89.94    3.86
  -5  -6   1   88.09    3.13
   4   6  -1   81.77    3.19
  -4  -6   1   81.78    2.90
  -4  -6   1   83.63    3.56
   3   6  -1   24.15    1.10
  -3  -6   1   22.86    0.93
  -3  -6   1   23.16    1.16
   2   6  -1  167.68    5.98
   2   6  -1  166.18    6.68
  -2  -6   1  169.09    6.98
  -2  -6   1  170.44    5.76
   1   6  -1   15.86    0.78
   1   6  -1   16.28    0.87
  -1  -6   1   17.11    0.90
  -1  -6   1   16.93    0.74
   0   6  -1   84.66    3.05
   0   6  -1   86.94    3.45
   0  -6   1   83.30    3.00
   0  -6   1   80.92    3.64
  -1   6  -1  130.07    5.03
  -1   6  -1  127.40    4.43
   1  -6   1  124.03    4.41
   1  -6   1  119.68    5.35
  -2   6  -1    8.80    0.58
  -2   6  -1    9.59    0.47
   2  -6   1    9.41    0.57
   2  -6   1    7.10    0.61
  -3   6  -1  133.95    5.34
   3  -6   1  130.54    4.79
  -4   6  -1   13.56    0.82
   4  -6   1   13.25    0.88
  -5   6  -1   66.27    2.91
   5  -6   1   67.32    2.76
  -6   6  -1   79.88    3.47
   6  -6   1   80.27    3.27
  -7   6  -1   10.18    0.85
   7  -6   1   11.90    1.10
  -8   6  -1   80.00    3.70
   8  -6   1   87.27    3.63
   9   5  -1   -0.05    0.37
  -9  -5   1    0.04    0.20
   8   5  -1  106.26    4.49
  -8  -5   1  112.25    4.76
   7   5  -1   65.31    2.91
   7   5  -1   63.70    2.90
  -7  -5   1   64.79    2.91
  -7  -5   1   66.31    2.39
   6   5  -1   39.69    1.95
  -6  -5   1   41.34    1.91
  -6  -5   1   41.06    1.55
   5   5  -1   78.95    3.12
  -5  -5   1   77.98    3.37
  -5  -5   1   76.75    2.75
   4   5  -1    4.35    0.46
  -4  -5   1    3.25    0.24
  -4  -5   1    3.21    0.32
   3   5  -1  109.09    3.97
  -3  -5   1  108.71    4.56
  -3  -5   1  109.03    3.75
   2   5  -1   97.87    4.19
   2   5  -1  103.63    3.78
  -2  -5   1  110.65    3.62
  -2  -5   1  106.68    4.38
   1   5  -1   60.86    2.61
   1   5  -1   62.61    2.35
  -1  -5   1   65.29    2.74
  -1  -5   1   65.84    2.27
   0   5  -1  164.40    5.78
   0   5  -1  168.07    6.51
   0  -5   1  165.93    5.68
   0  -5   1  164.42    6.86
  -1   5  -1    0.34    0.11
  -1   5  -1    0.32    0.13
   1  -5   1    0.64    0.16
   1  -5   1    0.29    0.17
  -2   5  -1  259.30    8.25
  -2   5  -1  260.02    9.35
   2  -5   1  194.52    9.84
   2  -5   1  243.15    8.22
  -3   5  -1   72.85    3.02
  -3   5  -1   73.47    2.60
   3  -5   1   73.29    3.12
   3  -5   1   71.91    2.77
  -4   5  -1   70.41    2.96
   4  -5   1   70.60    2.80
  -5   5  -1   66.02    2.90
   5  -5   1   70.52    2.79
  -6   5  -1    1.42    0.30
   6  -5   1    1.83    0.44
  -7   5  -1   56.91    2.58
   7  -5   1   57.49    2.55
  -8   5  -1   21.06    1.24
   8  -5   1   20.53    1.36
  10   4  -1    0.48    0.27
   9   4  -1   44.69    2.13
   9   4  -1   44.98    2.19
   8   4  -1   52.19    2.47
   8   4  -1   52.50    2.44
  -8  -4   1   55.49    2.04
   7   4  -1   10.71    0.91
   7   4  -1   12.45    0.75
  -7  -4   1   12.41    0.61
   6   4  -1  150.48    6.22
   6   4  -1  146.75    5.65
  -6  -4   1  149.44    5.14
   5   4  -1    4.90    0.38
   5   4  -1    4.49    0.53
  -5  -4   1    4.80    0.30
   4   4  -1  102.08    3.75
   4   4  -1   99.66    4.20
  -4  -4   1   99.27    3.46
   3   4  -1   94.24    3.48
  -3  -4   1   95.08    3.28
  -3  -4   1   96.54    3.99
   2   4  -1   19.85    0.95
   2   4  -1   21.37    0.92
  -2  -4   1   22.75    0.84
  -2  -4   1   22.99    1.01
   1   4  -1  198.74    7.03
   1   4  -1  198.26    7.88
  -1  -4   1  206.79    8.28
  -1  -4   1  207.47    6.86
   0   4  -1   13.35    0.63
   0   4  -1   13.74    0.58
   0  -4   1   12.63    0.57
   0  -4   1   12.91    0.67
  -1   4  -1   66.26    2.66
  -1   4  -1   69.18    2.35
   1  -4   1   62.34    2.86
   1  -4   1   65.63    2.36
  -2   4  -1  165.18    5.41
  -2   4  -1  159.41    6.14
   2  -4   1  154.11    5.43
   2  -4   1  147.09    6.47
  -3   4  -1    0.43    0.09
  -3   4  -1    0.36    0.14
   3  -4   1    0.40    0.11
   3  -4   1    1.33    0.25
  -4   4  -1   70.22    2.52
  -4   4  -1   70.68    2.94
   4  -4   1   71.92    2.99
   4  -4   1   72.15    2.80
  -5   4  -1    4.39    0.41
   5  -4   1    5.24    0.60
  -6   4  -1   54.71    2.43
   6  -4   1   57.00    2.41
  -7   4  -1   72.46    3.17
   7  -4   1   75.80    3.10
  -8   4  -1    7.06    0.64
   8  -4   1    7.20    0.86
  -9   4  -1   52.87    2.49
   9  -4   1   53.99    2.55
  10   3  -1   23.94    1.31
   9   3  -1   52.08    2.39
  -9  -3   1   51.17    2.03
   8   3  -1    1.22    0.36
   8   3  -1    0.37    0.19
  -8  -3   1    0.49    0.17
   7   3  -1   58.31    2.49
   7   3  -1   57.16    2.54
  -7  -3   1   56.40    2.12
   6   3  -1   34.40    1.56
   6   3  -1   33.14    1.63
  -6  -3   1   33.14    1.30
   5   3  -1   51.79    2.16
   5   3  -1   46.35    2.09
  -5  -3   1   48.30    1.78
   4   3  -1  158.49    6.36
   4   3  -1  151.43    5.57
  -4  -3   1  153.23    5.26
   3   3  -1    1.80    0.25
   2   3  -1  159.33    5.60
   2   3  -1  159.25    6.55
  -2  -3   1  162.46    5.41
   1   3  -1   59.66    2.34
   1   3  -1   56.27    2.12
  -1  -3   1   62.15    2.05
  -1  -3   1   58.32    2.46
   0   3  -1   62.81    2.21
   0   3  -1   63.02    2.46
   0  -3   1   60.93    2.17
   0  -3   1   62.36    2.59
  -1   3  -1  388.21   12.49
  -1   3  -1  381.41   14.06
   1  -3   1  319.69   14.85
   1  -3   1  373.88   12.28
  -2   3  -1    0.25    0.07
  -2   3  -1    0.08    0.09
   2  -3   1    0.56    0.11
   2  -3   1    0.58    0.14
  -3   3  -1  218.48    8.67
  -3   3  -1  222.68    7.65
   3  -3   1  223.81    9.05
   3  -3   1  227.56    7.74
  -4   3  -1  101.22    3.51
  -4   3  -1   99.17    4.02
   4  -3   1  101.68    3.75
   4  -3   1  100.16    4.14
  -5   3  -1   34.64    1.53
  -5   3  -1   35.05    1.29
   5  -3   1   33.98    1.51
   5  -3   1   33.01    1.57
  -6   3  -1  112.41    4.57
   6  -3   1  113.45    4.30
  -7   3  -1    0.64    0.22
   7  -3   1    0.58    0.31
  -8   3  -1   40.99    1.89
   8  -3   1   39.38    1.97
  -9   3  -1   40.56    1.96
   9  -3   1   41.21    2.07
  10   2  -1   32.88    1.67
 -10  -2   1   32.94    1.49
   9   2  -1    3.38    0.42
  -9  -2   1    3.59    0.42
   8   2  -1   64.26    2.85
  -8  -2   1   64.82    2.44
   7   2  -1   61.04    2.71
   7   2  -1   64.75    2.52
  -7  -2   1   60.46    2.30
   6   2  -1   32.55    1.50
   6   2  -1   34.08    1.52
  -6  -2   1   31.75    1.28
   5   2  -1  167.83    6.81
   5   2  -1  198.29    7.81
  -5  -2   1  199.47    7.34
  -5  -2   1  193.09    6.48
   4   2  -1   52.45    2.19
   4   2  -1   49.09    2.04
   4   2  -1   50.39    2.00
  -4  -2   1   51.16    1.82
   3   2  -1  256.19    8.81
   3   2  -1  249.87    9.69
   3   2  -1  260.46   10.29
  -3  -2   1  247.21    8.51
   2   2  -1   77.79    3.15
   2   2  -1   74.60    2.72
  -2  -2   1   76.13    2.60
   1   2  -1   64.54    2.36
   1   2  -1   67.85    2.61
   1   2  -1   67.59    2.76
  -1  -2   1   68.21    2.29
   0   2  -1   87.92    3.00
   0   2  -1   83.31    3.34
   0  -2   1   84.98    3.52
   0  -2   1   88.82    2.94
  -1   2  -1   92.62    2.86
  -1   2  -1   83.76    3.22
   1  -2   1   80.96    2.84
   1  -2   1   71.73    3.39
  -2   2  -1  173.47    6.89
  -2   2  -1  181.52    6.10
   2  -2   1  175.03    6.10
   2  -2   1  182.25    7.21
  -3   2  -1  107.60    4.25
  -3   2  -1  111.94    3.74
   3  -2   1  100.31    3.86
   3  -2   1  110.89    4.41
  -4   2  -1   20.29    0.79
  -4   2  -1   20.60    0.93
   4  -2   1   19.19    0.98
   4  -2   1   19.71    0.90
  -5   2  -1  245.48    8.15
  -5   2  -1  237.86    9.22
   5  -2   1  238.49    9.63
   5  -2   1  223.87    8.27
  -6   2  -1   42.03    1.79
   6  -2   1   38.42    1.79
   6  -2   1   41.61    1.80
  -7   2  -1  114.96    4.60
   7  -2   1  111.64    4.30
  -8   2  -1   50.65    2.25
   8  -2   1   50.69    2.25
  -9   2  -1    1.22    0.31
   9  -2   1    1.15    0.39
  10  -2   1   72.19    3.11
  10   1  -1   19.10    1.11
 -10  -1   1   19.87    1.06
   9   1  -1   24.85    1.27
  -9  -1   1   23.43    1.17
   8   1  -1   88.36    3.76
  -8  -1   1   86.03    3.24
   7   1  -1    0.83    0.20
   7   1  -1    0.33    0.15
  -7  -1   1    0.58    0.18
   6   1  -1  101.43    4.40
   6   1  -1  106.15    3.85
  -6  -1   1  108.80    4.16
  -6  -1   1  104.48    3.74
   5   1  -1   68.92    2.58
   5   1  -1   66.19    2.87
  -5  -1   1   67.80    2.44
  -5  -1   1   67.78    2.69
   4   1  -1   49.56    2.04
   4   1  -1   53.08    2.24
  -4  -1   1   53.32    1.90
  -4  -1   1   53.96    2.09
   3   1  -1  503.27   19.72
   3   1  -1  611.96   23.26
  -3  -1   1  593.28   19.25
  -3  -1   1  596.11   22.04
   2   1  -1   53.59    1.91
  -2  -1   1   53.25    1.83
  -2  -1   1   50.85    2.04
   1   1  -1  330.41   12.66
   1   1  -1  304.07   10.70
  -1  -1   1  306.85   10.47
   0   1  -1  285.96    9.55
   0   1  -1  281.28   11.29
   0  -1   1  274.37   10.72
  -1   1  -1  171.91    5.84
   1  -1   1  167.77    6.57
   1  -1   1  170.23    5.76
   1  -1   1  173.87    6.89
  -2   1  -1  303.35    9.99
   2  -1   1  272.84    9.89
   2  -1   1  292.03   11.24
   2  -1   1  302.34   11.81
  -3   1  -1    1.00    0.12
   3  -1   1    1.13    0.14
   3  -1   1    1.16    0.12
   3  -1   1    1.33    0.22
  -4   1  -1  244.29    8.21
   4  -1   1  241.67    9.25
   4  -1   1  241.60    9.69
   4  -1   1  228.09    8.23
  -5   1  -1  136.68    4.79
  -5   1  -1  138.29    5.40
   5  -1   1  135.71    4.90
   5  -1   1  137.72    5.63
  -6   1  -1   31.90    1.21
  -6   1  -1   30.95    1.36
   6  -1   1   28.33    1.37
   6  -1   1   31.52    1.39
  -7   1  -1  131.19    5.22
   7  -1   1  128.59    5.42
   7  -1   1  131.80    4.78
  -8   1  -1   17.21    0.93
   8  -1   1   17.32    1.01
  -9   1  -1   64.01    2.77
   9  -1   1   63.33    2.65
  10  -1   1   29.39    1.54
  10   0  -1   10.53    0.75
 -10   0   1   10.05    0.76
   9   0  -1   99.32    4.21
  -9   0   1   95.13    3.68
   8   0  -1   21.40    1.14
  -8   0   1   24.21    1.14
   7   0  -1  109.44    3.99
   7   0  -1  107.37    4.61
  -7   0   1  111.69    4.40
   6   0  -1  161.81    5.55
   6   0  -1  153.14    5.52
   6   0  -1  155.22    6.52
  -6   0   1  161.24    6.20
   5   0  -1   22.92    0.99
   5   0  -1   21.70    1.04
   5   0  -1   22.12    0.92
  -5   0   1   22.63    0.99
   4   0  -1  323.54   13.18
   4   0  -1  320.87   11.16
   4   0  -1  325.64   11.00
  -4   0   1  329.67   12.51
   3   0  -1    0.98    0.15
   3   0  -1    0.52    0.10
   3   0  -1    0.82    0.14
  -3   0   1    0.72    0.10
   2   0  -1  471.98   15.23
   2   0  -1  399.65   15.53
   2   0  -1  480.57   18.38
  -2   0   1  470.81   17.44
   1   0  -1  249.89    8.32
   1   0  -1  248.24   10.04
   1   0  -1  249.54    8.46
  -1   0   1  247.96    9.53
   0   0  -1   22.53    1.01
   0   0   1   25.61    0.83
   1   0   1  428.09   15.23
   1   0   1  439.82   15.55
   1   0   1  488.94   17.51
   1   0   1  472.51   18.41
   2   0   1   96.78    3.42
   2   0   1  102.42    4.00
   2   0   1   92.92    3.39
   2   0   1  101.35    3.82
   3   0   1   21.95    0.93
   3   0   1   21.50    0.89
   3   0   1   20.94    0.86
   3   0   1   20.60    0.83
   4   0   1  192.84    6.79
   4   0   1  201.07    7.59
   4   0   1  194.87    6.72
   4   0   1  195.48    7.98
   5   0   1    7.96    0.43
   5   0   1    7.43    0.43
   5   0   1    7.13    0.40
   5   0   1    7.97    0.47
   6   0   1  231.23    8.30
   6   0   1  242.46    8.25
   6   0   1  244.59    9.30
   6   0   1  239.68    9.77
  -7   0  -1   21.90    1.01
   7   0   1   21.46    1.02
   7   0   1   20.80    1.02
   7   0   1   19.82    0.90
  -8   0  -1   45.41    1.92
   8   0   1   44.69    1.83
   8   0   1   40.68    1.95
   9   0   1   74.55    2.91
 -10   0  -1    3.22    0.45
 -10   1   1   47.93    2.13
   9  -1  -1   55.86    2.38
   9  -1  -1   53.84    2.49
   8  -1  -1   30.79    1.52
   8  -1  -1   31.94    1.54
  -8   1   1   33.24    1.52
   7  -1  -1   88.07    3.89
   7  -1  -1   94.32    3.50
  -7   1   1   93.10    3.75
   6  -1  -1    8.81    0.60
   6  -1  -1    8.30    0.52
  -6   1   1    8.51    0.51
   5  -1  -1  150.14    5.26
   5  -1  -1  152.44    6.27
   5  -1  -1  151.87    5.38
  -5   1   1  154.64    5.98
   4  -1  -1   77.99    3.20
   4  -1  -1   75.23    2.66
   4  -1  -1   74.64    2.80
  -4   1   1   77.47    3.05
   3  -1  -1   40.75    1.72
   3  -1  -1   39.71    1.42
   3  -1  -1   39.95    1.55
  -3   1   1   40.94    1.65
   2  -1  -1    9.78    0.51
   2  -1  -1   11.54    0.53
  -2   1   1   11.38    0.51
   1  -1  -1    3.88    0.23
   1  -1  -1    4.08    0.23
  -1   1   1    4.40    0.23
   0  -1  -1  338.42   10.72
   0  -1  -1  308.92   13.03
   0   1   1  335.15   10.96
   0   1   1  302.78   12.37
  -1  -1  -1   69.99    2.74
  -1  -1  -1   71.38    2.23
   1   1   1   54.65    2.36
   1   1   1   70.39    2.59
   2   1   1   49.50    2.05
   2   1   1   51.23    1.94
   2   1   1   46.49    1.83
   2   1   1   50.53    1.70
   3   1   1  266.06    9.09
   3   1   1  277.35   10.41
   3   1   1  271.84   10.97
   3   1   1  267.90    9.38
   4   1   1   53.00    2.02
   4   1   1   54.42    2.25
   4   1   1   52.95    2.12
   4   1   1   51.56    1.89
   5   1   1  114.23    3.99
   5   1   1  106.40    3.83
   5   1   1  109.07    4.56
   5   1   1  110.89    4.32
   6   1   1   44.85    1.80
   6   1   1   45.80    1.73
   6   1   1   45.60    1.99
   6   1   1   45.56    1.88
   7   1   1   11.19    0.60
   7   1   1   11.03    0.64
   7   1   1   12.52    0.66
   7   1   1   11.31    0.62
  -8  -1  -1   85.84    3.21
   8   1   1   87.67    3.74
   8   1   1   88.46    3.28
  -9  -1  -1    0.51    0.21
   9   1   1    0.75    0.22
   9  -2  -1    1.64    0.46
  -9   2   1    1.53    0.34
   8  -2  -1  112.77    4.87
   8  -2  -1  111.85    4.39
  -8   2   1  119.54    4.73
   7  -2  -1    6.53    0.68
   7  -2  -1    6.77    0.48
  -7   2   1    6.12    0.50
   6  -2  -1  121.66    5.03
   6  -2  -1  116.53    4.44
  -6   2   1  122.48    4.84
   5  -2  -1  115.15    4.69
   5  -2  -1  104.21    4.10
  -5   2   1  117.89    4.51
   4  -2  -1   13.56    0.77
   4  -2  -1   14.59    0.73
  -4   2   1   15.68    0.74
  -4   2   1   15.65    0.57
   3  -2  -1  159.53    6.59
   3  -2  -1  151.51    5.61
  -3   2   1  170.19    5.50
  -3   2   1  162.07    6.29
   2  -2  -1    5.71    0.39
   2  -2  -1    6.37    0.37
  -2   2   1    6.56    0.36
  -2   2   1    7.00    0.26
   1  -2  -1   19.43    0.84
   1  -2  -1   21.95    1.00
  -1   2   1   21.35    0.75
  -1   2   1   21.77    0.91
   0  -2  -1  323.25   13.49
   0  -2  -1  338.40   11.09
   0   2   1  326.46   12.80
   0   2   1  340.26   11.33
  -1  -2  -1   30.50    1.00
  -1  -2  -1   28.80    1.25
   1   2   1   27.88    1.11
   1   2   1   27.59    1.20
  -2  -2  -1  228.99    7.38
  -2  -2  -1  220.61    8.97
   2   2   1  228.27    8.49
   2   2   1  204.62    7.70
  -3  -2  -1   26.39    0.91
   3   2   1   26.06    1.03
   3   2   1   25.10    1.11
   3   2   1   22.10    1.09
  -4  -2  -1  166.07    5.37
   4   2   1  162.80    6.13
   4   2   1  160.73    6.49
   4   2   1  143.40    5.67
  -5  -2  -1  128.88    4.48
   5   2   1  129.59    4.79
   5   2   1  133.94    5.41
   5   2   1  130.06    5.08
  -6  -2  -1   12.24    0.57
   6   2   1   11.53    0.64
   6   2   1   12.02    0.72
   6   2   1   11.50    0.57
  -7  -2  -1   69.49    2.45
   7   2   1   65.34    2.63
   7   2   1   65.11    2.89
  -8  -2  -1    8.54    0.54
   8   2   1    9.08    0.60
   8   2   1    9.93    0.66
   9   2   1   33.17    1.62
  10   2   1   40.29    1.95
   9  -3  -1   39.21    1.99
  -9   3   1   39.30    1.93
   8  -3  -1    8.57    0.87
  -8   3   1    7.48    0.63
   7  -3  -1    9.31    0.89
   7  -3  -1    8.75    0.58
  -7   3   1    9.09    0.64
   6  -3  -1   89.94    3.90
   6  -3  -1   95.02    3.57
  -6   3   1   91.86    3.80
   5  -3  -1    2.28    0.36
   5  -3  -1    2.29    0.26
  -5   3   1    2.23    0.29
   4  -3  -1  124.04    5.19
   4  -3  -1  126.87    4.53
  -4   3   1  125.40    4.99
   3  -3  -1   69.04    2.63
   3  -3  -1   68.85    2.98
  -3   3   1   73.82    2.44
  -3   3   1   69.81    2.87
   2  -3  -1   33.52    1.51
   2  -3  -1   32.04    1.33
  -2   3   1   33.55    1.42
  -2   3   1   33.14    1.17
   1  -3  -1  302.27   14.43
   1  -3  -1  366.05   11.92
  -1   3   1  373.68   13.65
  -1   3   1  372.22   12.06
   0  -3  -1   35.45    1.26
   0  -3  -1   34.13    1.59
   0   3   1   34.58    1.50
   0   3   1   34.94    1.28
  -1  -3  -1   81.49    3.21
  -1  -3  -1   80.14    2.60
   1   3   1   78.01    2.74
   1   3   1   65.39    3.08
  -2  -3  -1  155.61    6.25
  -2  -3  -1  158.97    5.12
   2   3   1  148.10    5.39
   2   3   1  147.34    5.90
  -3  -3  -1   44.71    1.51
  -3  -3  -1   41.89    1.86
   3   3   1   43.50    1.72
   3   3   1   42.18    1.76
  -4  -3  -1  248.58   10.17
  -4  -3  -1  250.53    8.37
   4   3   1  253.34    9.59
   4   3   1  243.83    8.83
  -5  -3  -1    2.13    0.19
   5   3   1    2.08    0.17
   5   3   1    1.80    0.33
   5   3   1    2.43    0.27
  -6  -3  -1   55.40    1.96
   6   3   1   54.48    2.38
   6   3   1   52.85    2.18
   6   3   1   53.25    2.30
  -7  -3  -1  100.86    3.52
   7   3   1   99.72    4.25
   7   3   1   98.78    3.88
   8   3   1   25.89    1.30
   8   3   1   25.52    1.35
   9   3   1   92.27    4.08
   9   3   1   96.26    3.72
 -10  -3  -1    6.24    0.65
   9  -4  -1   36.67    1.89
  -9   4   1   33.78    1.80
   8  -4  -1   11.15    1.04
  -8   4   1    9.05    0.74
   7  -4  -1   80.83    3.21
  -7   4   1   76.26    3.36
   6  -4  -1   29.60    1.45
   6  -4  -1   32.92    1.54
  -6   4   1   30.81    1.50
   5  -4  -1   70.24    3.05
   5  -4  -1   72.22    2.81
  -5   4   1   70.21    2.99
   4  -4  -1  121.45    4.40
   4  -4  -1  119.85    5.04
  -4   4   1  120.93    4.86
   3  -4  -1    9.64    0.58
   3  -4  -1    9.56    0.59
  -3   4   1    9.61    0.39
  -3   4   1    9.52    0.57
   2  -4  -1  229.68    7.79
   2  -4  -1  210.59    9.35
  -2   4   1  235.60    8.84
  -2   4   1  228.49    7.74
   1  -4  -1  134.58    4.71
   1  -4  -1  131.49    5.77
  -1   4   1  138.60    4.71
  -1   4   1  139.66    5.40
   0  -4  -1   92.36    4.10
   0  -4  -1   96.48    3.33
   0   4   1   98.69    3.39
   0   4   1   97.82    3.89
  -1  -4  -1  119.21    4.05
  -1  -4  -1  126.63    4.98
   1   4   1  119.58    4.21
   1   4   1  110.95    4.77
  -2  -4  -1    1.96    0.25
  -2  -4  -1    2.09    0.15
   2   4   1    2.37    0.29
   2   4   1    2.43    0.24
  -3  -4  -1  213.56    7.23
  -3  -4  -1  212.79    8.81
   3   4   1  221.36    7.63
   3   4   1  213.50    8.31
  -4  -4  -1   47.39    2.09
  -4  -4  -1   46.93    1.67
   4   4   1   49.03    1.90
   4   4   1   45.97    2.00
  -5  -4  -1  199.33    6.67
  -5  -4  -1  195.48    8.13
   5   4   1  199.98    7.19
   5   4   1  194.42    7.62
  -6  -4  -1  129.86    4.48
  -6  -4  -1  130.09    5.48
   6   4   1  131.55    5.00
  -7  -4  -1    4.25    0.41
   7   4   1    2.93    0.53
  -8  -4  -1   95.60    4.05
   8   4   1   89.83    3.77
  -9  -4  -1   21.69    1.19
   9   4   1   20.30    1.29
 -10  -4  -1   22.53    1.30
   8  -5  -1   38.86    1.90
  -8   5   1   35.16    1.87
   7  -5  -1   50.91    2.28
  -7   5   1   50.41    2.36
   6  -5  -1   23.04    1.25
  -6   5   1   22.61    1.23
   5  -5  -1  141.50    5.04
   5  -5  -1  133.79    5.73
  -5   5   1  135.52    5.56
   4  -5  -1    4.63    0.41
   4  -5  -1    4.54    0.53
  -4   5   1    4.99    0.45
   3  -5  -1  145.07    6.30
   3  -5  -1  151.06    5.33
  -3   5   1  152.50    5.98
   2  -5  -1   74.56    3.93
   2  -5  -1   94.23    3.31
  -2   5   1   94.77    3.17
  -2   5   1   97.38    3.72
   1  -5  -1  136.05    4.80
   1  -5  -1  140.58    5.89
  -1   5   1  142.06    5.52
  -1   5   1  132.87    4.80
   0  -5  -1   93.82    4.43
   0  -5  -1  106.43    3.61
   0   5   1  107.73    3.67
   0   5   1  105.83    4.22
  -1  -5  -1    2.72    0.34
  -1  -5  -1    2.64    0.20
   1   5   1    2.36    0.26
   1   5   1    3.10    0.36
  -2  -5  -1  145.88    4.72
  -2  -5  -1  149.01    5.80
   2   5   1  140.63    4.96
   2   5   1  119.43    5.50
  -3  -5  -1   82.44    2.84
  -3  -5  -1   84.76    3.52
   3   5   1   79.93    3.28
   3   5   1   82.51    3.13
  -4  -5  -1   18.69    0.93
  -4  -5  -1   16.65    0.69
   4   5   1   17.57    0.78
   4   5   1   18.57    1.00
  -5  -5  -1  115.19    3.98
  -5  -5  -1  113.74    4.91
   5   5   1  120.42    4.48
  -6  -5  -1   12.54    0.75
   6   5   1   11.41    0.90
  -7  -5  -1  140.54    6.02
   7   5   1  144.55    5.52
  -8  -5  -1   42.69    2.08
   8   5   1   44.76    2.18
  -9  -5  -1    7.84    0.65
   9   5   1    5.86    0.80
 -10  -5  -1   48.58    2.36
  10   5   1   46.81    2.37
  -8   6   1   57.50    2.77
   7  -6  -1    7.92    0.85
  -7   6   1    5.86    0.70
   6  -6  -1   91.84    3.63
  -6   6   1   93.17    3.98
   5  -6  -1   19.88    1.09
  -5   6   1   17.67    1.08
   4  -6  -1   37.88    1.69
  -4   6   1   37.78    1.80
   3  -6  -1   84.20    4.23
   3  -6  -1  104.34    3.64
  -3   6   1  101.71    4.03
   2  -6  -1    8.56    0.71
   2  -6  -1    8.90    0.59
  -2   6   1    8.81    0.63
   1  -6  -1  197.31    7.02
   1  -6  -1  215.10    8.59
  -1   6   1  200.79    7.07
  -1   6   1  202.09    8.09
   0  -6  -1   31.04    1.73
   0  -6  -1   36.62    1.38
   0   6   1   37.80    1.40
   0   6   1   35.30    1.66
  -1  -6  -1   84.08    2.89
  -1  -6  -1   83.83    3.61
   1   6   1   80.30    3.44
   1   6   1   79.17    3.01
  -2  -6  -1  176.81    7.18
  -2  -6  -1  172.25    5.84
   2   6   1  167.10    6.84
   2   6   1  170.50    6.11
  -3  -6  -1   10.48    0.65
  -3  -6  -1   10.10    0.47
   3   6   1    9.74    0.66
   3   6   1    9.99    0.59
  -4  -6  -1  140.61    4.81
  -4  -6  -1  141.64    5.92
   4   6   1  139.62    5.22
  -5  -6  -1   32.91    1.59
   5   6   1   31.67    1.60
  -6  -6  -1   32.36    1.61
   6   6   1   31.81    1.66
  -7  -6  -1   83.47    3.80
   7   6   1   89.37    3.64
  -8  -6  -1    3.09    0.44
   8   6   1    2.54    0.57
  -9  -6  -1   67.58    3.19
   9   6   1   71.10    3.18
   7  -7  -1   63.31    2.77
  -7   7   1   64.80    3.04
   6  -7  -1   40.30    1.92
  -6   7   1   40.52    2.06
   5  -7  -1   28.96    1.47
  -5   7   1   29.72    1.59
   4  -7  -1   85.57    3.28
  -4   7   1   82.38    3.63
   3  -7  -1    0.44    0.23
  -3   7   1    0.51    0.26
   2  -7  -1  137.57    4.96
   2  -7  -1  138.39    6.00
  -2   7   1  136.92    5.65
   1  -7  -1    9.17    0.58
   1  -7  -1   10.45    0.75
  -1   7   1    8.71    0.50
  -1   7   1    8.38    0.68
   0  -7  -1   64.07    2.27
   0  -7  -1   56.33    2.82
   0   7   1   63.04    2.30
   0   7   1   57.96    2.68
  -1  -7  -1  109.68    4.80
  -1  -7  -1  112.11    3.85
   1   7   1  110.81    4.01
   1   7   1  105.71    4.54
  -2  -7  -1    0.53    0.14
  -2  -7  -1    0.64    0.24
   2   7   1    0.05    0.20
   2   7   1    0.00    0.19
  -3  -7  -1  124.62    5.30
   3   7   1  122.79    4.60
  -4  -7  -1   80.91    3.55
   4   7   1   79.33    3.19
  -5  -7  -1    3.71    0.46
   5   7   1    4.48    0.60
  -6  -7  -1  110.44    4.83
   6   7   1  111.69    4.42
  -7  -7  -1    5.23    0.61
   7   7   1    6.09    0.78
  -8  -7  -1   59.63    2.88
   8   7   1   63.12    2.87
   9   7   1   40.57    2.20
   6  -8  -1    2.23    0.50
  -6   8   1    2.39    0.53
   5  -8  -1   76.22    3.10
  -5   8   1   76.48    3.48
   4  -8  -1    8.46    0.82
  -4   8   1    8.47    0.81
   3  -8  -1   61.83    2.57
  -3   8   1   63.49    2.89
   2  -8  -1   90.92    3.48
  -2   8   1   91.90    3.97
   1  -8  -1    6.67    0.71
   1  -8  -1    5.42    0.52
  -1   8   1    4.72    0.59
   0  -8  -1   57.80    2.83
   0  -8  -1   60.31    2.27
   0   8   1   54.70    2.68
   0   8   1   62.88    2.31
  -1  -8  -1   34.34    1.43
  -1  -8  -1   35.33    1.89
   1   8   1   36.18    1.55
   1   8   1   36.79    1.77
  -2  -8  -1   35.33    1.83
   2   8   1   34.81    1.57
  -3  -8  -1   75.02    3.44
   3   8   1   76.67    3.03
  -4  -8  -1    0.09    0.21
   4   8   1    0.13    0.27
  -5  -8  -1  102.81    4.46
   5   8   1   98.35    4.01
  -6  -8  -1   27.12    1.52
   6   8   1   28.15    1.57
  -7  -8  -1   27.19    1.58
   7   8   1   30.61    1.69
  -8  -8  -1   54.12    2.77
   8   8   1   61.41    2.78
   5  -9  -1   23.48    1.36
  -5   9   1   24.47    1.56
   4  -9  -1   25.69    1.35
  -4   9   1   21.17    1.44
   3  -9  -1   89.25    3.53
  -3   9   1   90.37    4.01
   2  -9  -1    0.60    0.29
  -2   9   1   -0.17    0.31
   1  -9  -1   52.52    2.12
  -1   9   1   48.41    2.46
   0  -9  -1   75.77    2.77
   0  -9  -1   72.74    3.41
   0   9   1   66.92    3.23
  -1  -9  -1    6.53    0.81
   1   9   1    6.82    0.63
  -2  -9  -1  127.13    5.71
   2   9   1  131.08    4.84
  -3  -9  -1   20.02    1.23
   3   9   1   17.51    1.12
  -4  -9  -1   48.32    2.41
   4   9   1   48.45    2.22
  -5  -9  -1   55.76    2.72
   5   9   1   56.41    2.56
  -6  -9  -1   22.79    1.38
   6   9   1   21.24    1.41
  -7  -9  -1   79.62    3.66
   7   9   1   75.02    3.37
   3 -10  -1   28.18    1.48
  -3  10   1   25.28    1.65
   2 -10  -1   18.97    1.15
  -2  10   1   17.49    1.30
  -1  10   1   49.34    2.50
  -1 -10  -1   58.02    2.95
  -2 -10  -1   14.40    1.15
   2  10   1   14.58    1.02
  -3 -10  -1   27.15    1.71
   3  10   1   31.36    1.60
  -4 -10  -1   56.58    2.87
   4  10   1   59.02    2.62
  -5 -10  -1    1.03    0.41
   5  10   1    0.70    0.45
  -6 -10  -1   55.52    2.81
   2  11   1    8.66    0.92
  -3 -11  -1   56.24    3.05
   3  11   1   63.47    2.71
   2  11  -2   50.03    2.28
   1  11  -2    0.02    0.30
   0 -11   2   42.50    1.93
   5  10  -2   66.10    2.90
  -5 -10   2   61.62    3.03
   4  10  -2    5.90    0.74
  -4 -10   2    6.56    0.75
   3  10  -2   68.60    2.90
   2  10  -2   13.01    0.91
   1  10  -2   31.12    1.50
  -1 -10   2   31.75    1.43
   0  10  -2   76.68    3.03
   0 -10   2   77.52    3.01
   1 -10   2    6.26    0.68
   2 -10   2   53.29    2.34
  -3  10  -2    5.03    0.69
   3 -10   2    6.57    0.79
   6   9  -2   47.74    2.29
  -6  -9   2   43.52    2.26
   5   9  -2    0.05    0.32
  -5  -9   2    0.06    0.25
   4   9  -2   43.37    2.01
  -4  -9   2   42.79    2.12
   3   9  -2   22.98    1.23
  -3  -9   2   20.71    1.24
  -3  -9   2   21.35    1.00
   2   9  -2   48.68    2.05
  -2  -9   2   45.36    1.88
  -2  -9   2   49.18    2.35
   1   9  -2   93.86    3.56
  -1  -9   2   93.06    3.44
   0   9  -2    2.29    0.37
   0  -9   2    2.52    0.39
  -1   9  -2   68.30    2.67
  -1   9  -2   68.20    3.07
   1  -9   2   71.05    2.74
  -2   9  -2   37.99    1.94
   2  -9   2   41.94    1.83
  -3   9  -2   32.36    1.71
   3  -9   2   33.54    1.65
  -4   9  -2   53.97    2.61
   4  -9   2   57.08    2.51
  -5   9  -2    1.38    0.42
   5  -9   2    2.80    0.58
   7   8  -2   75.38    3.38
  -7  -8   2   76.86    3.50
   6   8  -2   46.17    2.23
  -6  -8   2   46.54    2.26
   5   8  -2   33.44    1.69
  -5  -8   2   34.13    1.72
   4   8  -2   92.78    3.52
  -4  -8   2   87.65    3.89
  -4  -8   2   86.30    3.18
   3   8  -2    1.90    0.36
  -3  -8   2    2.95    0.40
  -3  -8   2    2.49    0.30
   2   8  -2  105.53    3.98
  -2  -8   2  105.93    3.80
  -2  -8   2  107.39    4.60
   1   8  -2    9.50    0.64
  -1  -8   2    9.63    0.71
  -1  -8   2    9.88    0.59
   0   8  -2   93.31    3.56
   0   8  -2   97.46    4.04
   0  -8   2   98.58    3.53
  -1   8  -2   67.81    2.57
  -1   8  -2   67.92    2.93
   1  -8   2   66.61    2.60
  -2   8  -2    1.94    0.36
   2  -8   2    2.00    0.38
  -3   8  -2   92.48    3.90
   3  -8   2   91.29    3.55
  -4   8  -2   19.13    1.14
   4  -8   2   18.03    1.16
  -5   8  -2   26.84    1.55
   5  -8   2   31.13    1.60
  -6   8  -2   26.48    1.57
   6  -8   2   27.99    1.56
   8   7  -2   50.07    2.56
  -8  -7   2   50.91    2.45
   7   7  -2   24.21    1.53
  -7  -7   2   25.03    1.37
   6   7  -2   52.36    2.39
  -6  -7   2   52.23    2.45
   5   7  -2  102.64    4.10
  -5  -7   2  111.27    4.60
  -5  -7   2  104.61    3.75
   4   7  -2    1.23    0.31
  -4  -7   2    0.59    0.17
  -4  -7   2    0.36    0.20
   3   7  -2  194.15    6.78
  -3  -7   2  190.19    7.85
  -3  -7   2  182.82    6.48
   2   7  -2   82.67    3.18
  -2  -7   2   84.93    3.03
  -2  -7   2   86.22    3.66
   1   7  -2   48.67    1.97
  -1  -7   2   50.64    2.28
  -1  -7   2   50.59    1.91
   0   7  -2  123.20    4.35
   0   7  -2  122.38    4.87
   0  -7   2  117.62    5.15
   0  -7   2  118.62    4.27
  -1   7  -2    0.28    0.15
  -1   7  -2    0.53    0.20
   1  -7   2    0.28    0.16
  -2   7  -2   96.04    3.50
  -2   7  -2   98.14    4.00
   2  -7   2   97.11    3.59
  -3   7  -2   60.46    2.62
   3  -7   2   59.48    2.43
  -4   7  -2    8.58    0.68
   4  -7   2    7.55    0.74
  -5   7  -2  111.72    4.62
   5  -7   2  107.56    4.25
  -6   7  -2    5.97    0.68
   6  -7   2    5.77    0.72
  -7   7  -2   41.08    2.07
   7  -7   2   39.40    2.01
   9   6  -2   47.16    2.45
  -9  -6   2   44.05    2.23
   8   6  -2   38.18    2.09
  -8  -6   2   38.35    1.91
   7   6  -2    9.06    0.98
  -7  -6   2    7.42    0.62
  -7  -6   2    6.82    0.48
   6   6  -2  100.85    4.09
  -6  -6   2  104.76    3.65
  -6  -6   2  102.72    4.44
   5   6  -2   24.64    1.29
  -5  -6   2   24.29    1.02
  -5  -6   2   26.32    1.29
   4   6  -2   89.87    3.50
  -4  -6   2   90.58    3.24
  -4  -6   2   95.57    3.95
   3   6  -2  112.06    4.14
  -3  -6   2  111.58    3.92
  -3  -6   2  114.51    4.75
   2   6  -2    2.90    0.33
  -2  -6   2    2.56    0.29
  -2  -6   2    2.46    0.25
   1   6  -2  206.65    8.12
   1   6  -2  208.64    7.27
  -1  -6   2  208.33    8.54
  -1  -6   2  205.59    7.08
   0   6  -2   23.97    1.12
   0   6  -2   24.35    1.03
   0  -6   2   22.59    1.01
   0  -6   2   24.95    1.20
  -1   6  -2   78.36    2.75
  -1   6  -2   77.23    3.09
   1  -6   2   69.41    3.30
   1  -6   2   75.43    2.75
  -2   6  -2   58.18    2.44
  -2   6  -2   57.36    2.13
   2  -6   2   57.13    2.22
  -3   6  -2    4.35    0.32
  -3   6  -2    4.44    0.45
   3  -6   2    5.45    0.54
  -4   6  -2   86.65    3.65
   4  -6   2   88.69    3.40
  -5   6  -2    9.09    0.69
   5  -6   2    9.27    0.77
  -6   6  -2   53.40    2.45
   6  -6   2   53.76    2.39
  -7   6  -2   71.18    3.18
   7  -6   2   71.47    3.06
  -8   6  -2    2.11    0.46
   8  -6   2    2.93    0.66
   9   5  -2   67.49    3.04
   9   5  -2   64.77    3.06
   8   5  -2    0.54    0.23
   8   5  -2    0.40    0.39
  -8  -5   2    0.40    0.18
   7   5  -2  111.91    4.58
   7   5  -2  113.26    4.86
  -7  -5   2  115.54    4.02
   6   5  -2   29.07    1.49
   6   5  -2   32.06    1.61
  -6  -5   2   31.54    1.24
   5   5  -2   35.87    1.61
   5   5  -2   33.53    1.62
  -5  -5   2   35.01    1.34
   4   5  -2  162.96    5.95
  -4  -5   2  169.33    6.86
  -4  -5   2  163.84    5.65
   3   5  -2    0.75    0.19
  -3  -5   2    0.34    0.13
  -3  -5   2    0.54    0.11
   2   5  -2  190.67    6.49
   2   5  -2  170.16    7.21
  -2  -5   2  186.13    7.57
  -2  -5   2  191.35    6.29
   1   5  -2   53.86    2.20
   1   5  -2   51.90    2.01
  -1  -5   2   53.20    2.31
  -1  -5   2   55.56    1.95
   0   5  -2   22.26    0.92
   0   5  -2   21.99    0.99
   0  -5   2   21.17    0.90
   0  -5   2   22.30    1.05
  -1   5  -2   84.67    2.93
  -1   5  -2   84.19    3.29
   1  -5   2   72.62    3.49
   1  -5   2   84.67    2.93
  -2   5  -2    0.91    0.18
  -2   5  -2    0.85    0.14
   2  -5   2    0.65    0.17
   2  -5   2    0.40    0.15
  -3   5  -2   85.03    3.44
  -3   5  -2   84.71    3.00
   3  -5   2   82.70    3.13
  -4   5  -2   49.77    1.86
  -4   5  -2   51.03    2.20
   4  -5   2   51.33    2.12
  -5   5  -2    9.08    0.64
   5  -5   2    9.40    0.75
  -6   5  -2   90.50    3.84
   6  -5   2   92.39    3.65
  -7   5  -2    3.01    0.43
   7  -5   2    2.35    0.55
  -8   5  -2   73.94    3.44
   8  -5   2   85.29    3.43
   9   4  -2    2.05    0.37
  -9  -4   2    2.66    0.35
   8   4  -2   40.84    2.10
   8   4  -2   41.90    1.99
  -8  -4   2   43.71    1.68
   7   4  -2   97.96    4.25
   7   4  -2  100.98    4.06
  -7  -4   2   99.13    3.53
   6   4  -2    2.32    0.31
   6   4  -2    3.64    0.51
  -6  -4   2    2.20    0.25
   5   4  -2   96.88    3.74
   5   4  -2   99.62    4.13
  -5  -4   2   96.09    3.42
   4   4  -2    8.51    0.56
   4   4  -2    8.53    0.51
  -4  -4   2    8.38    0.42
   3   4  -2   18.22    0.86
   3   4  -2   17.87    0.83
  -3  -4   2   17.21    0.72
   2   4  -2  106.83    3.75
   2   4  -2   89.98    4.11
  -2  -4   2  111.96    3.62
  -2  -4   2  111.72    4.36
   1   4  -2   21.01    0.87
   1   4  -2   20.46    0.84
  -1  -4   2   18.80    0.92
  -1  -4   2   20.24    0.80
   0   4  -2  119.16    4.65
   0   4  -2  119.42    4.18
   0  -4   2  114.77    4.09
   0  -4   2  121.79    4.90
  -1   4  -2   30.87    1.28
  -1   4  -2   31.47    1.15
   1  -4   2   26.87    1.37
   1  -4   2   30.96    1.17
  -2   4  -2   60.88    2.43
  -2   4  -2   60.60    2.15
   2  -4   2   60.23    2.21
   2  -4   2   56.81    2.53
  -3   4  -2  160.22    6.37
  -3   4  -2  160.61    5.61
   3  -4   2  164.86    6.60
  -4   4  -2   24.98    1.18
  -4   4  -2   24.32    0.98
   4  -4   2   26.30    1.24
  -5   4  -2  109.99    4.47
   5  -4   2  110.34    4.18
  -6   4  -2   23.00    1.18
   6  -4   2   24.06    1.33
  -7   4  -2   51.53    2.36
   7  -4   2   55.46    2.44
  -8   4  -2   79.75    3.52
   8  -4   2   85.21    3.50
  -9   4  -2    0.72    0.32
   9  -4   2    0.86    0.51
  10   3  -2   17.02    1.04
 -10  -3   2   17.19    0.94
   9   3  -2   20.06    1.12
  -9  -3   2   20.26    0.99
   8   3  -2   76.26    3.12
   8   3  -2   72.32    3.26
  -8  -3   2   74.35    2.75
   7   3  -2    0.88    0.35
   7   3  -2    1.12    0.24
  -7  -3   2    1.80    0.25
   6   3  -2   76.95    3.25
   6   3  -2   72.14    3.09
  -6  -3   2   76.81    2.72
   5   3  -2   39.26    1.70
   5   3  -2   37.65    1.70
  -5  -3   2   36.21    1.41
   4   3  -2   99.37    3.70
   4   3  -2  102.62    4.19
  -4  -3   2   98.34    3.47
   3   3  -2  149.93    5.34
   3   3  -2  154.21    6.22
  -3  -3   2  149.51    5.15
   2   3  -2   -0.01    0.08
   2   3  -2   -0.01    0.07
  -2  -3   2    0.02    0.06
   1   3  -2  229.57    8.13
   1   3  -2  233.92    9.57
   1   3  -2  243.91    9.07
  -1  -3   2  237.66    7.95
   0   3  -2  120.62    4.90
   0   3  -2  127.81    4.40
   0  -3   2  129.44    4.32
   0  -3   2  128.13    5.15
  -1   3  -2  172.46    5.62
  -1   3  -2  160.95    6.30
   1  -3   2  166.66    5.54
   1  -3   2  150.26    6.64
  -2   3  -2  461.32   17.79
  -2   3  -2  459.99   15.79
   2  -3   2  451.39   15.56
   2  -3   2  478.79   18.66
  -3   3  -2   39.84    1.67
  -3   3  -2   39.09    1.45
   3  -3   2   40.33    1.65
   3  -3   2   37.88    1.58
  -4   3  -2  171.42    6.79
  -4   3  -2  172.94    5.99
   4  -3   2  170.05    7.03
   4  -3   2  178.08    6.18
  -5   3  -2   90.94    3.69
  -5   3  -2   89.47    3.22
   5  -3   2   92.01    3.51
  -6   3  -2   24.98    1.22
   6  -3   2   25.72    1.35
  -7   3  -2   82.88    3.46
   7  -3   2   82.11    3.36
  -8   3  -2    2.22    0.34
   8  -3   2    2.09    0.50
  -9   3  -2   42.78    2.00
   9  -3   2   39.81    2.08
  10   2  -2    9.30    0.71
 -10  -2   2    8.31    0.65
   9   2  -2   60.53    2.78
  -9  -2   2   62.59    2.41
   8   2  -2    6.85    0.53
  -8  -2   2    6.57    0.49
   7   2  -2   58.18    2.28
   7   2  -2   52.74    2.39
  -7  -2   2   51.52    2.04
   6   2  -2   75.13    3.19
   6   2  -2   75.31    2.97
  -6  -2   2   72.90    2.69
   5   2  -2    0.37    0.13
   5   2  -2    0.69    0.22
  -5  -2   2    0.30    0.11
   4   2  -2  141.83    5.67
   4   2  -2  140.30    4.96
  -4  -2   2  138.67    4.71
  -4  -2   2  129.33    5.30
   3   2  -2  110.28    4.49
   3   2  -2  108.57    3.88
  -3  -2   2  107.31    3.73
   2   2  -2  180.88    7.09
   2   2  -2  170.40    6.03
  -2  -2   2  171.26    5.87
   1   2  -2  209.11    8.26
   1   2  -2  203.36    7.81
   1   2  -2  202.21    7.01
  -1  -2   2  201.26    6.85
   0   2  -2   29.80    1.09
   0   2  -2   29.03    1.23
   0  -2   2   28.14    1.17
   0  -2   2   29.95    1.06
  -1   2  -2  563.75   19.17
   1  -2   2  553.89   18.80
   1  -2   2  571.87   21.56
  -2   2  -2   62.25    2.14
   2  -2   2   61.42    2.46
   2  -2   2   59.94    2.41
   2  -2   2   58.04    2.17
  -3   2  -2  207.17    7.04
   3  -2   2  202.27    7.93
   3  -2   2  204.25    7.07
   3  -2   2  204.19    8.26
  -4   2  -2  123.48    4.21
   4  -2   2  117.57    4.91
   4  -2   2  121.38    4.76
   4  -2   2  119.28    4.38
  -5   2  -2    0.33    0.13
  -5   2  -2    0.30    0.09
   5  -2   2    0.08    0.17
   5  -2   2    0.13    0.11
   5  -2   2    0.20    0.08
  -6   2  -2  160.14    5.30
  -6   2  -2  153.50    6.00
   6  -2   2  137.95    5.49
  -7   2  -2   37.48    1.70
   7  -2   2   37.52    1.77
  -8   2  -2   23.08    1.19
   8  -2   2   23.96    1.34
  -9   2  -2   60.27    2.68
   9  -2   2   61.19    2.66
 -10   2  -2    0.69    0.28
  10  -2   2    0.26    0.36
  10   1  -2   47.09    2.27
 -10  -1   2   48.44    2.05
   9   1  -2   32.14    1.60
  -9  -1   2   32.03    1.46
   8   1  -2   21.43    1.12
  -8  -1   2   21.06    1.04
   7   1  -2   87.33    3.76
  -7  -1   2   88.77    3.24
   6   1  -2    1.63    0.23
   6   1  -2    1.83    0.28
  -6  -1   2    1.93    0.27
  -6  -1   2    1.37    0.18
   5   1  -2  254.27   10.34
   5   1  -2  252.82    8.90
  -5  -1   2  254.87    8.62
  -5  -1   2  251.02    9.77
   4   1  -2  324.95   12.78
   4   1  -2  284.93   10.92
  -4  -1   2  329.44   10.62
  -4  -1   2  318.84   12.09
   3   1  -2  105.04    3.71
   3   1  -2  104.50    4.29
  -3  -1   2  103.20    4.04
  -3  -1   2  103.71    3.58
   2   1  -2 1000.00   36.31
   2   1  -2  925.65   30.65
  -2  -1   2  945.67   30.02
  -2  -1   2  735.00   34.45
   1   1  -2   42.52    1.50
   1   1  -2   41.98    1.75
  -1  -1   2   42.88    1.63
  -1  -1   2   40.03    1.46
   0   1  -2  264.77    9.33
   0   1  -2  280.79   11.02
   0  -1   2  276.77   10.47
   0  -1   2  272.69    9.14
  -1   1  -2  334.51   11.41
   1  -1   2  326.21   11.18
   1  -1   2  343.74   12.83
  -2   1  -2   32.49    1.20
   2  -1   2   37.10    1.26
   2  -1   2   31.95    1.34
   2  -1   2   31.05    1.35
  -3   1  -2  211.76    7.16
   3  -1   2  217.64    8.05
   3  -1   2  212.68    8.41
   3  -1   2  189.37    7.16
  -4   1  -2   11.57    0.51
   4  -1   2   11.68    0.57
   4  -1   2   11.39    0.54
   4  -1   2   10.83    0.64
  -5   1  -2   89.04    3.03
   5  -1   2   85.05    3.39
   5  -1   2   82.78    3.49
   5  -1   2   80.52    3.15
  -6   1  -2  105.69    3.77
   6  -1   2  105.86    4.23
   6  -1   2  103.73    4.37
   6  -1   2  107.62    3.92
  -7   1  -2   21.24    1.06
  -7   1  -2   22.50    0.96
   7  -1   2   20.88    1.03
   7  -1   2   22.30    1.14
  -8   1  -2   63.31    2.68
   8  -1   2   62.33    2.56
  -9   1  -2    4.78    0.51
   9  -1   2    4.65    0.58
  10  -1   2   34.90    1.72
  10   0  -2   41.39    1.99
 -10   0   2   39.15    1.84
   9   0  -2    4.60    0.50
  -9   0   2    3.88    0.49
   8   0  -2  105.17    4.48
  -8   0   2  104.19    3.90
   7   0  -2   27.84    1.33
  -7   0   2   26.49    1.25
   6   0  -2   72.20    2.69
   6   0  -2   70.32    3.06
  -6   0   2   70.96    2.69
  -6   0   2   72.43    2.91
   5   0  -2  100.96    3.64
   5   0  -2  100.06    4.25
   5   0  -2  104.57    3.63
  -5   0   2  101.25    4.02
   4   0  -2    3.91    0.30
   4   0  -2    4.24    0.29
   4   0  -2    3.73    0.27
  -4   0   2    3.36    0.24
   3   0  -2  298.55   10.46
   3   0  -2  305.64   12.33
   3   0  -2  309.07   10.26
  -3   0   2  303.45   11.69
   2   0  -2   36.76    1.60
   2   0  -2   38.77    1.36
  -2   0   2   37.82    1.53
  -2   0   2   37.55    1.36
   1   0  -2  380.20   14.86
   1   0  -2  366.75   12.52
  -1   0   2  358.70   12.29
   0   0  -2  285.26   11.32
   0   0  -2  282.96    9.55
   0   0   2  271.37    9.34
   0   0   2  282.47   10.74
  -1   0  -2   27.25    1.15
  -1   0  -2   27.03    0.99
   1   0   2   26.95    1.08
   1   0   2   27.07    0.95
  -2   0  -2   64.74    2.57
   2   0   2   61.34    2.22
   2   0   2   66.70    2.47
   2   0   2   58.08    2.21
   3   0   2    1.53    0.20
   3   0   2    1.51    0.14
   3   0   2    1.88    0.16
   3   0   2    1.50    0.12
   4   0   2   82.43    3.00
   4   0   2   83.51    3.46
   4   0   2   84.86    3.32
   4   0   2   85.55    3.02
   5   0   2  134.78    5.17
   5   0   2  135.35    4.64
   5   0   2  130.30    5.40
   5   0   2  126.14    4.63
   6   0   2    3.09    0.30
   6   0   2    3.10    0.26
   6   0   2    3.46    0.28
   6   0   2    3.66    0.37
   7   0   2  144.11    5.14
   7   0   2  145.61    5.99
   7   0   2  144.85    5.73
   7   0   2  144.15    5.12
  -8   0  -2   60.61    2.54
   8   0   2   58.34    2.60
   8   0   2   60.36    2.36
  -9   0  -2   46.25    2.05
   9   0   2   44.79    1.93
  10   0   2   68.21    2.76
 -10   1   2    1.23    0.38
   9  -1  -2   72.79    3.12
  -9   1   2   65.58    2.81
   8  -1  -2   49.89    2.36
   8  -1  -2   55.11    2.26
   7  -1  -2   32.71    1.46
   7  -1  -2   30.20    1.46
  -7   1   2   29.76    1.42
   6  -1  -2  126.68    5.38
   6  -1  -2  131.89    4.68
  -6   1   2  128.62    5.14
   5  -1  -2   14.34    0.75
   5  -1  -2   13.30    0.70
  -5   1   2   13.20    0.68
   4  -1  -2  113.87    3.98
   4  -1  -2  108.38    3.85
   4  -1  -2  113.50    4.63
  -4   1   2  110.50    4.40
   3  -1  -2   66.55    2.38
   3  -1  -2   69.74    2.89
   3  -1  -2   68.62    2.50
  -3   1   2   70.83    2.76
   2  -1  -2    0.79    0.12
   2  -1  -2    0.60    0.12
  -2   1   2    0.70    0.12
   1  -1  -2   85.83    3.03
  -1   1   2   90.24    3.51
   0  -1  -2   32.71    1.15
   0   1   2   32.55    1.38
   0   1   2   33.87    1.18
  -1  -1  -2  473.38   18.62
   1   1   2  443.53   15.73
   1   1   2  467.17   17.65
  -2  -1  -2   87.25    3.49
   2   1   2   82.48    3.03
   2   1   2   86.14    3.31
   2   1   2   84.80    2.88
  -3  -1  -2   13.09    0.62
   3   1   2   13.47    0.54
   3   1   2   13.63    0.59
   3   1   2   12.92    0.62
   4   1   2  138.34    5.33
   4   1   2  138.19    4.87
   4   1   2  138.87    5.61
   4   1   2  132.55    4.68
   5   1   2    7.69    0.40
   5   1   2    7.47    0.41
   5   1   2    7.50    0.46
   5   1   2    7.41    0.42
   6   1   2  121.83    4.79
   6   1   2  123.04    4.40
   6   1   2  120.56    4.25
   6   1   2  121.02    5.04
   7   1   2   19.43    0.91
   7   1   2   19.63    0.92
   7   1   2   19.09    0.95
   7   1   2   18.47    0.87
   8   1   2   10.39    0.60
   8   1   2    9.20    0.59
   8   1   2   10.42    0.62
   8   1   2   10.29    0.63
  -9  -1  -2   86.81    3.17
   9   1   2   82.64    3.65
   9  -2  -2   51.14    2.33
   8  -2  -2    4.88    0.64
   8  -2  -2    4.72    0.47
  -8   2   2    6.40    0.54
   7  -2  -2   88.54    3.52
   7  -2  -2   90.24    3.90
  -7   2   2   93.99    3.78
   6  -2  -2   25.68    1.24
   6  -2  -2   24.64    1.24
  -6   2   2   26.44    1.23
   5  -2  -2   41.05    1.78
   5  -2  -2   44.07    1.91
  -5   2   2   43.32    1.86
   4  -2  -2  136.91    5.10
   4  -2  -2  145.77    5.96
  -4   2   2  150.11    5.70
   3  -2  -2   15.93    0.79
   3  -2  -2   17.06    0.82
  -3   2   2   17.15    0.80
   2  -2  -2  120.26    4.83
   2  -2  -2  109.16    4.07
  -2   2   2  119.96    4.61
   1  -2  -2    9.66    0.54
   1  -2  -2    9.12    0.44
  -1   2   2    8.70    0.36
  -1   2   2    9.88    0.51
   0  -2  -2  219.71    8.83
   0  -2  -2  213.44    7.19
   0   2   2  209.10    8.36
   0   2   2  214.06    7.35
  -1  -2  -2  143.27    4.97
  -1  -2  -2  158.49    6.12
   1   2   2  141.26    5.20
   1   2   2  152.73    5.79
  -2  -2  -2   67.89    2.73
  -2  -2  -2   68.15    2.20
   2   2   2   57.98    2.41
   2   2   2   65.66    2.57
  -3  -2  -2  200.53    8.05
  -3  -2  -2  206.84    6.62
   3   2   2  175.59    6.94
   3   2   2  205.95    7.62
  -4  -2  -2   57.22    2.40
  -4  -2  -2   57.81    1.97
   4   2   2   54.14    2.20
   4   2   2   56.63    2.26
  -5  -2  -2   59.91    2.11
   5   2   2   59.78    2.35
   5   2   2   59.93    2.54
   5   2   2   58.38    2.38
  -6  -2  -2  182.20    6.32
   6   2   2  181.32    7.20
   6   2   2  190.01    6.65
   6   2   2  187.32    7.62
  -7  -2  -2   10.61    0.55
   7   2   2   11.12    0.69
   7   2   2    9.81    0.61
   7   2   2   10.00    0.55
  -8  -2  -2   92.51    3.28
   8   2   2   88.76    3.87
   8   2   2   90.20    3.46
   9   2   2   27.83    1.38
   9   2   2   26.81    1.31
 -10  -2  -2   31.59    1.72
   9  -3  -2    3.65    0.62
  -9   3   2    4.38    0.58
   8  -3  -2   41.90    2.01
   8  -3  -2   39.33    2.05
  -8   3   2   46.11    2.04
   7  -3  -2   17.70    0.99
   7  -3  -2   19.93    1.13
  -7   3   2   18.75    1.04
   6  -3  -2   32.37    1.51
   6  -3  -2   31.44    1.49
  -6   3   2   30.71    1.49
   5  -3  -2  125.25    5.29
   5  -3  -2  125.79    4.62
  -5   3   2  128.87    5.10
   4  -3  -2    2.59    0.26
   4  -3  -2    2.96    0.37
  -4   3   2    2.29    0.28
   3  -3  -2  120.31    4.30
   3  -3  -2  119.75    5.04
  -3   3   2  122.73    4.82
   2  -3  -2   74.74    3.20
   2  -3  -2   73.07    2.69
  -2   3   2   74.86    3.02
   1  -3  -2    9.78    0.64
   1  -3  -2   10.30    0.50
  -1   3   2    9.79    0.42
  -1   3   2   10.56    0.57
   0  -3  -2  362.13   15.41
   0  -3  -2  399.04   12.64
   0   3   2  398.30   12.92
   0   3   2  348.30   14.61
  -1  -3  -2   66.58    2.77
  -1  -3  -2   67.22    2.20
   1   3   2   64.61    2.38
   1   3   2   59.22    2.65
  -2  -3  -2  192.22    7.77
  -2  -3  -2  203.92    6.34
   2   3   2  178.66    6.67
   2   3   2  183.61    7.35
  -3  -3  -2  337.13   13.60
  -3  -3  -2  347.10   11.17
   3   3   2  324.70   11.66
   3   3   2  331.17   12.87
  -4  -3  -2   22.13    0.79
  -4  -3  -2   20.82    1.00
   4   3   2   20.83    0.91
   4   3   2   20.78    1.06
  -5  -3  -2  205.21    8.45
  -5  -3  -2  212.62    6.95
   5   3   2  208.78    7.97
   5   3   2  196.19    7.39
  -6  -3  -2    3.41    0.25
  -6  -3  -2    3.23    0.31
   6   3   2    3.08    0.44
   6   3   2    3.10    0.25
  -7  -3  -2   45.35    2.06
   7   3   2   45.18    2.01
  -8  -3  -2   61.76    2.71
   8   3   2   59.02    2.54
  -9  -3  -2   16.61    0.97
   9   3   2   16.18    1.02
 -10  -3  -2   64.32    2.96
  -9   4   2   31.15    1.70
   8  -4  -2   45.53    2.12
  -8   4   2   44.22    2.15
   7  -4  -2   -0.01    0.23
  -7   4   2    0.67    0.27
   6  -4  -2  121.59    4.43
   6  -4  -2  114.10    4.98
  -6   4   2  118.59    4.85
   5  -4  -2   31.60    1.43
   5  -4  -2   28.76    1.44
  -5   4   2   31.01    1.46
   4  -4  -2   96.17    4.19
   4  -4  -2  101.53    3.65
  -4   4   2   98.44    4.04
   3  -4  -2  122.68    5.21
   3  -4  -2  123.09    4.40
  -3   4   2  124.14    4.96
   2  -4  -2    1.45    0.29
   2  -4  -2    1.41    0.24
  -2   4   2    1.12    0.21
  -2   4   2    1.35    0.13
   1  -4  -2  354.13   11.80
   1  -4  -2  338.71   14.36
  -1   4   2  352.12   13.57
  -1   4   2  351.15   11.93
   0  -4  -2   55.88    1.94
   0  -4  -2   50.56    2.44
   0   4   2   52.61    2.32
   0   4   2   56.49    1.98
  -1  -4  -2   48.55    2.16
  -1  -4  -2   47.18    1.69
   1   4   2   49.20    1.84
   1   4   2   48.19    2.10
  -2  -4  -2  160.26    6.46
  -2  -4  -2  160.99    5.24
   2   4   2  147.78    6.12
   2   4   2  154.27    5.56
  -3  -4  -2    5.17    0.23
  -3  -4  -2    4.50    0.35
   3   4   2    4.62    0.45
   3   4   2    4.89    0.30
  -4  -4  -2  326.56   10.95
  -4  -4  -2  322.16   13.35
   4   4   2  325.06   12.61
   4   4   2  337.15   11.53
  -5  -4  -2   43.94    2.02
  -5  -4  -2   44.54    1.60
   5   4   2   47.55    2.01
   5   4   2   45.35    1.84
  -6  -4  -2   52.43    2.33
   6   4   2   51.31    2.28
  -7  -4  -2  106.59    4.49
   7   4   2  102.50    4.12
  -8  -4  -2    0.84    0.24
   8   4   2    0.80    0.37
  -9  -4  -2   75.34    3.37
   9   4   2   74.92    3.19
 -10  -4  -2   21.07    1.24
  10   4   2   21.51    1.32
   8  -5  -2    2.73    0.54
  -8   5   2    1.98    0.44
   7  -5  -2   55.83    2.45
  -7   5   2   57.12    2.62
   6  -5  -2   40.80    1.84
  -6   5   2   39.90    1.94
   5  -5  -2   20.84    1.16
   5  -5  -2   23.99    1.18
  -5   5   2   23.08    1.21
   4  -5  -2  133.43    4.76
   4  -5  -2  128.01    5.57
  -4   5   2  132.53    5.34
   3  -5  -2   10.25    0.64
   3  -5  -2   10.16    0.72
  -3   5   2   10.47    0.68
   2  -5  -2   58.39    3.23
   2  -5  -2   75.65    2.71
  -2   5   2   80.11    3.09
  -2   5   2   75.10    2.56
   1  -5  -2  283.20    9.76
   1  -5  -2  292.82   11.90
  -1   5   2  283.63    9.85
  -1   5   2  287.20   11.24
   0  -5  -2   16.96    1.03
   0  -5  -2   19.66    0.79
   0   5   2   18.49    0.80
   0   5   2   18.49    1.00
  -1  -5  -2  207.82    8.67
  -1  -5  -2  201.07    7.04
   1   5   2  209.27    7.29
   1   5   2  215.90    8.27
  -2  -5  -2   15.21    0.82
  -2  -5  -2   14.51    0.57
   2   5   2   14.80    0.76
   2   5   2   12.18    0.76
  -3  -5  -2   85.72    3.61
  -3  -5  -2   85.25    2.88
   3   5   2   83.66    3.21
   3   5   2   81.49    3.38
  -4  -5  -2   52.18    2.36
  -4  -5  -2   54.40    1.85
   4   5   2   51.32    2.21
   4   5   2   53.29    2.15
  -5  -5  -2   50.16    2.32
   5   5   2   53.53    2.25
  -6  -5  -2   67.96    3.10
   6   5   2   73.83    2.98
  -7  -5  -2    3.58    0.44
   7   5   2    3.82    0.61
  -8  -5  -2   73.55    3.29
   8   5   2   72.66    3.16
  -9  -5  -2   59.10    2.68
   9   5   2   53.85    2.64
 -10  -5  -2    1.99    0.40
  10   5   2    1.90    0.54
   7  -6  -2   81.20    3.22
  -7   6   2   75.61    3.51
   6  -6  -2    0.87    0.33
  -6   6   2    1.13    0.38
   5  -6  -2   69.64    2.81
  -5   6   2   71.28    3.12
   4  -6  -2   24.47    1.23
   4  -6  -2   25.60    1.40
  -4   6   2   26.24    1.37
   3  -6  -2   58.90    3.02
   3  -6  -2   69.00    2.55
  -3   6   2   67.39    2.87
   2  -6  -2  166.23    5.90
   2  -6  -2  161.36    7.18
  -2   6   2  175.63    6.78
   1  -6  -2   27.20    1.43
   1  -6  -2   25.21    1.13
  -1   6   2   26.98    1.35
  -1   6   2   25.01    1.05
   0  -6  -2  141.31    4.69
   0  -6  -2  127.64    5.78
   0   6   2  143.90    4.79
   0   6   2  124.85    5.48
  -1  -6  -2   33.95    1.74
  -1  -6  -2   34.79    1.32
   1   6   2   34.64    1.43
   1   6   2   35.88    1.67
  -2  -6  -2  124.23    5.20
  -2  -6  -2  119.25    4.16
   2   6   2  118.98    4.94
   2   6   2  123.35    4.44
  -3  -6  -2  133.54    5.40
   3   6   2  126.42    4.69
   3   6   2  120.59    5.08
  -4  -6  -2    1.92    0.31
   4   6   2    2.03    0.39
   4   6   2    2.48    0.27
  -5  -6  -2  101.96    4.44
   5   6   2  104.35    4.02
  -6  -6  -2   76.34    3.50
   6   6   2   82.78    3.31
  -7  -6  -2   64.96    2.98
   7   6   2   65.47    2.88
  -8  -6  -2   95.35    4.27
   8   6   2   98.22    4.03
  -9  -6  -2    0.14    0.23
   9   6   2   -0.03    0.41
   7  -7  -2    0.63    0.38
  -7   7   2    1.50    0.48
   6  -7  -2   72.08    2.97
  -6   7   2   73.10    3.34
   5  -7  -2   39.39    1.81
  -5   7   2   39.06    2.00
   4  -7  -2    4.63    0.57
  -4   7   2    4.72    0.58
   3  -7  -2   54.09    2.11
   3  -7  -2   41.96    2.47
  -3   7   2   56.16    2.41
   2  -7  -2   12.36    0.75
   2  -7  -2   13.61    0.96
  -2   7   2   12.68    0.89
   1  -7  -2  121.09    5.00
   1  -7  -2  111.27    4.07
  -1   7   2  106.06    4.72
   0  -7  -2   33.95    1.34
   0  -7  -2   30.69    1.70
   0   7   2   34.09    1.36
   0   7   2   29.86    1.61
  -1  -7  -2   30.17    1.69
  -1  -7  -2   33.34    1.29
   1   7   2   31.77    1.39
   1   7   2   34.13    1.62
  -2  -7  -2  160.40    6.77
   2   7   2  152.54    5.73
   2   7   2  162.55    6.41
  -3  -7  -2    7.19    0.59
   3   7   2    6.65    0.62
   3   7   2    5.77    0.52
  -4  -7  -2   85.44    3.74
   4   7   2   83.49    3.35
  -5  -7  -2   42.23    2.07
   5   7   2   43.72    1.99
  -6  -7  -2    0.47    0.25
   6   7   2    0.39    0.35
  -7  -7  -2   97.60    4.31
   7   7   2   95.58    3.96
  -8  -7  -2   10.05    0.80
   8   7   2    8.02    0.93
  -9  -7  -2   40.95    2.21
   9   7   2   44.83    2.27
   6  -8  -2   54.23    2.37
  -6   8   2   53.26    2.69
   5  -8  -2    2.49    0.48
  -5   8   2    3.21    0.57
   4  -8  -2   70.49    2.88
  -4   8   2   73.09    3.31
   3  -8  -2   34.18    1.54
  -3   8   2   30.93    1.75
   2  -8  -2   37.99    1.97
   2  -8  -2   35.92    1.61
  -2   8   2   34.46    1.88
   1  -8  -2   81.22    3.62
   1  -8  -2   78.79    2.97
  -1   8   2   73.75    3.46
   0  -8  -2    9.25    0.78
   0  -8  -2    9.92    0.61
   0   8   2    9.08    0.61
   0   8   2    9.58    0.79
  -1  -8  -2   78.54    3.99
   1   8   2   89.12    3.34
   1   8   2   95.28    3.80
  -2  -8  -2   46.11    2.37
   2   8   2   46.48    2.01
   2   8   2   49.63    2.20
  -3  -8  -2   49.15    2.41
   3   8   2   49.59    2.14
  -4  -8  -2  135.74    5.93
   4   8   2  138.99    5.20
  -5  -8  -2    6.56    0.64
   5   8   2    6.01    0.72
  -6  -8  -2   85.58    3.84
   6   8   2   82.92    3.50
  -7  -8  -2   29.43    1.66
   7   8   2   30.60    1.70
  -8  -8  -2    7.38    0.82
   8   8   2    7.45    0.93
   5  -9  -2   31.03    1.60
   4  -9  -2   31.28    1.57
  -4   9   2   31.45    1.83
   3  -9  -2   12.33    0.86
  -3   9   2   10.06    0.98
   2  -9  -2  105.66    3.80
  -2   9   2   92.36    4.36
   1  -9  -2   10.95    0.75
   1  -9  -2   11.41    0.90
  -1   9   2    8.42    0.90
   0  -9  -2   61.49    2.93
   0   9   2   57.26    2.77
  -1  -9  -2   81.76    4.16
   1   9   2   95.92    3.51
   1   9   2   93.22    3.92
  -2  -9  -2    7.89    0.88
   2   9   2    8.21    0.74
  -3  -9  -2   71.03    3.42
   3   9   2   72.99    2.98
  -4  -9  -2    3.96    0.60
   4   9   2    4.52    0.62
  -5  -9  -2   30.55    1.73
   5   9   2   31.42    1.67
  -6  -9  -2   37.05    2.03
   6   9   2   39.05    1.97
  -7  -9  -2    9.01    0.86
   7   9   2    7.67    0.92
   3 -10  -2   68.62    2.70
  -3  10   2   58.12    3.08
  -2  10   2   11.44    1.06
  -1  10   2    8.79    0.94
   0 -10  -2   53.41    2.71
   0  10   2   50.34    2.53
  -1 -10  -2    0.26    0.35
  -2 -10  -2   69.97    3.67
   2  10   2   81.93    3.15
  -3 -10  -2   31.94    1.90
   3  10   2   32.14    1.66
  -4 -10  -2   18.63    1.35
   4  10   2   22.20    1.33
  -5 -10  -2   71.57    3.61
   5  10   2   80.35    3.29
  -6 -10  -2    1.86    0.52
   6  10   2    2.42    0.59
  -1  11   2   58.71    2.91
  -2 -11  -2   27.80    1.82
  -3 -11  -2    6.95    0.97
   3  11   2    6.24    0.77
  -5 -10   3   50.13    2.48
   4  10  -3   51.64    2.38
   3  10  -3    2.45    0.50
   2  10  -3   61.55    2.56
  -2 -10   3   59.46    2.37
   1  10  -3   26.10    1.33
  -1 -10   3   25.50    1.25
   0  10  -3   40.60    1.80
   0 -10   3   41.43    1.81
   1 -10   3   60.20    2.51
   2 -10   3    1.37    0.39
  -3  10  -3   44.39    2.24
   3 -10   3   46.13    2.15
   6   9  -3    4.44    0.72
  -6  -9   3    5.26    0.63
   5   9  -3   83.28    3.50
  -5  -9   3   86.17    3.82
   4   9  -3    0.58    0.34
  -4  -9   3    0.28    0.20
  -4  -9   3    0.22    0.25
   3   9  -3   80.20    3.13
  -3  -9   3   74.29    3.47
  -3  -9   3   78.25    2.88
   2   9  -3   36.01    1.66
  -2  -9   3   36.80    1.54
   1   9  -3   13.14    0.81
  -1  -9   3   11.92    0.74
   0   9  -3   81.35    3.13
   0  -9   3   82.29    3.11
  -1   9  -3    1.61    0.31
   1  -9   3    1.92    0.38
  -2   9  -3   38.17    1.91
   2  -9   3   41.27    1.82
  -3   9  -3   26.04    1.44
   3  -9   3   27.07    1.44
  -4   9  -3   15.55    1.07
   4  -9   3   16.32    1.14
   7   8  -3    3.01    0.65
  -7  -8   3    2.90    0.49
   6   8  -3  119.86    4.82
  -6  -8   3  124.80    5.32
   5   8  -3   26.68    1.42
  -5  -8   3   25.15    1.37
  -5  -8   3   25.42    1.12
   4   8  -3   32.65    1.53
  -4  -8   3   29.96    1.55
  -4  -8   3   30.69    1.28
   3   8  -3   52.91    2.20
  -3  -8   3   52.28    2.00
  -3  -8   3   51.55    2.39
   2   8  -3   10.62    0.73
  -2  -8   3   11.70    0.66
  -2  -8   3   13.33    0.79
   1   8  -3   95.06    3.62
  -1  -8   3   98.40    3.52
   0   8  -3   26.25    1.20
   0  -8   3   26.05    1.19
  -1   8  -3   35.17    1.67
  -1   8  -3   35.23    1.49
   1  -8   3   36.08    1.55
  -2   8  -3  121.89    4.99
  -2   8  -3  122.77    4.41
   2  -8   3  121.22    4.49
  -3   8  -3    0.39    0.25
   3  -8   3    0.23    0.24
  -4   8  -3   73.87    3.30
   4  -8   3   77.84    3.12
  -5   8  -3   21.84    1.31
   5  -8   3   22.65    1.37
  -6   8  -3   25.89    1.51
   6  -8   3   26.38    1.58
   8   7  -3    0.16    0.44
  -8  -7   3    0.53    0.28
   7   7  -3   71.85    3.15
  -7  -7   3   68.98    3.19
   6   7  -3   53.67    2.39
  -6  -7   3   51.72    2.00
  -6  -7   3   52.27    2.45
   5   7  -3   40.54    1.91
  -5  -7   3   43.79    2.01
  -5  -7   3   41.98    1.64
   4   7  -3   94.62    3.60
  -4  -7   3   91.64    3.33
  -4  -7   3   93.91    4.03
   3   7  -3    3.89    0.44
  -3  -7   3    4.00    0.40
  -3  -7   3    4.37    0.34
   2   7  -3   82.76    3.14
  -2  -7   3   81.07    2.99
  -2  -7   3   84.61    3.57
   1   7  -3   77.01    2.92
  -1  -7   3   78.18    3.36
  -1  -7   3   77.21    2.83
   0   7  -3   29.55    1.32
   0   7  -3   28.14    1.21
   0  -7   3   26.24    1.19
  -1   7  -3   78.21    2.93
  -1   7  -3   80.98    3.28
   1  -7   3   78.36    2.94
  -2   7  -3    8.20    0.57
  -2   7  -3    7.69    0.48
   2  -7   3    7.08    0.56
  -3   7  -3  124.07    4.56
  -3   7  -3  131.18    5.21
   3  -7   3  129.61    4.70
  -4   7  -3   87.92    3.71
   4  -7   3   87.44    3.44
  -5   7  -3   17.92    1.10
   5  -7   3   19.12    1.19
  -6   7  -3   50.50    2.35
   6  -7   3   47.84    2.30
  -7   7  -3    1.73    0.44
   7  -7   3    1.67    0.48
   9   6  -3   11.63    1.28
   8   6  -3   38.85    2.13
   8   6  -3   36.56    1.89
  -8  -6   3   40.54    1.95
   7   6  -3   48.95    2.37
   7   6  -3   49.07    2.29
  -7  -6   3   50.31    1.90
  -7  -6   3   47.07    2.29
   6   6  -3    2.38    0.46
  -6  -6   3    3.24    0.33
  -6  -6   3    3.26    0.41
   5   6  -3   68.47    2.84
  -5  -6   3   70.09    2.56
  -5  -6   3   72.79    3.12
   4   6  -3   16.36    0.91
  -4  -6   3   16.56    0.76
  -4  -6   3   17.63    0.92
   3   6  -3   73.03    2.77
  -3  -6   3   72.82    3.11
  -3  -6   3   70.53    2.59
   2   6  -3  102.69    3.69
  -2  -6   3  100.47    4.23
  -2  -6   3   98.47    3.53
   1   6  -3    1.34    0.22
   1   6  -3    1.17    0.20
  -1  -6   3    1.56    0.22
  -1  -6   3    1.46    0.22
   0   6  -3  180.62    6.49
   0   6  -3  186.84    7.25
   0  -6   3  182.88    6.38
   0  -6   3  189.48    7.64
  -1   6  -3   35.20    1.55
  -1   6  -3   34.81    1.40
   1  -6   3   35.56    1.43
  -2   6  -3   69.63    2.56
  -2   6  -3   70.61    2.89
   2  -6   3   68.97    2.62
  -3   6  -3   70.06    2.57
  -3   6  -3   71.48    2.95
   3  -6   3   69.38    2.71
  -4   6  -3    0.42    0.21
   4  -6   3    0.29    0.22
  -5   6  -3  100.78    4.22
   5  -6   3  101.57    3.96
  -6   6  -3    9.42    0.73
   6  -6   3    8.23    0.90
  -7   6  -3   29.98    1.60
   7  -6   3   31.09    1.72
   9   5  -3   17.81    1.07
   8   5  -3   60.91    2.81
   8   5  -3   61.17    2.92
  -8  -5   3   63.64    2.36
   7   5  -3    0.17    0.20
   7   5  -3    0.68    0.38
  -7  -5   3    0.64    0.19
   6   5  -3   83.58    3.38
   6   5  -3   81.69    3.59
  -6  -5   3   83.43    2.99
   5   5  -3   27.59    1.35
   5   5  -3   26.87    1.35
  -5  -5   3   29.32    1.14
   4   5  -3   32.73    1.50
   4   5  -3   32.33    1.41
  -4  -5   3   31.31    1.25
   3   5  -3  147.32    5.25
   3   5  -3  146.90    6.06
  -3  -5   3  142.64    5.03
  -3  -5   3  149.07    6.07
   2   5  -3   20.32    0.90
  -2  -5   3   19.59    0.94
  -2  -5   3   18.99    0.81
   1   5  -3   81.77    3.15
   1   5  -3   78.16    2.89
  -1  -5   3   77.23    3.32
  -1  -5   3   79.45    2.81
   0   5  -3   62.76    2.33
   0   5  -3   63.10    2.55
   0  -5   3   63.32    2.30
   0  -5   3   63.77    2.69
  -1   5  -3   14.79    0.66
  -1   5  -3   14.54    0.71
   1  -5   3   14.34    0.76
   1  -5   3   13.63    0.68
  -2   5  -3  151.76    5.77
  -2   5  -3  141.43    5.11
   2  -5   3  145.25    5.12
  -3   5  -3    0.59    0.13
  -3   5  -3    0.20    0.14
   3  -5   3    0.24    0.16
  -4   5  -3   81.98    3.32
  -4   5  -3   79.52    2.88
   4  -5   3   77.81    3.07
  -5   5  -3   33.66    1.59
  -6   5  -3   13.94    0.87
   6  -5   3   14.83    1.04
  -7   5  -3   80.45    3.59
   7  -5   3   89.02    3.55
  -8   5  -3    0.91    0.34
   8  -5   3    0.11    0.38
   9   4  -3   42.35    2.07
  -9  -4   3   43.82    1.77
   8   4  -3   11.66    0.77
   8   4  -3   10.90    1.06
  -8  -4   3   12.56    0.68
   7   4  -3   54.41    2.57
   7   4  -3   58.37    2.54
  -7  -4   3   55.16    2.11
   6   4  -3   60.66    2.76
   6   4  -3   65.59    2.70
  -6  -4   3   62.92    2.31
   5   4  -3    2.21    0.28
   5   4  -3    3.19    0.43
  -5  -4   3    1.97    0.23
   4   4  -3  117.45    4.83
   4   4  -3  113.44    4.22
  -4  -4   3  115.66    4.01
   3   4  -3   29.59    1.29
   3   4  -3   26.57    1.17
  -3  -4   3   27.80    1.08
   2   4  -3  108.57    4.55
   2   4  -3  111.49    3.94
  -2  -4   3  110.54    3.80
   1   4  -3  277.23    9.65
   1   4  -3  288.49   10.75
  -1  -4   3  287.12    9.43
  -1  -4   3  265.85   11.33
   0   4  -3    0.20    0.09
   0   4  -3    0.06    0.09
   0  -4   3    0.59    0.13
   0  -4   3    0.10    0.08
  -1   4  -3  249.80    9.72
  -1   4  -3  251.32    8.67
   1  -4   3  256.82    8.54
   1  -4   3  248.23   10.23
  -2   4  -3   52.57    2.19
  -2   4  -3   53.08    1.95
   2  -4   3   54.82    2.23
   2  -4   3   52.00    1.99
  -3   4  -3   86.84    3.46
  -3   4  -3   87.05    3.05
   3  -4   3   82.22    3.13
  -4   4  -3  115.47    4.57
  -4   4  -3  111.92    4.01
   4  -4   3  113.73    4.19
  -5   4  -3   10.27    0.65
  -5   4  -3   11.11    0.53
   5  -4   3   10.10    0.79
  -6   4  -3   90.77    3.80
   6  -4   3   92.88    3.67
  -7   4  -3   44.65    2.12
   7  -4   3   50.31    2.26
  -8   4  -3   19.41    1.13
   8  -4   3   20.97    1.36
  -9   4  -3   51.49    2.43
   9  -4   3   53.39    2.58
   9   3  -3   20.06    1.11
  -9  -3   3   18.69    0.97
   8   3  -3   15.32    0.89
  -8  -3   3   14.51    0.78
   7   3  -3  115.80    4.70
   7   3  -3  124.12    5.12
  -7  -3   3  121.77    4.28
   6   3  -3    3.16    0.34
   6   3  -3    3.81    0.53
  -6  -3   3    3.08    0.30
   5   3  -3  160.94    6.51
   5   3  -3  157.18    5.73
  -5  -3   3  153.54    5.41
   4   3  -3   81.54    3.07
   4   3  -3   82.22    3.47
  -4  -3   3   83.22    2.90
   3   3  -3   27.51    1.22
   3   3  -3   26.18    1.11
  -3  -3   3   26.78    1.03
   2   3  -3  292.98   10.32
   2   3  -3  309.14   12.16
  -2  -3   3  297.07   10.07
   1   3  -3    1.14    0.13
   1   3  -3    1.40    0.11
   1   3  -3    0.92    0.14
  -1  -3   3    0.83    0.12
   0   3  -3  246.86    8.41
   0  -3   3  241.16    9.88
   0  -3   3  249.90    8.24
   0  -3   3  240.06    9.40
  -1   3  -3  114.03    3.99
   1  -3   3  116.65    4.66
   1  -3   3  113.76    4.46
   1  -3   3  112.70    3.94
  -2   3  -3   61.51    2.23
   2  -3   3   63.98    2.51
   2  -3   3   60.71    2.25
  -3   3  -3  280.86    9.71
   3  -3   3  291.09   10.94
   3  -3   3  275.11    9.65
  -4   3  -3   14.64    0.62
   4  -3   3   13.57    0.80
   4  -3   3   13.11    0.71
  -5   3  -3   70.41    2.98
  -5   3  -3   72.90    2.61
   5  -3   3   72.87    2.91
  -6   3  -3   79.63    3.34
  -6   3  -3   82.87    2.93
   6  -3   3   78.97    3.25
  -7   3  -3    8.83    0.63
   7  -3   3   10.19    0.98
  -8   3  -3  132.49    5.40
   8  -3   3  131.71    5.12
  -9   3  -3   25.89    1.34
   9  -3   3   22.16    1.50
  10   2  -3   34.46    1.83
 -10  -2   3   39.50    1.67
   9   2  -3    3.07    0.42
  -9  -2   3    2.74    0.39
   8   2  -3   97.83    4.27
  -8  -2   3  100.65    3.63
   7   2  -3   48.68    2.17
  -7  -2   3   47.09    1.87
   6   2  -3   32.57    1.49
   6   2  -3   29.37    1.42
  -6  -2   3   29.69    1.23
   5   2  -3  224.69    8.28
   5   2  -3  240.65    9.55
  -5  -2   3  233.74    7.94
   4   2  -3    2.82    0.25
   4   2  -3    2.96    0.33
  -4  -2   3    2.89    0.23
   3   2  -3  215.56    8.68
   3   2  -3  212.75    7.40
  -3  -2   3  210.32    7.20
   2   2  -3   24.10    0.97
   2   2  -3   25.09    1.10
  -2  -2   3   25.16    0.94
   1   2  -3  105.71    4.22
   1   2  -3  102.93    3.61
  -1  -2   3  104.99    3.97
  -1  -2   3   99.07    3.52
   0   2  -3  232.89    8.11
   0   2  -3  240.27    9.54
   0  -2   3  232.99    7.94
   0  -2   3  239.02    9.08
  -1   2  -3    7.38    0.35
   1  -2   3    7.30    0.37
   1  -2   3    7.09    0.35
  -2   2  -3  257.08    8.85
   2  -2   3  264.42    9.94
   2  -2   3  251.26    8.72
  -3   2  -3  189.39    6.43
   3  -2   3  180.86    6.42
   3  -2   3  193.80    7.23
   3  -2   3  179.76    7.50
  -4   2  -3   65.51    2.31
   4  -2   3   64.63    2.50
   4  -2   3   64.65    2.59
   4  -2   3   60.12    2.61
  -5   2  -3  216.14    7.48
   5  -2   3  207.99    7.64
   5  -2   3  223.12    8.44
  -6   2  -3    0.92    0.16
   6  -2   3    0.96    0.20
   6  -2   3    0.32    0.21
  -7   2  -3   92.05    3.66
   7  -2   3   84.11    3.48
  -8   2  -3   16.75    0.93
   8  -2   3   15.53    1.08
  -9   2  -3   24.70    1.30
   9  -2   3   24.51    1.43
 -10   2  -3   35.53    1.74
  10  -2   3   32.35    1.78
  10   1  -3    2.08    0.39
 -10  -1   3    2.17    0.41
   9   1  -3   56.01    2.58
  -9  -1   3   56.36    2.30
   8   1  -3   76.23    3.36
  -8  -1   3   76.93    2.92
   7   1  -3   38.86    1.81
  -7  -1   3   39.23    1.61
   6   1  -3  197.28    6.65
   6   1  -3  182.57    7.66
  -6  -1   3  177.29    6.43
   5   1  -3    1.27    0.19
   5   1  -3    1.66    0.28
  -5  -1   3    1.53    0.18
  -5  -1   3    1.55    0.21
   4   1  -3  288.75   11.39
   4   1  -3  263.31    9.72
  -4  -1   3  288.86    9.48
  -4  -1   3  278.11   10.79
   3   1  -3  307.25   12.11
   3   1  -3  307.28   10.28
  -3  -1   3  312.19   10.06
  -3  -1   3  267.76   11.51
   2   1  -3   71.15    2.93
   2   1  -3   70.01    2.49
  -2  -1   3   70.89    2.45
  -2  -1   3   70.16    2.75
   1   1  -3   66.54    2.32
   1   1  -3   63.55    2.72
  -1  -1   3   69.19    2.56
  -1  -1   3   63.74    2.27
   0   1  -3   17.08    0.66
   0   1  -3   16.73    0.74
   0  -1   3   17.16    0.71
   0  -1   3   17.11    0.65
  -1   1  -3  105.66    3.75
  -1   1  -3  110.43    4.36
   1  -1   3  108.59    4.19
   1  -1   3  106.83    3.67
  -2   1  -3  280.35    9.66
   2  -1   3  277.28    9.50
   2  -1   3  288.55   10.85
  -3   1  -3   19.24    0.78
   3  -1   3   19.66    0.88
   3  -1   3   19.64    0.86
  -4   1  -3  158.43    5.38
   4  -1   3  158.82    6.26
   4  -1   3  162.67    6.03
   4  -1   3  135.35    5.43
  -5   1  -3   45.89    1.72
   5  -1   3   45.97    1.92
   5  -1   3   42.59    1.87
   5  -1   3   46.87    1.91
  -6   1  -3  121.16    4.21
   6  -1   3  114.62    4.85
   6  -1   3  119.09    4.70
   6  -1   3  116.28    4.33
  -7   1  -3   85.45    3.11
   7  -1   3   85.26    3.27
   7  -1   3   82.85    3.46
  -8   1  -3   10.21    0.66
   8  -1   3   10.47    0.76
  -9   1  -3   41.54    1.89
   9  -1   3   39.13    1.84
 -10   1  -3    5.75    0.62
  10  -1   3    5.92    0.71
  10   0  -3   25.28    1.39
 -10   0   3   25.96    1.36
   9   0  -3   66.76    3.03
  -9   0   3   67.92    2.74
   8   0  -3    0.43    0.20
  -8   0   3   -0.05    0.20
   7   0  -3   67.70    2.92
  -7   0   3   64.70    2.58
   6   0  -3    5.40    0.41
  -6   0   3    5.80    0.39
  -6   0   3    5.45    0.45
   5   0  -3   68.19    2.99
   5   0  -3   74.61    2.59
  -5   0   3   70.06    2.60
  -5   0   3   67.39    2.83
   4   0  -3   16.88    0.85
   4   0  -3   19.05    0.80
  -4   0   3   16.89    0.80
  -4   0   3   17.41    0.79
   3   0  -3   16.98    0.74
   3   0  -3   18.84    0.86
  -3   0   3   18.47    0.77
  -3   0   3   18.27    0.84
   2   0  -3  209.53    7.96
   2   0  -3  204.66    6.70
  -2   0   3  199.52    6.61
  -2   0   3  166.90    7.60
   1   0  -3   77.40    3.14
   1   0  -3   78.86    2.64
  -1   0   3   73.65    2.60
  -1   0   3   74.29    2.99
   0   0  -3   39.28    1.63
   0   0  -3   38.37    1.38
   0   0   3   39.12    1.53
   0   0   3   37.95    1.34
  -1   0  -3  248.77   11.33
  -1   0  -3  290.08    9.56
   1   0   3  291.62   10.73
   1   0   3  287.23    9.33
  -2   0  -3   53.40    1.96
  -2   0  -3   54.82    2.25
   2   0   3   55.60    1.92
   2   0   3   53.23    2.16
  -3   0  -3  244.81    9.59
  -3   0  -3  237.87    8.17
   3   0   3  218.94    8.07
   3   0   3  245.24    9.14
  -4   0  -3   26.09    1.03
   4   0   3   24.66    1.07
   4   0   3   24.80    1.10
   4   0   3   25.50    1.09
  -5   0  -3  134.76    4.92
   5   0   3  140.28    5.70
   5   0   3  141.38    5.46
   5   0   3  140.04    4.90
  -6   0  -3  141.13    5.07
   6   0   3  141.04    5.62
   6   0   3  146.92    5.05
   6   0   3  141.79    5.87
  -7   0  -3    5.07    0.39
   7   0   3    4.95    0.36
   7   0   3    4.71    0.38
   7   0   3    5.94    0.53
  -8   0  -3   76.19    2.79
   8   0   3   74.42    2.80
   8   0   3   68.67    3.02
  -9   0  -3   11.12    0.74
   9   0   3   11.96    0.77
   9  -1  -3    2.95    0.41
  -9   1   3    2.68    0.49
   8  -1  -3   71.10    3.10
  -8   1   3   68.25    2.81
   7  -1  -3   49.64    2.23
   7  -1  -3   49.41    2.08
  -7   1   3   48.31    2.14
   6  -1  -3   25.46    1.19
   6  -1  -3   23.97    1.21
  -6   1   3   25.24    1.18
   5  -1  -3  130.87    4.63
   5  -1  -3  130.98    5.39
  -5   1   3  126.00    5.13
   4  -1  -3   32.22    1.18
   4  -1  -3   31.83    1.34
   4  -1  -3   33.00    1.47
  -4   1   3   32.47    1.41
   3  -1  -3   85.95    3.05
   3  -1  -3   89.10    2.98
   3  -1  -3   82.06    3.57
  -3   1   3   84.43    3.42
   2  -1  -3  107.14    3.74
   2  -1  -3  111.99    4.46
  -2   1   3  104.28    4.29
   1  -1  -3   12.65    0.46
  -1   1   3   12.81    0.52
  -1   1   3   11.15    0.65
   0  -1  -3  387.59   12.88
   0   1   3  366.57   14.52
   0   1   3  378.77   12.59
  -1  -1  -3   19.93    1.05
   1   1   3   23.44    0.77
   1   1   3   22.62    0.86
   1   1   3   22.16    0.93
  -2  -1  -3  168.81    6.87
   2   1   3  173.04    6.51
   2   1   3  169.89    5.86
   2   1   3  162.61    5.67
  -3  -1  -3   72.70    2.98
   3   1   3   71.46    2.83
   3   1   3   71.24    2.62
   3   1   3   71.41    2.49
  -4  -1  -3    5.49    0.33
   4   1   3    5.45    0.31
   4   1   3    5.51    0.37
   4   1   3    5.21    0.32
  -5  -1  -3  132.82    5.33
   5   1   3  127.29    4.63
   5   1   3  129.01    4.46
   5   1   3  127.65    5.07
   6   1   3    0.78    0.17
   6   1   3    1.04    0.20
   6   1   3    1.01    0.17
   6   1   3    1.31    0.19
   7   1   3   90.81    3.14
   7   1   3   85.05    3.50
   7   1   3   85.22    3.24
   7   1   3   86.42    3.67
   8   1   3   59.79    2.38
   8   1   3   60.66    2.67
   8   1   3   63.39    2.33
   8   1   3   60.61    2.56
   9  -2  -3   31.87    1.54
  -9   2   3   26.09    1.48
   8  -2  -3   49.95    2.23
   8  -2  -3   49.43    2.32
  -8   2   3   51.92    2.38
   7  -2  -3    6.48    0.50
   7  -2  -3    5.40    0.62
  -7   2   3    6.39    0.53
   6  -2  -3   90.30    3.51
   6  -2  -3   90.89    3.94
  -6   2   3   95.72    3.81
   5  -2  -3   24.98    1.20
   5  -2  -3   24.89    1.18
  -5   2   3   24.87    1.18
   4  -2  -3   66.18    2.86
   4  -2  -3   65.12    2.51
  -4   2   3   68.28    2.76
   3  -2  -3  130.26    5.35
   3  -2  -3  123.42    4.53
  -3   2   3  132.79    5.13
   2  -2  -3    0.41    0.13
   2  -2  -3    0.42    0.13
  -2   2   3    0.26    0.13
   1  -2  -3  148.49    4.69
   1  -2  -3  130.51    4.68
   1  -2  -3  145.21    5.71
  -1   2   3  121.56    5.43
   0  -2  -3  230.04    7.59
   0  -2  -3  212.33    9.33
   0   2   3  235.87    7.77
  -1  -2  -3  119.15    5.08
   1   2   3  127.51    4.77
   1   2   3  118.01    4.27
  -2  -2  -3  301.92   11.83
   2   2   3  296.40   11.20
   2   2   3  274.59   10.06
  -3  -2  -3    6.38    0.38
  -3  -2  -3    7.24    0.27
   3   2   3    6.53    0.35
   3   2   3    6.27    0.43
  -4  -2  -3  223.92    8.95
   4   2   3  219.65    8.48
   4   2   3  210.61    7.72
   4   2   3  222.12    7.36
  -5  -2  -3  110.68    4.52
   5   2   3  108.25    4.01
   5   2   3  109.03    4.27
   5   2   3  106.10    3.72
  -6  -2  -3   55.58    2.36
   6   2   3   56.45    2.20
   6   2   3   52.30    2.22
   6   2   3   52.69    1.95
  -7  -2  -3   82.95    3.49
  -7  -2  -3   81.80    2.91
   7   2   3   79.46    3.28
   7   2   3   81.10    3.15
  -8  -2  -3    4.46    0.40
   8   2   3    4.21    0.36
   8   2   3    3.44    0.44
  -9  -2  -3   63.69    2.85
   9   2   3   63.12    2.56
   9  -3  -3   51.08    2.38
   8  -3  -3    6.41    0.56
   8  -3  -3    6.89    0.76
  -8   3   3    8.10    0.68
   7  -3  -3   69.58    2.88
   7  -3  -3   68.54    3.12
  -7   3   3   74.27    3.09
   6  -3  -3   81.30    3.14
   6  -3  -3   78.70    3.49
  -6   3   3   82.01    3.41
   5  -3  -3    7.23    0.57
   5  -3  -3    7.31    0.51
  -5   3   3    7.66    0.54
   4  -3  -3  251.86    8.75
   4  -3  -3  253.51   10.39
  -4   3   3  253.90    9.92
   3  -3  -3   34.04    1.56
   3  -3  -3   31.73    1.37
  -3   3   3   33.87    1.51
   2  -3  -3  113.47    4.60
   2  -3  -3  102.92    3.80
  -2   3   3  107.45    4.36
   1  -3  -3   77.42    3.46
   1  -3  -3   78.20    2.78
  -1   3   3   80.86    2.75
  -1   3   3   77.50    3.26
   0  -3  -3   29.91    1.11
   0   3   3   31.29    1.42
   0   3   3   28.88    1.15
  -1  -3  -3  337.95   13.66
  -1  -3  -3  324.26   11.15
   1   3   3  340.50   11.51
   1   3   3  333.47   12.95
  -2  -3  -3   24.08    1.10
   2   3   3   21.95    1.00
   2   3   3   22.56    1.01
  -3  -3  -3  193.08    7.71
  -3  -3  -3  195.50    6.26
   3   3   3  180.58    6.66
   3   3   3  181.43    7.27
  -4  -3  -3  143.33    4.61
  -4  -3  -3  138.74    5.67
   4   3   3  135.16    5.34
   4   3   3  129.71    4.98
  -5  -3  -3   18.72    0.70
  -5  -3  -3   17.64    0.91
   5   3   3   18.96    0.83
   5   3   3   16.55    0.96
  -6  -3  -3  166.45    6.79
   6   3   3  160.81    6.00
   6   3   3  162.93    6.39
  -7  -3  -3   18.87    1.01
   7   3   3   20.46    1.11
   7   3   3   18.89    0.90
  -8  -3  -3   65.88    2.91
   8   3   3   64.62    2.71
  -9  -3  -3   70.01    3.13
   9   3   3   69.41    2.89
 -10  -3  -3    4.46    0.54
  10   3   3    3.14    0.51
   8  -4  -3   26.10    1.43
  -8   4   3   23.21    1.40
   7  -4  -3   68.83    2.78
   7  -4  -3   65.75    3.01
  -7   4   3   67.39    3.00
   6  -4  -3    0.16    0.21
   6  -4  -3    0.19    0.15
  -6   4   3   -0.14    0.18
   5  -4  -3  121.18    5.14
   5  -4  -3  119.75    4.44
  -5   4   3  122.31    4.97
   4  -4  -3   34.41    1.47
   4  -4  -3   33.89    1.64
  -4   4   3   33.83    1.60
   3  -4  -3   76.57    3.36
   3  -4  -3   75.28    2.82
  -3   4   3   76.62    3.20
   2  -4  -3  155.45    5.42
   2  -4  -3  151.62    6.61
  -2   4   3  159.83    6.24
   1  -4  -3    0.36    0.13
   1  -4  -3    0.72    0.25
  -1   4   3    0.73    0.21
  -1   4   3    0.51    0.11
   0  -4  -3  249.34   10.14
   0  -4  -3  233.75    8.23
   0   4   3  251.46    9.61
   0   4   3  239.95    8.42
  -1  -4  -3   17.78    0.69
  -1  -4  -3   18.21    0.99
   1   4   3   18.32    0.95
   1   4   3   17.88    0.81
  -2  -4  -3   88.25    3.65
  -2  -4  -3   83.45    2.87
   2   4   3   83.30    3.14
   2   4   3   84.76    3.45
  -3  -4  -3  200.82    6.55
  -3  -4  -3  199.54    8.09
   3   4   3  190.38    7.62
   3   4   3  193.06    6.97
  -4  -4  -3    2.75    0.15
  -4  -4  -3    2.33    0.29
   4   4   3    2.73    0.37
   4   4   3    2.42    0.22
  -5  -4  -3  185.48    7.77
   5   4   3  185.76    7.30
   5   4   3  192.41    6.84
  -6  -4  -3   36.33    1.73
   6   4   3   38.63    1.76
   6   4   3   36.70    1.57
  -7  -4  -3    3.23    0.38
   7   4   3    3.32    0.52
  -8  -4  -3   85.60    3.65
   8   4   3   79.07    3.39
  -9  -4  -3    0.29    0.22
   9   4   3    0.55    0.34
 -10  -4  -3   71.74    3.27
  10   4   3   70.80    3.08
   8  -5  -3   49.42    2.25
  -8   5   3   48.83    2.43
   7  -5  -3    8.31    0.81
  -7   5   3    7.67    0.79
   6  -5  -3   68.68    2.71
   6  -5  -3   64.77    2.99
  -6   5   3   66.18    2.98
   5  -5  -3  121.28    4.36
   5  -5  -3  115.16    5.06
  -5   5   3  117.13    4.90
   4  -5  -3   30.06    1.35
   4  -5  -3   29.24    1.54
  -4   5   3   30.02    1.50
   3  -5  -3  136.02    6.10
   3  -5  -3  142.94    5.04
  -3   5   3  147.13    5.79
   2  -5  -3    1.62    0.36
   2  -5  -3    2.37    0.30
  -2   5   3    2.36    0.35
   1  -5  -3  164.82    6.55
   1  -5  -3  152.12    5.28
  -1   5   3  145.12    6.14
  -1   5   3  147.09    5.31
   0  -5  -3   86.53    3.89
   0  -5  -3   89.02    3.10
   0   5   3   87.30    3.17
   0   5   3   88.36    3.70
  -1  -5  -3    7.93    0.62
  -1  -5  -3    8.68    0.41
   1   5   3    9.32    0.63
   1   5   3    8.16    0.50
  -2  -5  -3   66.06    2.80
  -2  -5  -3   61.74    2.15
   2   5   3   56.34    2.63
   2   5   3   64.36    2.41
  -3  -5  -3   39.94    1.84
   3   5   3   38.65    1.67
   3   5   3   39.75    1.71
  -4  -5  -3   81.53    3.47
   4   5   3   78.97    3.21
   4   5   3   79.14    3.12
  -5  -5  -3  134.95    5.79
   5   5   3  146.54    5.18
   5   5   3  132.13    5.39
  -6  -5  -3   19.03    1.07
   6   5   3   21.14    1.20
  -7  -5  -3  141.88    6.10
   7   5   3  146.10    5.51
  -8  -5  -3   11.56    0.78
   8   5   3   10.41    1.01
  -9  -5  -3   53.39    2.50
   9   5   3   51.01    2.48
 -10  -5  -3   33.74    1.76
  10   5   3   31.48    1.82
   7  -6  -3   24.38    1.35
  -7   6   3   24.68    1.50
   6  -6  -3   59.06    2.44
  -6   6   3   56.59    2.72
   5  -6  -3    4.79    0.55
   5  -6  -3    3.96    0.53
  -5   6   3    4.59    0.57
   4  -6  -3  107.62    4.94
   4  -6  -3  115.20    4.13
  -4   6   3  113.19    4.72
   3  -6  -3    6.23    0.72
   3  -6  -3    7.09    0.52
  -3   6   3    5.28    0.58
   2  -6  -3   99.93    3.54
   2  -6  -3   93.08    4.38
  -2   6   3   98.23    4.13
   1  -6  -3  210.15    8.15
   1  -6  -3  191.64    6.61
  -1   6   3  172.65    7.66
  -1   6   3  189.26    6.70
   0  -6  -3    2.03    0.26
   0  -6  -3    2.04    0.39
   0   6   3    1.52    0.32
   0   6   3    1.57    0.24
  -1  -6  -3  112.76    5.26
  -1  -6  -3  122.08    4.21
   1   6   3  129.92    5.02
   1   6   3  121.89    4.41
  -2  -6  -3   75.57    3.17
   2   6   3   67.28    2.68
   2   6   3   65.62    2.97
  -3  -6  -3   30.47    1.54
   3   6   3   30.70    1.44
   3   6   3   30.12    1.40
  -4  -6  -3  162.97    6.79
   4   6   3  161.78    5.91
   4   6   3  158.99    6.36
  -5  -6  -3    1.94    0.33
   5   6   3    1.58    0.37
  -6  -6  -3   67.78    3.15
   6   6   3   73.25    2.98
  -7  -6  -3   47.93    2.35
   7   6   3   51.84    2.33
  -8  -6  -3   45.91    2.19
   8   6   3   42.13    2.17
  -9  -6  -3   71.27    3.30
   9   6   3   70.68    3.19
   7  -7  -3   94.54    3.84
   6  -7  -3    4.90    0.61
  -6   7   3    5.06    0.71
   5  -7  -3   52.35    2.18
  -5   7   3   49.46    2.48
   4  -7  -3   41.43    1.70
   4  -7  -3   32.87    1.98
  -4   7   3   38.01    1.94
   3  -7  -3    0.98    0.26
   3  -7  -3    0.75    0.38
  -3   7   3    1.48    0.38
   2  -7  -3   57.32    2.26
   2  -7  -3   60.81    2.86
  -2   7   3   55.75    2.68
   1  -7  -3    7.27    0.53
   1  -7  -3    9.17    0.73
  -1   7   3    7.34    0.70
   0  -7  -3   29.63    1.64
   0  -7  -3   30.99    1.28
   0   7   3   30.69    1.58
   0   7   3   30.08    1.30
  -1  -7  -3   84.81    4.20
   1   7   3   97.20    3.51
   1   7   3   99.04    3.99
  -2  -7  -3    0.51    0.24
   2   7   3    0.60    0.24
   2   7   3    0.60    0.26
  -3  -7  -3  147.59    6.08
   3   7   3  149.29    5.23
   3   7   3  126.60    5.69
  -4  -7  -3   25.15    1.37
   4   7   3   25.08    1.29
  -5  -7  -3   54.16    2.61
   5   7   3   57.74    2.43
  -6  -7  -3   74.96    3.52
   6   7   3   81.34    3.25
  -7  -7  -3   14.01    0.94
   7   7   3   11.15    1.04
  -8  -7  -3   80.08    3.77
   8   7   3   85.83    3.55
  -9  -7  -3    5.15    0.67
   9   7   3    4.31    0.74
   6  -8  -3   29.91    1.55
   5  -8  -3   64.22    2.62
  -5   8   3   62.32    3.05
   4  -8  -3   -0.18    0.21
  -4   8   3    0.35    0.36
   3  -8  -3   58.69    3.04
   3  -8  -3   64.10    2.48
  -3   8   3   60.85    2.92
   2  -8  -3  120.54    4.35
   2  -8  -3  127.89    5.37
  -2   8   3  108.63    5.07
   1  -8  -3   27.28    1.51
   1  -8  -3   26.05    1.19
  -1   8   3   22.53    1.44
   0  -8  -3   91.67    4.17
   0   8   3   90.64    3.96
  -1  -8  -3    1.23    0.37
   1   8   3    0.88    0.28
   1   8   3    0.85    0.28
  -2  -8  -3  111.99    5.10
   2   8   3  119.97    4.76
   2   8   3  109.21    4.26
  -3  -8  -3   48.78    2.44
   3   8   3   49.49    2.13
  -4  -8  -3   44.44    2.28
   4   8   3   47.75    2.08
  -5  -8  -3   59.00    2.85
   5   8   3   60.70    2.59
  -6  -8  -3   12.79    0.94
   6   8   3   12.37    0.98
  -7  -8  -3   44.95    2.35
   7   8   3   48.46    2.26
  -8  -8  -3   31.60    1.82
   8   8   3   33.93    1.84
   4  -9  -3   30.81    1.52
  -4   9   3   29.56    1.82
   3  -9  -3   33.77    1.52
  -3   9   3   28.23    1.78
   2  -9  -3    8.07    0.90
   2  -9  -3    8.66    0.76
  -2   9   3    6.16    0.78
   1  -9  -3   59.61    2.87
  -1   9   3   56.34    2.79
   0  -9  -3   18.12    1.21
   0   9   3   16.82    1.16
  -1  -9  -3   44.82    2.43
   1   9   3   48.19    2.24
  -2  -9  -3   50.88    2.70
   2   9   3   54.52    2.27
  -3  -9  -3    8.27    0.95
   3   9   3    8.92    0.79
  -4  -9  -3   86.11    4.07
   4   9   3   89.87    3.55
  -5  -9  -3    9.57    0.86
   5   9   3    8.30    0.85
  -6  -9  -3   72.66    3.52
   6   9   3   75.53    3.18
  -7  -9  -3   51.35    2.60
   7   9   3   48.97    2.39
  -3  10   3    0.21    0.40
  -2  10   3   87.08    4.03
  -1  10   3   11.45    1.01
   0 -10  -3   24.84    1.53
   0  10   3   23.65    1.46
  -1 -10  -3   74.66    3.65
  -2 -10  -3    0.74    0.43
   2  10   3    0.36    0.35
  -3 -10  -3   75.59    3.93
   3  10   3   88.39    3.39
  -4 -10  -3   22.26    1.51
   4  10   3   22.52    1.34
  -5 -10  -3    7.85    0.94
   5  10   3    8.90    0.92
   6  10   3   67.57    3.02
  -1 -11  -3    6.27    0.85
  -2 -11  -3   28.61    1.85
  -3 -11  -3   36.03    2.26
   3  11   3   40.97    1.97
   4  10  -4   37.26    1.89
   3  10  -4   56.11    2.45
  -3 -10   4   55.07    2.22
   2  10  -4    2.22    0.43
  -2 -10   4    1.75    0.35
   1  10  -4   74.25    2.97
  -1 -10   4   73.92    2.88
   0  10  -4   19.58    1.11
   0 -10   4   21.01    1.13
  -1  10  -4   29.30    1.41
   1 -10   4   30.72    1.50
   2 -10   4   38.84    1.86
   6   9  -4   26.69    1.64
  -6  -9   4   24.76    1.44
   5   9  -4   13.25    1.05
  -5  -9   4   14.46    0.96
   4   9  -4   75.28    3.04
  -4  -9   4   72.64    3.31
  -4  -9   4   71.80    2.75
   3   9  -4    0.91    0.34
  -3  -9   4    0.06    0.19
   2   9  -4   46.08    1.95
  -2  -9   4   42.53    1.79
   1   9  -4   67.86    2.68
  -1  -9   4   65.94    2.58
   0   9  -4    4.81    0.51
   0  -9   4    6.05    0.59
  -1   9  -4   81.81    3.16
   1  -9   4   84.72    3.22
   2  -9   4    2.54    0.47
  -3   9  -4   43.81    2.06
   3  -9   4   41.57    1.98
  -4   9  -4   33.29    1.74
   4  -9   4   33.21    1.74
   7   8  -4   66.90    3.04
  -7  -8   4   64.96    3.06
   6   8  -4    0.64    0.37
  -6  -8   4    0.89    0.25
  -6  -8   4    0.76    0.30
   5   8  -4  105.63    4.12
  -5  -8   4  103.89    3.76
  -5  -8   4  103.81    4.54
   4   8  -4   26.19    1.37
  -4  -8   4   27.83    1.40
  -4  -8   4   26.56    1.17
   3   8  -4   56.66    2.34
  -3  -8   4   55.35    2.15
  -3  -8   4   56.58    2.55
   2   8  -4   81.67    3.14
  -2  -8   4   80.21    2.98
   1   8  -4    1.34    0.30
  -1  -8   4    1.20    0.26
   0   8  -4  108.47    4.06
   0  -8   4  111.98    4.01
  -1   8  -4   49.47    1.97
   1  -8   4   49.11    2.02
  -2   8  -4   13.19    0.73
  -2   8  -4   13.41    0.83
   2  -8   4   13.68    0.86
  -3   8  -4   66.61    2.88
   3  -8   4   65.44    2.69
  -4   8  -4    0.01    0.24
   4  -8   4    0.10    0.23
  -5   8  -4   45.08    2.18
   5  -8   4   44.75    2.17
  -6   8  -4   16.80    1.24
   8   7  -4   41.75    2.27
  -8  -7   4   39.17    2.03
   7   7  -4    1.85    0.54
  -7  -7   4    1.61    0.28
  -7  -7   4    1.55    0.36
   6   7  -4   59.29    2.69
  -6  -7   4   63.89    2.36
  -6  -7   4   62.54    2.84
   5   7  -4   69.13    2.84
  -5  -7   4   66.75    2.54
  -5  -7   4   70.11    3.07
   4   7  -4    6.02    0.60
  -4  -7   4    6.55    0.45
  -4  -7   4    6.09    0.51
   3   7  -4  100.52    3.74
  -3  -7   4   97.33    3.52
  -3  -7   4   98.88    4.22
   2   7  -4   10.86    0.68
  -2  -7   4   11.06    0.67
  -2  -7   4   11.88    0.62
   1   7  -4   86.95    3.21
  -1  -7   4   83.93    3.10
   0   7  -4   32.81    1.38
   0  -7   4   32.45    1.37
  -1   7  -4   30.86    1.41
  -1   7  -4   30.76    1.29
   1  -7   4   29.76    1.33
  -2   7  -4   90.80    3.38
  -2   7  -4   92.54    3.80
   2  -7   4   94.68    3.46
  -3   7  -4    3.50    0.35
  -3   7  -4    3.48    0.42
   3  -7   4    3.17    0.47
  -4   7  -4   77.89    3.29
   4  -7   4   75.75    3.08
  -5   7  -4   49.98    2.33
   5  -7   4   50.80    2.30
  -6   7  -4    6.16    0.68
   6  -7   4    6.62    0.81
   8   6  -4    9.68    1.10
   8   6  -4    8.41    0.70
  -8  -6   4    9.03    0.59
   7   6  -4   26.86    1.46
   7   6  -4   29.85    1.68
  -7  -6   4   30.13    1.25
   6   6  -4  103.65    4.09
   6   6  -4  103.49    4.46
  -6  -6   4  103.79    3.71
   5   6  -4    0.94    0.31
   5   6  -4    1.08    0.25
  -5  -6   4    1.20    0.22
   4   6  -4   95.13    3.60
  -4  -6   4   97.18    4.05
  -4  -6   4   91.73    3.37
   3   6  -4   15.43    0.82
  -3  -6   4   13.92    0.79
  -3  -6   4   15.06    0.70
   2   6  -4   68.33    2.54
  -2  -6   4   65.24    2.83
  -2  -6   4   64.47    2.40
   1   6  -4  110.87    3.93
  -1  -6   4  103.84    3.81
  -1  -6   4  109.24    4.51
   0   6  -4    8.00    0.47
   0   6  -4    7.61    0.47
   0  -6   4    7.02    0.47
  -1   6  -4   47.65    1.88
  -1   6  -4   49.22    2.07
   1  -6   4   50.61    1.92
  -2   6  -4   21.95    0.97
  -2   6  -4   23.04    1.09
   2  -6   4   22.57    1.05
  -3   6  -4   31.04    1.29
  -3   6  -4   32.47    1.49
   3  -6   4   33.62    1.45
  -4   6  -4   95.72    3.49
  -4   6  -4   99.88    4.01
   4  -6   4   94.71    3.68
  -5   6  -4    0.27    0.22
   5  -6   4    0.79    0.34
  -6   6  -4   74.93    3.26
   6  -6   4   74.75    3.17
  -7   6  -4   27.01    1.48
   7  -6   4   27.20    1.60
   9   5  -4   26.07    1.45
  -9  -5   4   26.88    1.23
   8   5  -4   11.12    0.75
   8   5  -4    9.82    1.09
  -8  -5   4   10.42    0.64
   7   5  -4   46.29    2.21
   7   5  -4   47.90    2.32
  -7  -5   4   49.20    1.88
   6   5  -4    4.41    0.57
   6   5  -4    3.55    0.41
  -6  -5   4    4.67    0.37
   5   5  -4   45.66    2.07
   5   5  -4   43.48    1.94
  -5  -5   4   47.12    1.74
   4   5  -4   56.68    2.47
   4   5  -4   54.88    2.23
  -4  -5   4   56.76    2.07
   3   5  -4   18.36    0.88
   3   5  -4   17.58    0.86
  -3  -5   4   16.13    0.75
   2   5  -4  116.57    4.17
  -2  -5   4  114.53    4.79
  -2  -5   4  115.45    4.02
   1   5  -4    8.98    0.45
   1   5  -4    9.05    0.50
  -1  -5   4    8.30    0.46
  -1  -5   4    8.60    0.48
   0   5  -4  115.78    4.23
   0   5  -4  116.30    4.66
   0  -5   4  118.55    4.16
   0  -5   4  124.80    4.91
  -1   5  -4   70.72    2.86
  -1   5  -4   69.99    2.59
   1  -5   4   71.97    2.59
  -2   5  -4   50.96    2.09
  -2   5  -4   48.99    1.87
   2  -5   4   49.04    1.92
  -3   5  -4  152.56    5.45
  -3   5  -4  158.84    6.15
   3  -5   4  154.10    5.50
  -4   5  -4   31.48    1.42
  -4   5  -4   29.57    1.21
   4  -5   4   29.27    1.39
  -5   5  -4   67.41    2.50
  -5   5  -4   67.28    2.88
   5  -5   4   67.80    2.79
  -6   5  -4   61.47    2.70
   6  -5   4   61.22    2.69
  -7   5  -4    8.95    0.71
   7  -5   4    9.67    0.98
  -8   5  -4   64.45    3.01
   8  -5   4   72.27    3.10
   9   4  -4    0.93    0.29
  -9  -4   4    0.78    0.24
   8   4  -4   66.22    3.02
  -8  -4   4   68.65    2.55
   7   4  -4   29.50    1.60
   7   4  -4   26.44    1.38
  -7  -4   4   28.21    1.19
   6   4  -4   66.22    2.91
   6   4  -4   67.32    2.78
  -6  -4   4   65.45    2.44
   5   4  -4   71.01    2.82
   5   4  -4   71.13    3.09
  -5  -4   4   72.59    2.60
   4   4  -4    5.42    0.39
   4   4  -4    4.47    0.43
  -4  -4   4    5.13    0.34
   3   4  -4  272.95   10.96
   3   4  -4  265.98    9.36
  -3  -4   4  267.36    9.09
   2   4  -4   95.11    3.96
   2   4  -4   95.85    3.45
  -2  -4   4   95.24    3.33
   1   4  -4  141.29    4.97
   1   4  -4  141.09    5.46
   1   4  -4  142.05    5.78
  -1  -4   4  140.25    4.85
   0   4  -4  245.42    8.47
   0   4  -4  238.58    9.44
   0  -4   4  244.39    9.92
   0  -4   4  250.94    8.31
  -1   4  -4   23.37    1.00
   1  -4   4   25.87    1.10
   1  -4   4   26.21    1.03
   1  -4   4   24.70    1.08
  -2   4  -4  187.53    6.57
   2  -4   4  187.82    6.51
   2  -4   4  191.29    7.37
  -3   4  -4   49.45    1.88
  -3   4  -4   51.09    2.13
   3  -4   4   50.31    2.12
   3  -4   4   51.89    1.98
  -4   4  -4   35.93    1.58
  -4   4  -4   34.24    1.36
  -5   4  -4   99.40    4.05
  -5   4  -4   97.55    3.55
   5  -4   4  100.72    3.84
  -6   4  -4    8.72    0.60
   6  -4   4    6.71    0.77
  -7   4  -4   91.67    3.92
   7  -4   4   96.37    3.87
  -8   4  -4   41.11    1.96
   8  -4   4   40.60    2.12
  -9   4  -4    8.00    0.72
   9  -4   4    9.99    1.11
   9   3  -4   35.47    1.77
  -9  -3   4   35.47    1.54
   8   3  -4   40.58    1.88
  -8  -3   4   37.27    1.60
   7   3  -4    8.22    0.85
   7   3  -4    7.71    0.56
  -7  -3   4    7.58    0.50
   6   3  -4  110.91    4.65
   6   3  -4  109.96    4.25
  -6  -3   4  108.96    3.89
   5   3  -4    5.54    0.41
   5   3  -4    5.28    0.54
  -5  -3   4    5.48    0.37
   4   3  -4  131.34    5.42
   4   3  -4  130.64    4.70
  -4  -3   4  129.52    4.52
   3   3  -4  118.73    4.91
   3   3  -4  118.39    4.24
  -3  -3   4  118.80    4.10
   2   3  -4   21.56    0.97
   2   3  -4   21.08    0.89
  -2  -3   4   20.77    0.84
   1   3  -4  316.90   11.09
   1   3  -4  328.19   13.05
  -1  -3   4  319.47   10.84
  -1  -3   4  325.38   12.36
   0   3  -4   12.52    0.56
   0   3  -4   12.98    0.57
   0  -3   4   12.48    0.55
   0  -3   4   11.89    0.55
  -1   3  -4  185.13    6.55
   1  -3   4  188.67    7.32
   1  -3   4  185.04    6.44
   1  -3   4  197.47    7.64
  -2   3  -4  224.02    7.78
   2  -3   4  235.02    8.74
   2  -3   4  217.28    7.68
  -3   3  -4    1.17    0.17
   3  -3   4    1.67    0.25
   3  -3   4    1.09    0.18
  -4   3  -4  182.56    6.42
   4  -3   4  186.80    7.23
   4  -3   4  183.35    6.50
  -5   3  -4    5.26    0.35
   5  -3   4    5.79    0.43
   5  -3   4    4.81    0.58
  -6   3  -4   71.22    2.62
   6  -3   4   73.82    2.99
   6  -3   4   69.05    2.98
  -7   3  -4   91.85    3.76
   7  -3   4   88.14    3.67
  -8   3  -4    9.57    0.69
   8  -3   4    7.32    0.90
  -9   3  -4  116.37    4.72
   9  -3   4  107.97    4.53
   9   2  -4   61.26    2.84
  -9  -2   4   63.36    2.48
   8   2  -4    0.45    0.20
  -8  -2   4    0.74    0.23
   7   2  -4  167.81    6.80
  -7  -2   4  157.05    5.69
   6   2  -4   85.37    3.64
   6   2  -4   85.90    3.36
  -6  -2   4   83.82    3.08
   5   2  -4   52.88    2.30
   5   2  -4   51.83    2.13
  -5  -2   4   52.37    1.95
   4   2  -4  231.31    8.02
   4   2  -4  226.04    9.36
  -4  -2   4  229.66    7.78
   3   2  -4    4.42    0.31
   3   2  -4    4.24    0.31
  -3  -2   4    5.09    0.29
   2   2  -4  190.46    6.58
   2   2  -4  189.08    7.74
  -2  -2   4  189.99    6.43
   1   2  -4  136.63    4.95
   1   2  -4  143.24    5.80
  -1  -2   4  149.01    5.48
  -1  -2   4  140.55    4.84
   0   2  -4   15.53    0.67
   0   2  -4   14.59    0.63
   0  -2   4   15.73    0.62
   0  -2   4   15.57    0.65
  -1   2  -4  236.76    8.43
   1  -2   4  249.61    9.44
   1  -2   4  249.20    8.27
  -2   2  -4   -0.07    0.07
   2  -2   4   -0.01    0.09
   2  -2   4    0.11    0.09
  -3   2  -4  138.88    4.78
   3  -2   4  137.66    5.35
   3  -2   4  132.98    4.78
  -4   2  -4   59.58    2.18
   4  -2   4   58.32    2.32
   4  -2   4   59.70    2.43
  -5   2  -4   36.35    1.39
   5  -2   4   35.58    1.55
   5  -2   4   33.69    1.63
  -6   2  -4   81.06    2.88
   6  -2   4   80.37    3.24
   6  -2   4   73.47    3.13
  -7   2  -4    0.97    0.20
   7  -2   4    1.34    0.37
   7  -2   4    0.85    0.23
  -8   2  -4   44.39    2.06
   8  -2   4   47.37    2.15
  -9   2  -4   17.61    1.04
   9  -2   4   18.88    1.22
   9   1  -4    1.24    0.29
  -9  -1   4    0.48    0.25
   8   1  -4   69.51    3.10
  -8  -1   4   69.96    2.72
   7   1  -4   34.03    1.60
  -7  -1   4   32.61    1.44
   6   1  -4   18.47    0.97
  -6  -1   4   19.39    0.91
   5   1  -4  170.87    7.08
   5   1  -4  171.93    6.14
  -5  -1   4  171.71    5.94
   4   1  -4   24.24    1.06
   4   1  -4   23.73    0.98
  -4  -1   4   18.73    1.02
   3   1  -4   90.94    3.71
   3   1  -4   89.61    3.17
  -3  -1   4   85.46    3.53
  -3  -1   4   89.68    3.11
   2   1  -4  113.90    3.92
   2   1  -4  111.74    4.62
  -2  -1   4  114.31    4.35
  -2  -1   4  109.17    3.85
   1   1  -4   18.65    0.85
   1   1  -4   18.57    0.75
  -1  -1   4   20.37    0.79
  -1  -1   4   17.98    0.73
   0   1  -4  131.87    4.65
   0   1  -4  136.88    5.45
   0  -1   4  134.56    5.18
   0  -1   4  132.40    4.54
  -1   1  -4    2.84    0.20
  -1   1  -4    3.31    0.17
   1  -1   4    3.21    0.19
   1  -1   4    3.10    0.20
  -2   1  -4  282.46    9.69
   2  -1   4  277.48    9.50
   2  -1   4  286.29   10.86
  -3   1  -4  178.74    7.24
  -3   1  -4  177.68    6.21
   3  -1   4  178.73    6.94
   3  -1   4  180.02    6.16
  -4   1  -4   34.94    1.50
  -4   1  -4   36.19    1.38
   4  -1   4   32.94    1.50
   4  -1   4   37.44    1.51
  -5   1  -4  160.10    6.35
  -5   1  -4  150.84    5.47
   5  -1   4  148.35    5.57
   5  -1   4  162.49    6.12
  -6   1  -4   31.70    1.29
   6  -1   4   32.09    1.41
   6  -1   4   30.21    1.45
  -7   1  -4   67.44    2.51
   7  -1   4   67.25    2.67
   7  -1   4   64.16    2.77
   8  -1   4   69.16    2.72
   8  -1   4   64.22    2.81
  -9   1  -4    0.23    0.21
   9  -1   4    0.28    0.25
 -10   1  -4   31.86    1.62
   9   0  -4   18.12    1.07
  -9   0   4   18.28    1.08
   8   0  -4   66.96    3.07
  -8   0   4   71.69    2.78
   7   0  -4    0.31    0.17
  -7   0   4    0.19    0.20
   6   0  -4   29.34    1.40
  -6   0   4   29.02    1.30
   5   0  -4   19.54    0.96
  -5   0   4   19.72    0.91
  -5   0   4   17.87    0.92
   4   0  -4   28.74    1.13
   4   0  -4   26.98    1.27
  -4   0   4   28.50    1.15
  -4   0   4   25.64    1.24
   3   0  -4  282.78   10.61
   3   0  -4  262.54    8.94
  -3   0   4  221.27   10.12
  -3   0   4  273.55    8.83
   2   0  -4    2.74    0.18
   2   0  -4    2.65    0.22
  -2   0   4    2.68    0.25
  -2   0   4    2.70    0.21
   1   0  -4  255.85    8.64
   1   0  -4  252.45   10.25
  -1   0   4  249.93    9.73
  -1   0   4  251.73    8.48
   0   0  -4   52.41    1.91
   0   0  -4   54.63    2.26
   0   0   4   53.09    1.86
   0   0   4   55.23    2.13
  -1   0  -4  106.57    4.50
  -1   0  -4  107.52    3.81
   1   0   4  112.19    3.69
   1   0   4  110.27    4.25
  -2   0  -4   90.46    4.00
  -2   0  -4   97.67    3.40
   2   0   4   97.71    3.31
   2   0   4   98.71    3.77
  -3   0  -4   20.52    0.91
  -3   0  -4   21.28    0.86
   3   0   4   20.29    0.90
   3   0   4   19.89    0.88
  -4   0  -4  115.08    4.63
  -4   0  -4  113.50    4.02
   4   0   4  110.78    4.02
   4   0   4  112.15    4.45
  -5   0  -4   56.98    2.38
  -5   0  -4   54.99    2.12
   5   0   4   57.07    2.16
   5   0   4   55.95    2.31
  -6   0  -4   39.81    1.72
  -6   0  -4   38.54    1.57
   6   0   4   39.80    1.61
   6   0   4   38.43    1.68
  -7   0  -4  130.96    4.76
   7   0   4  131.82    5.25
   7   0   4  132.67    4.73
  -8   0  -4    1.21    0.24
   8   0   4    1.06    0.24
   8   0   4    1.18    0.27
   9   0   4   57.51    2.50
 -10   0  -4   21.10    1.27
   9  -1  -4   58.66    2.66
  -9   1   4   54.88    2.45
   8  -1  -4    8.32    0.63
  -8   1   4    8.04    0.78
   7  -1  -4   36.71    1.76
  -7   1   4   37.84    1.69
   6  -1  -4   76.26    3.28
  -6   1   4   75.48    3.16
  -6   1   4   75.23    2.92
   5  -1  -4   19.12    0.96
  -5   1   4   19.02    0.95
  -5   1   4   18.22    0.94
   4  -1  -4  101.53    4.24
  -4   1   4   99.10    4.08
  -4   1   4  101.75    3.64
   3  -1  -4   17.55    0.86
   3  -1  -4   17.63    0.68
  -3   1   4   17.54    0.80
  -3   1   4   17.12    0.90
   2  -1  -4  205.28    8.19
   2  -1  -4  206.74    6.84
  -2   1   4  182.86    7.87
  -2   1   4  204.99    6.82
   1  -1  -4  126.12    4.20
   1  -1  -4  126.56    5.04
  -1   1   4  120.91    4.16
  -1   1   4  113.43    4.83
   0  -1  -4  211.89    8.77
   0  -1  -4  217.82    7.35
   0   1   4  209.28    8.28
   0   1   4  216.75    7.17
  -1  -1  -4  322.79   10.89
  -1  -1  -4  284.59   12.96
   1   1   4  336.60   10.59
   1   1   4  324.38   12.21
  -2  -1  -4  122.97    5.05
   2   1   4  115.97    4.12
   2   1   4  124.79    4.75
   2   1   4  123.37    4.28
  -3  -1  -4   62.75    2.68
   3   1   4   64.68    2.36
   3   1   4   63.42    2.25
   3   1   4   64.45    2.55
  -4  -1  -4  111.66    4.61
   4   1   4  111.73    4.01
   4   1   4  111.17    4.39
   4   1   4  111.98    3.86
  -5  -1  -4    0.18    0.09
   5   1   4    0.42    0.12
   5   1   4    0.26    0.10
   5   1   4    0.69    0.17
  -6  -1  -4  137.78    5.57
   6   1   4  134.54    4.84
   6   1   4  135.10    4.68
   6   1   4  130.39    5.30
  -7  -1  -4   34.86    1.56
   7   1   4   34.40    1.36
   7   1   4   33.28    1.49
   7   1   4   32.21    1.43
  -8  -1  -4   48.58    1.99
   8   1   4   47.38    2.07
  -9  -1  -4   56.04    2.33
   9   1   4   59.22    2.49
   9  -2  -4   19.43    1.10
  -9   2   4   15.57    1.10
   8  -2  -4   31.56    1.57
  -8   2   4   30.05    1.54
   7  -2  -4   63.76    2.61
   7  -2  -4   61.51    2.81
  -7   2   4   63.47    2.76
   6  -2  -4    0.20    0.16
   6  -2  -4    0.34    0.21
  -6   2   4    0.24    0.16
   5  -2  -4  132.43    5.53
   5  -2  -4  131.29    4.77
  -5   2   4  132.29    5.32
   4  -2  -4   69.36    2.60
   4  -2  -4   70.30    2.96
  -4   2   4   65.63    2.87
   3  -2  -4   97.33    3.99
   3  -2  -4   91.85    3.39
  -3   2   4   93.08    3.86
   2  -2  -4  205.70    7.91
   2  -2  -4  192.45    6.57
  -2   2   4  175.46    7.57
   1  -2  -4   40.02    1.37
   1  -2  -4   40.19    1.77
   1  -2  -4   35.42    1.40
  -1   2   4   36.43    1.72
   0  -2  -4  246.75   10.89
   0   2   4  286.79    8.87
   0   2   4  262.87   10.30
   0   2   4  260.61    9.06
  -1  -2  -4  162.54    7.23
   1   2   4  178.65    5.79
   1   2   4  172.85    6.03
   1   2   4  179.52    6.76
  -2  -2  -4   40.00    1.80
   2   2   4   39.60    1.65
   2   2   4   41.14    1.57
  -3  -2  -4  126.36    5.21
   3   2   4  124.39    4.92
   3   2   4  126.45    4.52
  -4  -2  -4   26.43    1.20
   4   2   4   26.27    1.17
   4   2   4   26.16    1.13
   4   2   4   25.26    0.94
  -5  -2  -4  160.25    6.46
   5   2   4  157.81    6.12
   5   2   4  149.34    5.29
   5   2   4  158.23    5.65
  -6  -2  -4   76.55    3.15
   6   2   4   72.50    2.61
   6   2   4   71.76    2.97
   6   2   4   72.06    2.85
  -7  -2  -4   34.83    1.65
   7   2   4   36.61    1.57
   7   2   4   35.77    1.59
  -8  -2  -4   88.57    3.67
   8   2   4   82.80    3.46
   8   2   4   82.69    3.28
   9   2   4    0.05    0.20
   9  -3  -4    2.90    0.46
  -9   3   4    3.34    0.60
   8  -3  -4   65.19    3.13
   8  -3  -4   74.24    2.96
  -8   3   4   70.70    3.14
   7  -3  -4    6.77    0.71
   7  -3  -4    6.52    0.55
  -7   3   4    6.65    0.61
   6  -3  -4   95.51    3.60
   6  -3  -4   90.41    4.05
  -6   3   4   96.28    3.96
   5  -3  -4   88.14    3.37
   5  -3  -4   91.19    3.87
  -5   3   4   89.82    3.76
   4  -3  -4    2.70    0.35
   4  -3  -4    3.74    0.41
  -4   3   4    3.49    0.40
   3  -3  -4  192.91    7.56
   3  -3  -4  176.73    6.29
  -3   3   4  173.83    7.21
   2  -3  -4   10.57    0.58
   2  -3  -4   12.86    0.74
  -2   3   4   11.14    0.71
   1  -3  -4  125.59    4.38
   1  -3  -4  126.98    5.42
  -1   3   4  133.74    5.16
  -1   3   4  120.73    4.37
   0  -3  -4  221.88    8.90
   0  -3  -4  203.44    7.17
   0   3   4  202.72    7.33
   0   3   4  223.39    8.42
  -1  -3  -4   15.26    0.59
  -1  -3  -4   14.56    0.90
   1   3   4   17.01    0.83
   1   3   4   17.87    0.74
  -2  -3  -4  385.88   15.20
   2   3   4  380.85   14.37
   2   3   4  349.94   12.85
  -3  -3  -4    5.77    0.40
   3   3   4    5.35    0.33
   3   3   4    4.85    0.41
  -4  -3  -4   92.88    2.96
  -4  -3  -4   90.75    3.72
   4   3   4   79.71    3.29
   4   3   4   86.36    3.48
  -5  -3  -4  107.96    4.43
   5   3   4   99.85    3.95
   5   3   4  106.74    4.17
  -6  -3  -4    9.98    0.61
   6   3   4    9.58    0.54
   6   3   4   10.58    0.73
  -7  -3  -4  120.70    5.00
   7   3   4  116.26    4.49
   7   3   4  116.76    4.69
  -8  -3  -4   27.38    1.36
   8   3   4   25.86    1.38
  -9  -3  -4   37.81    1.80
   9   3   4   34.97    1.73
  10   3   4   86.31    3.48
   8  -4  -4   23.46    1.33
   8  -4  -4   21.21    1.25
  -8   4   4   22.37    1.37
   7  -4  -4   29.15    1.56
   7  -4  -4   32.15    1.56
  -7   4   4   30.83    1.63
   6  -4  -4   87.55    3.40
   6  -4  -4   86.69    3.87
  -6   4   4   91.01    3.81
   5  -4  -4    0.59    0.24
   5  -4  -4    0.30    0.19
  -5   4   4    0.69    0.26
   4  -4  -4  151.68    6.24
   4  -4  -4  147.53    5.23
  -4   4   4  141.90    5.96
   3  -4  -4   71.60    3.20
   3  -4  -4   71.33    2.65
  -3   4   4   69.97    3.05
   2  -4  -4   25.66    1.06
   2  -4  -4   25.04    1.37
  -2   4   4   24.03    1.27
   1  -4  -4  102.99    4.64
   1  -4  -4  105.44    3.70
  -1   4   4  107.33    3.69
  -1   4   4  106.23    4.38
   0  -4  -4    0.77    0.26
   0  -4  -4    0.68    0.13
   0   4   4    0.38    0.20
   0   4   4    0.71    0.14
  -1  -4  -4   77.11    3.68
  -1  -4  -4   86.66    2.88
   1   4   4   88.82    3.06
   1   4   4   81.75    3.49
  -2  -4  -4   27.05    1.36
   2   4   4   26.16    1.16
   2   4   4   28.67    1.28
  -3  -4  -4   85.07    3.57
   3   4   4   81.73    3.32
   3   4   4   80.52    3.10
  -4  -4  -4  225.16    9.11
   4   4   4  220.62    7.86
   4   4   4  216.92    8.58
  -5  -4  -4    0.14    0.13
   5   4   4    0.15    0.10
   5   4   4    0.07    0.20
  -6  -4  -4  128.15    5.43
   6   4   4  127.87    5.08
   6   4   4  129.92    4.88
  -7  -4  -4   48.03    2.18
   7   4   4   49.09    2.05
   7   4   4   42.88    2.10
  -8  -4  -4   31.27    1.55
   8   4   4   29.29    1.59
  -9  -4  -4   91.03    4.00
   9   4   4   89.76    3.72
 -10  -4  -4    1.00    0.32
  10   4   4    1.18    0.43
   8  -5  -4    7.35    0.82
  -8   5   4    6.37    0.81
   7  -5  -4   66.37    2.69
   7  -5  -4   63.37    2.98
  -7   5   4   63.70    3.00
   6  -5  -4    8.12    0.67
   6  -5  -4    8.43    0.68
  -6   5   4    8.01    0.75
   5  -5  -4   67.01    2.63
   5  -5  -4   65.39    3.06
  -5   5   4   67.84    3.00
   4  -5  -4   93.84    3.43
   4  -5  -4   92.28    4.13
  -4   5   4   91.04    3.94
   3  -5  -4   10.39    0.63
   3  -5  -4   10.76    0.82
   2  -5  -4  138.82    4.64
   2  -5  -4  124.30    5.75
   1  -5  -4   27.06    1.10
   1  -5  -4   29.28    1.52
  -1   5   4   26.99    1.05
  -1   5   4   24.12    1.36
   0  -5  -4  184.74    7.61
   0  -5  -4  169.50    6.10
   0   5   4  192.80    7.23
   0   5   4  170.53    6.25
  -1  -5  -4  124.35    5.92
  -1  -5  -4  136.41    4.72
   1   5   4  141.67    4.94
   1   5   4  152.48    5.67
  -2  -5  -4   10.38    0.74
   2   5   4   11.49    0.71
   2   5   4   12.36    0.65
  -3  -5  -4  169.19    7.00
   3   5   4  163.83    5.98
   3   5   4  166.38    6.59
  -4  -5  -4   30.25    1.49
   4   5   4   31.12    1.41
   4   5   4   29.23    1.33
  -5  -5  -4  135.85    5.70
   5   5   4  139.58    5.04
   5   5   4  128.84    5.31
  -6  -5  -4   98.52    4.30
   6   5   4  103.28    3.92
   6   5   4   96.98    3.97
  -7  -5  -4    2.06    0.35
   7   5   4    0.89    0.38
  -8  -5  -4   63.37    2.95
   8   5   4   65.59    2.86
  -9  -5  -4   28.04    1.50
   9   5   4   25.58    1.57
   7  -6  -4   10.77    0.92
  -7   6   4    8.39    0.90
   6  -6  -4   13.72    1.01
   6  -6  -4   15.41    0.95
  -6   6   4   15.00    1.09
   5  -6  -4   55.47    2.72
   5  -6  -4   57.12    2.29
  -5   6   4   55.14    2.65
   4  -6  -4    1.73    0.42
   4  -6  -4    1.12    0.27
  -4   6   4    0.95    0.32
   3  -6  -4   88.62    3.12
   3  -6  -4   78.71    3.88
  -3   6   4   83.24    3.66
   2  -6  -4   37.64    1.97
   2  -6  -4   37.29    1.49
  -2   6   4   34.03    1.81
   1  -6  -4   42.06    1.95
   1  -6  -4   34.62    1.43
  -1   6   4   32.58    1.77
   0  -6  -4  185.76    6.62
   0  -6  -4  202.06    8.24
   0   6   4  200.21    7.80
   0   6   4  187.31    6.78
  -1  -6  -4    1.49    0.36
   1   6   4    2.30    0.37
   1   6   4    2.09    0.28
  -2  -6  -4   97.28    4.28
   2   6   4   94.36    4.03
   2   6   4   97.24    3.58
  -3  -6  -4   79.61    3.45
   3   6   4   75.71    2.95
   3   6   4   73.35    3.21
  -4  -6  -4   18.83    1.08
   4   6   4   18.26    0.95
   4   6   4   19.81    1.04
  -5  -6  -4  133.59    5.77
   5   6   4  141.09    5.09
   5   6   4  131.03    5.36
  -6  -6  -4    0.42    0.24
   6   6   4    0.53    0.30
  -7  -6  -4   64.95    3.09
   7   6   4   70.96    2.94
  -8  -6  -4   37.47    1.94
   8   6   4   38.89    1.98
  -9  -6  -4   14.01    1.00
   9   6   4   15.47    1.23
   6  -7  -4   48.67    2.10
  -6   7   4   47.26    2.47
   5  -7  -4   30.77    1.82
   5  -7  -4   32.56    1.52
  -5   7   4   32.75    1.81
   4  -7  -4   10.21    0.95
   4  -7  -4   11.62    0.75
  -4   7   4   10.72    0.91
   3  -7  -4   69.95    2.62
   3  -7  -4   63.37    3.28
  -3   7   4   68.89    3.13
   2  -7  -4    1.34    0.39
   2  -7  -4    0.98    0.25
  -2   7   4    0.73    0.32
   1  -7  -4  201.86    7.93
   1  -7  -4  179.90    6.39
  -1   7   4  170.76    7.48
   0  -7  -4   26.50    1.54
   0   7   4   28.80    1.49
  -1  -7  -4   72.20    3.68
   1   7   4   87.14    3.50
   1   7   4   81.62    3.03
  -2  -7  -4   99.17    4.66
   2   7   4  103.06    3.88
   2   7   4  110.49    4.40
  -3  -7  -4    0.87    0.28
   3   7   4    0.73    0.27
   3   7   4    1.53    0.32
  -4  -7  -4   69.95    3.18
   4   7   4   66.35    2.93
   4   7   4   70.05    2.79
  -5  -7  -4   19.92    1.18
   5   7   4   19.22    1.13
  -6  -7  -4    6.70    0.64
   6   7   4    7.00    0.75
  -7  -7  -4   63.09    3.06
   7   7   4   67.81    2.86
  -8  -7  -4    3.16    0.55
   8   7   4    2.88    0.60
  -9  -7  -4   52.83    2.66
   5  -8  -4   29.18    1.45
  -5   8   4   28.77    1.76
   4  -8  -4   79.16    3.00
  -4   8   4   73.56    3.55
   3  -8  -4    4.52    0.52
   3  -8  -4    5.41    0.79
  -3   8   4    4.88    0.68
   2  -8  -4   80.88    3.56
   2  -8  -4   73.30    2.80
  -2   8   4   65.69    3.33
   1  -8  -4   70.47    3.23
  -1   8   4   63.60    3.07
   0  -8  -4   19.23    1.22
   0   8   4   17.89    1.15
  -1  -8  -4   53.22    2.79
   1   8   4   56.71    2.27
   1   8   4   59.62    2.61
  -2  -8  -4    0.49    0.30
   2   8   4    1.16    0.31
   2   8   4    0.67    0.30
  -3  -8  -4   87.19    4.01
   3   8   4   88.70    3.38
   3   8   4   83.18    3.70
  -4  -8  -4   51.18    2.56
   4   8   4   51.73    2.23
  -5  -8  -4   13.75    1.01
   5   8   4   14.60    0.98
  -6  -8  -4   55.82    2.71
   6   8   4   54.16    2.44
  -7  -8  -4    4.14    0.61
   7   8   4    4.23    0.65
  -8  -8  -4   70.91    3.40
   8   8   4   70.62    3.12
   4  -9  -4    4.22    0.55
  -4   9   4    2.37    0.60
  -3   9   4   29.24    1.78
   2  -9  -4   68.37    3.20
  -2   9   4   60.58    3.08
   1  -9  -4    8.24    0.89
  -1   9   4    7.23    0.82
   0  -9  -4   73.80    3.53
   0   9   4   74.47    3.35
  -1  -9  -4   12.46    1.02
   1   9   4   12.02    0.89
  -2  -9  -4   38.24    2.27
   2   9   4   43.86    1.89
   2   9   4   44.85    2.08
  -3  -9  -4   56.86    2.97
   3   9   4   60.91    2.50
  -4  -9  -4   11.23    0.97
   4   9   4   10.52    0.85
  -5  -9  -4   72.54    3.61
   5   9   4   79.53    3.17
  -6  -9  -4   24.78    1.58
   6   9   4   27.34    1.50
  -7  -9  -4   54.46    2.80
   7   9   4   54.56    2.52
  -3  10   4   42.95    2.42
  -2  10   4    0.19    0.39
   1 -10  -4   44.19    2.34
  -1  10   4   43.09    2.29
   0 -10  -4   28.25    1.74
   0  10   4   30.20    1.67
  -1 -10  -4   20.85    1.43
   1  10   4   19.87    1.24
  -2 -10  -4   84.61    4.12
  -3 -10  -4    0.21    0.35
   3  10   4    0.34    0.35
  -4 -10  -4   74.26    3.86
   4  10   4   84.58    3.31
  -5 -10  -4   26.86    1.71
   5  10   4   25.12    1.46
   0 -11  -4    1.20    0.46
   0  11   4    0.71    0.41
  -1 -11  -4   56.53    2.95
  -2 -11  -4   16.73    1.35
  -3 -11  -4   23.29    1.67
   3  10  -5   11.28    0.90
  -3 -10   5    9.62    0.70
   2  10  -5   44.90    2.01
  -2 -10   5   43.58    1.87
   1  10  -5    0.31    0.29
  -1 -10   5    0.34    0.28
   0  10  -5   63.91    2.64
   0 -10   5   66.98    2.65
  -1  10  -5   20.71    1.13
   1 -10   5   21.87    1.21
   2 -10   5   24.85    1.42
   5   9  -5   31.36    1.69
  -5  -9   5   31.08    1.64
  -5  -9   5   31.05    1.38
   4   9  -5   13.00    0.94
  -4  -9   5   12.09    0.74
   3   9  -5   76.45    3.04
  -3  -9   5   72.98    2.82
   2   9  -5    3.45    0.50
  -2  -9   5    3.57    0.45
   1   9  -5   31.28    1.47
  -1  -9   5   31.16    1.41
   0   9  -5   69.18    2.74
   0  -9   5   70.03    2.73
  -1   9  -5    4.98    0.51
   1  -9   5    5.45    0.58
  -2   9  -5   54.14    2.23
   2  -9   5   58.27    2.39
  -3   9  -5    5.51    0.60
   3  -9   5    6.89    0.74
  -4   9  -5   27.68    1.53
   4  -9   5   29.56    1.60
   6   8  -5   48.43    2.32
  -6  -8   5   48.97    2.36
  -6  -8   5   50.09    1.98
   5   8  -5    1.19    0.37
  -5  -8   5    0.48    0.22
  -5  -8   5    0.96    0.31
   4   8  -5   58.93    2.46
  -4  -8   5   58.55    2.64
  -4  -8   5   55.83    2.21
   3   8  -5   15.42    0.93
  -3  -8   5   14.73    0.78
   2   8  -5   29.90    1.39
  -2  -8   5   29.42    1.29
   1   8  -5  117.88    4.35
  -1  -8   5  116.87    4.23
   0   8  -5    4.29    0.46
   0  -8   5    4.10    0.47
  -1   8  -5  107.27    4.00
   1  -8   5  110.49    4.02
  -2   8  -5   34.65    1.47
  -2   8  -5   35.03    1.63
   2  -8   5   33.52    1.57
  -3   8  -5   25.79    1.33
  -3   8  -5   24.93    1.15
   3  -8   5   26.48    1.35
  -4   8  -5   52.33    2.37
   4  -8   5   50.55    2.29
  -5   8  -5    0.46    0.32
   5  -8   5    0.79    0.37
   7   7  -5   53.97    2.57
  -7  -7   5   53.65    2.54
  -7  -7   5   53.40    2.11
   6   7  -5    1.29    0.41
  -6  -7   5    2.91    0.42
  -6  -7   5    3.83    0.41
   5   7  -5   69.10    2.86
  -5  -7   5   69.23    3.10
  -5  -7   5   69.94    2.60
   4   7  -5   58.18    2.41
  -4  -7   5   56.87    2.20
  -4  -7   5   59.00    2.61
   3   7  -5   18.64    1.00
  -3  -7   5   18.88    0.99
  -3  -7   5   18.43    0.88
   2   7  -5   73.43    2.77
  -2  -7   5   69.18    2.63
   1   7  -5    5.45    0.46
  -1  -7   5    4.64    0.44
   0   7  -5   62.97    2.46
   0  -7   5   65.63    2.45
  -1   7  -5   58.94    2.46
  -1   7  -5   57.27    2.24
   1  -7   5   58.32    2.27
  -2   7  -5    6.56    0.47
  -2   7  -5    6.51    0.51
   2  -7   5    6.59    0.54
  -3   7  -5  103.49    3.87
  -3   7  -5  107.69    4.38
   3  -7   5  108.91    4.01
  -4   7  -5    7.14    0.63
  -4   7  -5    8.29    0.56
   4  -7   5    8.12    0.78
  -5   7  -5   40.67    1.98
   5  -7   5   42.94    2.01
  -6   7  -5   20.95    1.24
   6  -7   5   19.75    1.34
   8   6  -5   36.02    1.90
   8   6  -5   40.23    2.20
  -8  -6   5   40.55    1.64
   7   6  -5   12.31    0.84
   7   6  -5   15.06    1.29
  -7  -6   5   12.97    0.73
   6   6  -5   24.99    1.31
   6   6  -5   25.17    1.40
  -6  -6   5   25.84    1.13
   5   6  -5   72.99    3.04
   5   6  -5   77.04    3.35
  -5  -6   5   79.62    2.83
   4   6  -5    0.08    0.17
   4   6  -5    0.13    0.20
  -4  -6   5    0.54    0.17
   3   6  -5   59.46    2.35
  -3  -6   5   57.82    2.20
  -3  -6   5   60.75    2.60
   2   6  -5   65.81    2.45
  -2  -6   5   62.45    2.71
  -2  -6   5   60.97    2.32
   1   6  -5   44.26    1.79
  -1  -6   5   45.01    1.73
  -1  -6   5   45.15    2.00
   0   6  -5  124.07    4.40
   0   6  -5  120.24    4.83
   0  -6   5  122.69    4.33
  -1   6  -5    1.37    0.22
  -1   6  -5    1.73    0.25
   1  -6   5    1.91    0.30
  -2   6  -5   67.51    2.55
  -2   6  -5   68.31    2.84
   2  -6   5   69.77    2.61
  -3   6  -5   27.26    1.16
  -3   6  -5   29.67    1.33
   3  -6   5   24.78    1.25
  -4   6  -5   62.52    2.35
  -4   6  -5   62.91    2.69
   4  -6   5   60.87    2.53
  -5   6  -5   80.32    3.45
   5  -6   5   82.20    3.29
  -6   6  -5    0.16    0.24
   6  -6   5    0.41    0.35
  -7   6  -5   41.19    2.03
   7  -6   5   42.62    2.16
   8   5  -5   25.18    1.34
  -8  -5   5   24.41    1.15
   7   5  -5    8.07    0.90
   7   5  -5    9.62    0.67
  -7  -5   5    9.85    0.60
   6   5  -5   98.00    4.18
   6   5  -5   96.68    3.86
  -6  -5   5   96.92    3.50
   5   5  -5   15.24    0.83
   5   5  -5   14.06    0.86
  -5  -5   5   13.72    0.70
   4   5  -5   84.97    3.25
   4   5  -5   85.44    3.65
  -4  -5   5   86.08    3.07
   3   5  -5   96.47    3.52
   3   5  -5   95.20    3.99
  -3  -5   5   92.70    3.36
   2   5  -5    2.67    0.27
   2   5  -5    2.61    0.30
  -2  -5   5    3.65    0.32
   1   5  -5  183.63    6.38
  -1  -5   5  179.28    7.40
  -1  -5   5  180.61    6.22
   0   5  -5   11.91    0.62
   0   5  -5   11.93    0.59
   0  -5   5   12.91    0.63
  -1   5  -5  112.81    4.13
  -1   5  -5  116.13    4.58
   1  -5   5  119.07    4.11
  -2   5  -5   93.62    3.44
  -2   5  -5   95.10    3.84
   2  -5   5   97.71    3.46
  -3   5  -5   10.31    0.61
  -3   5  -5    9.27    0.52
   3  -5   5    9.36    0.61
  -4   5  -5  118.16    4.27
  -4   5  -5  122.32    4.84
   4  -5   5  117.78    4.39
  -5   5  -5   29.71    1.20
  -5   5  -5   29.68    1.40
   5  -5   5   24.96    1.41
  -6   5  -5   33.12    1.64
   6  -5   5   35.54    1.80
  -7   5  -5   49.21    2.33
   7  -5   5   53.13    2.46
  -8   5  -5    1.51    0.38
   8  -5   5    1.37    0.49
   9   4  -5   44.82    2.21
  -9  -4   5   47.50    1.91
   8   4  -5    0.24    0.22
  -8  -4   5    0.08    0.17
   7   4  -5   90.42    3.87
   7   4  -5   88.36    3.71
  -7  -4   5   88.23    3.25
   6   4  -5   46.95    2.19
   6   4  -5   50.66    2.17
  -6  -4   5   47.64    1.86
   5   4  -5   35.79    1.57
   5   4  -5   34.62    1.61
  -5  -4   5   33.68    1.38
   4   4  -5  142.09    5.03
   4   4  -5  139.19    5.78
  -4  -4   5  135.64    4.82
   3   4  -5    0.15    0.12
   3   4  -5    0.19    0.14
  -3  -4   5    0.29    0.12
   2   4  -5  255.61    8.99
   2   4  -5  260.67   10.53
  -2  -4   5  260.11    8.77
   1   4  -5  108.16    3.86
   1   4  -5  108.93    4.45
  -1  -4   5  106.82    3.76
   0   4  -5   50.40    1.89
   0  -4   5   51.28    2.03
   0  -4   5   50.44    1.86
   0  -4   5   48.93    2.10
  -1   4  -5  130.45    4.68
   1  -4   5  134.35    5.20
   1  -4   5  133.07    4.62
  -2   4  -5    0.60    0.14
   2  -4   5    0.74    0.19
   2  -4   5    0.12    0.10
  -3   4  -5  138.98    4.95
   3  -4   5  139.97    4.97
   3  -4   5  142.12    5.56
  -4   4  -5   80.21    2.93
   4  -4   5   79.37    3.06
   4  -4   5   81.37    3.30
  -5   4  -5   13.42    0.67
   5  -4   5   13.24    0.77
   5  -4   5   13.98    0.91
  -6   4  -5  154.37    6.21
  -6   4  -5  150.69    5.47
   6  -4   5  158.76    5.84
  -7   4  -5   18.39    1.06
   7  -4   5   20.40    1.32
  -8   4  -5   67.68    3.06
   8  -4   5   72.82    3.17
   9   3  -5   15.06    0.96
  -9  -3   5   15.07    0.87
   8   3  -5   38.12    1.83
  -8  -3   5   37.19    1.59
   7   3  -5   89.95    3.88
  -7  -3   5   89.18    3.28
   6   3  -5   16.48    0.89
   6   3  -5   16.13    0.99
  -6  -3   5   15.61    0.78
   5   3  -5   95.97    4.05
   5   3  -5   96.68    3.62
  -5  -3   5   93.97    3.40
   4   3  -5    2.74    0.33
   4   3  -5    3.27    0.29
  -4  -3   5    3.19    0.30
   3   3  -5   90.49    3.81
   3   3  -5   90.68    3.32
  -3  -3   5   92.31    3.21
   2   3  -5  130.02    4.60
   2   3  -5  129.92    5.34
  -2  -3   5  129.56    4.47
   1   3  -5   23.74    0.99
   1   3  -5   24.07    1.07
  -1  -3   5   24.36    0.95
  -1  -3   5   24.28    0.99
   0   3  -5  194.33    7.74
   0   3  -5  183.79    6.63
   0  -3   5  192.13    6.50
   0  -3   5  193.14    7.37
  -1   3  -5  109.77    3.93
   1  -3   5  113.69    4.50
   1  -3   5  112.47    4.36
   1  -3   5  108.22    3.86
  -2   3  -5  108.23    3.88
   2  -3   5  110.91    3.86
   2  -3   5  109.98    4.33
  -3   3  -5  201.64    6.98
   3  -3   5  193.15    6.92
   3  -3   5  206.87    7.83
  -4   3  -5    2.25    0.25
   4  -3   5    2.33    0.29
   4  -3   5    3.30    0.39
  -5   3  -5   87.47    3.23
   5  -3   5   87.71    3.64
   5  -3   5   92.99    3.50
  -6   3  -5    6.31    0.42
   6  -3   5    5.95    0.48
   6  -3   5    5.67    0.73
   7  -3   5   83.07    3.43
   7  -3   5   79.95    3.42
  -8   3  -5   53.32    2.35
   8  -3   5   49.22    2.44
  -9   3  -5    4.10    0.55
   9  -3   5    3.61    0.68
   9   2  -5   32.76    1.64
  -9  -2   5   30.80    1.46
   8   2  -5   96.47    4.22
  -8  -2   5   98.17    3.62
   7   2  -5    4.30    0.43
  -7  -2   5    4.07    0.42
   6   2  -5  125.99    5.24
  -6  -2   5  122.57    4.41
   5   2  -5   48.23    1.99
   5   2  -5   49.04    2.17
  -5  -2   5   49.06    1.86
   4   2  -5   47.25    1.84
   4   2  -5   47.16    2.06
  -4  -2   5   46.07    1.75
   3   2  -5  102.67    3.73
   3   2  -5  104.91    4.34
  -3  -2   5  105.02    3.64
   2   2  -5    3.81    0.28
   2   2  -5    4.33    0.29
  -2  -2   5    3.69    0.26
  -2  -2   5    4.29    0.21
   1   2  -5  143.87    5.13
   1   2  -5  144.62    6.00
  -1  -2   5  150.38    5.67
  -1  -2   5  149.25    5.02
   0   2  -5   73.75    3.00
   0   2  -5   71.71    2.62
   0  -2   5   73.93    2.87
   0  -2   5   72.83    2.56
  -1   2  -5   32.13    1.30
  -1   2  -5   29.66    1.20
   1  -2   5   31.52    1.30
   1  -2   5   31.57    1.18
  -2   2  -5  194.10    6.68
   2  -2   5  189.92    6.56
   2  -2   5  192.88    7.46
  -3   2  -5   13.52    0.62
   3  -2   5   13.66    0.66
   3  -2   5   12.58    0.66
  -4   2  -5  140.40    5.07
   4  -2   5  146.22    5.68
   4  -2   5  145.92    5.15
  -5   2  -5   30.12    1.25
   5  -2   5   32.16    1.40
   5  -2   5   30.80    1.50
  -6   2  -5   22.04    0.92
   6  -2   5   17.64    1.14
   6  -2   5   19.96    1.00
  -7   2  -5   52.06    2.01
   7  -2   5   52.04    2.25
   7  -2   5   50.05    2.30
   8  -2   5    0.61    0.34
   8  -2   5    0.27    0.20
  -9   2  -5   48.15    2.23
   9  -2   5   48.17    2.27
   9   1  -5   33.42    1.69
  -9  -1   5   32.74    1.56
   8   1  -5    0.53    0.22
  -8  -1   5    0.25    0.22
   7   1  -5   70.19    3.13
  -7  -1   5   71.83    2.73
   6   1  -5   31.96    1.51
  -6  -1   5   31.00    1.34
   5   1  -5   17.26    0.89
   5   1  -5   17.60    0.88
  -5  -1   5   16.84    0.81
   4   1  -5  165.24    5.88
   4   1  -5  174.12    6.89
  -4  -1   5  159.29    6.55
  -4  -1   5  168.14    5.76
   3   1  -5   20.77    0.85
   3   1  -5   20.54    0.97
  -3  -1   5   20.28    0.89
  -3  -1   5   19.25    0.84
   2   1  -5   63.88    2.29
   2   1  -5   63.91    2.68
  -2  -1   5   61.49    2.25
  -2  -1   5   64.59    2.50
   1   1  -5   86.35    3.12
   1   1  -5   88.14    3.65
  -1  -1   5   86.54    3.05
  -1  -1   5   92.22    3.45
   0   1  -5    0.35    0.09
   0   1  -5    0.46    0.11
   0  -1   5    0.35    0.09
   0  -1   5    0.44    0.09
  -1   1  -5  381.21   13.42
  -1   1  -5  409.41   15.81
   1  -1   5  390.45   13.13
   1  -1   5  386.63   15.05
  -2   1  -5   27.16    1.14
  -2   1  -5   26.30    1.06
   2  -1   5   27.26    1.04
   2  -1   5   26.86    1.14
  -3   1  -5  136.70    4.84
   3  -1   5  138.73    4.80
   3  -1   5  138.20    5.39
  -4   1  -5  145.84    6.04
  -4   1  -5  150.39    5.22
   4  -1   5  143.87    5.26
   4  -1   5  152.85    5.82
  -5   1  -5   11.98    0.60
   5  -1   5   12.21    0.64
   5  -1   5   11.74    0.77
  -6   1  -5  144.42    5.25
   6  -1   5  150.47    5.40
   6  -1   5  148.77    5.86
  -7   1  -5    9.01    0.55
   7  -1   5    8.66    0.58
   7  -1   5    9.19    0.72
  -8   1  -5   25.18    1.16
   8  -1   5   25.10    1.26
   8  -1   5   26.72    1.34
   9  -1   5   53.79    2.39
 -10   1  -5    1.08    0.34
   9   0  -5   22.10    1.25
  -9   0   5   22.73    1.25
   8   0  -5   12.96    0.81
  -8   0   5   10.63    0.80
   7   0  -5   70.34    3.18
  -7   0   5   74.19    2.83
   6   0  -5    1.28    0.24
  -6   0   5    1.15    0.25
   5   0  -5   84.18    3.43
  -5   0   5   69.01    3.29
  -5   0   5   85.58    2.97
   4   0  -5   64.08    2.46
   4   0  -5   72.31    2.90
  -4   0   5   62.19    2.83
  -4   0   5   69.97    2.49
   3   0  -5   59.00    2.37
   3   0  -5   54.00    1.98
  -3   0   5   51.16    2.31
  -3   0   5   53.87    2.01
   2   0  -5  258.01    8.90
   2   0  -5  267.63   10.58
  -2   0   5  256.18    8.77
  -2   0   5  256.27   10.06
   1   0  -5    3.99    0.28
   1   0  -5    3.82    0.24
  -1   0   5    4.76    0.27
  -1   0   5    4.09    0.25
   0   0  -5   41.06    1.52
   0   0  -5   42.00    1.78
   0   0   5   41.60    1.68
   0   0   5   41.25    1.47
  -1   0  -5   49.10    1.81
  -1   0  -5   48.62    2.11
   1   0   5   50.28    2.00
   1   0   5   50.52    1.74
  -2   0  -5   60.98    2.95
  -2   0  -5   71.37    2.51
   2   0   5   71.16    2.42
   2   0   5   73.24    2.76
  -3   0  -5  170.30    7.19
  -3   0  -5  178.77    6.13
   3   0   5  178.57    6.82
   3   0   5  173.79    6.02
  -4   0  -5    8.70    0.47
  -4   0  -5    8.99    0.49
   4   0   5    8.60    0.48
   4   0   5    9.47    0.56
  -5   0  -5  131.13    4.77
  -5   0  -5  134.37    5.49
   5   0   5  136.72    4.77
   5   0   5  132.54    5.27
  -6   0  -5   86.74    3.28
   6   0   5   93.47    3.30
   6   0   5   86.58    3.59
  -7   0  -5   27.91    1.26
   7   0   5   28.13    1.32
   7   0   5   30.11    1.30
  -8   0  -5   82.67    3.14
   8   0   5   81.84    3.41
   9   0   5    4.73    0.50
  10   0   5   19.32    1.09
   9  -1  -5    6.08    0.59
  -9   1   5    5.69    0.69
   8  -1  -5   90.20    3.94
  -8   1   5   88.87    3.53
   7  -1  -5    5.83    0.52
  -7   1   5    7.05    0.68
   6  -1  -5   58.67    2.47
  -6   1   5   48.79    2.36
  -6   1   5   55.66    2.24
   5  -1  -5   79.18    3.24
  -5   1   5   77.96    2.86
  -5   1   5   66.56    3.12
   4  -1  -5    4.33    0.34
  -4   1   5    2.47    0.36
  -4   1   5    3.70    0.37
   3  -1  -5  138.65    5.15
   3  -1  -5  152.15    6.19
  -3   1   5  146.53    6.00
  -3   1   5  159.84    5.22
   2  -1  -5   50.18    1.75
   2  -1  -5   51.37    2.16
  -2   1   5   49.66    1.82
  -2   1   5   44.91    2.12
   1  -1  -5  134.66    4.63
   1  -1  -5  135.42    5.55
  -1   1   5  130.29    5.30
  -1   1   5  135.32    4.58
   0  -1  -5  331.56   11.30
   0  -1  -5  334.69   13.45
   0   1   5  327.73   12.72
   0   1   5  325.89   11.04
  -1  -1  -5    6.29    0.34
  -1  -1  -5    5.53    0.44
   1   1   5    6.08    0.26
   1   1   5    5.70    0.33
  -2  -1  -5  262.47    8.79
  -2  -1  -5  220.71   10.41
   2   1   5  266.63    9.80
   2   1   5  264.47    8.51
  -3  -1  -5  118.39    4.90
  -3  -1  -5  115.40    4.21
   3   1   5  117.49    4.62
   3   1   5  119.45    4.06
  -4  -1  -5   70.67    2.99
  -4  -1  -5   71.07    2.66
   4   1   5   69.82    2.85
   4   1   5   72.04    2.53
  -5  -1  -5  123.89    5.10
  -5  -1  -5  122.83    4.47
   5   1   5  120.50    4.44
   5   1   5  122.80    4.86
   5   1   5  125.22    4.28
  -6  -1  -5    4.15    0.42
  -6  -1  -5    3.72    0.31
   6   1   5    3.98    0.34
   6   1   5    3.62    0.32
  -7  -1  -5  113.03    4.21
   7   1   5  114.20    4.56
  -8  -1  -5   38.52    1.67
   8   1   5   37.71    1.71
  -9  -1  -5   33.53    1.55
   9   1   5   34.53    1.60
   9  -2  -5   55.14    2.53
  -9   2   5   49.58    2.36
   8  -2  -5   44.25    2.09
  -8   2   5   41.17    1.97
   7  -2  -5   12.17    0.77
  -7   2   5   10.22    0.79
   6  -2  -5   99.83    4.23
  -6   2   5   95.45    3.71
  -6   2   5   98.90    4.11
   5  -2  -5    1.19    0.23
   5  -2  -5    1.53    0.31
  -5   2   5    1.39    0.30
  -5   2   5    1.18    0.26
   4  -2  -5   99.16    4.11
   4  -2  -5   96.29    3.53
  -4   2   5   92.81    3.99
   3  -2  -5  118.26    4.69
   3  -2  -5  112.65    3.95
  -3   2   5  100.63    4.53
   2  -2  -5   30.31    1.45
   2  -2  -5   31.14    1.10
  -2   2   5   30.10    1.23
  -2   2   5   30.26    1.47
   1  -2  -5  253.04    8.48
   1  -2  -5  258.00   10.22
  -1   2   5  228.81    9.72
  -1   2   5  249.97    8.39
   0  -2  -5    0.26    0.11
   0  -2  -5    0.96    0.23
   0   2   5    0.17    0.13
   0   2   5    0.99    0.12
  -1  -2  -5  298.30   12.41
   1   2   5  293.67   10.36
   1   2   5  305.82   11.65
   1   2   5  306.43   10.05
  -2  -2  -5   92.69    4.23
   2   2   5  103.29    3.58
   2   2   5  101.48    3.92
  -3  -2  -5   79.92    3.43
   3   2   5   77.49    3.20
   3   2   5   83.82    2.99
  -4  -2  -5  147.75    5.98
   4   2   5  149.03    5.20
   4   2   5  139.26    4.86
   4   2   5  141.24    5.65
  -5  -2  -5   10.53    0.60
   5   2   5   10.41    0.65
   5   2   5   10.29    0.56
  -6  -2  -5  106.13    4.45
   6   2   5  103.98    4.22
   6   2   5  106.71    3.96
  -7  -2  -5   64.63    2.76
   7   2   5   61.36    2.52
   7   2   5   61.65    2.60
   8   2   5   12.29    0.77
   8   2   5    9.80    0.64
  -9  -2  -5   68.64    2.88
   9   2   5   71.07    3.01
   9   2   5   75.07    2.89
 -10  -2  -5    5.29    0.59
   8  -3  -5    7.50    0.65
  -8   3   5    7.19    0.74
   7  -3  -5   69.48    2.80
   7  -3  -5   66.37    3.07
  -7   3   5   67.84    3.05
   6  -3  -5   12.38    0.83
   6  -3  -5   13.70    0.83
  -6   3   5   12.56    0.86
   5  -3  -5   81.95    3.51
   5  -3  -5   80.59    3.06
  -5   3   5   76.28    3.41
   4  -3  -5   98.72    3.69
   4  -3  -5  106.83    4.35
  -4   3   5   96.00    4.19
   3  -3  -5   32.42    1.33
   3  -3  -5   33.25    1.56
  -3   3   5   27.81    1.51
   2  -3  -5  125.07    4.66
   2  -3  -5  144.47    5.72
  -2   3   5  130.89    5.45
   1  -3  -5   11.50    0.49
   1  -3  -5   10.33    0.53
   1  -3  -5   10.42    0.74
  -1   3   5   11.67    0.73
   0  -3  -5  207.33    7.30
   0   3   5  215.25    7.48
   0   3   5  227.75    8.58
  -1  -3  -5  242.67    9.91
   1   3   5  242.72    9.31
   1   3   5  243.67    7.95
   1   3   5  221.58    8.24
  -2  -3  -5    1.88    0.30
   2   3   5    2.02    0.27
   2   3   5    2.22    0.26
  -3  -3  -5  123.97    5.11
   3   3   5  116.48    4.39
   3   3   5  121.80    4.78
  -4  -3  -5   44.53    1.94
   4   3   5   39.52    1.76
   4   3   5   42.80    1.78
  -5  -3  -5   64.57    2.78
   5   3   5   62.47    2.55
   5   3   5   63.26    2.60
  -6  -3  -5  133.04    5.44
   6   3   5  126.62    5.11
   6   3   5  127.22    4.83
  -7  -3  -5    2.93    0.37
   7   3   5    3.07    0.33
   7   3   5    2.80    0.45
  -8  -3  -5  116.96    4.89
   8   3   5  113.03    4.38
   8   3   5  111.45    4.58
   9   3   5   16.16    1.05
  10   3   5   45.21    2.08
   8  -4  -5   48.27    2.17
   8  -4  -5   44.84    2.30
  -8   4   5   48.57    2.39
   7  -4  -5   39.66    1.87
   7  -4  -5   40.41    2.03
  -7   4   5   42.53    2.09
   6  -4  -5   41.12    1.74
   6  -4  -5   36.54    1.87
  -6   4   5   35.97    1.88
   5  -4  -5  100.22    4.36
   5  -4  -5  100.46    3.71
  -5   4   5   97.45    4.23
   4  -4  -5    4.02    0.44
   4  -4  -5    3.62    0.46
  -4   4   5    3.95    0.51
   3  -4  -5  143.12    5.78
   3  -4  -5  134.07    4.72
  -3   4   5  122.75    5.46
   2  -4  -5   39.78    1.97
   2  -4  -5   39.00    1.51
  -2   4   5   36.48    1.83
   1  -4  -5   23.82    0.94
   1  -4  -5   19.83    1.26
  -1   4   5   24.74    1.23
  -1   4   5   20.91    0.86
   0  -4  -5   72.08    2.67
   0  -4  -5   79.34    3.48
   0   4   5   80.35    3.28
   0   4   5   74.21    2.75
  -1  -4  -5   10.36    0.45
  -1  -4  -5   11.71    0.78
   1   4   5   10.96    0.56
   1   4   5   10.98    0.70
  -2  -4  -5  176.30    7.76
   2   4   5  185.30    6.53
   2   4   5  193.10    7.32
  -3  -4  -5   74.62    3.25
   3   4   5   74.78    3.01
   3   4   5   70.75    2.79
  -4  -4  -5   31.35    1.51
   4   4   5   30.52    1.36
   4   4   5   31.28    1.41
  -5  -4  -5  171.29    6.97
   5   4   5  162.60    6.53
   5   4   5  165.24    6.08
  -6  -4  -5    5.30    0.47
   6   4   5    5.81    0.40
   6   4   5    5.37    0.62
  -7  -4  -5   74.86    3.24
   7   4   5   71.72    3.02
   7   4   5   71.57    2.99
  -8  -4  -5   26.11    1.38
   8   4   5   25.18    1.43
  -9  -4  -5   17.60    1.04
   9   4   5   14.07    1.08
  10   4   5   70.60    3.08
   7  -5  -5    9.78    0.81
   7  -5  -5   10.79    0.82
  -7   5   5    9.01    0.88
   6  -5  -5  113.83    4.26
   6  -5  -5  115.32    5.04
  -6   5   5  113.87    4.91
   5  -5  -5    6.64    0.67
   5  -5  -5    7.53    0.59
  -5   5   5    7.53    0.71
   4  -5  -5  102.07    3.68
   4  -5  -5  107.57    4.53
  -4   5   5   91.06    4.26
   3  -5  -5   84.68    3.80
   3  -5  -5   85.65    3.02
  -3   5   5   74.38    3.53
   2  -5  -5    2.54    0.48
   2  -5  -5    2.57    0.30
  -2   5   5    2.40    0.41
   1  -5  -5  163.12    5.93
   1  -5  -5  176.72    7.43
  -1   5   5  178.48    7.01
   0  -5  -5   64.89    2.89
   0  -5  -5   57.48    2.18
   0   5   5   57.55    2.23
   0   5   5   65.00    2.72
  -1  -5  -5   20.37    1.20
   1   5   5   20.44    0.90
   1   5   5   20.73    1.13
  -2  -5  -5  123.03    5.53
   2   5   5  132.04    5.23
   2   5   5  129.44    4.61
  -3  -5  -5    0.58    0.21
   3   5   5    0.78    0.21
   3   5   5    1.01    0.22
  -4  -5  -5  197.55    8.20
   4   5   5  195.68    7.02
   4   5   5  193.67    7.69
  -5  -5  -5   32.10    1.57
   5   5   5   31.60    1.49
   5   5   5   29.88    1.39
  -6  -5  -5   59.83    2.71
   6   5   5   57.86    2.46
   6   5   5   60.02    2.53
  -7  -5  -5   80.23    3.63
   7   5   5   82.99    3.37
  -8  -5  -5    1.71    0.35
   8   5   5    2.50    0.52
  -9  -5  -5   37.93    1.93
   9   5   5   36.91    1.96
   7  -6  -5   25.47    1.38
  -7   6   5   27.92    1.68
   6  -6  -5   19.11    1.07
   6  -6  -5   18.59    1.25
  -6   6   5   18.44    1.29
   5  -6  -5    5.43    0.71
   5  -6  -5    4.96    0.53
  -5   6   5    5.45    0.70
   4  -6  -5   77.63    2.91
   4  -6  -5   79.23    3.68
  -4   6   5   73.26    3.45
   3  -6  -5    1.65    0.44
   3  -6  -5    2.25    0.33
  -3   6   5    1.89    0.42
   2  -6  -5   53.50    2.68
   2  -6  -5   54.14    2.04
  -2   6   5   51.57    2.49
   1  -6  -5   67.52    2.63
   1  -6  -5   79.50    3.45
  -1   6   5   72.16    3.22
   0  -6  -5   11.37    0.84
   0   6   5   11.05    0.79
   0   6   5   10.81    0.57
  -1  -6  -5  117.75    5.41
   1   6   5  118.95    4.43
   1   6   5  134.88    5.15
  -2  -6  -5    1.55    0.36
   2   6   5    1.93    0.36
   2   6   5    2.64    0.32
  -3  -6  -5   59.08    2.78
   3   6   5   58.47    2.33
   3   6   5   58.38    2.58
  -4  -6  -5   89.35    3.89
   4   6   5   87.67    3.59
   4   6   5   82.71    3.32
  -5  -6  -5   30.57    1.58
   5   6   5   30.40    1.46
   5   6   5   29.49    1.39
  -6  -6  -5  106.45    4.69
   6   6   5  107.33    4.16
  -7  -6  -5    3.10    0.47
   7   6   5    3.74    0.59
  -8  -6  -5   53.15    2.63
   8   6   5   56.78    2.55
  -9  -6  -5   69.24    3.28
   9   6   5   70.29    3.14
   6  -7  -5   -0.22    0.23
  -6   7   5    0.42    0.40
   5  -7  -5   65.22    2.47
   5  -7  -5   54.59    3.01
  -5   7   5   61.24    2.96
   4  -7  -5   27.97    1.26
   4  -7  -5   23.55    1.62
  -4   7   5   26.40    1.58
   3  -7  -5   25.41    1.14
   3  -7  -5   23.00    1.53
  -3   7   5   22.59    1.43
   2  -7  -5   73.85    3.32
   2  -7  -5   63.42    2.52
  -2   7   5   65.22    3.09
   1  -7  -5    2.34    0.47
  -1   7   5    1.68    0.40
   0  -7  -5  130.83    5.83
   0   7   5  135.30    5.53
  -1  -7  -5   45.45    2.43
   1   7   5   53.80    2.31
   1   7   5   47.63    1.93
  -2  -7  -5   28.64    1.75
   2   7   5   32.35    1.42
   2   7   5   36.01    1.67
  -3  -7  -5   89.32    3.94
   3   7   5   77.00    3.62
   3   7   5   89.04    3.27
  -4  -7  -5   -0.08    0.21
   4   7   5    0.37    0.24
   4   7   5    0.20    0.23
  -5  -7  -5   83.41    3.82
   5   7   5   84.08    3.32
  -6  -7  -5   18.52    1.16
   6   7   5   17.82    1.11
  -7  -7  -5   24.51    1.47
   7   7   5   26.54    1.47
  -8  -7  -5   37.12    2.07
   8   7   5   43.79    2.08
   5  -8  -5   32.46    1.49
  -5   8   5   28.25    1.83
   4  -8  -5   12.86    0.81
   4  -8  -5   10.55    1.07
  -4   8   5   10.69    1.01
   3  -8  -5   65.24    3.01
   3  -8  -5   58.02    2.28
  -3   8   5   48.23    2.73
   2  -8  -5    1.67    0.45
  -2   8   5    2.60    0.51
   1  -8  -5   73.54    3.37
  -1   8   5   66.69    3.19
   0  -8  -5   30.06    1.72
   0   8   5   30.84    1.63
  -1  -8  -5   30.97    1.87
   1   8   5   37.63    1.77
  -2  -8  -5   88.93    4.52
   2   8   5  100.22    3.73
   2   8   5  107.47    4.25
  -3  -8  -5    4.97    0.70
   3   8   5    5.08    0.59
   3   8   5    4.02    0.49
  -4  -8  -5   95.12    4.22
   4   8   5   96.18    3.55
   4   8   5   80.29    3.90
  -5  -8  -5   62.81    3.05
   5   8   5   62.91    2.64
  -6  -8  -5    4.02    0.62
   6   8   5    4.83    0.63
  -7  -8  -5   86.05    4.08
   7   8   5   90.01    3.62
  -8  -8  -5    4.80    0.69
  -4   9   5   40.00    2.26
   3  -9  -5    6.45    0.86
  -3   9   5    6.52    0.83
   2  -9  -5   42.83    2.23
  -2   9   5   36.92    2.11
   1  -9  -5  103.02    4.63
  -1   9   5   97.94    4.41
   0  -9  -5    0.72    0.35
   0   9   5    0.76    0.35
  -1  -9  -5   81.42    3.93
   1   9   5   83.94    3.64
  -2  -9  -5   20.28    1.45
   2   9   5   22.76    1.28
  -3  -9  -5   51.00    2.87
   3   9   5   58.59    2.37
   3   9   5   58.68    2.65
  -4  -9  -5   73.14    3.64
   4   9   5   76.13    3.04
  -5  -9  -5    6.10    0.82
   5   9   5    7.68    0.76
  -6  -9  -5   48.38    2.62
   6   9   5   52.33    2.31
   7   9   5   16.92    1.25
   2 -10  -5   63.85    3.11
  -2  10   5   58.67    3.01
   1 -10  -5    0.37    0.36
  -1  10   5    0.12    0.36
   0 -10  -5   43.14    2.36
   0  10   5   44.63    2.24
  -1 -10  -5   25.29    1.64
   1  10   5   25.54    1.47
  -2 -10  -5   11.39    1.07
   2  10   5   11.01    0.93
  -3 -10  -5   61.79    3.38
   3  10   5   71.62    2.89
  -4 -10  -5    7.01    0.98
   4  10   5    7.30    0.76
  -5 -10  -5   30.53    1.97
   5  10   5   34.20    1.70
  -2 -11  -5   44.72    2.54
   2  10  -6   22.34    1.32
  -2 -10   6   22.21    1.15
   1  10  -6   34.74    1.62
  -1 -10   6   32.21    1.54
   0  10  -6    0.02    0.26
   0 -10   6    0.39    0.27
  -1  10  -6   46.99    2.01
   1 -10   6   45.54    2.17
  -5  -9   6   39.12    1.68
   4   9  -6   58.78    2.60
  -4  -9   6   61.95    2.38
   3   9  -6    0.41    0.29
  -3  -9   6    0.43    0.22
   2   9  -6   71.98    2.84
  -2  -9   6   67.76    2.69
   1   9  -6   21.01    1.13
  -1  -9   6   20.63    1.08
   0   9  -6   37.81    1.67
   0  -9   6   37.13    1.66
  -1   9  -6   39.09    1.74
   1  -9   6   42.52    1.83
  -2   9  -6    5.91    0.55
   2  -9   6    5.29    0.62
   3  -9   6   38.41    1.85
   6   8  -6   10.57    1.00
  -6  -8   6    9.40    0.76
  -6  -8   6   10.26    0.70
   5   8  -6   53.52    2.49
  -5  -8   6   59.56    2.28
  -5  -8   6   59.57    2.68
   4   8  -6    0.23    0.26
  -4  -8   6    0.01    0.18
   3   8  -6   88.24    3.40
  -3  -8   6   84.99    3.19
   2   8  -6    3.49    0.46
  -2  -8   6    3.61    0.42
   1   8  -6   22.86    1.14
  -1  -8   6   22.99    1.10
   0   8  -6   98.18    3.74
   0  -8   6  102.07    3.71
  -1   8  -6    0.19    0.20
   1  -8   6    0.43    0.25
  -2   8  -6   57.54    2.32
   2  -8   6   61.11    2.44
  -3   8  -6   16.09    0.86
  -3   8  -6   15.69    0.96
   3  -8   6   16.57    1.03
  -4   8  -6   12.88    0.88
   4  -8   6   12.38    0.95
  -5   8  -6   83.83    3.64
   5  -8   6   82.90    3.48
   7   7  -6    5.33    0.58
   7   7  -6    3.93    0.72
  -7  -7   6    5.83    0.63
  -7  -7   6    4.78    0.49
   6   7  -6   59.86    2.72
  -6  -7   6   63.67    2.86
  -6  -7   6   62.28    2.40
   5   7  -6   14.34    0.95
  -5  -7   6   12.39    0.74
  -5  -7   6   14.44    0.87
   4   7  -6   44.33    1.93
  -4  -7   6   42.96    1.74
  -4  -7   6   43.40    2.02
   3   7  -6   54.39    2.24
  -3  -7   6   52.58    2.09
  -3  -7   6   56.29    2.47
   2   7  -6   17.26    0.90
  -2  -7   6   15.00    0.80
   1   7  -6   73.34    2.84
  -1  -7   6   75.32    2.78
   0   7  -6    5.92    0.48
   0  -7   6    5.18    0.48
  -1   7  -6   58.15    2.28
   1  -7   6   59.49    2.31
  -2   7  -6   60.63    2.40
  -2   7  -6   61.83    2.64
   2  -7   6   65.25    2.49
  -3   7  -6    2.23    0.34
  -3   7  -6    2.72    0.33
   3  -7   6    1.83    0.36
  -4   7  -6   56.06    2.45
  -4   7  -6   53.64    2.14
   4  -7   6   54.79    2.35
  -5   7  -6   15.99    1.01
   5  -7   6   16.07    1.10
  -6   7  -6   19.37    1.20
   6  -7   6   21.78    1.41
   7   6  -6   40.49    2.00
   7   6  -6   42.19    2.13
  -7  -6   6   41.82    1.72
   6   6  -6   25.19    1.43
   6   6  -6   25.53    1.35
  -6  -6   6   27.17    1.19
   5   6  -6   25.38    1.29
   5   6  -6   24.40    1.26
  -5  -6   6   24.31    1.10
   4   6  -6   81.79    3.24
   4   6  -6   86.09    3.61
  -4  -6   6   83.03    3.05
   3   6  -6    5.39    0.53
   3   6  -6    5.58    0.45
  -3  -6   6    5.73    0.42
   2   6  -6   92.71    3.46
  -2  -6   6   93.64    3.91
  -2  -6   6   91.53    3.33
   1   6  -6   57.73    2.27
  -1  -6   6   59.34    2.21
   0   6  -6   32.02    1.38
   0  -6   6   34.22    1.38
  -1   6  -6   94.08    3.77
  -1   6  -6   95.20    3.44
   1  -6   6   92.19    3.42
  -2   6  -6    7.41    0.48
  -2   6  -6    7.10    0.50
   2  -6   6    7.13    0.54
  -3   6  -6   83.59    3.42
  -3   6  -6   82.96    3.06
   3  -6   6   80.56    3.13
  -4   6  -6   89.82    3.25
  -4   6  -6   89.42    3.67
   4  -6   6   83.36    3.38
  -5   6  -6   27.71    1.22
  -5   6  -6   26.99    1.41
   5  -6   6   29.19    1.50
  -6   6  -6   71.61    3.10
   6  -6   6   69.14    3.06
  -7   6  -6    3.83    0.54
   7  -6   6    3.85    0.73
   8   5  -6   34.32    1.72
  -8  -5   6   33.44    1.47
   7   5  -6   45.50    2.20
   7   5  -6   45.66    2.27
  -7  -5   6   49.98    1.90
   6   5  -6    4.73    0.46
   6   5  -6    5.49    0.68
  -6  -5   6    4.15    0.43
   5   5  -6  173.16    7.23
   5   5  -6  173.74    6.34
  -5  -5   6  173.96    6.04
   4   5  -6   39.86    1.83
   4   5  -6   40.38    1.72
  -4  -5   6   40.32    1.58
   3   5  -6   78.37    3.29
   3   5  -6   78.37    2.93
  -3  -5   6   74.28    2.79
   2   5  -6  143.59    5.18
   2   5  -6  146.61    5.97
  -2  -5   6  143.44    5.03
   1   5  -6    2.77    0.26
   1   5  -6    3.80    0.36
  -1  -5   6    3.35    0.33
   0   5  -6  146.02    5.78
   0   5  -6  147.41    5.26
   0  -5   6  151.02    5.17
  -1   5  -6   17.52    0.82
   1  -5   6   17.87    0.85
  -2   5  -6   23.16    1.03
   2  -5   6   23.01    1.10
   2  -5   6   25.58    1.10
  -3   5  -6  105.82    3.75
   3  -5   6  100.87    3.78
   3  -5   6  102.86    4.17
  -4   5  -6    3.24    0.34
  -4   5  -6    3.29    0.38
   4  -5   6    3.43    0.47
  -5   5  -6   86.06    3.16
  -5   5  -6   86.71    3.58
   5  -5   6   82.90    3.38
  -6   5  -6   22.69    1.18
   6  -5   6   19.00    1.30
  -7   5  -6   30.53    1.55
   7  -5   6   29.30    1.75
  -8   5  -6   56.80    2.71
   8  -5   6   59.32    2.83
   8   4  -6   61.93    2.81
  -8  -4   6   60.46    2.38
   7   4  -6    0.11    0.19
  -7  -4   6    0.60    0.21
   6   4  -6   85.13    3.71
   6   4  -6   86.36    3.45
  -6  -4   6   85.86    3.14
   5   4  -6   41.63    1.96
   5   4  -6   45.32    1.89
  -5  -4   6   43.15    1.69
   4   4  -6   52.24    2.05
   4   4  -6   50.01    2.23
  -4  -4   6   49.40    1.90
   3   4  -6  117.86    4.20
   3   4  -6  113.58    4.80
  -3  -4   6  114.65    4.04
   2   4  -6   18.99    0.91
   2   4  -6   18.78    0.87
  -2  -4   6   19.20    0.82
   1   4  -6  107.50    3.90
   1   4  -6  109.17    4.48
  -1  -4   6  112.58    4.26
  -1  -4   6  105.17    3.80
   0   4  -6  135.02    4.97
   0   4  -6  147.36    5.75
   0  -4   6  138.67    5.48
   0  -4   6  141.71    4.88
  -1   4  -6   11.20    0.57
   1  -4   6   10.94    0.56
   1  -4   6   10.79    0.57
  -2   4  -6  145.15    5.24
   2  -4   6  149.76    5.83
   2  -4   6  150.01    5.19
  -3   4  -6    1.95    0.24
   3  -4   6    2.42    0.33
   3  -4   6    2.58    0.30
  -4   4  -6  185.10    6.44
   4  -4   6  180.67    6.48
   4  -4   6  182.52    7.21
  -5   4  -6  100.12    3.70
   5  -4   6  101.33    4.16
   5  -4   6  104.60    3.93
  -6   4  -6   19.91    0.94
   6  -4   6   19.92    1.08
   6  -4   6   22.71    1.34
  -7   4  -6  100.74    4.16
   7  -4   6   97.11    4.09
  -8   4  -6    1.81    0.38
   8  -4   6    0.93    0.50
  -9  -3   6   51.23    2.12
   8   3  -6   18.88    1.08
  -8  -3   6   18.85    0.98
   7   3  -6   44.95    2.05
  -7  -3   6   42.13    1.76
   6   3  -6   85.93    3.46
   6   3  -6   89.29    3.77
  -6  -3   6   85.99    3.18
   5   3  -6    0.61    0.18
   5   3  -6    0.47    0.21
  -5  -3   6    0.58    0.16
   4   3  -6   81.05    3.53
   4   3  -6   83.14    3.12
  -4  -3   6   85.37    2.99
   3   3  -6   53.91    2.07
   3   3  -6   52.58    2.32
  -3  -3   6   55.02    1.99
   2   3  -6   81.35    2.90
   2   3  -6   78.72    3.32
  -2  -3   6   77.69    2.81
   1   3  -6  139.65    5.03
   1   3  -6  143.12    5.85
  -1  -3   6  140.94    4.92
  -1  -3   6  147.86    5.53
   0   3  -6    9.38    0.46
   0   3  -6    9.29    0.49
   0  -3   6    9.05    0.46
   0  -3   6    9.42    0.47
  -1   3  -6  126.22    5.01
  -1   3  -6  122.70    4.37
   1  -3   6  120.08    4.83
   1  -3   6  124.27    4.30
  -2   3  -6   24.30    1.04
   2  -3   6   25.20    1.12
   2  -3   6   26.66    1.07
  -3   3  -6   93.77    3.38
   3  -3   6   94.37    3.39
   3  -3   6   93.00    3.75
  -4   3  -6   35.61    1.44
   4  -3   6   36.95    1.57
   4  -3   6   35.85    1.58
  -5   3  -6   13.50    0.67
   5  -3   6   13.05    0.86
   5  -3   6   12.41    0.72
  -6   3  -6   75.01    2.77
   6  -3   6   75.52    3.14
   6  -3   6   71.96    3.10
  -7   3  -6   16.10    0.79
   7  -3   6   15.06    0.89
   7  -3   6   12.84    1.07
  -8   3  -6   53.38    2.37
   8  -3   6   49.10    2.46
  -9   3  -6   48.51    2.22
   9  -3   6   43.38    2.31
   9   2  -6   13.62    0.91
  -9  -2   6   13.46    0.86
   8   2  -6   19.01    1.09
  -8  -2   6   19.38    1.02
   7   2  -6   87.23    3.78
  -7  -2   6   86.14    3.23
   6   2  -6    4.00    0.39
  -6  -2   6    3.69    0.39
   5   2  -6   51.86    2.30
   5   2  -6   49.59    2.09
  -5  -2   6   53.14    1.98
   4   2  -6   18.59    0.88
   4   2  -6   19.09    0.94
  -4  -2   6   17.88    0.82
   3   2  -6   18.52    0.83
   3   2  -6   18.20    0.91
  -3  -2   6   19.18    0.81
   2   2  -6  197.08    7.03
   2   2  -6  202.18    8.25
  -2  -2   6  213.03    7.78
  -2  -2   6  195.21    6.87
   1   2  -6    0.12    0.08
   1   2  -6    0.41    0.12
  -1  -2   6    0.17    0.07
  -1  -2   6    0.31    0.10
   0   2  -6  221.53    8.76
   0   2  -6  212.35    7.49
   0  -2   6  216.15    8.34
   0  -2   6  214.09    7.32
  -1   2  -6   91.82    3.66
   1  -2   6   87.63    3.54
   1  -2   6   89.77    3.14
  -2   2  -6   70.24    2.54
   2  -2   6   68.52    2.79
   2  -2   6   69.79    2.50
  -3   2  -6  239.29    8.31
   3  -2   6  237.72    9.29
   3  -2   6  241.17    8.20
  -4   2  -6   11.00    0.58
   4  -2   6   11.07    0.61
   4  -2   6   12.59    0.70
  -5   2  -6   46.97    1.76
   5  -2   6   44.97    1.93
   5  -2   6   42.06    1.94
  -6   2  -6   41.74    1.65
   6  -2   6   36.67    1.90
   6  -2   6   43.76    1.83
  -7   2  -6    2.69    0.33
   7  -2   6    2.20    0.33
   7  -2   6    2.56    0.50
  -8   2  -6   65.69    2.54
   8  -2   6   63.16    2.78
   8  -2   6   64.47    2.81
   9  -2   6    5.87    0.56
   9   1  -6    2.72    0.42
  -9  -1   6    1.77    0.39
   8   1  -6   29.93    1.55
  -8  -1   6   31.15    1.46
   7   1  -6   17.52    1.00
  -7  -1   6   18.24    0.97
   6   1  -6   46.73    2.12
  -6  -1   6   45.77    1.87
   5   1  -6  122.26    5.17
  -5  -1   6  123.77    4.38
   4   1  -6    4.65    0.37
   4   1  -6    4.31    0.34
  -4  -1   6    4.57    0.36
   3   1  -6  182.52    6.40
   3   1  -6  185.05    7.54
  -3  -1   6  186.92    7.11
  -3  -1   6  178.75    6.28
   2   1  -6   10.18    0.50
   2   1  -6   10.68    0.56
  -2  -1   6   10.51    0.49
  -2  -1   6   10.15    0.50
   1   1  -6  166.16    5.91
   1   1  -6  171.17    6.96
  -1  -1   6  166.06    5.79
  -1  -1   6  176.90    6.58
   0   1  -6   64.60    2.35
   0   1  -6   66.00    2.71
   0  -1   6   64.60    2.29
   0  -1   6   64.80    2.58
  -1   1  -6   38.61    1.60
  -1   1  -6   35.47    1.43
   1  -1   6   37.30    1.55
   1  -1   6   38.64    1.39
  -2   1  -6  208.96    8.25
  -2   1  -6  202.88    7.08
   2  -1   6  200.64    7.90
   2  -1   6  201.95    6.93
  -3   1  -6   48.14    2.04
   3  -1   6   49.33    2.00
   3  -1   6   47.39    1.82
  -4   1  -6   37.72    1.50
   4  -1   6   37.89    1.58
   4  -1   6   38.52    1.62
  -5   1  -6   97.81    3.63
   5  -1   6  103.98    4.03
   5  -1   6   98.86    3.79
  -6   1  -6    0.19    0.13
   6  -1   6    0.10    0.13
   6  -1   6    0.45    0.25
  -7   1  -6   96.34    3.74
   7  -1   6  102.92    4.16
   7  -1   6  107.03    3.92
  -8   1  -6   24.62    1.14
   8  -1   6   24.16    1.23
   9  -1   6   21.55    1.16
   9   0  -6   31.97    1.64
  -9   0   6   30.24    1.58
   8   0  -6   32.60    1.67
  -8   0   6   33.84    1.61
   7   0  -6   14.04    0.87
  -7   0   6   15.45    0.90
   6   0  -6   58.78    2.63
  -6   0   6   58.20    2.33
   5   0  -6    0.35    0.16
  -5   0   6    0.11    0.15
   4   0  -6  177.72    7.20
  -4   0   6  169.56    6.92
   3   0  -6  128.96    5.26
   3   0  -6  122.52    4.42
  -3   0   6  125.90    4.41
  -3   0   6  126.89    5.04
   2   0  -6   73.16    2.98
   2   0  -6   69.58    2.50
  -2   0   6   68.96    2.82
  -2   0   6   67.19    2.48
   1   0  -6  155.35    5.43
   1   0  -6  158.16    6.43
  -1   0   6  156.85    6.09
  -1   0   6  155.08    5.33
   0   0  -6   33.84    1.49
   0   0  -6   33.20    1.28
   0   0   6   34.26    1.41
   0   0   6   33.57    1.24
  -1   0  -6   90.26    3.21
  -1   0  -6   88.69    3.74
   1   0   6   90.43    3.55
   1   0   6   89.83    3.09
  -2   0  -6   83.85    3.15
  -2   0  -6   85.41    3.69
   2   0   6   89.35    3.04
   2   0   6   91.78    3.48
  -3   0  -6    9.35    0.50
  -3   0  -6    7.67    0.54
   3   0   6    9.40    0.49
   3   0   6    9.32    0.48
  -4   0  -6  144.97    5.14
  -4   0  -6  139.56    5.96
   4   0   6  143.59    5.09
   4   0   6  149.42    5.68
  -5   0  -6   32.77    1.40
   5   0   6   36.29    1.48
   5   0   6   32.62    1.47
  -6   0  -6   84.98    3.22
   6   0   6   83.62    3.50
   6   0   6   90.45    3.24
  -7   0  -6   70.66    2.69
   7   0   6   68.45    2.90
  -8   0  -6    6.26    0.52
   8   0   6    6.89    0.52
  -9   0  -6   77.11    2.98
   9   0   6   74.99    3.23
  10   0   6    4.62    0.53
   9  -1  -6   35.25    1.82
   8  -1  -6    1.23    0.32
  -8   1   6    1.09    0.34
   7  -1  -6  103.07    4.46
  -7   1   6  102.75    3.93
   6  -1  -6   21.57    1.16
  -6   1   6   22.76    1.16
   5  -1  -6   52.42    2.32
  -5   1   6   53.12    2.10
  -5   1   6   48.46    2.31
   4  -1  -6  148.70    6.24
  -4   1   6  152.47    5.30
  -4   1   6  148.01    6.07
   3  -1  -6    0.18    0.12
   3  -1  -6    0.38    0.09
  -3   1   6    0.22    0.16
  -3   1   6    0.18    0.12
   2  -1  -6  259.05   10.14
   2  -1  -6  252.74    8.49
  -2   1   6  247.05    8.41
  -2   1   6  229.31    9.68
   1  -1  -6   30.26    1.16
   1  -1  -6   31.37    1.43
  -1   1   6   30.36    1.16
  -1   1   6   31.01    1.37
   0  -1  -6   39.42    1.80
   0  -1  -6   39.39    1.49
   0   1   6   40.35    1.67
   0   1   6   39.90    1.43
  -1  -1  -6  166.81    7.07
  -1  -1  -6  169.69    5.93
   1   1   6  173.61    5.73
   1   1   6  169.06    6.62
  -2  -1  -6   10.57    0.68
  -2  -1  -6   10.34    0.54
   2   1   6   10.23    0.44
   2   1   6    9.89    0.53
  -3  -1  -6  125.93    4.29
  -3  -1  -6  109.17    5.01
   3   1   6  122.97    4.69
   3   1   6  117.68    4.11
  -4  -1  -6   23.73    1.09
  -4  -1  -6   23.84    1.17
   4   1   6   27.29    1.04
   4   1   6   23.54    1.09
  -5  -1  -6   70.51    2.73
  -5  -1  -6   69.49    3.04
   5   1   6   69.61    2.91
   5   1   6   76.44    2.60
  -6  -1  -6  156.51    6.60
  -6  -1  -6  158.97    5.72
   6   1   6  159.05    6.25
  -7  -1  -6    6.03    0.56
   7   1   6    4.92    0.42
  -8  -1  -6  119.76    4.49
   8   1   6  120.75    4.87
  -9  -1  -6   22.44    1.15
   9   1   6   20.69    1.12
  10   1   6   25.50    1.33
   8  -2  -6   62.52    2.87
  -8   2   6   60.56    2.64
   7  -2  -6   35.09    1.74
  -7   2   6   34.18    1.66
   6  -2  -6   17.14    0.96
  -6   2   6   16.58    0.97
  -6   2   6   14.06    0.96
   5  -2  -6  112.53    4.55
  -5   2   6   93.04    4.39
  -5   2   6  111.95    3.96
   4  -2  -6    1.80    0.28
  -4   2   6    1.55    0.32
  -4   2   6    1.79    0.30
   3  -2  -6  139.56    5.74
  -3   2   6  135.81    5.57
  -3   2   6  133.53    4.83
   2  -2  -6  128.12    5.30
   2  -2  -6  124.44    4.34
  -2   2   6  127.49    5.13
  -2   2   6  121.32    4.40
   1  -2  -6   29.84    1.12
   1  -2  -6   29.92    1.45
  -1   2   6   28.72    1.14
  -1   2   6   28.10    1.39
   0  -2  -6  213.27    7.43
   0  -2  -6  211.65    8.93
   0   2   6  218.81    8.41
   0   2   6  213.27    7.23
  -1  -2  -6    1.97    0.24
  -1  -2  -6    1.70    0.33
   1   2   6    2.04    0.25
   1   2   6    2.80    0.16
  -2  -2  -6  129.27    4.63
  -2  -2  -6  126.55    5.52
   2   2   6  127.77    4.35
   2   2   6  133.29    5.10
  -3  -2  -6  129.49    5.75
   3   2   6  143.75    4.91
   3   2   6  136.73    5.37
  -4  -2  -6   24.57    1.21
   4   2   6   26.03    1.14
   4   2   6   23.97    1.11
  -5  -2  -6  180.97    7.57
   5   2   6  182.85    7.17
   5   2   6  185.61    6.57
  -6  -2  -6   12.08    0.70
   6   2   6   11.44    0.73
   6   2   6   11.73    0.65
  -7  -2  -6   80.99    3.47
   7   2   6   77.06    3.28
   7   2   6   81.80    3.14
  -8  -2  -6   78.90    3.23
   8   2   6   84.19    3.40
  -9  -2  -6   12.92    0.85
   9   2   6   13.04    0.79
 -10  -2  -6   41.92    1.92
   8  -3  -6   64.90    2.98
  -8   3   6   62.16    2.70
   7  -3  -6    3.79    0.49
  -7   3   6    3.31    0.51
  -7   3   6    3.08    0.49
   6  -3  -6   84.00    3.60
  -6   3   6   83.26    3.16
  -6   3   6   73.86    3.50
   5  -3  -6   19.93    1.05
   5  -3  -6   20.53    1.12
  -5   3   6   18.91    1.14
   4  -3  -6   50.21    2.19
   4  -3  -6   47.07    1.88
  -4   3   6   40.03    2.11
   3  -3  -6   55.57    2.25
   3  -3  -6   64.13    2.74
  -3   3   6   57.87    2.64
  -2   3   6    9.35    0.55
  -2   3   6   10.78    0.73
   1  -3  -6  102.02    3.63
   1  -3  -6   98.95    4.52
  -1   3   6   99.08    3.62
  -1   3   6  112.30    4.32
   0  -3  -6   50.01    2.48
   0  -3  -6   52.46    1.96
   0   3   6   54.21    1.88
   0   3   6   51.68    2.30
  -1  -3  -6  159.11    6.33
   1   3   6  149.18    4.96
   1   3   6  132.70    5.17
   1   3   6  148.75    5.88
  -2  -3  -6  179.31    8.09
   2   3   6  192.42    6.80
   2   3   6  207.01    7.59
  -3  -3  -6    3.98    0.41
   3   3   6    4.17    0.42
   3   3   6    4.90    0.35
  -4  -3  -6  136.05    5.76
   4   3   6  133.45    4.98
   4   3   6  139.89    5.40
  -5  -3  -6   46.61    2.08
   5   3   6   44.96    1.92
   5   3   6   44.12    1.92
  -6  -3  -6  112.79    4.70
   6   3   6  110.10    4.19
   6   3   6  107.33    4.41
  -7  -3  -6  117.78    4.82
   7   3   6  109.33    4.51
   7   3   6  109.00    4.30
  -8  -3  -6    0.73    0.23
   8   3   6   -0.09    0.23
   8   3   6    0.29    0.18
   9   3   6   70.80    2.96
 -10  -3  -6   20.01    1.19
   8  -4  -6    0.78    0.33
  -8   4   6    1.18    0.37
   7  -4  -6   38.93    2.00
   7  -4  -6   42.53    1.86
  -7   4   6   36.57    2.02
   6  -4  -6   37.63    1.63
   6  -4  -6   34.20    1.79
  -6   4   6   32.39    1.80
   5  -4  -6   19.19    0.99
   5  -4  -6   19.37    1.13
  -5   4   6   15.38    1.09
   4  -4  -6  110.51    3.97
   4  -4  -6  118.44    4.82
  -4   4   6   96.72    4.56
   3  -4  -6   14.03    0.73
   3  -4  -6   14.00    0.94
  -3   4   6   12.23    0.88
   2  -4  -6   71.91    2.73
  -2   4   6   78.05    3.28
   1  -4  -6   88.29    4.37
   1  -4  -6   95.54    3.46
  -1   4   6  110.85    4.18
   0  -4  -6   43.73    1.68
   0  -4  -6   49.59    2.32
   0   4   6   50.09    2.16
   0   4   6   43.40    1.73
  -1  -4  -6  287.88   11.21
   1   4   6  261.72    9.30
   1   4   6  254.53   10.54
  -2  -4  -6   18.28    1.12
   2   4   6   19.37    0.91
   2   4   6   20.24    1.01
  -3  -4  -6  169.66    7.35
   3   4   6  179.82    6.89
   3   4   6  173.20    6.23
  -4  -4  -6   93.81    4.06
   4   4   6   91.61    3.52
   4   4   6   93.02    3.76
  -5  -4  -6    2.22    0.35
   5   4   6    3.36    0.44
   5   4   6    2.05    0.25
  -6  -4  -6   56.34    2.50
   6   4   6   52.89    2.28
   6   4   6   52.84    2.32
  -7  -4  -6   10.94    0.76
   7   4   6   11.99    0.68
   7   4   6   10.61    0.85
  -8  -4  -6   22.59    1.26
   8   4   6   22.12    1.18
   8   4   6   22.78    1.34
  -9  -4  -6   16.39    1.10
   9   4   6   16.35    1.16
   7  -5  -6   33.83    1.57
   7  -5  -6   30.41    1.75
  -7   5   6   30.47    1.80
   6  -5  -6    4.65    0.64
   6  -5  -6    3.12    0.46
  -6   5   6    3.57    0.60
   5  -5  -6   76.40    2.85
   5  -5  -6   76.99    3.47
  -5   5   6   65.94    3.29
   4  -5  -6   39.76    1.66
   4  -5  -6   44.40    2.15
  -4   5   6   34.95    1.96
   3  -5  -6   50.20    2.49
   3  -5  -6   49.56    1.90
  -3   5   6   45.03    2.28
   2  -5  -6  111.72    5.42
   2  -5  -6  124.90    4.31
  -2   5   6  129.28    5.13
   1  -5  -6    0.34    0.13
   1  -5  -6    0.38    0.26
  -1   5   6   -0.10    0.18
   0  -5  -6  170.00    6.90
   0  -5  -6  151.33    5.46
   0   5   6  150.08    5.58
   0   5   6  167.65    6.50
  -1  -5  -6   58.98    2.79
   1   5   6   59.96    2.63
   1   5   6   57.59    2.21
  -2  -5  -6   37.39    2.00
   2   5   6   41.48    1.89
   2   5   6   41.11    1.63
  -3  -5  -6   64.54    3.15
   3   5   6   67.93    2.65
   3   5   6   73.94    2.95
  -4  -5  -6    0.58    0.24
   4   5   6    0.45    0.17
   4   5   6    0.54    0.24
  -5  -5  -6  104.18    4.61
   5   5   6  111.57    4.05
   5   5   6  101.92    4.26
  -6  -5  -6   53.86    2.46
   6   5   6   53.86    2.27
   6   5   6   47.90    2.19
  -7  -5  -6    6.86    0.63
   7   5   6    6.95    0.51
   7   5   6    9.11    0.87
  -8  -5  -6   75.20    3.43
   8   5   6   74.30    3.21
  -9  -5  -6    4.69    0.60
   9   5   6    3.93    0.70
   6  -6  -6   22.08    1.46
   6  -6  -6   23.54    1.19
  -6   6   6   20.30    1.42
   5  -6  -6   45.11    2.37
   5  -6  -6   45.27    1.85
  -5   6   6   39.93    2.22
   4  -6  -6    8.06    0.59
   4  -6  -6    7.24    0.87
  -4   6   6    8.50    0.81
   3  -6  -6   96.68    4.82
   3  -6  -6  113.03    3.82
  -3   6   6  105.29    4.55
   2  -6  -6   16.10    1.17
   2  -6  -6   15.96    0.79
  -2   6   6   17.04    1.08
   1  -6  -6  127.27    5.43
  -1   6   6  115.74    5.06
   0  -6  -6   68.79    3.28
   0   6   6   71.30    3.10
  -1  -6  -6    6.66    0.63
   1   6   6    6.52    0.61
   1   6   6    5.66    0.41
  -2  -6  -6   59.69    3.10
   2   6   6   68.13    2.94
   2   6   6   69.91    2.53
  -3  -6  -6    7.42    0.68
   3   6   6    7.15    0.61
   3   6   6    7.16    0.54
  -4  -6  -6   49.76    2.48
   4   6   6   54.10    2.13
   4   6   6   49.04    2.25
  -5  -6  -6   48.64    2.34
   5   6   6   47.80    2.10
   5   6   6   45.86    2.04
  -6  -6  -6   14.26    0.98
   6   6   6   17.76    1.03
   6   6   6   13.75    0.81
  -7  -6  -6   83.13    3.83
   7   6   6   85.49    3.46
  -8  -6  -6    4.36    0.58
   8   6   6    4.24    0.67
  -9  -6  -6   48.88    2.50
   9   6   6   51.40    2.47
   6  -7  -6   51.93    2.84
   6  -7  -6   57.45    2.30
  -6   7   6   52.45    2.76
   5  -7  -6    1.68    0.55
   5  -7  -6    2.35    0.39
  -5   7   6    3.55    0.64
   4  -7  -6   68.02    3.58
   4  -7  -6   77.31    2.80
  -4   7   6   71.90    3.39
   3  -7  -6   13.23    1.12
   3  -7  -6   13.94    0.76
  -3   7   6   12.84    1.02
   2  -7  -6   48.62    2.45
  -2   7   6   42.78    2.24
   1  -7  -6   85.85    3.95
  -1   7   6   83.15    3.70
   0  -7  -6    0.80    0.32
   0   7   6    0.50    0.27
  -1  -7  -6   90.08    4.26
   1   7   6   96.91    4.02
  -2  -7  -6   12.50    0.97
   2   7   6   12.19    0.69
   2   7   6   11.33    0.85
  -3  -7  -6   11.49    0.92
   3   7   6   10.48    0.81
   3   7   6   11.40    0.70
  -4  -7  -6   83.10    3.86
   4   7   6   82.07    3.56
   4   7   6   83.66    3.22
  -5  -7  -6   -0.09    0.23
   5   7   6   -0.27    0.21
   5   7   6    0.32    0.23
  -6  -7  -6   98.25    4.51
   6   7   6  101.42    3.92
  -7  -7  -6   31.21    1.78
   7   7   6   32.96    1.68
  -8  -7  -6   30.97    1.78
   8   7   6   31.29    1.71
   5  -8  -6   31.42    2.13
   5  -8  -6   39.87    1.68
  -5   8   6   37.76    2.24
   4  -8  -6   31.53    1.98
  -4   8   6   32.13    1.89
   3  -8  -6    5.54    0.81
  -3   8   6    6.22    0.77
   2  -8  -6   77.29    3.59
  -2   8   6   69.67    3.36
   1  -8  -6    1.16    0.38
  -1   8   6    1.24    0.39
   0  -8  -6   78.67    3.68
   0   8   6   77.20    3.45
  -1  -8  -6   65.96    3.21
   1   8   6   65.92    2.97
  -2  -8  -6   27.05    1.67
   2   8   6   26.62    1.26
   2   8   6   29.53    1.52
  -3  -8  -6  120.51    5.66
   3   8   6  128.57    4.64
   3   8   6  126.97    5.27
  -4  -8  -6    9.10    0.88
   4   8   6   11.40    0.77
   4   8   6    8.09    0.76
  -5  -8  -6   64.30    3.19
   5   8   6   65.58    2.69
  -6  -8  -6   61.82    3.13
   6   8   6   65.61    2.72
  -7  -8  -6    7.39    0.86
   7   8   6    8.63    0.84
   3  -9  -6   52.35    2.80
  -3   9   6   52.67    2.69
   2  -9  -6   19.67    1.36
  -2   9   6   18.63    1.32
   1  -9  -6   40.80    2.16
  -1   9   6   37.25    2.03
   0  -9  -6   79.58    3.80
   0   9   6   80.76    3.58
  -1  -9  -6    1.51    0.43
   1   9   6    1.77    0.42
  -2  -9  -6   55.02    2.96
   2   9   6   61.16    2.72
  -3  -9  -6   24.47    1.69
   3   9   6   27.92    1.34
   3   9   6   28.14    1.53
  -4  -9  -6   36.14    2.19
   4   9   6   40.99    1.79
  -5  -9  -6   72.52    3.66
   5   9   6   76.02    3.05
  -6  -9  -6    3.14    0.64
   6   9   6    2.91    0.52
   2 -10  -6    3.22    0.64
  -2  10   6    3.64    0.70
   1 -10  -6   65.52    3.20
  -1  10   6   61.64    3.03
   0 -10  -6   12.14    1.06
   0  10   6   13.02    1.01
  -1 -10  -6   45.35    2.42
   1  10   6   42.20    2.17
  -2 -10  -6   55.13    3.00
   2  10   6   59.66    2.71
  -3 -10  -6    3.50    0.72
  -4 -10  -6   59.11    3.29
   4  10   6   68.16    2.70
   5  10   6    7.53    0.76
  -4  -9   7   31.96    1.44
   3   9  -7   61.48    2.57
  -3  -9   7   59.09    2.39
   2   9  -7    0.80    0.32
  -2  -9   7    0.54    0.26
   1   9  -7   45.39    1.93
  -1  -9   7   41.78    1.85
   0   9  -7   13.12    0.85
   0  -9   7   13.43    0.86
  -1   9  -7   24.32    1.24
   1  -9   7   26.41    1.31
  -2   9  -7   40.67    1.75
   2  -9   7   39.91    1.86
  -3   9  -7    1.54    0.33
   5   8  -7   22.06    1.28
  -5  -8   7   19.93    1.05
   4   8  -7   51.80    2.25
  -4  -8   7   50.11    2.04
   3   8  -7    0.64    0.28
  -3  -8   7    0.34    0.22
   2   8  -7   77.41    3.04
  -2  -8   7   76.75    2.92
   1   8  -7   38.22    1.67
  -1  -8   7   37.62    1.62
   0   8  -7   14.22    0.85
   0  -8   7   15.17    0.87
  -1   8  -7   76.63    2.98
   1  -8   7   78.31    3.00
  -2   8  -7    0.22    0.21
   2  -8   7    0.24    0.24
  -3   8  -7   42.92    1.77
   3  -8   7   40.46    1.91
  -4   8  -7   10.92    0.82
   4  -8   7   11.70    0.93
   6   7  -7    3.71    0.48
   6   7  -7    3.57    0.62
  -6  -7   7    4.27    0.47
   5   7  -7   63.59    2.81
   5   7  -7   57.95    2.61
  -5  -7   7   63.86    2.42
   4   7  -7   24.91    1.25
  -4  -7   7   21.89    1.07
  -4  -7   7   22.60    1.21
   3   7  -7   32.16    1.52
  -3  -7   7   33.47    1.41
   2   7  -7   22.48    1.10
  -2  -7   7   20.73    1.01
   1   7  -7    0.78    0.23
  -1  -7   7    0.50    0.21
   0   7  -7   92.26    3.50
   0  -7   7   95.14    3.46
  -1   7  -7   30.49    1.37
   1  -7   7   32.23    1.42
  -2   7  -7   53.83    2.16
  -2   7  -7   55.63    2.43
   2  -7   7   53.85    2.22
  -3   7  -7   62.92    2.49
  -3   7  -7   63.18    2.76
   3  -7   7   67.54    2.63
  -4   7  -7    0.44    0.23
  -4   7  -7    0.22    0.24
   4  -7   7    0.38    0.30
  -5   7  -7   81.59    3.49
   5  -7   7   79.30    3.33
  -6   7  -7   14.07    0.99
   6  -7   7   14.43    1.17
   7   6  -7    2.38    0.60
   7   6  -7    2.11    0.37
  -7  -6   7    2.29    0.36
   6   6  -7   51.27    2.32
   6   6  -7   50.57    2.36
  -6  -6   7   50.83    2.03
   5   6  -7   49.92    2.26
   5   6  -7   47.65    2.15
  -5  -6   7   49.70    1.95
   4   6  -7    9.62    0.63
   4   6  -7    9.43    0.69
  -4  -6   7    9.23    0.58
   3   6  -7  148.15    5.87
   3   6  -7  137.64    5.13
  -3  -6   7  134.82    4.94
   2   6  -7    0.00    0.18
  -2  -6   7    0.26    0.16
   1   6  -7  102.05    3.78
  -1  -6   7  102.57    3.68
   0   6  -7   65.77    2.55
   0  -6   7   67.67    2.52
  -1   6  -7   12.25    0.69
   1  -6   7   12.97    0.72
  -2   6  -7   91.03    3.71
  -2   6  -7   92.40    3.38
   2  -6   7   90.24    3.40
  -3   6  -7    2.63    0.33
  -3   6  -7    2.63    0.36
   3  -6   7    2.46    0.39
  -4   6  -7   52.32    2.03
  -4   6  -7   49.86    2.26
   4  -6   7   50.81    2.19
  -5   6  -7   65.24    2.46
  -5   6  -7   60.80    2.75
   5  -6   7   62.58    2.69
  -6   6  -7    3.17    0.46
   6  -6   7    3.67    0.66
  -7   6  -7   43.69    2.27
   7  -6   7   46.19    2.36
  -8  -5   7    6.99    0.57
   7   5  -7   39.12    1.90
  -7  -5   7   39.11    1.64
   6   5  -7   77.34    3.43
   6   5  -7   80.16    3.24
  -6  -5   7   76.87    2.90
   5   5  -7    0.42    0.21
   5   5  -7    0.38    0.25
  -5  -5   7    0.18    0.17
   4   5  -7   97.38    4.09
   4   5  -7   95.48    3.64
  -4  -5   7   94.89    3.46
   3   5  -7   16.03    0.86
   3   5  -7   16.14    0.85
  -3  -5   7   16.21    0.78
   2   5  -7   19.66    0.95
   2   5  -7   19.47    0.96
  -2  -5   7   19.87    0.90
   1   5  -7  135.07    4.82
  -1  -5   7  133.21    4.70
   0   5  -7    1.94    0.27
   0  -5   7    2.06    0.27
  -1   5  -7  129.70    4.76
   1  -5   7  134.92    5.26
   1  -5   7  134.67    4.71
  -2   5  -7   62.57    2.37
   2  -5   7   61.44    2.58
   2  -5   7   63.07    2.39
  -3   5  -7   23.17    1.06
   3  -5   7   24.24    1.15
   3  -5   7   23.64    1.14
  -4   5  -7  156.07    5.55
   4  -5   7  154.12    5.62
   4  -5   7  155.68    6.21
  -5   5  -7    0.67    0.20
  -5   5  -7    0.75    0.27
   5  -5   7    0.67    0.31
  -6   5  -7   46.22    2.14
  -6   5  -7   46.80    1.89
   6  -5   7   46.81    2.24
  -7   5  -7   17.02    1.05
   7  -5   7   18.37    1.34
   8   4  -7   13.11    0.87
  -8  -4   7   12.11    0.76
   7   4  -7   40.89    1.99
  -7  -4   7   42.57    1.73
   6   4  -7    1.82    0.31
   6   4  -7    1.56    0.37
  -6  -4   7    1.33    0.27
   5   4  -7   72.10    3.20
   5   4  -7   76.78    2.94
  -5  -4   7   71.83    2.71
   4   4  -7   77.03    3.34
   4   4  -7   78.38    3.00
  -4  -4   7   77.58    2.83
   3   4  -7   41.57    1.65
   3   4  -7   39.30    1.78
  -3  -4   7   38.13    1.54
   2   4  -7  170.29    6.98
   2   4  -7  171.90    6.02
  -2  -4   7  167.04    5.86
   1   4  -7   30.91    1.34
   1   4  -7   30.47    1.26
  -1  -4   7   29.02    1.21
   0   4  -7  106.54    4.00
   0  -4   7  115.32    4.38
   0  -4   7  111.77    3.92
  -1   4  -7   51.16    1.98
   1  -4   7   52.02    1.96
   1  -4   7   51.72    2.12
  -2   4  -7   39.34    1.57
   2  -4   7   38.71    1.68
   2  -4   7   39.79    1.59
  -3   4  -7   94.63    3.47
   3  -4   7   95.70    3.84
   3  -4   7   94.58    3.49
  -4   4  -7    9.78    0.56
   4  -4   7    9.13    0.67
   4  -4   7    8.98    0.59
  -5   4  -7   95.41    3.48
   5  -4   7   92.68    3.88
   5  -4   7   95.24    3.68
  -6   4  -7   50.37    1.97
   6  -4   7   50.07    2.33
   6  -4   7   47.58    2.19
  -7   4  -7   10.79    0.69
   7  -4   7    8.41    0.68
   7  -4   7   10.11    1.06
  -8   4  -7   53.89    2.49
   8  -4   7   54.96    2.70
   8   3  -7   52.24    2.47
  -8  -3   7   53.48    2.16
   7   3  -7   11.80    0.77
  -7  -3   7   11.47    0.71
   6   3  -7   33.15    1.57
  -6  -3   7   30.82    1.36
   5   3  -7   64.22    2.58
   5   3  -7   65.31    2.83
  -5  -3   7   63.25    2.41
   4   3  -7    2.22    0.32
   4   3  -7    2.42    0.30
  -4  -3   7    2.28    0.28
   3   3  -7   65.88    2.45
   3   3  -7   62.62    2.75
  -3  -3   7   63.88    2.35
   2   3  -7   48.05    2.17
   2   3  -7   51.79    1.95
  -2  -3   7   51.41    1.88
   1   3  -7   72.11    3.04
   1   3  -7   70.28    2.67
  -1  -3   7   73.11    2.61
  -1  -3   7   74.93    2.87
   0   3  -7  140.78    5.59
   0   3  -7  135.17    4.84
   0  -3   7  137.89    5.33
   0  -3   7  132.68    4.73
  -1   3  -7    0.69    0.16
   1  -3   7    0.36    0.12
   1  -3   7    0.48    0.14
  -2   3  -7   87.84    3.16
   2  -3   7   84.80    3.46
   2  -3   7   87.42    3.13
  -3   3  -7   10.59    0.57
   3  -3   7   10.67    0.62
   3  -3   7   10.59    0.59
  -4   3  -7   63.21    2.38
   4  -3   7   62.71    2.48
   4  -3   7   62.83    2.62
  -5   3  -7   31.86    1.34
   5  -3   7   33.09    1.57
   5  -3   7   31.50    1.47
  -6   3  -7    0.83    0.21
   6  -3   7    0.94    0.23
   6  -3   7    1.50    0.44
  -7   3  -7   86.57    3.12
   7  -3   7   77.31    3.49
   7  -3   7   82.99    3.48
   8  -3   7   26.46    1.68
   8  -3   7   28.93    1.44
   8   2  -7   26.83    1.46
  -8  -2   7   29.15    1.35
   7   2  -7   12.92    0.82
  -7  -2   7   13.03    0.77
   6   2  -7  107.72    4.53
  -6  -2   7  103.63    3.84
   5   2  -7    1.65    0.27
   5   2  -7    1.34    0.29
  -5  -2   7    2.65    0.32
   4   2  -7  100.11    4.25
   4   2  -7  102.22    3.71
  -4  -2   7   99.10    3.58
   3   2  -7   56.99    2.15
   3   2  -7   55.57    2.44
  -3  -2   7   55.88    2.08
   2   2  -7   35.59    1.42
   2   2  -7   35.40    1.58
  -2  -2   7   34.20    1.37
  -2  -2   7   37.11    1.45
   1   2  -7  190.98    6.88
   1   2  -7  197.78    8.06
  -1  -2   7  193.51    6.73
  -1  -2   7  206.96    7.63
   0   2  -7    4.90    0.34
   0   2  -7    5.23    0.30
   0  -2   7    4.78    0.32
   0  -2   7    4.78    0.30
  -1   2  -7   80.26    3.18
  -1   2  -7   75.15    2.82
   1  -2   7   76.76    3.08
   1  -2   7   77.15    2.75
  -2   2  -7  124.89    4.44
   2  -2   7  125.83    4.36
   2  -2   7  123.83    4.91
  -3   2  -7   13.08    0.66
   3  -2   7   13.98    0.69
   3  -2   7   13.85    0.70
  -4   2  -7  159.16    5.74
   4  -2   7  165.87    5.77
   4  -2   7  162.20    6.39
  -5   2  -7   12.07    0.65
   5  -2   7   13.83    0.87
   5  -2   7   12.23    0.69
  -6   2  -7   43.97    1.69
   6  -2   7   36.66    1.94
   6  -2   7   42.26    1.84
  -7   2  -7   57.66    2.19
   7  -2   7   53.87    2.48
   7  -2   7   53.55    2.39
  -8   2  -7   17.48    0.91
   8  -2   7   16.96    0.98
   9  -2   7   68.67    3.01
   8   1  -7    2.28    0.39
  -8  -1   7    1.15    0.33
   7   1  -7   84.16    3.78
  -7  -1   7   88.64    3.31
   6   1  -7   37.25    1.79
  -6  -1   7   37.97    1.61
   5   1  -7   46.18    2.09
  -5  -1   7   44.96    1.82
   4   1  -7   42.93    1.76
   4   1  -7   45.97    2.02
  -4  -1   7   45.05    1.74
   3   1  -7    1.18    0.21
   3   1  -7    1.22    0.19
  -3  -1   7    1.19    0.16
  -3  -1   7    1.33    0.20
   2   1  -7   80.58    2.94
   2   1  -7   81.16    3.43
  -2  -1   7   79.40    2.88
  -2  -1   7   83.23    3.21
   1   1  -7   25.49    1.05
   1   1  -7   25.67    1.18
  -1  -1   7   26.46    1.11
  -1  -1   7   26.26    1.03
   0   1  -7   97.85    3.57
   0   1  -7   99.98    4.14
   0  -1   7  102.10    3.94
   0  -1   7  100.21    3.48
  -1   1  -7  149.03    5.29
  -1   1  -7  152.27    6.15
   1  -1   7  150.24    5.16
   1  -1   7  150.62    5.88
  -2   1  -7    1.62    0.21
  -2   1  -7    1.96    0.16
   2  -1   7    1.75    0.21
   2  -1   7    1.63    0.20
  -3   1  -7  246.40    8.62
   3  -1   7  245.69    8.47
   3  -1   7  251.27    9.62
  -4   1  -7   46.67    1.83
   4  -1   7   47.64    1.98
   4  -1   7   46.22    1.89
  -5   1  -7   47.05    1.89
   5  -1   7   48.48    2.05
   5  -1   7   49.51    2.06
  -6   1  -7   77.15    2.98
   6  -1   7   82.12    3.19
   6  -1   7   79.73    3.28
  -7   1  -7    1.37    0.26
   7  -1   7    1.41    0.26
  -8   1  -7   50.71    2.03
   8  -1   7   47.80    2.18
  -9   1  -7   33.73    1.52
   9  -1   7   33.01    1.63
   8   0  -7   45.48    2.23
  -8   0   7   47.76    2.09
   7   0  -7   41.49    2.02
  -7   0   7   43.30    1.89
   6   0  -7   14.69    0.87
  -6   0   7   13.88    0.85
   5   0  -7  108.17    4.69
  -5   0   7  112.54    4.03
   4   0  -7    4.82    0.41
  -4   0   7    5.59    0.42
  -4   0   7    4.93    0.45
   3   0  -7  128.06    5.41
   3   0  -7  128.87    4.58
  -3   0   7  133.37    5.16
  -3   0   7  127.79    4.54
   2   0  -7  139.89    5.89
   2   0  -7  143.21    4.98
  -2   0   7  143.70    5.58
  -2   0   7  140.90    4.91
   1   0  -7    0.79    0.14
   1   0  -7    0.64    0.14
  -1   0   7    0.65    0.13
  -1   0   7    1.04    0.16
   0   0  -7  112.25    4.63
   0   0  -7  110.60    3.94
   0   0   7  111.76    4.38
   0   0   7  110.01    3.83
  -1   0  -7   43.80    1.92
  -1   0  -7   43.78    1.68
   1   0   7   43.88    1.82
   1   0   7   43.84    1.60
  -2   0  -7  170.11    6.97
  -2   0  -7  163.70    5.93
   2   0   7  170.86    6.60
   2   0   7  171.32    5.77
  -3   0  -7  162.27    5.59
  -3   0  -7  143.98    6.55
   3   0   7  159.91    5.45
   3   0   7  165.16    6.19
  -4   0  -7    7.94    0.49
   4   0   7    8.19    0.52
   4   0   7    7.13    0.46
  -5   0  -7  139.11    5.18
   5   0   7  140.51    5.71
   5   0   7  154.42    5.21
  -6   0  -7   12.57    0.71
   6   0   7   12.60    0.71
  -7   0  -7   64.28    2.59
   7   0   7   67.89    2.80
  -8   0  -7   37.37    1.64
   8   0   7   37.15    1.72
  -9   0  -7    3.20    0.44
   9   0   7    2.84    0.39
   8  -1  -7   54.75    2.65
  -8   1   7   58.88    2.48
   7  -1  -7    0.15    0.20
  -7   1   7    0.49    0.28
   6  -1  -7   57.46    2.66
  -6   1   7   59.93    2.42
   5  -1  -7   23.84    1.24
  -5   1   7   24.28    1.18
   4  -1  -7   22.87    1.17
  -4   1   7   23.51    1.23
  -4   1   7   22.94    1.09
   3  -1  -7  185.32    7.63
  -3   1   7  184.64    6.39
  -3   1   7  181.47    7.34
   2  -1  -7    6.92    0.38
   2  -1  -7    6.99    0.49
  -2   1   7    7.53    0.51
  -2   1   7    7.42    0.44
   1  -1  -7  256.14   10.35
   1  -1  -7  250.23    8.70
  -1   1   7  253.27    9.82
  -1   1   7  248.19    8.53
   0  -1  -7   67.71    2.53
   0  -1  -7   71.18    3.03
   0   1   7   69.78    2.83
   0   1   7   69.61    2.44
  -1  -1  -7   99.55    3.59
  -1  -1  -7   98.23    4.27
   1   1   7  100.02    3.97
   1   1   7  101.39    3.43
  -2  -1  -7  200.84    8.92
  -2  -1  -7  224.13    7.53
   2   1   7  215.42    7.26
   2   1   7  218.85    8.36
  -3  -1  -7    5.26    0.39
  -3  -1  -7    4.36    0.43
   3   1   7    4.98    0.31
   3   1   7    4.61    0.34
  -4  -1  -7  114.27    4.09
  -4  -1  -7  102.73    4.72
   4   1   7  116.84    4.44
  -5  -1  -7   32.51    1.41
  -5  -1  -7   30.31    1.49
   5   1   7   32.55    1.42
  -6  -1  -7   46.81    1.96
   6   1   7   46.96    2.02
  -7  -1  -7  107.44    4.08
   7   1   7  108.84    4.39
  -8  -1  -7    0.52    0.22
   8   1   7    0.60    0.21
  -9  -1  -7   48.91    2.08
   9   1   7   45.80    2.12
   8  -2  -7    3.51    0.53
  -8   2   7    3.06    0.54
   7  -2  -7   71.26    3.22
  -7   2   7   69.72    2.90
   6  -2  -7   29.94    1.54
  -6   2   7   29.43    1.46
   5  -2  -7   42.09    2.00
  -5   2   7   42.66    2.02
  -5   2   7   41.07    1.82
   4  -2  -7  144.10    6.05
  -4   2   7  147.21    5.87
  -4   2   7  137.30    5.12
   3  -2  -7   10.00    0.65
  -3   2   7    9.70    0.71
  -3   2   7    9.37    0.60
   2  -2  -7  155.71    6.42
  -2   2   7  149.79    6.16
  -2   2   7  151.36    5.31
   1  -2  -7  106.91    3.77
   1  -2  -7  108.48    4.60
  -1   2   7  104.42    3.73
  -1   2   7  107.06    4.37
   0  -2  -7   11.77    0.78
   0  -2  -7   11.86    0.59
   0   2   7   12.94    0.70
   0   2   7   12.00    0.54
  -1  -2  -7  190.75    6.64
  -1  -2  -7  174.10    7.93
   1   2   7  192.65    6.37
   1   2   7  197.06    7.42
  -2  -2  -7   25.31    1.31
  -2  -2  -7   23.65    1.06
   2   2   7   23.55    1.08
   2   2   7   22.37    0.87
  -3  -2  -7   98.43    3.57
  -3  -2  -7   86.39    4.16
   3   2   7  102.45    3.85
  -4  -2  -7   97.25    4.37
  -4  -2  -7  102.79    3.80
   4   2   7  104.71    4.07
  -5  -2  -7   10.76    0.68
  -5  -2  -7   10.51    0.71
   5   2   7   12.04    0.64
  -6  -2  -7  127.28    4.95
  -6  -2  -7  135.57    5.63
   6   2   7  136.84    5.33
  -7  -2  -7    7.60    0.71
   7   2   7    6.71    0.50
  -8  -2  -7   54.33    2.40
   8   2   7   59.08    2.47
  -9  -2  -7   54.57    2.38
   9   2   7   55.84    2.44
   8  -3  -7   27.89    1.58
  -8   3   7   28.31    1.53
   7  -3  -7   52.40    2.51
  -7   3   7   51.26    2.26
   6  -3  -7    0.31    0.24
  -6   3   7   -0.10    0.23
  -6   3   7    0.48    0.26
   5  -3  -7   60.89    2.74
  -5   3   7   55.94    2.66
  -5   3   7   58.09    2.37
   4  -3  -7   26.88    1.41
  -4   3   7   26.09    1.40
  -4   3   7   24.55    1.21
   3  -3  -7   47.40    2.21
  -3   3   7   46.79    2.16
  -3   3   7   42.62    1.83
   2  -3  -7  118.20    5.11
  -2   3   7  123.92    4.90
  -2   3   7  110.02    4.16
   1  -3  -7    0.26    0.11
   1  -3  -7    0.03    0.16
  -1   3   7    0.19    0.19
  -1   3   7    0.32    0.13
   0  -3  -7  234.35    8.01
   0  -3  -7  215.30    9.66
   0   3   7  234.31    7.78
   0   3   7  235.27    9.11
  -1  -3  -7   54.74    2.23
  -1  -3  -7   61.35    2.78
   1   3   7   57.36    2.04
   1   3   7   61.53    2.52
  -2  -3  -7   64.51    2.96
  -2  -3  -7   60.89    2.46
   2   3   7   66.27    2.68
  -3  -3  -7   80.13    4.07
   3   3   7  101.07    3.78
   3   3   7   97.92    3.49
  -4  -3  -7    2.16    0.35
   4   3   7    2.28    0.27
   4   3   7    2.42    0.35
  -5  -3  -7  118.28    5.13
   5   3   7  119.85    4.80
   5   3   7  121.95    4.50
  -6  -3  -7   31.54    1.55
   6   3   7   29.43    1.41
   6   3   7   32.40    1.51
  -7  -3  -7   32.29    1.57
   7   3   7   30.38    1.43
   7   3   7   30.14    1.53
   8   3   7   82.03    3.51
   8   3   7   88.08    3.45
  -9  -3  -7    1.06    0.33
   9   3   7    0.98    0.27
   7  -4  -7    2.22    0.46
  -7   4   7    1.79    0.41
  -7   4   7    1.58    0.44
   6  -4  -7   63.71    2.94
  -6   4   7   62.98    2.52
  -6   4   7   57.09    2.85
   5  -4  -7   76.45    3.39
  -5   4   7   73.83    2.83
  -5   4   7   66.52    3.23
   4  -4  -7    9.81    0.78
   4  -4  -7    9.14    0.64
  -4   4   7    8.55    0.73
   3  -4  -7  128.93    5.48
   3  -4  -7  119.62    4.41
  -3   4   7  122.19    5.16
   2  -4  -7   16.07    1.13
  -2   4   7   18.72    1.08
  -2   4   7   17.59    0.84
   1  -4  -7   21.61    1.41
  -1   4   7   26.31    1.34
  -1   4   7   25.54    1.05
   0  -4  -7  111.09    4.00
   0  -4  -7  115.59    4.97
   0   4   7  111.50    4.64
   0   4   7  107.32    3.86
  -1  -4  -7   14.95    0.98
   1   4   7   14.66    0.89
   1   4   7   15.32    0.74
  -2  -4  -7  175.88    7.56
   2   4   7  185.42    7.10
   2   4   7  171.32    6.29
  -3  -4  -7   25.95    1.48
   3   4   7   29.41    1.32
   3   4   7   26.99    1.24
  -4  -4  -7   23.69    1.34
   4   4   7   24.72    1.17
   4   4   7   25.20    1.20
  -5  -4  -7   76.79    3.39
   5   4   7   73.45    3.10
   5   4   7   75.08    2.99
  -6  -4  -7    0.58    0.23
   6   4   7    0.50    0.27
   6   4   7    0.86    0.21
  -7  -4  -7   44.83    2.13
   7   4   7   43.63    2.03
   7   4   7   42.38    1.92
  -8  -4  -7   16.56    1.01
   8   4   7   14.31    0.85
   8   4   7   15.34    1.08
   9   4   7   28.25    1.58
   7  -5  -7   11.83    0.98
  -7   5   7   12.52    0.87
  -7   5   7    9.47    1.00
   6  -5  -7   52.24    2.63
   6  -5  -7   52.79    2.17
  -6   5   7   48.90    2.53
   5  -5  -7    0.06    0.20
   5  -5  -7   -0.10    0.26
  -5   5   7   -0.01    0.27
   4  -5  -7   73.24    3.44
   4  -5  -7   70.25    2.70
  -4   5   7   68.80    3.20
   3  -5  -7   33.35    1.91
   3  -5  -7   34.13    1.43
  -3   5   7   33.94    1.76
   2  -5  -7   25.93    1.64
   2  -5  -7   27.76    1.19
  -2   5   7   30.29    1.53
   1  -5  -7   72.78    2.72
   1  -5  -7   77.16    3.59
  -1   5   7   77.34    3.33
   0  -5  -7    0.27    0.23
   0   5   7    0.29    0.22
  -1  -5  -7   86.84    3.81
   1   5   7   80.43    3.04
   1   5   7   81.83    3.57
  -2  -5  -7   61.12    2.95
   2   5   7   60.65    2.39
   2   5   7   65.21    2.77
  -3  -5  -7   54.34    2.91
   3   5   7   68.60    2.74
   3   5   7   63.38    2.44
  -4  -5  -7  126.00    5.81
   4   5   7  139.82    5.42
   4   5   7  135.81    4.93
  -5  -5  -7    1.61    0.35
   5   5   7    1.65    0.27
   5   5   7    1.53    0.35
  -6  -5  -7  107.91    4.68
   6   5   7  109.69    4.13
   6   5   7  100.61    4.29
  -7  -5  -7   77.37    3.46
   7   5   7   72.71    3.13
   7   5   7   75.33    3.14
  -8  -5  -7   15.54    1.04
   8   5   7   13.59    1.06
  -9  -5  -7   39.80    2.06
   9   5   7   37.90    2.02
   6  -6  -7    4.03    0.73
   6  -6  -7    5.78    0.59
  -6   6   7    4.56    0.69
   5  -6  -7   56.13    2.19
   5  -6  -7   51.84    2.80
  -5   6   7   51.65    2.63
   4  -6  -7   48.51    1.90
   4  -6  -7   44.52    2.49
  -4   6   7   44.35    2.30
   3  -6  -7    8.60    0.58
   3  -6  -7    8.65    1.02
  -3   6   7    9.24    0.82
   2  -6  -7   64.36    3.24
  -2   6   7   66.24    2.98
   1  -6  -7   20.52    1.31
  -1   6   7   18.46    1.16
   0  -6  -7   60.79    3.00
   0   6   7   64.02    2.83
  -1  -6  -7   76.88    3.65
   1   6   7   84.03    3.47
   1   6   7   76.38    2.91
  -2  -6  -7    1.03    0.34
   2   6   7    0.73    0.29
   2   6   7    1.01    0.23
  -3  -6  -7   78.59    3.91
   3   6   7   90.54    3.23
   3   6   7   86.30    3.67
  -4  -6  -7   10.93    0.88
   4   6   7   11.69    0.74
   4   6   7   11.42    0.78
  -5  -6  -7   94.65    4.30
   5   6   7   95.00    3.66
   5   6   7   94.48    3.94
  -6  -6  -7   37.46    1.97
   6   6   7   37.95    1.77
   6   6   7   36.38    1.71
  -7  -6  -7    9.05    0.80
   7   6   7    9.21    0.88
  -8  -6  -7   69.35    3.42
   8   6   7   76.56    3.18
  -9  -6  -7    8.30    0.82
   5  -7  -7   39.69    1.68
   5  -7  -7   34.14    2.19
  -5   7   7   38.01    2.10
   4  -7  -7    0.88    0.26
   4  -7  -7    0.60    0.45
  -4   7   7    1.15    0.41
   3  -7  -7   61.83    3.20
  -3   7   7   62.91    2.96
   2  -7  -7   20.76    1.41
  -2   7   7   19.68    1.26
   1  -7  -7   54.98    2.76
  -1   7   7   54.83    2.58
   0  -7  -7  138.04    6.07
   0   7   7  137.04    5.71
  -1  -7  -7    4.32    0.64
   1   7   7    3.98    0.54
  -2  -7  -7  102.34    4.81
   2   7   7  105.85    3.90
   2   7   7  110.40    4.54
  -3  -7  -7   37.70    2.13
   3   7   7   42.69    1.70
   3   7   7   37.77    1.95
  -4  -7  -7   27.64    1.73
   4   7   7   32.61    1.43
   4   7   7   30.13    1.58
  -5  -7  -7  120.60    5.37
   5   7   7  116.41    4.94
   5   7   7  120.72    4.50
  -6  -7  -7    0.39    0.31
   6   7   7    0.69    0.32
  -7  -7  -7   70.04    3.51
   7   7   7   78.38    3.13
  -8  -7  -7   18.92    1.32
   8   7   7   20.32    1.31
   4  -8  -7   39.68    2.36
  -4   8   7   40.90    2.21
   3  -8  -7   48.83    2.64
  -3   8   7   47.12    2.44
   2  -8  -7    3.73    0.67
  -2   8   7    3.64    0.58
   1  -8  -7  106.02    4.70
  -1   8   7   97.78    4.40
   0  -8  -7    9.02    0.86
   0   8   7   10.13    0.83
  -1  -8  -7   83.12    3.88
   1   8   7   81.17    3.60
  -2  -8  -7   58.76    3.05
   2   8   7   63.60    2.83
  -3  -8  -7    5.56    0.79
   3   8   7    4.20    0.60
   3   8   7    6.09    0.55
  -4  -8  -7   74.68    3.79
   4   8   7   73.11    3.47
   4   8   7   87.46    3.12
  -5  -8  -7    8.09    0.95
   5   8   7    8.12    0.73
   5   8   7    6.75    0.75
  -6  -8  -7   37.50    2.14
   6   8   7   38.76    1.82
  -7  -8  -7   44.76    2.47
   7   8   7   46.82    2.16
   3  -9  -7    0.24    0.40
  -3   9   7   -0.04    0.37
   2  -9  -7   71.64    3.48
  -2   9   7   68.22    3.28
   1  -9  -7   25.66    1.61
  -1   9   7   24.98    1.52
   0  -9  -7   17.69    1.24
   0   9   7   14.90    1.09
  -1  -9  -7   70.65    3.41
   1   9   7   67.70    3.13
  -2  -9  -7    0.23    0.33
   2   9   7    0.02    0.32
  -3  -9  -7   56.64    3.06
   3   9   7   61.84    2.81
  -4  -9  -7   30.56    1.94
   4   9   7   33.63    1.53
   4   9   7   29.39    1.72
  -5  -9  -7    9.80    1.11
   5   9   7   11.55    0.87
  -6  -9  -7   63.39    3.34
   6   9   7   66.86    2.77
   1 -10  -7    0.50    0.36
  -1  10   7    0.48    0.37
   0 -10  -7   55.14    2.80
   0  10   7   51.61    2.58
  -1 -10  -7    8.56    1.02
   1  10   7   10.75    0.90
  -2 -10  -7   22.96    1.57
   2  10   7   21.74    1.36
  -3 -10  -7   53.03    2.90
   3  10   7   53.53    2.65
  -4 -10  -7    2.26    0.67
   2   9  -8   56.72    2.46
  -2  -9   8   58.77    2.35
   1   9  -8    5.41    0.59
  -1  -9   8    5.08    0.55
   0   9  -8   52.21    2.18
   0  -9   8   50.27    2.16
  -1   9  -8   11.31    0.77
   1  -9   8   10.19    0.80
   4   8  -8   20.21    1.21
  -4  -8   8   21.07    1.06
   3   8  -8   50.04    2.22
  -3  -8   8   53.04    2.10
   2   8  -8    2.29    0.40
  -2  -8   8    1.82    0.34
   1   8  -8   43.21    1.91
  -1  -8   8   45.94    1.87
   0   8  -8   42.51    1.83
   0  -8   8   42.39    1.82
  -1   8  -8    4.08    0.49
   1  -8   8    4.25    0.53
  -2   8  -8   46.06    1.97
   2  -8   8   48.72    2.06
  -3   8  -8    5.39    0.54
   3  -8   8    5.27    0.66
  -4   8  -8   35.93    1.57
  -4   8  -8   34.03    1.73
   6   7  -8   48.02    2.25
   6   7  -8   46.60    2.24
  -6  -7   8   45.18    1.92
   5   7  -8    0.83    0.34
  -5  -7   8    0.58    0.26
   4   7  -8   77.80    3.15
  -4  -7   8   79.10    2.97
   3   7  -8   26.10    1.29
  -3  -7   8   24.98    1.18
   2   7  -8   47.61    2.00
  -2  -7   8   47.01    1.90
   1   7  -8   52.16    2.13
  -1  -7   8   52.02    2.08
   0   7  -8    0.47    0.22
   0  -7   8    0.77    0.25
  -1   7  -8   88.85    3.41
   1  -7   8   91.96    3.41
  -2   7  -8   42.77    1.77
   2  -7   8   41.20    1.82
  -3   7  -8   16.01    0.94
  -3   7  -8   17.51    0.90
   3  -7   8   16.17    1.01
  -4   7  -8   47.87    2.21
  -4   7  -8   50.37    2.01
   4  -7   8   47.38    2.17
  -5   7  -8    2.60    0.44
  -5   7  -8    3.43    0.44
   5  -7   8    3.34    0.59
   6   6  -8    3.50    0.60
   6   6  -8    2.47    0.39
  -6  -6   8    2.95    0.39
   5   6  -8   57.47    2.57
   5   6  -8   55.28    2.44
  -5  -6   8   56.77    2.22
   4   6  -8   62.54    2.58
   4   6  -8   63.38    2.79
  -4  -6   8   62.29    2.41
   3   6  -8    7.49    0.60
  -3  -6   8    7.55    0.54
   2   6  -8   63.73    2.50
  -2  -6   8   63.04    2.41
   1   6  -8   16.72    0.89
  -1  -6   8   17.34    0.85
   0   6  -8   24.65    1.14
   0  -6   8   24.12    1.12
  -1   6  -8   75.54    2.93
   1  -6   8   79.78    2.94
  -2   6  -8    2.69    0.33
  -2   6  -8    2.22    0.33
   2  -6   8    3.35    0.43
  -3   6  -8   87.52    3.67
  -3   6  -8   91.27    3.34
   3  -6   8   87.46    3.39
  -4   6  -8    4.08    0.46
  -4   6  -8    3.36    0.39
   4  -6   8    4.83    0.59
  -5   6  -8   64.68    2.49
  -5   6  -8   61.95    2.76
   5  -6   8   61.89    2.71
  -6   6  -8   32.99    1.67
   6  -6   8   32.68    1.81
   7   5  -8   16.13    0.97
  -7  -5   8   13.82    0.83
   6   5  -8   28.33    1.53
   6   5  -8   28.81    1.46
  -6  -5   8   28.56    1.29
   5   5  -8   85.15    3.72
   5   5  -8   85.13    3.41
  -5  -5   8   87.11    3.18
   4   5  -8    4.99    0.45
   4   5  -8    5.31    0.56
  -4  -5   8    5.19    0.48
   3   5  -8   88.44    3.43
   3   5  -8   94.38    3.86
  -3  -5   8   88.74    3.29
   2   5  -8   17.23    0.88
  -2  -5   8   16.49    0.82
   1   5  -8   42.02    1.71
  -1  -5   8   41.63    1.66
   0   5  -8  126.02    4.57
   0  -5   8  126.67    4.48
  -1   5  -8    0.54    0.18
   1  -5   8    0.61    0.20
   1  -5   8    0.55    0.16
  -2   5  -8  112.87    4.18
   2  -5   8  113.74    4.16
   2  -5   8  117.65    4.60
  -3   5  -8   52.40    2.03
   3  -5   8   49.11    2.07
   3  -5   8   50.56    2.19
  -4   5  -8   22.03    1.04
   4  -5   8   23.13    1.19
   4  -5   8   20.73    1.10
  -5   5  -8  109.67    4.02
   5  -5   8  108.31    4.22
   5  -5   8  108.90    4.48
  -6   5  -8    0.56    0.22
  -6   5  -8    0.24    0.26
   6  -5   8    0.31    0.33
  -7   5  -8   34.96    1.76
   7  -5   8   34.47    2.00
   7   4  -8    6.64    0.59
  -7  -4   8    6.11    0.56
   6   4  -8   50.52    2.38
  -6  -4   8   53.46    2.07
   5   4  -8   10.06    0.76
   5   4  -8   10.83    0.70
  -5  -4   8   12.17    0.67
   4   4  -8   60.74    2.40
   4   4  -8   58.97    2.61
  -4  -4   8   57.73    2.24
   3   4  -8   51.48    2.29
   3   4  -8   53.74    2.10
  -3  -4   8   51.29    1.99
   2   4  -8    3.70    0.38
   2   4  -8    3.03    0.29
  -2  -4   8    2.96    0.32
   1   4  -8  123.26    4.53
  -1  -4   8  128.08    4.42
   0   4  -8    1.37    0.24
   0  -4   8    0.81    0.20
   0  -4   8    1.11    0.18
  -1   4  -8  115.40    4.19
   1  -4   8  118.20    4.59
   1  -4   8  113.99    4.12
  -2   4  -8   21.70    0.98
   2  -4   8   21.53    1.01
   2  -4   8   20.84    1.00
  -3   4  -8   39.22    1.64
   3  -4   8   42.35    1.72
   3  -4   8   40.95    1.78
  -4   4  -8  136.16    4.88
   4  -4   8  138.07    4.95
   4  -4   8  132.43    5.42
  -5   4  -8    5.23    0.44
   5  -4   8    5.71    0.67
   5  -4   8    4.63    0.48
  -6   4  -8   31.88    1.41
   6  -4   8   31.25    1.55
   6  -4   8   34.88    1.78
  -7   4  -8   29.84    1.32
   7  -4   8   28.03    1.46
   7  -4   8   29.05    1.78
   8  -4   8    1.40    0.54
   8   3  -8    0.16    0.23
  -8  -3   8    0.49    0.25
   7   3  -8   42.04    2.01
  -7  -3   8   40.76    1.75
   6   3  -8   16.57    0.98
  -6  -3   8   18.47    0.91
   5   3  -8   28.07    1.34
   5   3  -8   27.54    1.36
  -5  -3   8   26.37    1.19
   4   3  -8  109.84    4.08
   4   3  -8  109.82    4.64
  -4  -3   8  109.75    3.92
   3   3  -8   19.96    0.96
   3   3  -8   20.24    1.00
  -3  -3   8   20.16    0.91
   2   3  -8  131.91    4.71
   2   3  -8  128.79    5.42
  -2  -3   8  132.07    4.58
   1   3  -8   53.35    2.10
   1   3  -8   56.93    2.35
  -1  -3   8   54.08    2.04
   0   3  -8   47.87    1.89
   0  -3   8   47.45    1.84
   0  -3   8   51.11    2.00
  -1   3  -8  116.52    4.13
   1  -3   8  113.19    4.05
   1  -3   8  114.43    4.53
  -2   3  -8    0.89    0.19
   2  -3   8    0.96    0.17
   2  -3   8    0.91    0.20
  -3   3  -8   29.64    1.28
   3  -3   8   30.80    1.33
   3  -3   8   30.76    1.36
  -4   3  -8   57.76    2.25
   4  -3   8   60.01    2.35
   4  -3   8   57.78    2.46
  -5   3  -8   21.87    1.03
   5  -3   8   22.35    1.11
   5  -3   8   23.13    1.24
  -6   3  -8   84.25    3.12
   6  -3   8   82.08    3.44
   6  -3   8   81.71    3.45
  -7   3  -8    1.21    0.27
   7  -3   8    1.01    0.43
   7  -3   8    1.66    0.31
  -8   3  -8   58.90    2.31
   8  -3   8   54.91    2.54
   8   2  -8   35.51    1.76
  -8  -2   8   33.30    1.60
   7   2  -8   39.65    1.91
  -7  -2   8   38.55    1.71
   6   2  -8   11.30    0.75
  -6  -2   8   11.48    0.70
   5   2  -8   84.50    3.59
  -5  -2   8   80.65    3.06
   4   2  -8    1.36    0.24
   4   2  -8    1.41    0.26
  -4  -2   8    1.58    0.25
   3   2  -8   80.27    3.48
   3   2  -8   80.88    3.04
  -3  -2   8   83.85    2.97
   2   2  -8  133.60    4.74
   2   2  -8  133.15    5.50
  -2  -2   8  130.70    4.62
   1   2  -8   29.28    1.22
   1   2  -8   29.37    1.33
  -1  -2   8   29.68    1.25
  -1  -2   8   29.77    1.18
   0   2  -8  168.95    6.04
   0   2  -8  174.42    7.02
   0  -2   8  168.97    5.90
   0  -2   8  174.39    6.69
   1  -2   8   18.81    0.87
   1  -2   8   19.13    0.83
  -2   2  -8   84.35    3.09
   2  -2   8   82.57    3.37
   2  -2   8   85.33    3.04
   3  -2   8  107.01    4.28
   3  -2   8  107.26    3.85
  -4   2  -8    8.50    0.54
   4  -2   8    9.84    0.57
   4  -2   8    9.73    0.64
  -5   2  -8   51.81    2.02
   5  -2   8   51.68    2.19
   5  -2   8   49.32    2.18
  -6   2  -8   13.70    0.77
   6  -2   8   15.57    0.84
   6  -2   8   14.87    1.06
  -7   2  -8   47.85    1.97
   7  -2   8   48.94    2.16
  -8   2  -8   65.18    2.58
   8  -2   8   65.32    2.84
   9  -2   8    4.37    0.57
   8   1  -8   41.58    2.09
  -8  -1   8   43.69    1.93
   7   1  -8    0.54    0.24
  -7  -1   8   -0.05    0.20
   6   1  -8  105.53    4.65
  -6  -1   8  110.81    4.00
   5   1  -8   48.52    2.23
  -5  -1   8   48.96    1.96
   4   1  -8   54.51    2.45
  -4  -1   8   55.55    2.12
   3   1  -8   54.46    2.37
   3   1  -8   53.33    2.06
  -3  -1   8   53.04    2.03
   2   1  -8    0.69    0.17
   2   1  -8    0.81    0.17
  -2  -1   8    0.70    0.16
  -2  -1   8    0.83    0.14
   1   1  -8  127.01    4.55
   1   1  -8  128.72    5.31
  -1  -1   8  130.18    5.02
  -1  -1   8  125.98    4.44
   0   1  -8   46.73    1.98
   0   1  -8   45.17    1.76
   0  -1   8   44.84    1.70
   0  -1   8   45.92    1.88
  -1   1  -8   14.40    0.72
  -1   1  -8   15.91    0.74
   1  -1   8   15.75    0.69
   1  -1   8   15.56    0.74
  -2   1  -8  105.33    3.92
   2  -1   8  110.52    3.84
   2  -1   8  111.17    4.33
  -3   1  -8   19.81    0.92
   3  -1   8   20.04    0.95
   3  -1   8   20.69    0.92
  -4   1  -8  134.01    4.83
   4  -1   8  135.83    5.34
   4  -1   8  133.89    4.82
  -5   1  -8   44.84    1.79
   5  -1   8   43.60    1.92
   5  -1   8   44.66    1.93
  -6   1  -8   16.79    0.86
   6  -1   8   16.60    0.89
  -7   1  -8   92.36    3.54
   7  -1   8   96.04    3.89
  -8   1  -8    1.59    0.31
   8  -1   8    1.26    0.27
  -9   1  -8   69.29    2.72
   9  -1   8   66.40    2.96
   8   0  -8    4.43    0.55
  -8   0   8    2.90    0.50
   7   0  -8   37.67    1.85
  -7   0   8   36.58    1.73
   6   0  -8   76.20    3.43
  -6   0   8   78.57    3.03
   5   0  -8    6.58    0.53
  -5   0   8    6.89    0.55
   4   0  -8  125.59    5.47
  -4   0   8  134.42    4.65
   3   0  -8   48.96    1.96
   3   0  -8   52.51    2.31
  -3   0   8   51.07    1.98
  -3   0   8   54.14    2.20
   2   0  -8   74.77    2.73
   2   0  -8   72.75    3.19
  -2   0   8   75.15    3.02
  -2   0   8   74.59    2.69
   1   0  -8   96.83    4.16
   1   0  -8  100.69    3.55
  -1   0   8   97.71    3.47
  -1   0   8  100.01    3.93
   0   0  -8    9.00    0.50
   0   0  -8    8.74    0.53
   0   0   8    9.48    0.51
   0   0   8    9.68    0.47
  -1   0  -8  113.51    4.69
  -1   0  -8  110.58    4.03
   1   0   8  111.55    4.45
   1   0   8  114.24    3.90
  -2   0  -8    6.99    0.45
  -2   0  -8    7.28    0.46
   2   0   8    7.38    0.44
   2   0   8    7.57    0.42
  -3   0  -8  147.56    6.24
  -3   0  -8  153.94    5.34
   3   0   8  146.81    5.19
   3   0   8  150.02    5.89
  -4   0  -8  119.40    4.31
   4   0   8  112.11    4.23
   4   0   8  123.61    4.73
  -5   0  -8    4.03    0.41
   5   0   8    4.10    0.37
  -6   0  -8  129.93    4.85
   6   0   8  135.59    5.32
  -7   0  -8   11.64    0.74
   7   0   8   12.82    0.75
  -8   0  -8   59.38    2.41
   8   0   8   58.52    2.57
  -9   0  -8   60.83    2.50
   9   0   8   60.80    2.68
   8  -1  -8   21.73    1.29
  -8   1   8   21.98    1.30
   7  -1  -8   79.38    3.48
  -7   1   8   73.94    3.09
   6  -1  -8    0.16    0.21
  -6   1   8    0.64    0.29
   5  -1  -8   93.75    4.14
  -5   1   8   96.94    3.60
   4  -1  -8   19.95    1.08
  -4   1   8   20.68    1.01
  -4   1   8   19.52    1.11
   3  -1  -8   71.72    3.14
  -3   1   8   72.73    2.68
  -3   1   8   69.85    3.04
   2  -1  -8  129.12    5.50
   2  -1  -8  128.51    4.62
  -2   1   8  134.95    5.27
  -2   1   8  130.58    4.59
   1  -1  -8    3.26    0.37
   1  -1  -8    3.41    0.27
  -1   1   8    2.60    0.31
  -1   1   8    3.22    0.29
   0  -1  -8   95.95    3.46
   0  -1  -8   95.73    4.10
   0   1   8   95.29    3.34
   0   1   8   96.43    3.85
  -1  -1  -8   88.76    3.24
  -1  -1  -8   88.41    3.83
   1   1   8   88.29    3.56
   1   1   8   88.59    3.08
  -2  -1  -8   34.41    1.73
  -2  -1  -8   36.40    1.48
   2   1   8   35.53    1.34
   2   1   8   37.12    1.56
  -3  -1  -8  216.91    7.55
  -3  -1  -8  207.02    8.91
   3   1   8  217.17    8.35
  -4  -1  -8    1.50    0.30
  -4  -1  -8    1.56    0.28
   4   1   8    1.70    0.24
  -5  -1  -8  125.47    4.65
   5   1   8  126.61    5.04
  -6  -1  -8   68.65    2.74
   6   1   8   69.24    2.88
  -7  -1  -8   32.65    1.53
   7   1   8   33.17    1.53
  -8  -1  -8   48.47    2.10
   8   1   8   48.71    2.17
  -9  -1  -8    0.48    0.25
   9   1   8    0.55    0.24
   8  -2  -8   49.44    2.47
   7  -2  -8    4.19    0.53
  -7   2   8    3.65    0.58
   6  -2  -8   45.50    2.12
  -6   2   8   39.69    1.89
   5  -2  -8   29.40    1.52
  -5   2   8   27.28    1.38
  -5   2   8   30.61    1.55
   4  -2  -8    3.02    0.42
  -4   2   8    2.83    0.45
  -4   2   8    3.36    0.42
   3  -2  -8  178.47    7.51
  -3   2   8  178.67    6.28
  -3   2   8  179.42    7.23
   2  -2  -8   23.22    1.26
  -2   2   8   24.58    1.05
  -2   2   8   23.27    1.25
   1  -2  -8  122.43    4.38
   1  -2  -8  128.49    5.31
  -1   2   8  122.38    4.31
  -1   2   8  120.43    5.01
   0  -2  -8   82.35    3.07
   0  -2  -8   83.06    3.74
   0   2   8   84.14    2.96
   0   2   8   86.94    3.48
  -1  -2  -8   18.16    1.12
  -1  -2  -8   20.35    0.92
   1   2   8   19.90    0.78
   1   2   8   19.92    0.97
  -2  -2  -8  263.22   10.79
  -2  -2  -8  260.30    9.07
   2   2   8  252.40   10.07
  -3  -2  -8   23.81    1.16
  -3  -2  -8   25.72    1.37
   3   2   8   25.39    1.16
  -4  -2  -8   75.79    2.79
  -4  -2  -8   60.42    3.13
   4   2   8   74.71    2.91
  -5  -2  -8   94.02    3.50
  -5  -2  -8   83.80    3.93
   5   2   8   92.71    3.67
  -6  -2  -8    4.18    0.50
   6   2   8    3.72    0.39
  -7  -2  -8  104.11    4.06
   7   2   8  105.37    4.28
  -8  -2  -8   16.63    1.04
   8   2   8   17.81    0.96
  -9  -2  -8   19.75    1.18
   9   2   8   21.18    1.13
   7  -3  -8   15.85    1.08
  -7   3   8   15.36    1.03
   6  -3  -8   54.15    2.60
  -6   3   8   53.31    2.29
   5  -3  -8    0.21    0.23
  -5   3   8    0.05    0.24
  -5   3   8    0.28    0.26
   4  -3  -8   64.96    3.04
  -4   3   8   61.24    2.56
  -4   3   8   70.24    2.97
   3  -3  -8   52.64    2.47
  -3   3   8   47.31    2.02
  -3   3   8   53.15    2.39
   2  -3  -8   49.48    2.42
  -2   3   8   52.80    2.33
  -2   3   8   46.95    1.93
   1  -3  -8  198.48    8.40
  -1   3   8  199.28    7.94
  -1   3   8  195.06    6.79
   0  -3  -8    8.01    0.70
   0  -3  -8    8.30    0.49
   0   3   8    7.65    0.61
   0   3   8    8.34    0.43
  -1  -3  -8  129.75    4.91
  -1  -3  -8  142.25    5.97
   1   3   8  138.23    5.52
  -2  -3  -8   63.06    2.61
  -2  -3  -8   72.03    3.17
   2   3   8   68.65    2.85
  -3  -3  -8   10.75    0.68
  -3  -3  -8   11.30    0.80
   3   3   8   11.27    0.65
  -4  -3  -8   39.27    2.12
  -4  -3  -8   45.73    1.91
   4   3   8   47.58    1.94
  -5  -3  -8    0.59    0.24
  -5  -3  -8    0.34    0.20
   5   3   8    0.31    0.16
  -6  -3  -8   50.54    2.35
  -6  -3  -8   45.79    2.14
   6   3   8   51.46    2.15
  -7  -3  -8   21.66    1.26
   7   3   8   23.77    1.16
  -8  -3  -8    6.99    0.76
   8   3   8    7.15    0.56
  -9  -3  -8   48.09    2.25
   9   3   8   50.39    2.23
   7  -4  -8   54.81    2.73
  -7   4   8   53.47    2.34
   6  -4  -8   12.89    1.00
  -6   4   8   13.74    1.01
  -6   4   8   13.41    0.89
   5  -4  -8   35.77    1.95
  -5   4   8   36.23    1.64
  -5   4   8   36.69    1.88
   4  -4  -8  121.49    5.31
  -4   4   8  118.66    5.02
  -4   4   8  116.64    4.34
   3  -4  -8    3.90    0.59
  -3   4   8    2.96    0.40
  -3   4   8    3.68    0.51
   2  -4  -8   94.77    4.50
  -2   4   8   97.93    3.58
  -2   4   8  103.64    4.23
   1  -4  -8   11.61    0.97
  -1   4   8   14.02    0.69
  -1   4   8   14.71    0.93
   0  -4  -8   75.09    2.82
   0  -4  -8   78.12    3.57
   0   4   8   74.27    3.30
  -1  -4  -8  111.66    4.67
  -1  -4  -8   99.20    3.79
   1   4   8  100.40    4.32
  -2  -4  -8    5.49    0.63
  -2  -4  -8    6.41    0.48
   2   4   8    5.18    0.49
  -3  -4  -8   57.17    2.83
   3   4   8   59.75    2.36
   3   4   8   62.22    2.59
  -4  -4  -8   37.38    2.07
   4   4   8   41.12    1.80
   4   4   8   46.70    1.90
  -5  -4  -8   12.57    0.90
   5   4   8   14.06    0.78
   5   4   8   14.14    0.87
  -6  -4  -8   77.57    3.48
   6   4   8   75.22    3.09
   6   4   8   75.73    3.18
  -7  -4  -8    1.29    0.31
   7   4   8    1.51    0.40
   7   4   8    1.17    0.26
   8   4   8   80.23    3.45
   8   4   8   84.88    3.44
  -9  -4  -8   16.49    1.12
   6  -5  -8   17.91    1.28
  -6   5   8   17.01    1.01
  -6   5   8   16.14    1.18
   5  -5  -8   62.25    3.08
  -5   5   8   59.51    2.43
  -5   5   8   60.84    2.88
   4  -5  -8    0.54    0.37
  -4   5   8    1.36    0.29
  -4   5   8    1.08    0.36
   3  -5  -8   75.00    3.83
  -3   5   8   82.87    3.01
  -3   5   8   83.29    3.57
   2  -5  -8   28.41    1.82
  -2   5   8   33.61    1.69
  -2   5   8   33.41    1.35
   1  -5  -8   10.04    0.90
  -1   5   8   11.70    0.84
   0  -5  -8   94.24    4.24
   0   5   8   89.75    3.94
  -1  -5  -8    0.22    0.22
   1   5   8    0.28    0.25
   1   5   8    0.45    0.18
  -2  -5  -8  109.48    4.75
   2   5   8  104.28    3.88
   2   5   8  103.76    4.45
  -3  -5  -8   27.20    1.65
   3   5   8   31.52    1.37
   3   5   8   32.49    1.54
  -4  -5  -8   36.06    2.13
   4   5   8   46.85    1.86
   4   5   8   45.49    1.98
  -5  -5  -8  121.12    5.46
   5   5   8  126.43    5.05
   5   5   8  124.13    4.65
  -6  -5  -8    1.98    0.41
   6   5   8    2.37    0.44
   6   5   8    1.92    0.31
  -7  -5  -8   65.74    3.00
   7   5   8   57.64    2.66
   7   5   8   64.06    2.71
  -8  -5  -8   39.30    2.03
   8   5   8   35.48    1.75
   8   5   8   39.68    1.96
   9   5   8   15.79    1.30
   6  -6  -8   49.01    2.70
  -6   6   8   49.28    2.09
  -6   6   8   49.08    2.52
   5  -6  -8   10.17    0.72
   5  -6  -8    9.77    1.11
  -5   6   8   11.11    0.97
   4  -6  -8   49.85    2.80
   4  -6  -8   54.01    2.12
  -4   6   8   53.69    2.58
   3  -6  -8   60.76    3.22
  -3   6   8   65.66    2.95
   2  -6  -8    4.94    0.74
  -2   6   8    5.39    0.64
   1  -6  -8   80.95    3.80
  -1   6   8   77.98    3.49
   0  -6  -8    4.69    0.64
   0   6   8    4.55    0.58
  -1  -6  -8   50.86    2.53
   1   6   8   50.18    2.38
  -2  -6  -8   67.66    3.19
   2   6   8   66.70    2.54
   2   6   8   65.16    2.99
  -3  -6  -8    3.33    0.58
   3   6   8    3.11    0.49
   3   6   8    3.81    0.42
  -4  -6  -8   90.53    4.49
   4   6   8  103.26    3.75
   4   6   8  102.22    4.19
  -5  -6  -8   16.31    1.15
   5   6   8   17.74    1.00
   5   6   8   15.39    0.96
  -6  -6  -8   61.55    3.04
   6   6   8   61.06    2.72
   6   6   8   64.90    2.65
  -7  -6  -8   97.22    4.34
   7   6   8   97.76    3.79
   7   6   8   87.13    3.89
  -8  -6  -8    0.50    0.29
   8   6   8    0.58    0.38
   5  -7  -8   13.20    1.29
  -5   7   8   16.10    1.23
   4  -7  -8   52.58    2.97
  -4   7   8   59.14    2.77
   3  -7  -8    0.11    0.38
  -3   7   8    1.15    0.39
   2  -7  -8   93.58    4.32
  -2   7   8   87.14    3.96
   1  -7  -8   66.68    3.19
  -1   7   8   62.06    2.93
   0  -7  -8   51.32    2.62
   0   7   8   51.99    2.45
  -1  -7  -8  122.76    5.49
   1   7   8  123.03    5.17
  -2  -7  -8    5.16    0.68
   2   7   8    4.17    0.46
   2   7   8    5.54    0.66
  -3  -7  -8   66.94    3.30
   3   7   8   67.83    3.08
   3   7   8   67.79    2.63
  -4  -7  -8   56.13    3.07
   4   7   8   63.46    2.86
   4   7   8   66.80    2.52
  -5  -7  -8   24.45    1.60
   5   7   8   25.70    1.41
   5   7   8   26.90    1.32
  -6  -7  -8   75.55    3.67
   6   7   8   74.22    3.29
   6   7   8   77.72    3.09
  -7  -7  -8    4.30    0.69
   7   7   8    4.14    0.62
  -8  -7  -8   43.91    2.40
   4  -8  -8   11.94    1.19
   3  -8  -8   38.39    2.26
  -3   8   8   39.12    2.09
   2  -8  -8   39.11    2.19
  -2   8   8   36.39    1.99
   1  -8  -8   12.97    1.06
  -1   8   8   12.52    0.96
   0  -8  -8   91.91    4.22
   0   8   8   88.15    3.93
  -1  -8  -8   18.73    1.29
   1   8   8   18.88    1.20
  -2  -8  -8   40.87    2.23
   2   8   8   40.43    2.05
  -3  -8  -8   51.76    2.70
   3   8   8   51.35    2.09
   3   8   8   50.01    2.47
  -4  -8  -8    0.51    0.34
   4   8   8   -0.06    0.29
   4   8   8    0.87    0.30
  -5  -8  -8   66.50    3.39
   5   8   8   70.88    2.75
   5   8   8   63.37    3.05
  -6  -8  -8   19.55    1.46
   6   8   8   22.03    1.23
  -7  -8  -8   26.23    1.75
   7   8   8   28.14    1.52
   2  -9  -8    5.85    0.82
  -2   9   8    5.74    0.77
   1  -9  -8   59.62    2.99
  -1   9   8   57.53    2.79
   0  -9  -8   45.67    2.42
   0   9   8   43.67    2.22
  -1  -9  -8    5.25    0.73
   1   9   8    6.01    0.70
  -2  -9  -8   63.22    3.19
   2   9   8   62.74    2.92
  -3  -9  -8    1.86    0.53
   3   9   8    1.73    0.49
  -4  -9  -8   45.91    2.59
   4   9   8   45.01    2.33
   4   9   8   47.34    2.01
  -5  -9  -8   22.79    1.67
   5   9   8   26.18    1.33
   0 -10  -8    1.11    0.45
  -1 -10  -8   60.39    3.15
   1  10   8   62.92    2.91
  -2 -10  -8    7.05    0.95
   2  10   8    7.45    0.83
   3  10   8   20.76    1.35
   3   8  -9    2.42    0.45
  -3  -8   9    2.73    0.41
   2   8  -9   66.55    2.68
  -2  -8   9   63.78    2.57
   1   8  -9    8.05    0.67
  -1  -8   9    7.73    0.63
   0   8  -9   44.48    1.91
   0  -8   9   43.54    1.89
  -1   8  -9   39.32    1.73
   1  -8   9   38.93    1.75
  -2   8  -9    2.42    0.40
   2  -8   9    2.32    0.45
  -3   8  -9   60.93    2.48
   5   7  -9   51.67    2.31
  -5  -7   9   48.72    2.06
   4   7  -9    0.60    0.31
  -4  -7   9    0.43    0.23
   3   7  -9   48.14    2.09
  -3  -7   9   47.66    1.96
   2   7  -9   31.62    1.47
  -2  -7   9   30.70    1.39
   1   7  -9   21.14    1.08
  -1  -7   9   20.51    1.05
   0   7  -9   96.77    3.70
   0  -7   9   99.71    3.66
  -1   7  -9    2.94    0.42
   1  -7   9    2.67    0.41
  -2   7  -9   73.82    2.84
   2  -7   9   71.27    2.86
  -3   7  -9   22.40    1.12
   3  -7   9   22.70    1.24
  -4   7  -9   18.72    1.09
  -4   7  -9   20.04    1.04
   4  -7   9   18.00    1.17
   6   6  -9   44.95    2.14
   6   6  -9   42.49    2.16
  -6  -6   9   46.17    1.88
   5   6  -9    7.69    0.61
   5   6  -9    7.95    0.81
  -5  -6   9    7.16    0.58
   4   6  -9   42.22    1.89
  -4  -6   9   40.99    1.73
   3   6  -9   73.94    2.94
  -3  -6   9   74.57    2.81
   2   6  -9    7.61    0.59
  -2  -6   9    6.70    0.53
   1   6  -9   71.67    2.73
  -1  -6   9   67.83    2.64
   0   6  -9   23.62    1.15
   0  -6   9   24.71    1.15
  -1   6  -9   39.40    1.71
   1  -6   9   43.07    1.75
  -2   6  -9   62.62    2.43
   2  -6   9   60.39    2.45
  -3   6  -9    6.63    0.54
   3  -6   9    6.51    0.68
  -4   6  -9   39.51    1.65
  -4   6  -9   36.48    1.77
   4  -6   9   36.56    1.77
  -5   6  -9   15.14    0.98
  -5   6  -9   16.25    0.90
   5  -6   9   16.14    1.11
  -6   6  -9   26.89    1.29
  -6   6  -9   26.10    1.44
   6  -6   9   28.95    1.67
   6   5  -9   20.11    1.16
  -6  -5   9   21.58    1.06
   5   5  -9   16.29    1.04
   5   5  -9   16.19    0.95
  -5  -5   9   16.75    0.88
   4   5  -9   88.90    3.47
   4   5  -9   87.90    3.82
  -4  -5   9   89.37    3.28
   3   5  -9    2.71    0.38
  -3  -5   9    2.35    0.33
   2   5  -9  106.41    3.96
  -2  -5   9  106.20    3.84
   1   5  -9   28.06    1.31
  -1  -5   9   31.45    1.29
   0   5  -9   47.66    1.93
   0  -5   9   48.24    1.90
  -1   5  -9  110.07    4.08
   1  -5   9  112.51    4.04
  -2   5  -9    0.78    0.22
   2  -5   9    0.69    0.24
   2  -5   9    0.57    0.19
  -3   5  -9   69.34    2.72
   3  -5   9   74.69    2.98
   3  -5   9   67.96    2.76
  -4   5  -9   13.62    0.78
   4  -5   9   14.28    0.91
   4  -5   9   13.28    0.81
  -5   5  -9   15.77    0.88
   5  -5   9   16.66    0.96
   5  -5   9   16.41    1.10
  -6   5  -9   53.34    2.09
   6  -5   9   51.97    2.43
   6  -5   9   46.39    2.27
   7  -5   9    0.05    0.47
   7   4  -9   30.40    1.60
  -7  -4   9   31.80    1.44
   6   4  -9    6.15    0.57
  -6  -4   9    6.20    0.57
   5   4  -9   84.50    3.63
   5   4  -9   83.62    3.33
  -5  -4   9   81.45    3.09
   4   4  -9   14.83    0.83
   4   4  -9   14.85    0.88
  -4  -4   9   12.84    0.75
   3   4  -9   66.42    2.65
   3   4  -9   69.00    2.93
  -3  -4   9   66.89    2.53
   2   4  -9   26.11    1.20
  -2  -4   9   26.13    1.14
   1   4  -9    9.25    0.59
  -1  -4   9   10.13    0.58
   0   4  -9   54.75    2.15
   0  -4   9   55.58    2.11
  -1   4  -9    0.55    0.19
   1  -4   9    0.64    0.20
   1  -4   9    0.79    0.18
  -2   4  -9   51.98    2.08
   2  -4   9   53.52    2.09
   2  -4   9   52.64    2.22
  -3   4  -9   49.57    1.98
   3  -4   9   49.01    2.12
   3  -4   9   49.93    2.03
  -4   4  -9    0.01    0.15
   4  -4   9    0.59    0.25
   4  -4   9    0.40    0.19
  -5   4  -9  139.88    5.00
   5  -4   9  133.40    5.54
   5  -4   9  139.36    5.17
  -6   4  -9   15.12    0.84
   6  -4   9   15.88    1.16
   6  -4   9   15.45    0.92
  -7   4  -9   22.45    1.14
   7  -4   9   23.84    1.27
   7  -4   9   24.37    1.63
   7   3  -9    2.22    0.39
  -7  -3   9    2.73    0.40
   6   3  -9   56.72    2.63
  -6  -3   9   58.54    2.30
   5   3  -9   34.92    1.67
  -5  -3   9   34.08    1.48
   4   3  -9   22.44    1.15
   4   3  -9   21.09    1.11
  -4  -3   9   22.93    1.04
   3   3  -9   91.05    3.36
   3   3  -9   89.55    3.80
  -3  -3   9   86.65    3.23
   2   3  -9    2.95    0.29
   2   3  -9    2.79    0.35
  -2  -3   9    2.74    0.32
   1   3  -9   93.07    3.49
   1   3  -9   97.50    3.98
  -1  -3   9   93.77    3.40
   0   3  -9  105.28    3.81
   0  -3   9  101.32    3.71
   0  -3   9  105.78    4.13
  -1   3  -9   16.73    0.80
   1  -3   9   15.11    0.77
   1  -3   9   15.59    0.77
  -2   3  -9   79.70    2.99
   2  -3   9   80.42    2.96
   2  -3   9   79.79    3.24
  -3   3  -9    0.06    0.14
   3  -3   9    0.17    0.14
   3  -3   9    0.28    0.18
  -4   3  -9   75.46    2.91
   4  -3   9   77.81    3.00
   4  -3   9   77.66    3.18
  -5   3  -9   50.59    2.01
   5  -3   9   51.77    2.22
   5  -3   9   48.32    2.18
  -6   3  -9   18.94    0.97
   6  -3   9   20.60    1.07
   6  -3   9   19.46    1.28
  -7   3  -9   62.15    2.43
   7  -3   9   59.83    2.67
  -8   3  -9    3.47    0.44
   8  -3   9    3.81    0.49
   7   2  -9   35.76    1.79
  -7  -2   9   35.23    1.62
   6   2  -9   28.76    1.50
  -6  -2   9   30.34    1.38
   5   2  -9    5.24    0.48
  -5  -2   9    5.90    0.55
   4   2  -9   72.71    2.83
   4   2  -9   73.56    3.18
  -4  -2   9   71.99    2.73
   3   2  -9    0.68    0.20
   3   2  -9    0.40    0.18
  -3  -2   9    0.94    0.20
   2   2  -9   56.91    2.15
   2   2  -9   54.37    2.41
  -2  -2   9   54.09    2.08
   1   2  -9  107.44    3.98
   1   2  -9  110.08    4.58
  -1  -2   9  111.53    4.33
  -1  -2   9  109.93    3.88
   0   2  -9    5.89    0.42
   0   2  -9    5.46    0.36
   0  -2   9    5.17    0.35
   0  -2   9    5.05    0.38
  -1   2  -9  178.51    6.31
   1  -2   9  178.05    6.17
   1  -2   9  178.84    6.98
  -2   2  -9   28.29    1.22
   2  -2   9   27.36    1.26
   2  -2   9   29.10    1.21
  -3   2  -9   54.63    2.20
   3  -2   9   59.44    2.23
   3  -2   9   57.16    2.38
  -4   2  -9  128.96    4.66
   4  -2   9  130.16    4.69
   4  -2   9  126.84    5.13
  -5   2  -9    4.30    0.43
   5  -2   9    4.89    0.58
   5  -2   9    3.44    0.38
  -6   2  -9   52.75    2.15
   6  -2   9   54.63    2.34
  -7   2  -9   12.98    0.78
   7  -2   9   14.76    0.85
  -8   2  -9   37.67    1.64
   8  -2   9   36.07    1.76
   7   1  -9   57.49    2.77
  -7  -1   9   62.90    2.51
   6   1  -9    2.11    0.36
  -6  -1   9    2.43    0.39
   5   1  -9   47.01    2.21
  -5  -1   9   48.14    1.96
   4   1  -9   40.56    1.93
  -4  -1   9   42.27    1.70
   3   1  -9    7.26    0.49
   3   1  -9    6.48    0.49
  -3  -1   9    6.87    0.47
   2   1  -9  145.29    6.07
   2   1  -9  144.12    5.21
  -2  -1   9  144.80    5.09
  -2  -1   9  148.89    5.73
   1   1  -9    7.73    0.50
   1   1  -9    9.02    0.52
  -1  -1   9    8.01    0.48
  -1  -1   9    9.26    0.48
   0   1  -9  155.61    5.59
   0   1  -9  159.19    6.50
   0  -1   9  158.71    5.46
   0  -1   9  157.44    6.18
  -1   1  -9   91.95    3.41
  -1   1  -9   93.80    3.88
   1  -1   9   92.45    3.72
   1  -1   9   94.12    3.31
  -2   1  -9   32.30    1.34
   2  -1   9   30.58    1.39
   2  -1   9   32.25    1.30
  -3   1  -9  128.00    4.64
   3  -1   9  128.91    4.56
   3  -1   9  128.47    5.11
  -4   1  -9    0.29    0.16
   4  -1   9    0.39    0.16
   4  -1   9    0.86    0.24
  -5   1  -9   57.03    2.26
   5  -1   9   57.45    2.43
  -6   1  -9   32.46    1.44
   6  -1   9   32.69    1.52
  -7   1  -9    9.43    0.65
   7  -1   9   10.65    0.69
  -8   1  -9   75.16    2.98
   8  -1   9   76.55    3.25
  -9   1  -9    1.92    0.38
   7   0  -9    7.04    0.65
  -7   0   9    7.30    0.73
   6   0  -9   51.60    2.46
  -6   0   9   53.84    2.23
   5   0  -9   86.32    3.93
  -5   0   9   94.58    3.43
   4   0  -9   25.41    1.36
  -4   0   9   29.34    1.26
   3   0  -9   88.50    3.85
  -3   0   9   90.29    3.27
   2   0  -9   42.88    2.05
   2   0  -9   46.10    1.79
  -2   0   9   46.35    1.93
  -2   0   9   46.74    1.77
   1   0  -9   84.18    3.64
   1   0  -9   86.63    3.14
  -1   0   9   86.19    3.06
  -1   0   9   84.16    3.43
   0   0  -9  120.44    5.10
   0   0  -9  122.83    4.39
   0   0   9  124.90    4.26
   0   0   9  120.37    4.83
  -1   0  -9   20.63    1.01
  -1   0  -9   20.52    0.94
   1   0   9   20.25    0.97
   1   0   9   21.22    0.88
  -2   0  -9  164.46    6.70
  -2   0  -9  161.28    5.77
   2   0   9  163.69    6.37
   2   0   9  158.26    5.59
  -3   0  -9   54.51    2.11
   3   0   9   50.52    2.02
   3   0   9   55.25    2.25
  -4   0  -9  119.72    4.40
   4   0   9  120.62    4.81
  -5   0  -9   57.50    2.32
   5   0   9   58.83    2.47
  -6   0  -9    5.27    0.51
   6   0   9    4.74    0.43
  -7   0  -9   58.84    2.43
   7   0   9   60.60    2.58
  -8   0  -9   13.88    0.86
   8   0   9   13.84    0.86
  -9   0  -9   28.81    1.42
   9   0   9   27.95    1.45
   7  -1  -9   23.27    1.33
  -7   1   9   21.99    1.29
   6  -1  -9   74.06    3.43
  -6   1   9   78.58    3.07
   5  -1  -9    2.53    0.40
  -5   1   9    3.15    0.45
   4  -1  -9   90.90    4.08
  -4   1   9   97.13    3.52
   3  -1  -9   78.19    3.53
  -3   1   9   81.30    3.01
  -3   1   9   82.61    3.41
   2  -1  -9   45.11    2.12
  -2   1   9   47.76    2.04
  -2   1   9   45.16    1.80
   1  -1  -9  172.45    7.37
   1  -1  -9  179.02    6.23
  -1   1   9  178.55    6.98
  -1   1   9  176.68    6.09
   0  -1  -9    6.98    0.52
   0  -1  -9    6.88    0.46
   0   1   9    7.05    0.41
   0   1   9    7.25    0.47
  -1  -1  -9   98.72    3.71
  -1  -1  -9  105.60    4.38
   1   1   9  101.81    3.55
   1   1   9  100.43    4.08
  -2  -1  -9   42.00    1.95
  -2  -1  -9   41.00    1.67
   2   1   9   38.38    1.53
   2   1   9   41.57    1.76
  -3  -1  -9   40.82    1.67
  -3  -1  -9   37.86    1.91
   3   1   9   40.31    1.73
  -4  -1  -9   89.50    3.38
   4   1   9   88.08    3.61
  -5  -1  -9    7.29    0.57
   5   1   9    7.65    0.52
  -6  -1  -9   64.60    2.59
   6   1   9   62.34    2.68
  -7  -1  -9   52.68    2.21
   7   1   9   49.86    2.24
  -8  -1  -9    4.17    0.54
   8   1   9    4.88    0.50
  -9  -1  -9   53.19    2.33
   9   1   9   53.51    2.41
   7  -2  -9   52.58    2.49
  -7   2   9   47.30    2.22
   6  -2  -9    9.05    0.75
  -6   2   9    8.50    0.81
   5  -2  -9   51.15    2.40
  -5   2   9   48.47    2.12
   4  -2  -9   49.87    2.45
  -4   2   9   49.89    2.12
  -4   2   9   56.38    2.45
   3  -2  -9    0.91    0.26
  -3   2   9    0.11    0.18
  -3   2   9    0.69    0.27
   2  -2  -9  163.61    6.82
  -2   2   9  158.30    5.63
  -2   2   9  159.89    6.50
   1  -2  -9   13.83    0.70
   1  -2  -9   14.88    0.91
  -1   2   9   14.20    0.70
  -1   2   9   13.50    0.83
   0  -2  -9   74.41    3.32
   0  -2  -9   71.03    2.72
   0   2   9   73.12    2.61
   0   2   9   72.56    3.06
  -1  -2  -9   78.74    2.98
  -1  -2  -9   76.36    3.58
   1   2   9   82.56    3.29
  -2  -2  -9    5.46    0.45
  -2  -2  -9    4.69    0.57
   2   2   9    5.57    0.42
  -3  -2  -9  197.21    7.01
  -3  -2  -9  199.64    8.28
   3   2   9  189.95    7.69
  -4  -2  -9   13.83    0.83
  -4  -2  -9   13.45    0.90
   4   2   9   13.70    0.75
  -5  -2  -9   29.12    1.41
   5   2   9   29.10    1.36
  -6  -2  -9   83.74    3.34
   6   2   9   83.88    3.47
  -7  -2  -9    0.49    0.27
   7   2   9    0.63    0.22
  -8  -2  -9   64.03    2.72
   8   2   9   63.07    2.75
  -9  -2  -9   16.19    1.06
   9   2   9   15.29    0.95
   7  -3  -9   47.69    2.38
  -7   3   9   44.02    2.07
   6  -3  -9    7.36    0.73
  -6   3   9    6.92    0.71
   5  -3  -9   58.61    2.80
  -5   3   9   60.10    2.69
  -5   3   9   55.07    2.37
   4  -3  -9    4.16    0.56
  -4   3   9    5.40    0.60
  -4   3   9    4.37    0.52
   3  -3  -9   97.75    4.42
  -3   3   9  103.98    4.25
  -3   3   9   94.78    3.64
   2  -3  -9   64.91    3.05
  -2   3   9   66.25    2.89
  -2   3   9   61.31    2.43
   1  -3  -9   22.68    1.34
  -1   3   9   21.83    0.97
  -1   3   9   20.83    1.21
   0  -3  -9   63.29    3.08
   0  -3  -9   62.76    2.46
   0   3   9   68.09    2.86
  -1  -3  -9    4.90    0.65
  -1  -3  -9    5.60    0.46
   1   3   9    6.26    0.51
  -2  -3  -9   26.11    1.25
  -2  -3  -9   26.53    1.50
   2   3   9   27.65    1.31
  -3  -3  -9   35.18    1.79
  -3  -3  -9   31.55    1.51
   3   3   9   34.85    1.57
  -4  -3  -9    1.32    0.31
  -4  -3  -9    1.63    0.36
   4   3   9    1.18    0.24
  -5  -3  -9   65.80    2.66
  -5  -3  -9   57.57    2.95
   5   3   9   68.40    2.73
  -6  -3  -9    8.36    0.70
   6   3   9    7.72    0.56
  -7  -3  -9   61.67    2.69
   7   3   9   63.69    2.70
  -8  -3  -9   44.73    2.12
   8   3   9   45.29    2.05
  -9  -3  -9    8.78    0.90
   9   3   9   11.35    0.77
   6  -4  -9   58.72    2.88
  -6   4   9   56.34    2.73
  -6   4   9   55.38    2.37
   5  -4  -9    3.35    0.59
  -5   4   9    2.50    0.42
  -5   4   9    1.68    0.40
   4  -4  -9   20.28    1.36
  -4   4   9   20.66    1.08
  -4   4   9   21.58    1.28
   3  -4  -9   46.21    2.40
  -3   4   9   44.75    1.88
  -3   4   9   46.58    2.22
   2  -4  -9    2.22    0.48
  -2   4   9    2.20    0.33
  -2   4   9    1.66    0.38
   1  -4  -9   75.53    3.80
  -1   4   9   86.40    3.57
   0  -4  -9   36.06    1.93
   0   4   9   33.33    1.74
  -1  -4  -9   92.72    4.05
  -1  -4  -9   85.09    3.28
   1   4   9   84.69    3.73
  -2  -4  -9  219.68    8.09
  -2  -4  -9  236.62    9.69
   2   4   9  229.26    9.09
  -3  -4  -9    0.55    0.22
  -3  -4  -9    0.40    0.24
   3   4   9    1.03    0.26
  -4  -4  -9   89.95    3.45
  -4  -4  -9   80.97    3.99
   4   4   9   94.12    3.70
  -5  -4  -9   31.62    1.76
  -5  -4  -9   32.48    1.58
   5   4   9   34.08    1.55
  -6  -4  -9   47.30    2.39
  -6  -4  -9   49.66    2.19
   6   4   9   48.16    2.14
  -7  -4  -9   46.05    2.24
   7   4   9   52.65    2.23
  -8  -4  -9    1.53    0.41
   8   4   9    1.50    0.31
   9   4   9   47.52    2.18
   6  -5  -9   17.06    1.33
  -6   5   9   18.28    1.23
  -6   5   9   16.84    1.03
   5  -5  -9   12.07    1.11
  -5   5   9   12.45    0.83
  -5   5   9   13.94    1.02
   4  -5  -9   72.55    3.69
  -4   5   9   77.97    3.41
  -4   5   9   75.82    2.90
   3  -5  -9    0.61    0.39
  -3   5   9    1.03    0.35
  -3   5   9    0.48    0.22
   2  -5  -9   44.89    2.58
  -2   5   9   53.70    2.40
   1  -5  -9   33.49    1.99
  -1   5   9   37.65    1.84
   0  -5  -9    9.67    0.87
   0   5   9    9.78    0.80
  -1  -5  -9  131.16    5.67
  -1  -5  -9  132.30    4.64
   1   5   9  118.80    5.31
  -2  -5  -9    0.50    0.20
  -2  -5  -9    1.02    0.34
   2   5   9    0.05    0.21
  -3  -5  -9  107.42    4.80
   3   5   9  104.10    3.96
   3   5   9  108.66    4.49
  -4  -5  -9   47.94    2.50
   4   5   9   48.51    2.07
   4   5   9   52.64    2.28
  -5  -5  -9   21.89    1.44
   5   5   9   24.69    1.28
   5   5   9   27.32    1.30
  -6  -5  -9   89.54    4.30
   6   5   9  100.08    3.75
   6   5   9   93.25    3.93
  -7  -5  -9    1.92    0.45
   7   5   9    1.25    0.42
   7   5   9    1.03    0.28
   8   5   9   42.16    2.04
   8   5   9   39.33    1.89
   5  -6  -9   45.11    2.60
  -5   6   9   43.52    1.92
  -5   6   9   48.48    2.35
   4  -6  -9   16.31    1.37
  -4   6   9   18.38    1.21
   3  -6  -9   37.95    2.29
  -3   6   9   41.66    2.06
   2  -6  -9   83.26    4.13
  -2   6   9   88.63    3.79
   1  -6  -9    0.36    0.34
  -1   6   9    0.29    0.28
   0  -6  -9  133.81    5.78
   0   6   9  123.65    5.38
  -1  -6  -9   54.71    2.69
   1   6   9   52.46    2.53
  -2  -6  -9   69.42    3.23
   2   6   9   65.40    2.56
   2   6   9   65.46    3.04
  -3  -6  -9   90.01    4.19
   3   6   9   92.82    3.42
   3   6   9   88.35    3.93
  -4  -6  -9    4.24    0.66
   4   6   9    5.14    0.53
   4   6   9    5.86    0.66
  -5  -6  -9   75.11    4.04
   5   6   9   91.63    3.77
   5   6   9   95.36    3.44
  -6  -6  -9   15.36    1.18
   6   6   9   16.24    0.99
   6   6   9   18.14    1.07
  -7  -6  -9   22.54    1.47
   7   6   9   20.47    1.18
   7   6   9   23.41    1.33
  -8  -6  -9   58.98    3.08
   8   6   9   64.45    2.79
   4  -7  -9   23.30    1.73
  -4   7   9   25.78    1.54
   3  -7  -9   84.26    4.09
  -3   7   9   80.91    3.70
   2  -7  -9    2.52    0.59
  -2   7   9    2.78    0.49
   1  -7  -9   72.63    3.53
  -1   7   9   71.39    3.25
   0  -7  -9   60.16    2.91
   0   7   9   54.69    2.66
  -1  -7  -9   14.75    1.12
   1   7   9   15.64    1.07
  -2  -7  -9   72.32    3.40
   2   7   9   68.07    3.19
  -3  -7  -9    4.56    0.68
   3   7   9    4.71    0.48
   3   7   9    3.75    0.59
  -4  -7  -9   60.38    3.16
   4   7   9   60.06    2.92
   4   7   9   69.28    2.57
  -5  -7  -9   32.58    2.05
   5   7   9   37.71    1.68
   5   7   9   38.89    1.89
  -6  -7  -9   15.12    1.22
   6   7   9   18.40    1.07
   6   7   9   15.27    1.03
  -7  -7  -9   49.10    2.68
   7   7   9   50.87    2.27
   3  -8  -9   12.53    1.19
  -3   8   9   12.63    1.05
   2  -8  -9   19.33    1.43
  -2   8   9   19.54    1.27
   1  -8  -9   60.31    3.08
  -1   8   9   61.44    2.86
   0  -8  -9    3.03    0.58
   0   8   9    2.88    0.49
  -1  -8  -9   89.94    4.16
   1   8   9   86.09    3.87
  -2  -8  -9   22.58    1.49
   2   8   9   24.44    1.43
  -3  -8  -9   16.05    1.22
   3   8   9   15.89    1.13
  -4  -8  -9   52.11    2.76
   4   8   9   55.09    2.17
   4   8   9   46.72    2.49
  -5  -8  -9    0.31    0.36
   5   8   9    0.18    0.28
   5   8   9   -0.05    0.32
  -6  -8  -9   43.67    2.53
   6   8   9   46.08    2.05
   1  -9  -9    4.64    0.73
  -1   9   9    4.00    0.63
   0  -9  -9   38.97    2.21
   0   9   9   39.40    2.03
  -1  -9  -9   28.40    1.79
   1   9   9   30.23    1.66
  -2  -9  -9    8.91    1.06
   2   9   9    9.17    0.86
  -3  -9  -9   47.31    2.59
   3   9   9   47.07    2.37
  -4  -9  -9    4.05    0.75
   4   9   9    4.27    0.69
   5   9   9   37.54    1.75
   1   8 -10   47.53    2.11
  -1  -8  10   48.84    2.10
   0   8 -10   14.07    0.88
   0  -8  10   12.06    0.85
  -1   8 -10   24.05    1.24
   4   7 -10   41.56    1.93
  -4  -7  10   39.56    1.80
   3   7 -10    3.71    0.54
  -3  -7  10    2.88    0.41
   2   7 -10   24.23    1.30
  -2  -7  10   27.80    1.27
   1   7 -10   28.45    1.37
  -1  -7  10   27.64    1.32
   0   7 -10   20.19    1.08
   0  -7  10   20.96    1.09
  -1   7 -10   55.12    2.19
   1  -7  10   49.25    2.16
  -2   7 -10    1.44    0.32
   2  -7  10    1.70    0.39
  -3   7 -10   46.14    1.94
   3  -7  10   43.56    2.02
  -4   7 -10   18.71    1.03
   4  -7  10   17.69    1.19
   5   6 -10   46.73    2.22
  -5  -6  10   48.74    1.99
   4   6 -10   15.46    1.01
  -4  -6  10   14.84    0.87
   3   6 -10   44.24    1.96
  -3  -6  10   44.67    1.84
   2   6 -10   59.95    2.38
  -2  -6  10   55.67    2.27
   1   6 -10    0.70    0.24
  -1  -6  10    1.10    0.26
   0   6 -10   78.94    3.04
   0  -6  10   78.13    2.99
  -1   6 -10   25.43    1.22
   1  -6  10   25.61    1.24
  -2   6 -10   42.98    1.84
   2  -6  10   44.31    1.89
  -3   6 -10   49.04    1.98
   3  -6  10   44.03    2.02
  -4   6 -10    1.56    0.32
   4  -6  10    0.98    0.29
   4  -6  10    1.81    0.43
  -5   6 -10   39.19    1.71
  -5   6 -10   38.98    1.88
   5  -6  10   36.79    1.93
   6   5 -10   53.36    2.50
   5   5 -10   20.52    1.14
   5   5 -10   19.87    1.23
  -5  -5  10   21.14    1.06
   4   5 -10   20.32    1.15
  -4  -5  10   19.65    1.00
   3   5 -10   56.92    2.37
  -3  -5  10   58.12    2.26
   2   5 -10    9.05    0.65
  -2  -5  10    9.19    0.62
   1   5 -10   93.53    3.50
  -1  -5  10   90.86    3.39
   0   5 -10   22.71    1.08
   0  -5  10   21.32    1.05
  -1   5 -10   14.67    0.83
   1  -5  10   15.30    0.84
  -2   5 -10   96.14    3.64
   2  -5  10   98.09    3.64
  -3   5 -10    2.29    0.36
   3  -5  10    1.95    0.32
   3  -5  10    2.56    0.44
  -4   5 -10   51.24    2.10
   4  -5  10   49.95    2.25
   4  -5  10   52.24    2.24
  -5   5 -10   33.65    1.54
   5  -5  10   34.04    1.66
   5  -5  10   36.99    1.81
  -6   5 -10   14.18    0.84
   6  -5  10   12.31    0.87
   6  -5  10   15.62    1.20
   6   4 -10   28.79    1.50
  -6  -4  10   28.87    1.35
   5   4 -10    6.13    0.55
  -5  -4  10    6.25    0.57
   4   4 -10   77.43    3.38
   4   4 -10   79.27    3.10
  -4  -4  10   75.25    2.91
   3   4 -10   22.77    1.17
   3   4 -10   24.14    1.17
  -3  -4  10   21.89    1.06
   2   4 -10   30.96    1.40
  -2  -4  10   30.21    1.32
   1   4 -10   45.71    1.87
  -1  -4  10   45.28    1.81
   0   4 -10    1.15    0.26
   0  -4  10    1.29    0.26
  -1   4 -10   70.07    2.69
   1  -4  10   69.08    2.65
  -2   4 -10   22.32    1.08
   2  -4  10   22.68    1.11
   2  -4  10   23.34    1.10
  -3   4 -10   36.86    1.57
   3  -4  10   35.90    1.64
   3  -4  10   37.03    1.63
  -4   4 -10   63.73    2.48
   4  -4  10   63.59    2.60
   4  -4  10   61.63    2.68
  -5   4 -10    0.21    0.20
   5  -4  10    0.13    0.20
   5  -4  10    0.16    0.31
  -6   4 -10   45.61    1.91
   6  -4  10   45.78    2.08
   6  -4  10   43.77    2.24
  -7   4 -10    4.55    0.51
   7  -4  10    4.67    0.54
   7   3 -10   48.35    2.33
   6   3 -10    0.18    0.22
  -6  -3  10    0.56    0.27
   5   3 -10   66.78    2.97
  -5  -3  10   65.19    2.56
   4   3 -10   52.42    2.21
   4   3 -10   53.97    2.38
  -4  -3  10   50.21    2.06
   3   3 -10   22.10    1.12
   3   3 -10   22.32    1.14
  -3  -3  10   23.34    1.06
   2   3 -10   93.30    3.54
   2   3 -10   96.39    4.00
  -2  -3  10   92.99    3.42
   1   3 -10   12.13    0.72
  -1  -3  10   13.72    0.71
   0   3 -10   72.81    2.73
   0  -3  10   69.82    2.65
  -1   3 -10   57.93    2.28
   1  -3  10   57.05    2.41
   1  -3  10   59.77    2.24
  -2   3 -10   11.23    0.68
   2  -3  10   12.02    0.71
   2  -3  10   12.60    0.68
  -3   3 -10   55.57    2.29
   3  -3  10   62.45    2.36
   3  -3  10   58.14    2.47
  -4   3 -10    3.87    0.43
   4  -3  10    4.61    0.42
   4  -3  10    4.43    0.54
  -5   3 -10  108.07    3.97
   5  -3  10  106.05    4.14
   5  -3  10  105.34    4.35
  -6   3 -10   51.15    2.12
   6  -3  10   52.58    2.31
  -7   3 -10    6.79    0.61
   7  -3  10    6.05    0.61
   7   2 -10    3.47    0.49
  -7  -2  10    4.18    0.55
   6   2 -10   21.74    1.24
  -6  -2  10   23.09    1.17
   5   2 -10   51.40    2.38
  -5  -2  10   51.36    2.10
   4   2 -10    0.28    0.19
  -4  -2  10    0.22    0.19
   3   2 -10  104.87    3.91
   3   2 -10  105.29    4.45
  -3  -2  10  103.42    3.78
   2   2 -10   16.08    0.85
   2   2 -10   16.32    0.84
  -2  -2  10   15.19    0.79
   1   2 -10   51.26    2.01
   1   2 -10   48.97    2.20
  -1  -2  10   50.36    1.94
   0   2 -10  107.97    3.98
   0  -2  10  108.64    4.32
   0  -2  10  109.07    3.88
  -1   2 -10    2.56    0.33
   1  -2  10    2.07    0.29
   1  -2  10    1.96    0.25
  -2   2 -10   93.57    3.50
   2  -2  10   95.63    3.81
   2  -2  10   93.37    3.44
  -3   2 -10   12.69    0.72
   3  -2  10   12.84    0.76
   3  -2  10   13.07    0.72
  -4   2 -10   15.13    0.83
   4  -2  10   16.89    0.94
   4  -2  10   16.47    0.87
  -5   2 -10   89.36    3.41
   5  -2  10   92.04    3.74
  -6   2 -10    0.20    0.19
   6  -2  10    0.16    0.19
  -7   2 -10   75.58    2.97
   7  -2  10   77.08    3.26
  -8   2 -10   21.42    1.14
   8  -2  10   22.89    1.24
   7   1 -10   10.83    0.83
  -7  -1  10   12.09    0.88
   6   1 -10   82.76    3.75
  -6  -1  10   86.09    3.29
   5   1 -10    9.91    0.72
  -5  -1  10   10.72    0.72
   4   1 -10   53.64    2.45
  -4  -1  10   53.70    2.14
   3   1 -10   22.11    1.16
  -3  -1  10   22.85    1.06
   2   1 -10   22.50    1.15
   2   1 -10   23.90    1.08
  -2  -1  10   22.53    1.03
   1   1 -10  124.91    4.48
   1   1 -10  121.83    5.16
  -1  -1  10  121.46    4.87
  -1  -1  10  125.23    4.36
   0   1 -10    3.88    0.33
   0   1 -10    3.68    0.39
   0  -1  10    4.20    0.33
   0  -1  10    4.20    0.39
  -1   1 -10   99.19    3.66
   1  -1  10  100.70    3.56
   1  -1  10   98.08    3.98
  -2   1 -10   77.05    2.88
   2  -1  10   75.52    2.80
   2  -1  10   75.14    3.10
  -3   1 -10   22.34    1.05
   3  -1  10   22.69    1.07
   3  -1  10   20.74    1.03
  -4   1 -10  186.33    6.73
   4  -1  10  190.66    7.44
  -5   1 -10    3.12    0.39
   5  -1  10    2.70    0.34
  -6   1 -10   60.18    2.44
   6  -1  10   61.63    2.62
  -7   1 -10   47.79    2.00
   7  -1  10   46.35    2.12
  -8   1 -10   13.62    0.83
   8  -1  10   11.14    0.80
   7   0 -10   50.85    2.55
  -7   0  10   57.05    2.39
   6   0 -10   17.18    1.06
  -6   0  10   17.32    1.05
   5   0 -10   54.35    2.63
  -5   0  10   60.83    2.38
   4   0 -10   85.99    3.81
  -4   0  10   88.04    3.29
   3   0 -10    8.22    0.58
  -3   0  10    6.96    0.53
   2   0 -10  107.76    3.95
   2   0 -10  106.26    4.58
  -2   0  10  108.64    3.87
  -2   0  10  107.96    4.32
   1   0 -10   28.89    1.23
   1   0 -10   28.85    1.36
  -1   0  10   27.34    1.26
  -1   0  10   26.41    1.17
   0   0 -10   77.29    2.91
   0   0 -10   77.00    3.32
   0   0  10   75.50    3.14
   0   0  10   79.13    2.81
  -1   0 -10  106.81    3.95
  -1   0 -10  108.79    4.54
   1   0  10  104.87    4.31
   1   0  10  110.60    3.82
  -2   0 -10    1.28    0.25
   2   0  10    0.85    0.19
   2   0  10    1.10    0.21
  -3   0 -10  104.67    3.89
   3   0  10  104.61    4.22
  -4   0 -10   58.43    2.35
   4   0  10   59.67    2.50
  -5   0 -10   26.63    1.27
   5   0  10   26.52    1.28
  -6   0 -10   37.08    1.67
   6   0  10   37.97    1.72
  -7   0 -10    0.10    0.21
   7   0  10    0.27    0.21
  -8   0 -10   55.01    2.31
   8   0  10   53.06    2.41
   7  -1 -10   24.70    1.42
  -7   1  10   23.68    1.38
   6  -1 -10    7.02    0.67
  -6   1  10    8.42    0.82
   5  -1 -10   82.09    3.69
  -5   1  10   82.50    3.22
   4  -1 -10    0.48    0.22
  -4   1  10    0.46    0.25
   3  -1 -10   65.18    3.00
  -3   1  10   66.35    2.57
  -3   1  10   68.67    2.89
   2  -1 -10   75.76    3.42
  -2   1  10   78.79    2.89
  -2   1  10   78.39    3.26
   1  -1 -10   16.23    0.81
   1  -1 -10   15.87    0.91
  -1   1  10   15.87    0.77
  -1   1  10   15.00    0.84
   0  -1 -10  142.62    5.18
   0  -1 -10  143.79    6.09
   0   1  10  147.29    5.02
   0   1  10  142.74    5.74
  -1  -1 -10   12.55    0.70
  -1  -1 -10   12.74    0.79
   1   1  10   12.09    0.69
   1   1  10   12.55    0.62
  -2  -1 -10   77.20    2.88
  -2  -1 -10   75.02    3.33
   2   1  10   72.31    3.08
  -3  -1 -10  116.48    4.30
   3   1  10  115.56    4.66
  -4  -1 -10   26.93    1.28
   4   1  10   26.48    1.26
  -5  -1 -10   84.21    3.31
   5   1  10   85.49    3.51
  -6  -1 -10    8.97    0.69
   6   1  10    8.46    0.60
  -7  -1 -10   33.77    1.61
   7   1  10   32.47    1.57
  -8  -1 -10   30.93    1.56
   8   1  10   31.55    1.54
  -7   2  10    0.64    0.38
   6  -2 -10   61.48    2.88
  -6   2  10   57.94    2.52
   5  -2 -10   30.73    1.61
  -5   2  10   27.42    1.43
   4  -2 -10   55.22    2.65
  -4   2  10   59.93    2.64
  -4   2  10   52.35    2.27
   3  -2 -10  102.24    4.55
  -3   2  10  102.34    3.81
  -3   2  10  105.57    4.38
   2  -2 -10    1.92    0.36
  -2   2  10    1.22    0.26
  -2   2  10    1.66    0.35
   1  -2 -10   81.71    3.65
  -1   2  10   81.42    2.96
  -1   2  10   79.79    3.43
   0  -2 -10   13.09    0.90
   0  -2 -10   13.93    0.74
   0   2  10   13.42    0.80
  -1  -2 -10   24.04    1.13
  -1  -2 -10   24.10    1.37
   1   2  10   23.80    1.18
  -2  -2 -10   47.69    2.32
  -2  -2 -10   47.41    1.95
   2   2  10   45.60    2.04
  -3  -2 -10    0.62    0.24
  -3  -2 -10    0.70    0.28
   3   2  10    0.70    0.20
  -4  -2 -10   58.43    2.42
   4   2  10   58.57    2.50
  -5  -2 -10   23.16    1.24
   5   2  10   23.78    1.17
  -6  -2 -10   28.23    1.47
   6   2  10   30.27    1.42
  -7  -2 -10   70.12    2.93
   7   2  10   69.38    2.98
  -8  -2 -10    1.77    0.43
   8   2  10    0.98    0.27
   6  -3 -10   30.43    1.74
  -6   3  10   30.48    1.53
   5  -3 -10   12.14    0.95
  -5   3  10   11.08    0.83
   4  -3 -10   33.27    1.83
  -4   3  10   35.44    1.77
  -4   3  10   32.19    1.53
   3  -3 -10   15.91    1.12
  -3   3  10   16.64    0.93
  -3   3  10   17.92    1.10
   2  -3 -10   70.89    3.42
  -2   3  10   79.60    3.28
  -2   3  10   68.44    2.74
   1  -3 -10   75.98    3.46
  -1   3  10   69.99    3.20
   0  -3 -10    1.59    0.40
   0  -3 -10    0.89    0.22
   0   3  10    1.97    0.38
  -1  -3 -10   47.83    2.48
  -1  -3 -10   49.21    2.02
   1   3  10   51.25    2.25
  -2  -3 -10   23.26    1.34
  -2  -3 -10   19.43    1.05
   2   3  10   20.59    1.10
  -3  -3 -10  101.91    4.36
  -3  -3 -10   91.79    3.67
   3   3  10   94.86    3.97
  -4  -3 -10   35.94    1.71
  -4  -3 -10   40.24    1.96
   4   3  10   36.11    1.71
  -5  -3 -10    9.87    0.76
   5   3  10    9.35    0.64
  -6  -3 -10   92.24    3.75
   6   3  10   95.14    3.90
  -7  -3 -10    7.82    0.83
   7   3  10    7.20    0.58
  -8  -3 -10   45.47    2.21
   8   3  10   48.44    2.16
   6  -4 -10   -0.02    0.32
  -6   4  10    0.08    0.28
   5  -4 -10   59.90    3.01
  -5   4  10   57.31    2.42
  -5   4  10   60.94    2.77
   4  -4 -10   13.15    1.09
  -4   4  10   13.14    0.83
  -4   4  10   12.97    0.95
   3  -4 -10   33.54    2.00
  -3   4  10   38.63    1.88
  -3   4  10   35.55    1.57
   2  -4 -10   71.13    3.67
  -2   4  10   82.80    3.46
   1  -4 -10    4.81    0.72
  -1   4  10    8.18    0.72
   0  -4 -10  138.53    6.09
   0   4  10  134.38    5.67
  -1  -4 -10   25.83    1.19
  -1  -4 -10   25.74    1.52
   1   4  10   22.72    1.33
  -2  -4 -10   60.50    2.78
  -2  -4 -10   52.81    2.25
   2   4  10   53.70    2.50
  -3  -4 -10  124.68    5.36
  -3  -4 -10  116.67    4.51
   3   4  10  120.88    4.98
  -4  -4 -10    0.25    0.24
  -4  -4 -10    0.37    0.24
   4   4  10    0.36    0.20
  -5  -4 -10   74.09    2.98
  -5  -4 -10   67.75    3.39
   5   4  10   76.19    3.12
  -6  -4 -10   23.37    1.28
   6   4  10   21.04    1.15
  -7  -4 -10   42.98    2.04
   7   4  10   41.29    1.94
  -8  -4 -10   66.92    3.08
   8   4  10   76.38    3.14
   5  -5 -10   16.88    1.38
  -5   5  10   19.34    1.21
  -5   5  10   17.31    1.02
   4  -5 -10    2.04    0.58
  -4   5  10    3.52    0.53
   3  -5 -10   81.12    4.14
  -3   5  10   90.29    3.81
   2  -5 -10    1.82    0.51
  -2   5  10    2.45    0.47
   1  -5 -10   59.24    3.06
  -1   5  10   61.14    2.80
   0  -5 -10   48.61    2.48
   0   5  10   44.29    2.25
  -1  -5 -10   37.62    1.95
   1   5  10   30.82    1.75
  -2  -5 -10  163.91    5.95
  -2  -5 -10  172.39    7.17
   2   5  10  157.47    6.75
  -3  -5 -10    0.77    0.33
  -3  -5 -10    0.68    0.25
   3   5  10    1.06    0.35
  -4  -5 -10   45.09    2.36
  -4  -5 -10   45.72    1.99
   4   5  10   47.23    2.17
  -5  -5 -10   81.73    3.11
  -5  -5 -10   68.42    3.57
   5   5  10   78.65    3.31
  -6  -5 -10    0.75    0.34
  -6  -5 -10    2.14    0.43
   6   5  10    1.68    0.34
  -7  -5 -10   61.38    2.70
   7   5  10   61.18    2.72
  -8  -5 -10    6.51    0.79
   8   5  10    7.80    0.65
   4  -6 -10   92.43    4.82
  -4   6  10  109.40    4.45
   3  -6 -10   23.79    1.71
  -3   6  10   27.38    1.51
   2  -6 -10   45.80    2.61
  -2   6  10   50.56    2.37
   1  -6 -10   72.80    3.61
  -1   6  10   73.98    3.31
   0  -6 -10    0.12    0.28
   0   6  10    0.65    0.36
  -1  -6 -10   82.77    3.91
   1   6  10   83.36    3.71
  -2  -6 -10   53.96    2.62
   2   6  10   48.21    2.45
  -3  -6 -10   19.72    1.00
  -3  -6 -10   18.46    1.24
   3   6  10   16.71    1.17
  -4  -6 -10   69.24    3.40
   4   6  10   71.47    2.78
   4   6  10   70.07    3.17
  -5  -6 -10    0.02    0.26
   5   6  10    0.18    0.26
   5   6  10    0.31    0.28
  -6  -6 -10   66.42    3.55
   6   6  10   75.15    3.24
   6   6  10   78.67    3.04
  -7  -6 -10   22.56    1.54
   7   6  10   23.87    1.35
   7   6  10   23.05    1.29
   3  -7 -10   16.96    1.40
  -3   7  10   16.46    1.15
   2  -7 -10   77.72    3.76
  -2   7  10   72.42    3.38
   1  -7 -10    4.63    0.74
  -1   7  10    5.36    0.67
   0  -7 -10   43.53    2.32
   0   7  10   41.51    2.13
  -1  -7 -10   55.68    2.79
   1   7  10   53.63    2.61
  -2  -7 -10    7.72    0.89
   2   7  10    6.33    0.78
  -3  -7 -10   49.43    2.52
   3   7  10   45.72    2.37
  -4  -7 -10    9.32    0.91
   4   7  10    8.94    0.69
   4   7  10    8.59    0.91
  -5  -7 -10   33.06    2.05
   5   7  10   35.89    1.89
   5   7  10   37.77    1.68
  -6  -7 -10   29.14    1.91
   6   7  10   31.59    1.71
   6   7  10   35.51    1.63
  -7  -7 -10    1.48    0.51
   7   7  10    1.01    0.35
   2  -8 -10   16.91    1.32
  -2   8  10   14.92    1.12
   1  -8 -10   15.97    1.23
  -1   8  10   15.15    1.11
   0  -8 -10   58.66    2.97
   0   8  10   57.28    2.74
  -1  -8 -10    1.19    0.43
   1   8  10    0.94    0.40
  -2  -8 -10   38.40    2.15
   2   8  10   38.40    2.02
  -3  -8 -10   31.13    1.82
   3   8  10   27.53    1.67
  -4  -8 -10   16.04    1.25
   4   8  10   14.13    0.89
   4   8  10   14.54    1.14
  -5  -8 -10   57.47    3.07
   5   8  10   60.72    2.44
   5   8  10   56.02    2.81
  -1  -9 -10   48.39    2.56
   1   9  10   45.57    2.33
  -2  -9 -10   20.74    1.44
   2   9  10   20.50    1.35
  -3  -9 -10    3.03    0.68
   3   9  10    2.25    0.56
   2   7 -11    1.41    0.37
  -2  -7  11    1.67    0.35
   1   7 -11   38.44    1.72
  -1  -7  11   35.65    1.65
   0   7 -11   27.04    1.35
   0  -7  11   28.27    1.36
  -1   7 -11   13.94    0.90
   1  -7  11   14.83    0.94
  -2   7 -11   33.10    1.55
   2  -7  11   33.09    1.61
   4   6 -11   74.08    3.08
  -4  -6  11   72.78    2.92
   3   6 -11   19.94    1.14
  -3  -6  11   20.32    1.06
   2   6 -11   24.47    1.30
  -2  -6  11   27.55    1.26
   1   6 -11   50.01    2.10
  -1  -6  11   49.11    2.03
   0   6 -11    2.70    0.42
   0  -6  11    2.02    0.38
  -1   6 -11   48.93    2.02
   1  -6  11   46.24    2.01
  -2   6 -11   16.01    0.93
   2  -6  11   16.30    0.98
  -3   6 -11   20.70    1.11
   3  -6  11   21.23    1.19
  -4   6 -11   34.10    1.59
   4  -6  11   35.28    1.70
   4  -6  11   35.64    1.77
  -5  -5  11   29.70    1.44
   4   5 -11   14.32    1.01
  -4  -5  11   15.64    0.88
   3   5 -11   25.75    1.34
  -3  -5  11   26.71    1.25
   2   5 -11   34.37    1.58
  -2  -5  11   33.88    1.50
   1   5 -11    0.23    0.23
  -1  -5  11    0.60    0.25
   0   5 -11   64.86    2.55
   0  -5  11   63.17    2.50
  -1   5 -11   54.37    2.19
   1  -5  11   52.49    2.17
  -2   5 -11    7.24    0.58
   2  -5  11    6.99    0.65
  -3   5 -11   66.38    2.62
   3  -5  11   67.35    2.69
   3  -5  11   63.67    2.79
  -4   5 -11    2.63    0.41
   4  -5  11    3.23    0.42
   4  -5  11    4.84    0.67
  -5   5 -11   40.90    1.81
   5  -5  11   41.81    2.07
   5  -5  11   42.36    1.96
   5   4 -11   43.15    2.08
  -5  -4  11   44.32    1.87
   4   4 -11    2.31    0.45
  -4  -4  11    2.87    0.40
   3   4 -11   44.80    1.99
  -3  -4  11   46.72    1.89
   2   4 -11   28.22    1.33
  -2  -4  11   26.85    1.25
   1   4 -11   26.64    1.23
  -1  -4  11   23.96    1.16
   0   4 -11   44.14    1.85
   0  -4  11   44.04    1.81
  -1   4 -11    0.31    0.21
   1  -4  11    0.09    0.20
  -2   4 -11  102.65    3.79
   2  -4  11  100.91    4.09
   2  -4  11   98.67    3.76
  -3   4 -11   33.02    1.50
   3  -4  11   33.15    1.55
   3  -4  11   35.24    1.59
  -4   4 -11   26.36    1.24
   4  -4  11   24.94    1.26
   4  -4  11   24.72    1.35
  -5   4 -11   48.49    2.04
   5  -4  11   48.49    2.20
   5  -4  11   49.73    2.30
  -6   4 -11    0.44    0.24
   6  -4  11    0.28    0.24
   6   3 -11   38.60    1.89
  -6  -3  11   37.01    1.70
   5   3 -11    1.81    0.35
  -5  -3  11    1.70    0.35
   4   3 -11   63.81    2.88
  -4  -3  11   65.24    2.53
   3   3 -11   52.45    2.20
   3   3 -11   52.40    2.36
  -3  -3  11   51.72    2.08
   2   3 -11   14.11    0.83
  -2  -3  11   13.59    0.77
   1   3 -11  135.37    4.96
  -1  -3  11  135.90    4.84
   0   3 -11    9.87    0.65
   0  -3  11    9.89    0.63
  -1   3 -11   64.17    2.51
   1  -3  11   62.99    2.64
   1  -3  11   64.17    2.47
  -2   3 -11   40.15    1.72
   2  -3  11   41.66    1.74
   2  -3  11   40.97    1.80
  -3   3 -11    9.61    0.64
   3  -3  11    8.76    0.68
   3  -3  11   10.16    0.63
  -4   3 -11   78.11    3.00
   4  -3  11   76.73    3.24
   4  -3  11   77.89    3.09
  -5   3 -11   13.06    0.79
   5  -3  11   12.92    0.80
  -6   3 -11   38.51    1.70
   6  -3  11   38.48    1.81
  -7   3 -11   40.94    1.82
   7  -3  11   42.23    1.99
   6   2 -11    7.55    0.65
  -6  -2  11    6.49    0.66
   5   2 -11   19.49    1.12
  -5  -2  11   19.24    1.05
   4   2 -11   74.65    3.36
  -4  -2  11   77.70    2.92
   3   2 -11   -0.01    0.20
   3   2 -11    0.28    0.19
  -3  -2  11    0.01    0.17
   2   2 -11   81.99    3.18
   2   2 -11   81.95    3.56
  -2  -2  11   84.50    3.08
   1   2 -11   40.82    1.72
  -1  -2  11   40.05    1.65
   0   2 -11   32.36    1.43
   0  -2  11   32.77    1.45
   0  -2  11   32.24    1.38
  -1   2 -11  122.51    4.51
   1  -2  11  123.74    4.91
   1  -2  11  123.06    4.41
  -2   2 -11    0.81    0.23
   2  -2  11    0.44    0.20
   2  -2  11    0.64    0.19
  -3   2 -11   67.64    2.63
   3  -2  11   67.26    2.81
   3  -2  11   66.46    2.63
  -4   2 -11   21.63    1.07
   4  -2  11   21.23    1.08
  -5   2 -11   38.32    1.66
   5  -2  11   37.83    1.75
  -6   2 -11   69.54    2.76
   6  -2  11   69.75    2.99
  -7   2 -11    3.08    0.42
   7  -2  11    2.73    0.41
   6   1 -11    7.95    0.71
  -6  -1  11   10.16    0.77
   5   1 -11   69.54    3.17
  -5  -1  11   70.79    2.79
   4   1 -11    8.69    0.66
  -4  -1  11    9.21    0.66
   3   1 -11   77.64    3.44
  -3  -1  11   79.47    2.97
   2   1 -11   66.19    2.56
   2   1 -11   62.66    2.85
  -2  -1  11   66.17    2.48
   1   1 -11   23.33    1.10
   1   1 -11   21.82    1.11
  -1  -1  11   21.81    1.02
   0   1 -11  163.12    5.76
   0  -1  11  153.45    6.28
   0  -1  11  162.44    5.60
  -1   1 -11    8.54    0.59
   1  -1  11    8.22    0.53
   1  -1  11    7.84    0.54
  -2   1 -11   92.31    3.44
   2  -1  11   91.45    3.71
   2  -1  11   89.21    3.35
  -3   1 -11   29.87    1.37
   3  -1  11   30.86    1.41
  -4   1 -11    9.46    0.63
   4  -1  11    8.34    0.59
  -5   1 -11   74.70    2.93
   5  -1  11   75.02    3.15
  -6   1 -11   12.39    0.79
   6  -1  11   12.28    0.78
  -7   1 -11   23.50    1.22
   7  -1  11   23.68    1.24
  -8   1 -11   37.56    1.74
   6   0 -11   67.08    3.20
  -6   0  11   72.75    2.90
   5   0 -11   30.38    1.62
  -5   0  11   32.43    1.52
   4   0 -11   20.52    1.19
  -4   0  11   22.95    1.14
   3   0 -11   62.96    2.87
  -3   0  11   64.67    2.50
   2   0 -11    0.74    0.22
  -2   0  11    1.20    0.27
   1   0 -11   85.25    3.84
   1   0 -11   90.97    3.38
  -1   0  11   88.12    3.63
  -1   0  11   93.24    3.28
   0   0 -11   32.63    1.59
   0   0 -11   34.36    1.48
   0   0  11   35.50    1.41
   0   0  11   32.77    1.51
  -1   0 -11   47.07    1.93
   1   0  11   48.04    1.83
   1   0  11   45.24    2.00
  -2   0 -11   80.65    3.09
   2   0  11   80.47    3.31
  -3   0 -11   -0.03    0.14
   3   0  11    0.02    0.14
  -4   0 -11   76.15    2.98
   4   0  11   76.10    3.18
  -5   0 -11   19.10    1.03
   5   0  11   18.41    1.00
  -6   0 -11   10.47    0.73
   6   0  11    9.72    0.67
  -7   0 -11   45.60    2.05
   7   0  11   47.98    2.14
  -8   0 -11    2.74    0.46
   8   0  11    2.46    0.40
   6  -1 -11   43.50    2.20
  -6   1  11   43.54    2.01
   5  -1 -11    5.41    0.62
  -5   1  11    4.67    0.58
   4  -1 -11   82.32    3.73
  -4   1  11   84.23    3.23
   3  -1 -11    0.40    0.23
  -3   1  11    0.11    0.20
   2  -1 -11   74.17    3.38
  -2   1  11   75.85    2.86
  -2   1  11   77.58    3.21
   1  -1 -11   70.80    2.75
   1  -1 -11   70.83    3.17
  -1   1  11   73.14    2.66
  -1   1  11   68.82    2.98
   0  -1 -11   16.77    0.88
   0  -1 -11   16.28    0.96
   0   1  11   17.14    0.81
   0   1  11   15.83    0.88
  -1  -1 -11   88.32    3.31
  -1  -1 -11   86.63    3.81
   1   1  11   85.85    3.57
  -2  -1 -11    4.82    0.51
   2   1  11    3.21    0.38
  -3  -1 -11   37.04    1.64
   3   1  11   36.16    1.66
  -4  -1 -11  113.48    4.29
   4   1  11  113.52    4.61
  -5  -1 -11    1.43    0.34
   5   1  11    1.36    0.29
  -6  -1 -11   54.75    2.33
   6   1  11   52.79    2.36
  -7  -1 -11   12.14    0.86
   7   1  11   10.88    0.75
  -8  -1 -11   25.66    1.40
   8   1  11   25.53    1.34
   6  -2 -11   -0.06    0.25
  -6   2  11   -0.05    0.31
   5  -2 -11   51.05    2.49
  -5   2  11   48.71    2.16
   4  -2 -11   14.37    1.01
  -4   2  11   15.00    0.92
   3  -2 -11   12.23    0.88
  -3   2  11   10.88    0.85
  -3   2  11   12.17    0.77
   2  -2 -11   40.57    2.05
  -2   2  11   38.37    1.68
  -2   2  11   43.10    1.98
   1  -2 -11    0.43    0.26
  -1   2  11    0.69    0.26
   0  -2 -11   42.59    1.81
   0  -2 -11   44.38    2.18
   0   2  11   43.55    1.99
  -1  -2 -11   26.29    1.41
  -1  -2 -11   22.25    1.14
   1   2  11   22.79    1.19
  -2  -2 -11   24.17    1.19
  -2  -2 -11   24.23    1.40
   2   2  11   23.88    1.21
  -3  -2 -11   90.81    3.54
  -3  -2 -11   91.32    4.22
   3   2  11   92.23    3.78
  -4  -2 -11    0.24    0.21
   4   2  11    0.49    0.20
  -5  -2 -11   63.66    2.64
   5   2  11   61.43    2.68
  -6  -2 -11   20.88    1.20
   6   2  11   19.80    1.08
  -7  -2 -11   26.04    1.42
   7   2  11   24.82    1.30
  -8  -2 -11   43.20    2.08
   8   2  11   43.70    2.03
  -6   3  11   25.87    1.39
   5  -3 -11   24.08    1.50
  -5   3  11   23.96    1.29
   4  -3 -11   17.34    1.20
  -4   3  11   17.86    1.14
  -4   3  11   16.29    0.99
   3  -3 -11   92.49    4.29
  -3   3  11   89.20    3.50
  -3   3  11   98.37    4.08
   2  -3 -11   21.94    1.41
  -2   3  11   23.03    1.33
   1  -3 -11   69.78    3.32
  -1   3  11   67.92    3.08
   0  -3 -11   92.15    4.39
   0   3  11   99.37    4.09
  -1  -3 -11    0.89    0.28
  -1  -3 -11    0.83    0.32
   1   3  11    1.30    0.31
  -2  -3 -11   81.98    3.32
  -2  -3 -11   88.00    3.99
   2   3  11   87.43    3.64
  -3  -3 -11   25.53    1.36
  -3  -3 -11   31.43    1.65
   3   3  11   28.35    1.41
  -4  -3 -11   77.34    3.31
  -4  -3 -11   90.24    3.89
   4   3  11   83.30    3.52
  -5  -3 -11   54.37    2.41
   5   3  11   56.56    2.46
  -6  -3 -11    4.21    0.60
   6   3  11    3.86    0.45
  -7  -3 -11   74.08    3.14
   7   3  11   72.37    3.15
  -8  -3 -11    6.83    0.80
   8   3  11    6.79    0.62
   5  -4 -11    0.59    0.43
  -5   4  11    0.33    0.32
   4  -4 -11   31.46    1.89
  -4   4  11   30.56    1.68
   3  -4 -11   29.63    1.87
  -3   4  11   33.16    1.72
   2  -4 -11   39.69    2.29
  -2   4  11   43.89    2.13
   1  -4 -11  113.98    5.46
  -1   4  11  126.25    5.13
   0  -4 -11    1.83    0.50
   0   4  11    2.35    0.48
  -1  -4 -11  137.41    5.88
   1   4  11  124.57    5.45
  -2  -4 -11   44.19    1.97
  -2  -4 -11   47.49    2.41
   2   4  11   47.71    2.21
  -3  -4 -11   54.24    2.30
  -3  -4 -11   57.06    2.72
   3   4  11   52.85    2.48
  -4  -4 -11   51.33    2.47
  -4  -4 -11   46.77    2.12
   4   4  11   47.97    2.24
  -5  -4 -11    0.41    0.27
  -5  -4 -11    0.60    0.29
   5   4  11    0.95    0.29
  -6  -4 -11   63.90    2.77
   6   4  11   64.40    2.82
  -7  -4 -11   31.50    1.69
   7   4  11   31.61    1.58
   8   4  11   18.90    1.11
   4  -5 -11   34.41    2.17
  -4   5  11   36.43    1.89
   3  -5 -11    2.48    0.66
  -3   5  11    3.11    0.53
   2  -5 -11   76.35    3.95
  -2   5  11   85.85    3.65
   1  -5 -11   14.61    1.24
  -1   5  11   17.31    1.15
   0  -5 -11   58.57    2.94
   0   5  11   55.48    2.69
  -1  -5 -11   59.81    2.92
   1   5  11   55.02    2.70
  -2  -5 -11    6.33    0.60
  -2  -5 -11    5.67    0.71
   2   5  11    5.83    0.69
  -3  -5 -11  131.02    4.93
  -3  -5 -11  140.46    5.91
   3   5  11  127.32    5.54
  -4  -5 -11   18.24    1.07
  -4  -5 -11   19.99    1.28
   4   5  11   18.56    1.15
  -5  -5 -11   29.35    1.47
  -5  -5 -11   27.97    1.68
   5   5  11   30.16    1.54
  -6  -5 -11   51.83    2.25
  -6  -5 -11   45.56    2.60
   6   5  11   50.09    2.30
  -7  -5 -11    2.93    0.52
   7   5  11    3.35    0.50
  -4   6  11    2.97    0.56
   3  -6 -11   67.55    3.60
  -3   6  11   72.90    3.25
   2  -6 -11   30.75    1.97
  -2   6  11   31.36    1.71
   1  -6 -11   18.07    1.37
  -1   6  11   18.88    1.24
   0  -6 -11   73.98    3.63
   0   6  11   74.38    3.38
  -1  -6 -11    0.23    0.32
   1   6  11   -0.17    0.29
  -2  -6 -11  112.70    4.93
   2   6  11  102.26    4.65
  -3  -6 -11    9.91    0.88
  -3  -6 -11    8.78    0.66
   3   6  11    7.99    0.89
  -4  -6 -11   15.98    0.93
  -4  -6 -11   15.73    1.16
   4   6  11   15.66    1.10
  -5  -6 -11   48.08    2.10
  -5  -6 -11   48.46    2.53
   5   6  11   46.74    2.32
  -6  -6 -11    0.44    0.28
  -6  -6 -11    0.88    0.39
   6   6  11    0.86    0.34
  -7  -6 -11   35.68    1.83
   7   6  11   32.77    1.75
   2  -7 -11    3.78    0.75
  -2   7  11    3.07    0.54
   1  -7 -11   49.70    2.62
  -1   7  11   45.87    2.34
   0  -7 -11    9.86    0.96
   0   7  11    9.52    0.88
  -1  -7 -11   25.39    1.62
   1   7  11   25.96    1.54
  -2  -7 -11   74.36    3.59
   2   7  11   74.43    3.43
  -3  -7 -11    2.04    0.49
   3   7  11    1.70    0.52
  -4  -7 -11   51.03    2.15
  -4  -7 -11   54.33    2.69
   4   7  11   46.22    2.48
  -5  -7 -11   13.25    1.11
   5   7  11   12.19    0.86
   5   7  11   11.96    1.00
  -6  -7 -11   19.19    1.43
   6   7  11   18.53    1.25
   6   7  11   19.41    1.13
   0  -8 -11   21.43    1.49
   0   8  11   22.52    1.40
  -1  -8 -11   63.04    3.16
   1   8  11   62.17    2.96
  -2  -8 -11    0.26    0.32
   2   8  11   -0.28    0.33
  -3  -8 -11   26.82    1.71
   3   8  11   28.19    1.68
  -4  -8 -11   25.98    1.68
   4   8  11   24.87    1.59
   2   6 -12   12.68    0.88
  -2  -6  12   12.50    0.82
   1   6 -12   10.07    0.76
  -1  -6  12    9.84    0.73
   0   6 -12   58.85    2.49
   0  -6  12   62.02    2.47
  -1   6 -12    0.30    0.24
   1  -6  12    0.01    0.26
  -2   6 -12   51.69    2.20
   2  -6  12   52.47    2.25
   3  -6  12   22.13    1.27
   4   5 -12   22.61    1.35
   3   5 -12   33.03    1.61
  -3  -5  12   30.87    1.47
   2   5 -12    6.39    0.65
  -2  -5  12    6.46    0.62
   1   5 -12   49.93    2.17
  -1  -5  12   52.44    2.11
   0   5 -12   15.45    0.90
   0  -5  12   13.70    0.86
  -1   5 -12   34.34    1.57
   1  -5  12   34.17    1.57
  -2   5 -12   52.22    2.21
   2  -5  12   54.37    2.27
  -3   5 -12    9.10    0.71
   3  -5  12   10.72    0.82
  -4   5 -12   32.35    1.51
   4  -5  12   31.31    1.56
   4  -5  12   32.13    1.68
  -4  -4  12   68.73    2.71
   3   4 -12    1.75    0.39
  -3  -4  12    2.30    0.39
   2   4 -12   34.60    1.65
  -2  -4  12   36.26    1.58
   1   4 -12   13.87    0.87
  -1  -4  12   15.15    0.85
   0   4 -12   36.00    1.66
   0  -4  12   38.81    1.64
  -1   4 -12   63.04    2.57
   1  -4  12   65.55    2.57
  -2   4 -12    0.47    0.23
   2  -4  12    0.33    0.25
  -3   4 -12   68.56    2.70
   3  -4  12   66.08    2.74
   3  -4  12   67.28    2.86
  -4   4 -12   27.85    1.35
   4  -4  12   28.27    1.51
   4  -4  12   28.60    1.40
  -5   4 -12    9.26    0.71
   5  -4  12   10.84    0.75
   5   3 -12   53.61    2.56
  -5  -3  12   57.07    2.31
   4   3 -12    9.64    0.70
  -4  -3  12   10.06    0.73
   3   3 -12   56.48    2.43
  -3  -3  12   57.89    2.30
   2   3 -12   53.64    2.23
  -2  -3  12   51.29    2.11
   1   3 -12    8.53    0.66
  -1  -3  12    8.58    0.62
   0   3 -12   63.66    2.50
   0  -3  12   59.97    2.41
  -1   3 -12   10.98    0.76
   1  -3  12   13.88    0.80
  -2   3 -12   43.23    1.83
   2  -3  12   43.37    1.89
   2  -3  12   41.04    1.82
  -3   3 -12   53.31    2.18
   3  -3  12   50.57    2.21
   3  -3  12   53.86    2.30
  -4   3 -12    5.27    0.55
   4  -3  12    4.91    0.51
  -5   3 -12   98.58    3.78
   5  -3  12   99.78    4.13
  -6   3 -12   19.08    1.05
   6  -3  12   19.10    1.10
   5   2 -12   18.71    1.12
  -5  -2  12   20.29    1.10
   4   2 -12   29.05    1.48
  -4  -2  12   28.66    1.38
   3   2 -12   56.62    2.53
  -3  -2  12   54.40    2.24
   2   2 -12    0.09    0.20
  -2  -2  12    0.43    0.22
   1   2 -12  107.31    4.07
  -1  -2  12  108.89    3.96
   0   2 -12   33.69    1.52
   0  -2  12   33.31    1.46
  -1   2 -12   33.43    1.49
   1  -2  12   31.66    1.44
   1  -2  12   33.81    1.50
  -2   2 -12   90.40    3.39
   2  -2  12   89.19    3.63
   2  -2  12   85.64    3.32
  -3   2 -12    1.60    0.31
   3  -2  12    2.25    0.33
  -4   2 -12   62.37    2.55
   4  -2  12   64.27    2.72
  -5   2 -12   35.85    1.62
   5  -2  12   35.83    1.69
  -6   2 -12   18.29    1.04
   6  -2  12   19.51    1.08
  -7   2 -12   59.78    2.60
   5   1 -12    6.52    0.62
  -5  -1  12    5.16    0.61
   4   1 -12   82.14    3.67
  -4  -1  12   83.52    3.21
   3   1 -12    4.92    0.49
  -3  -1  12    4.66    0.52
   2   1 -12   65.21    2.94
  -2  -1  12   67.62    2.58
   1   1 -12   63.86    2.62
  -1  -1  12   67.27    2.53
   0   1 -12    0.93    0.26
   0  -1  12    0.38    0.18
   0  -1  12    0.53    0.24
  -1   1 -12   97.52    3.61
   1  -1  12   94.91    3.49
   1  -1  12   92.41    3.85
  -2   1 -12   10.36    0.69
   2  -1  12    8.85    0.60
  -3   1 -12   30.20    1.41
   3  -1  12   29.93    1.42
  -4   1 -12   43.26    1.85
   4  -1  12   41.85    1.91
  -5   1 -12    1.54    0.32
   5  -1  12    1.20    0.28
  -6   1 -12   60.39    2.48
   6  -1  12   58.42    2.60
  -7   1 -12    4.32    0.54
   7  -1  12    3.44    0.46
   5   0 -12   60.35    2.92
  -5   0  12   65.90    2.64
   4   0 -12   24.65    1.36
  -4   0  12   24.83    1.27
   3   0 -12   14.97    0.92
  -3   0  12   14.08    0.87
   2   0 -12   62.49    2.87
  -2   0  12   65.54    2.50
   1   0 -12    0.04    0.17
   1   0 -12    0.12    0.20
  -1   0  12    0.19    0.19
  -1   0  12    0.74    0.21
   0   0 -12   63.10    2.48
   0   0  12   62.17    2.37
   0   0  12   59.53    2.59
  -1   0 -12   58.24    2.30
   1   0  12   53.58    2.37
  -2   0 -12    8.98    0.66
   2   0  12    9.04    0.60
  -3   0 -12   70.52    2.82
   3   0  12   71.47    2.99
  -4   0 -12    2.26    0.39
   4   0  12    3.17    0.38
  -5   0 -12   53.75    2.25
   5   0  12   51.17    2.31
  -6   0 -12   28.93    1.45
   6   0  12   28.39    1.42
  -7   0 -12   18.46    1.07
   7   0  12   14.85    0.95
   5  -1 -12   38.08    2.00
  -5   1  12   39.12    1.82
   4  -1 -12    7.88    0.70
  -4   1  12    8.84    0.80
   3  -1 -12   45.79    2.23
  -3   1  12   46.13    1.95
   2  -1 -12    5.74    0.56
  -2   1  12    5.88    0.56
   1  -1 -12   23.08    1.29
  -1   1  12   24.50    1.13
  -1   1  12   23.85    1.21
   0  -1 -12   65.39    2.95
   0  -1 -12   65.32    2.59
   0   1  12   63.59    2.76
  -1  -1 -12    4.02    0.49
  -1  -1 -12    3.89    0.48
   1   1  12    4.56    0.46
  -2  -1 -12   73.10    2.84
   2   1  12   68.71    2.98
  -3  -1 -12   10.70    0.75
   3   1  12    9.25    0.65
  -4  -1 -12   63.72    2.64
   4   1  12   63.99    2.74
  -5  -1 -12   50.26    2.22
   5   1  12   51.33    2.26
  -6  -1 -12    8.52    0.82
   6   1  12    7.35    0.60
  -7  -1 -12   30.13    1.55
   7   1  12   29.02    1.48
   5  -2 -12    3.17    0.53
  -5   2  12    3.50    0.55
   4  -2 -12   31.11    1.73
  -4   2  12   31.17    1.52
   3  -2 -12   16.23    1.12
  -3   2  12   17.86    0.99
   2  -2 -12    9.12    0.77
  -2   2  12    8.36    0.72
   1  -2 -12   52.95    2.59
  -1   2  12   53.46    2.42
   0  -2 -12    0.71    0.29
   0   2  12    0.91    0.27
  -1  -2 -12   77.87    3.04
  -1  -2 -12   76.59    3.57
   1   2  12   77.35    3.29
  -2  -2 -12   31.32    1.49
  -2  -2 -12   32.06    1.71
   2   2  12   29.93    1.50
  -3  -2 -12   22.93    1.24
   3   2  12   24.45    1.23
  -4  -2 -12  116.38    4.48
   4   2  12  116.76    4.78
  -5  -2 -12    1.48    0.37
   5   2  12    0.82    0.26
  -6  -2 -12   55.88    2.45
   6   2  12   53.80    2.43
  -7  -2 -12   22.79    1.35
   7   2  12   22.59    1.23
   5  -3 -12   33.87    1.98
  -5   3  12   33.32    1.62
   4  -3 -12   62.13    3.05
  -4   3  12   59.47    2.49
   3  -3 -12    8.13    0.91
  -3   3  12    8.10    0.85
   2  -3 -12  141.54    6.24
  -2   3  12  139.39    5.87
   1  -3 -12   27.66    1.66
  -1   3  12   27.77    1.53
   0  -3 -12   63.88    3.18
   0   3  12   65.62    2.93
  -1  -3 -12   59.23    2.95
  -1  -3 -12   57.81    2.42
   1   3  12   60.62    2.68
  -2  -3 -12   12.37    0.98
  -2  -3 -12   11.02    0.80
   2   3  12   12.16    0.82
  -3  -3 -12  103.26    4.46
  -3  -3 -12   91.24    3.76
   3   3  12   96.54    4.08
  -4  -3 -12   12.59    0.90
   4   3  12   13.70    0.86
  -5  -3 -12   30.44    1.61
   5   3  12   33.43    1.60
  -6  -3 -12   51.35    2.36
   6   3  12   52.25    2.35
  -7  -3 -12    0.16    0.30
   7   3  12    0.60    0.26
   4  -4 -12    1.77    0.54
  -4   4  12    1.26    0.44
   3  -4 -12   60.96    3.28
  -3   4  12   69.14    3.06
   2  -4 -12   21.07    1.54
  -2   4  12   24.28    1.43
   1  -4 -12   53.12    2.88
  -1   4  12   57.75    2.68
   0  -4 -12   87.13    4.15
   0   4  12   85.99    3.83
  -1  -4 -12    1.18    0.44
   1   4  12    2.26    0.48
  -2  -4 -12   41.13    1.86
  -2  -4 -12   43.68    2.29
   2   4  12   42.12    2.08
  -3  -4 -12   73.16    3.09
  -3  -4 -12   84.58    3.72
   3   4  12   76.24    3.41
  -4  -4 -12   11.88    0.87
  -4  -4 -12   12.34    0.95
   4   4  12   12.01    0.86
  -5  -4 -12   60.05    2.58
   5   4  12   58.81    2.67
  -6  -4 -12    2.05    0.47
   6   4  12    2.47    0.41
  -7  -4 -12   67.49    2.93
   7   4  12   65.00    2.94
  -4   5  12   37.68    1.97
   3  -5 -12   54.24    3.10
  -3   5  12   63.04    2.83
   2  -5 -12   -0.05    0.37
  -2   5  12    0.67    0.38
   1  -5 -12   77.43    3.96
  -1   5  12   84.31    3.68
   0  -5 -12   11.64    1.06
   0   5  12    9.86    0.93
  -1  -5 -12   42.41    2.24
   1   5  12   36.74    2.04
  -2  -5 -12   57.63    2.82
   2   5  12   52.63    2.63
  -3  -5 -12    0.38    0.26
  -3  -5 -12    0.66    0.33
   3   5  12    0.53    0.31
  -4  -5 -12   49.72    2.18
  -4  -5 -12   53.25    2.58
   4   5  12   47.12    2.38
  -5  -5 -12   15.08    1.00
  -5  -5 -12   14.89    1.11
   5   5  12   15.04    1.02
  -6  -5 -12   18.25    1.14
   6   5  12   17.25    1.12
  -3   6  12    0.20    0.35
   2  -6 -12   42.66    2.41
  -2   6  12   37.83    2.06
   1  -6 -12   23.45    1.62
  -1   6  12   22.24    1.42
   0  -6 -12    9.16    0.99
   0   6  12    5.59    0.77
  -1  -6 -12   47.34    2.47
   1   6  12   43.61    2.30
  -2  -6 -12    6.56    0.83
   2   6  12    6.44    0.83
  -3  -6 -12   64.05    3.07
   3   6  12   58.72    2.92
  -4  -6 -12   23.81    1.24
  -4  -6 -12   26.80    1.56
   4   6  12   19.84    1.38
  -5  -6 -12    6.75    0.83
  -5  -6 -12    6.76    0.70
   5   6  12    5.19    0.68
  -6  -6 -12   60.45    3.11
  -6  -6 -12   59.35    2.60
   6   6  12   60.93    2.84
   1  -7 -12    0.04    0.36
  -1   7  12    0.50    0.38
   0  -7 -12   36.60    2.11
   0   7  12   35.03    1.93
  -1  -7 -12   13.33    1.12
   1   7  12   12.93    1.08
  -2  -7 -12   35.30    2.04
   2   7  12   35.91    1.99
  -3  -7 -12   51.49    2.62
   3   7  12   47.35    2.51
  -4  -7 -12    0.05    0.31
   4   7  12   -0.72    0.29
  -5  -7 -12   52.27    2.72
  -5  -7 -12   53.73    2.24
   5   7  12   47.28    2.54
   2   5 -13   33.93    1.67
  -2  -5  13   33.41    1.56
   1   5 -13    1.10    0.35
  -1  -5  13    0.39    0.28
   0   5 -13   58.91    2.46
   0  -5  13   58.89    2.43
  -1   5 -13    9.30    0.76
   1  -5  13   11.12    0.81
  -2   5 -13   21.49    1.16
   2  -5  13   20.77    1.21
   3  -5  13   27.51    1.48
   3   4 -13   76.51    3.18
  -3  -4  13   76.95    3.01
   2   4 -13    0.29    0.30
  -2  -4  13    0.47    0.27
   1   4 -13   45.81    2.00
  -1  -4  13   43.58    1.91
   0   4 -13   27.70    1.36
   0  -4  13   26.23    1.31
  -1   4 -13   16.44    0.96
   1  -4  13   15.30    0.95
  -2   4 -13   85.73    3.36
   2  -4  13   85.66    3.36
  -3   4 -13    4.07    0.50
   3  -4  13    3.74    0.56
  -4   4 -13   19.63    1.11
   4  -4  13   21.41    1.14
  -4  -3  13   63.01    2.57
  -3  -3  13   19.17    1.07
   2   3 -13   25.60    1.34
  -2  -3  13   23.93    1.23
   1   3 -13   53.58    2.28
  -1  -3  13   53.83    2.20
   0   3 -13    4.21    0.52
   0  -3  13    4.31    0.51
  -1   3 -13   56.53    2.32
   1  -3  13   53.64    2.27
  -2   3 -13   11.55    0.80
   2  -3  13   12.75    0.86
  -3   3 -13   56.89    2.36
   3  -3  13   56.85    2.47
  -4   3 -13   60.79    2.47
   4  -3  13   58.47    2.60
  -5   3 -13    4.41    0.52
   5  -3  13    4.67    0.53
   4   2 -13   41.78    2.05
  -4  -2  13   43.17    1.90
  -3  -2  13   25.15    1.27
   2   2 -13   66.94    2.85
  -2  -2  13   72.67    2.76
   1   2 -13    0.34    0.26
  -1  -2  13    0.29    0.25
   0   2 -13   85.58    3.38
   0  -2  13   87.31    3.28
  -1   2 -13   35.42    1.63
   1  -2  13   35.59    1.58
  -2   2 -13   17.00    0.97
   2  -2  13   16.06    0.90
  -3   2 -13   36.89    1.70
   3  -2  13   38.04    1.73
  -4   2 -13    2.93    0.43
   4  -2  13    3.02    0.40
  -5   2 -13   45.97    2.04
   5  -2  13   47.61    2.14
   6  -2  13   26.05    1.37
   4   1 -13    0.64    0.28
  -4  -1  13    0.85    0.31
   3   1 -13   44.07    2.11
  -3  -1  13   44.48    1.92
  -2  -1  13   12.77    0.81
   1   1 -13   41.61    1.88
  -1  -1  13   43.11    1.80
   0   1 -13   44.59    1.98
   0  -1  13   46.08    1.90
  -1   1 -13    1.14    0.31
   1  -1  13    1.11    0.25
  -2   1 -13   57.49    2.33
   2  -1  13   53.35    2.38
  -3   1 -13    7.04    0.67
   3  -1  13    7.93    0.58
  -4   1 -13   23.34    1.24
   4  -1  13   23.98    1.23
  -5   1 -13   48.68    2.15
   5  -1  13   50.41    2.24
  -6   1 -13    0.53    0.28
   6  -1  13    0.40    0.25
   5   0 -13    0.49    0.31
   4   0 -13   45.13    2.27
  -4   0  13   48.74    2.08
   3   0 -13   19.55    1.15
  -3   0  13   20.15    1.09
   2   0 -13   15.90    0.97
  -2   0  13   16.39    0.93
  -1   0  13   81.20    3.09
   0   0 -13    5.62    0.59
   0   0  13    6.14    0.49
  -1   0 -13   70.21    2.75
   1   0  13   65.07    2.84
  -2   0 -13   43.73    1.93
   2   0  13   42.95    1.94
  -3   0 -13    6.00    0.64
   3   0  13    5.62    0.51
  -4   0 -13   47.37    2.04
   4   0  13   44.37    2.06
  -5   0 -13    1.33    0.35
   5   0  13    1.64    0.32
  -6   0 -13   34.89    1.65
   6   0  13   30.14    1.57
   4  -1 -13   20.89    1.24
  -4   1  13   18.14    1.12
   3  -1 -13    0.78    0.31
  -3   1  13    0.93    0.33
   2  -1 -13   52.32    2.51
   1  -1 -13    8.80    0.69
  -1   1  13    7.98    0.64
   0  -1 -13   34.17    1.59
   0  -1 -13   32.46    1.67
   0   1  13   31.11    1.55
  -1  -1 -13   58.68    2.43
   1   1  13   57.16    2.52
  -2  -1 -13    5.42    0.62
   2   1  13    5.03    0.52
  -3  -1 -13   78.34    3.16
   3   1  13   78.30    3.31
  -4  -1 -13   12.24    0.89
   4   1  13   12.52    0.80
  -5  -1 -13   28.19    1.48
   5   1  13   27.70    1.41
  -6  -1 -13   46.37    2.13
   6   1  13   45.05    2.11
   4  -2 -13    5.01    0.68
  -4   2  13    4.61    0.61
   3  -2 -13   42.25    2.21
   2  -2 -13   43.05    2.23
  -2   2  13   44.09    2.12
   1  -2 -13   10.44    0.86
  -1   2  13   11.00    0.82
   0  -2 -13  107.88    4.82
   0   2  13  107.39    4.50
  -1  -2 -13    1.54    0.41
  -1  -2 -13    1.17    0.33
   1   2  13    1.65    0.34
  -2  -2 -13   52.78    2.28
   2   2  13   52.71    2.37
  -3  -2 -13   36.95    1.75
   3   2  13   36.47    1.75
  -4  -2 -13    9.99    0.82
   4   2  13   11.41    0.77
  -5  -2 -13   62.35    2.76
   5   2  13   66.51    2.85
  -6  -2 -13    1.68    0.45
   6   2  13    2.54    0.41
   4  -3 -13   44.02    2.41
   3  -3 -13   73.50    3.58
   2  -3 -13    6.47    0.82
  -2   3  13    4.88    0.67
   1  -3 -13   65.99    3.34
  -1   3  13   70.83    3.14
   0  -3 -13   18.90    1.32
   0   3  13   17.64    1.15
  -1  -3 -13   34.95    2.02
   1   3  13   38.09    1.86
  -2  -3 -13   46.52    2.12
  -2  -3 -13   49.26    2.54
   2   3  13   50.83    2.31
  -3  -3 -13    3.17    0.50
   3   3  13    2.97    0.45
  -4  -3 -13   91.91    3.81
   4   3  13  100.34    4.10
  -5  -3 -13   34.14    1.76
   5   3  13   37.02    1.78
  -6  -3 -13   32.19    1.68
   6   3  13   31.03    1.60
   3  -4 -13    0.49    0.43
  -3   4  13    0.66    0.40
   2  -4 -13   59.16    3.16
  -2   4  13   62.79    2.92
   1  -4 -13   53.17    2.89
  -1   4  13   55.79    2.66
   0  -4 -13   12.91    1.14
   0   4  13   12.50    1.02
  -1  -4 -13   71.45    3.45
   1   4  13   66.68    3.16
  -2  -4 -13    7.15    0.86
   2   4  13    6.43    0.73
  -3  -4 -13   43.25    1.98
  -3  -4 -13   45.82    2.36
   3   4  13   42.75    2.15
  -4  -4 -13   29.22    1.50
   4   4  13   29.09    1.57
  -5  -4 -13   11.68    0.91
   5   4  13   12.02    0.89
  -6  -4 -13   42.59    2.05
   6   4  13   41.73    2.06
   2  -5 -13   40.41    2.51
  -2   5  13   48.15    2.32
   1  -5 -13    0.64    0.50
  -1   5  13    0.55    0.42
   0  -5 -13   76.54    3.70
   0   5  13   70.44    3.39
  -1  -5 -13    7.97    0.96
   1   5  13    8.45    0.95
  -2  -5 -13   40.77    2.14
   2   5  13   33.35    1.95
  -3  -5 -13   75.46    3.52
   3   5  13   69.48    3.32
  -4  -5 -13    0.39    0.32
  -4  -5 -13   -0.15    0.24
   4   5  13    0.44    0.36
  -5  -5 -13   30.36    1.59
   5   5  13   32.13    1.72
   1  -6 -13   46.08    2.59
  -1   6  13   44.00    2.30
   0  -6 -13   35.25    2.12
   0   6  13   35.36    1.96
  -1  -6 -13    9.29    1.05
   1   6  13    7.98    0.94
  -2  -6 -13   49.27    2.50
   2   6  13   42.15    2.35
  -3  -6 -13    5.14    0.71
   3   6  13    4.24    0.68
  -4  -6 -13   25.16    1.56
  -4  -6 -13   25.94    1.31
   4   6  13   21.85    1.49
  -5  -6 -13   30.24    1.80
  -5  -6 -13   29.77    1.52
  -1  -7 -13   57.24    3.04
  -2  -7 -13   27.85    1.74
  -3  -7 -13   43.98    2.40
   1   4 -14    1.07    0.36
  -1  -4  14    0.99    0.34
   0   4 -14   44.80    2.05
   0  -4  14   47.42    2.04
  -1   4 -14   60.41    2.55
   1  -4  14   60.40    2.53
  -2   4 -14    6.98    0.68
   2  -4  14    5.69    0.70
   2   3 -14    8.70    0.86
  -2  -3  14    9.29    0.77
   1   3 -14   24.71    1.34
  -1  -3  14   24.68    1.29
   0   3 -14   39.00    1.82
   0  -3  14   38.87    1.76
  -1   3 -14    0.37    0.30
   1  -3  14    0.88    0.34
  -2   3 -14   66.49    2.74
  -3   3 -14   17.60    1.05
   3  -3  14   17.53    1.03
   4  -3  14   18.19    1.04
  -3  -2  14   34.80    1.65
  -2  -2  14    6.09    0.66
   1   2 -14   47.37    2.11
  -1  -2  14   46.42    2.01
   0   2 -14    3.18    0.50
   0  -2  14    4.14    0.54
  -1   2 -14   28.50    1.44
  -2   2 -14   34.56    1.64
   2  -2  14   34.69    1.68
  -3   2 -14    4.52    0.56
   3  -2  14    4.91    0.51
  -4   2 -14   45.49    1.99
   4  -2  14   42.25    2.01
  -3  -1  14    1.38    0.40
  -2  -1  14   32.11    1.53
  -1  -1  14   20.04    1.11
   0   1 -14   18.37    1.09
  -1   1 -14   50.20    2.19
  -2   1 -14    1.02    0.34
   2  -1  14    0.56    0.23
  -3   1 -14   46.61    2.04
   3  -1  14   44.11    2.04
  -4   1 -14   21.14    1.22
   4  -1  14   21.95    1.17
  -5   1 -14   34.38    1.67
   5  -1  14   32.54    1.63
   3   0 -14   22.90    1.36
  -3   0  14   27.22    1.34
   0   0 -14   75.86    3.08
  -1   0 -14    8.69    0.79
   1   0  14    8.73    0.64
  -2   0 -14   59.36    2.49
   2   0  14   57.13    2.54
  -3   0 -14   20.10    1.15
   3   0  14   17.53    1.02
  -4   0 -14   15.13    1.00
   4   0  14   14.67    0.91
  -5   0 -14   51.95    2.25
   5   0  14   47.19    2.24
   3  -1 -14   24.64    1.44
   2  -1 -14    0.65    0.32
   1  -1 -14   72.66    3.34
   0   1  14   15.47    0.93
  -1  -1 -14   43.73    1.96
   1   1  14   41.66    1.96
  -2  -1 -14   64.76    2.72
   2   1  14   64.17    2.80
  -3  -1 -14    0.35    0.28
   3   1  14   -0.01    0.20
  -4  -1 -14   68.00    2.86
   4   1  14   66.13    2.92
  -5  -1 -14   15.14    1.06
   5   1  14   15.60    0.96
   3  -2 -14    4.86    0.70
   2  -2 -14   58.04    2.86
   1  -2 -14   37.38    2.00
  -1   2  14   36.76    1.86
   0  -2 -14    7.94    0.79
   0   2  14    7.97    0.70
   1   2  14   82.02    3.54
  -2  -2 -14    6.67    0.73
   2   2  14    6.96    0.64
  -3  -2 -14   34.49    1.71
   3   2  14   34.41    1.70
  -4  -2 -14   46.82    2.17
   4   2  14   45.92    2.16
  -5  -2 -14    1.34    0.41
   5   2  14    2.09    0.39
   3  -3 -14   30.00    1.85
   2  -3 -14   55.31    2.86
  -2   3  14   54.24    2.66
   1  -3 -14    0.04    0.35
  -1   3  14   -0.31    0.29
   0  -3 -14   49.72    2.62
   0   3  14   49.61    2.41
  -1  -3 -14   18.90    1.35
   1   3  14   18.84    1.19
   2   3  14   18.93    1.17
  -3  -3 -14   67.92    2.93
   3   3  14   73.29    3.17
  -4  -3 -14   -0.15    0.28
   4   3  14    0.35    0.28
  -5  -3 -14   57.47    2.64
   5   3  14   62.00    2.75
   2  -4 -14    0.35    0.46
  -2   4  14    1.99    0.53
   1  -4 -14   31.50    1.99
  -1   4  14   31.48    1.81
   0  -4 -14   44.98    2.56
   0   4  14   47.54    2.37
  -1  -4 -14    1.92    0.58
   1   4  14    2.05    0.51
  -2  -4 -14   32.14    1.96
   2   4  14   34.38    1.82
  -3  -4 -14    1.39    0.40
   3   4  14    2.15    0.48
  -4  -4 -14   36.23    1.77
   4   4  14   36.16    1.89
  -5  -4 -14   29.76    1.56
   5   4  14   27.38    1.68
   1  -5 -14   37.38    2.32
  -1   5  14   40.52    2.14
   0  -5 -14    0.62    0.47
   0   5  14    1.40    0.51
  -1  -5 -14   41.62    2.25
   1   5  14   33.14    2.00
  -2  -5 -14   24.47    1.60
   2   5  14   22.23    1.48
  -3  -5 -14   15.01    1.13
   3   5  14    9.83    1.07
  -4  -5 -14   55.39    2.38
   4   5  14   53.50    2.82
  -2  -6 -14    4.43    0.72
  -1  -2  15    8.10    0.85
   0   2 -15   36.88    1.81
  -1   2 -15    4.69    0.61
  -2   2 -15   27.14    1.45
   3  -2  15   27.26    1.39
   0   1 -15   19.43    1.21
  -1   1 -15   26.76    1.46
  -2   1 -15   35.64    1.72
   2  -1  15   32.86    1.62
  -3   1 -15    0.29    0.29
   3  -1  15    0.28    0.22
  -1   0 -15   61.19    2.56
   1   0  15   55.91    2.55
  -2   0 -15    3.51    0.57
   2   0  15    3.51    0.46
  -3   0 -15   25.81    1.40
   3   0  15   22.66    1.26
  -4   0 -15   38.09    1.87
   4   0  15   36.76    1.80
   1   1  15   25.04    1.33
  -2  -1 -15   17.09    1.13
   2   1  15   17.58    1.04
  -3  -1 -15   38.30    1.86
   3   1  15   35.73    1.78
  -4  -1 -15    0.47    0.35
   4   1  15    0.66    0.28
   1  -2 -15   38.35    2.08
   0   2  15   44.71    2.17
   1   2  15    2.78    0.48
  -2  -2 -15   67.55    2.86
   2   2  15   67.00    3.00
  -3  -2 -15   18.63    1.19
   3   2  15   19.62    1.16
  -4  -2 -15   47.10    2.21
   4   2  15   46.28    2.22
   1  -3 -15   41.90    2.38
  -1   3  15   44.56    2.24
   0  -3 -15    0.55    0.44
   0   3  15    1.29    0.44
   1   3  15   55.23    2.64
   2   3  15   12.49    0.96
  -3  -3 -15   20.57    1.23
   3   3  15   19.17    1.22
  -4  -3 -15   51.27    2.35
   0  -4 -15   26.85    1.77
   0   4  15   25.48    1.60
  -1  -4 -15   33.59    2.00
   1   4  15   29.85    1.79
   2   4  15    1.70    0.49
   0   0   0    0.00    0.00
;
_shelx_hkl_checksum              63327
#END Tags that were not found in dictionaries
loop_
_space_group_symop_operation_xyz
'x, y, z'
'-x, -y, -z'
loop_
_atom_site_label
_atom_site_type_symbol
_atom_site_fract_x
_atom_site_fract_y
_atom_site_fract_z
_atom_site_U_iso_or_equiv
_atom_site_adp_type
_atom_site_occupancy
_atom_site_site_symmetry_order
_atom_site_calc_flag
_atom_site_refinement_flags_posn
_atom_site_refinement_flags_adp
Re1 Re 0.30151(2) 0.35195(2) 0.71341(2) 0.00854(5) Uani 1 1 d . .
O1 O 0.4163(2) 0.1408(2) 0.78799(16) 0.0117(4) Uani 1 1 d . .
O2 O 0.4536(3) -0.1169(2) 0.78348(17) 0.0168(4) Uani 1 1 d . .
O3 O 0.0972(3) 0.6199(3) 0.59524(19) 0.0225(5) Uani 1 1 d . .
O4 O 0.6199(3) 0.4679(3) 0.59504(17) 0.0185(4) Uani 1 1 d . .
O5 O 0.3356(3) 0.5594(3) 0.9016(2) 0.0260(5) Uani 1 1 d . .
O6 O 0.7802(4) -0.2124(3) 0.8492(2) 0.0326(6) Uani 1 1 d . .
H1O6 H 0.687(6) -0.183(5) 0.846(4) 0.037(13) Uiso 1 1 d . .
N1 N 0.2856(3) 0.1769(3) 0.59786(19) 0.0102(4) Uani 1 1 d . .
N2 N 0.0779(3) 0.2659(3) 0.80044(19) 0.0106(4) Uani 1 1 d . .
N3 N -0.3622(3) 0.1368(3) 0.9707(2) 0.0157(5) Uani 1 1 d . .
H3A H -0.4482 0.1326 0.9341 0.019 Uiso 1 1 calc R U
H3B H -0.3699 0.1147 1.0427 0.019 Uiso 1 1 calc R U
C1 C 0.4066(3) 0.0134(3) 0.7441(2) 0.0101(5) Uani 1 1 d . .
C2 C 0.3345(3) 0.0293(3) 0.6346(2) 0.0098(5) Uani 1 1 d . .
C3 C 0.3217(3) -0.0969(3) 0.5757(2) 0.0145(5) Uani 1 1 d . .
H3 H 0.3567 -0.1989 0.6039 0.017 Uiso 1 1 calc R U
C4 C 0.2570(4) -0.0724(4) 0.4747(2) 0.0165(6) Uani 1 1 d . .
H4 H 0.2454 -0.1575 0.4329 0.020 Uiso 1 1 calc R U
C5 C 0.2092(4) 0.0786(4) 0.4353(2) 0.0159(6) Uani 1 1 d . .
H5 H 0.1657 0.0983 0.3660 0.019 Uiso 1 1 calc R U
C6 C 0.2259(3) 0.1998(3) 0.4986(2) 0.0137(5) Uani 1 1 d . .
H6 H 0.1943 0.3028 0.4711 0.016 Uiso 1 1 calc R U
C7 C 0.1758(4) 0.5210(3) 0.6409(2) 0.0144(6) Uani 1 1 d . .
C8 C 0.5006(4) 0.4218(3) 0.6385(2) 0.0128(5) Uani 1 1 d . .
C9 C 0.3207(4) 0.4831(3) 0.8312(3) 0.0156(6) Uani 1 1 d . .
C10 C 0.0641(3) 0.2289(3) 0.9115(2) 0.0126(5) Uani 1 1 d . .
H10 H 0.1584 0.2322 0.9499 0.015 Uiso 1 1 calc R U
C11 C -0.0778(3) 0.1873(3) 0.9708(2) 0.0125(5) Uani 1 1 d . .
H11 H -0.0809 0.1654 1.0485 0.015 Uiso 1 1 calc R U
C12 C -0.2197(3) 0.1769(3) 0.9171(2) 0.0117(5) Uani 1 1 d . .
C13 C -0.2044(3) 0.2127(3) 0.8020(2) 0.0134(5) Uani 1 1 d . .
H13 H -0.2953 0.2066 0.7610 0.016 Uiso 1 1 calc R U
C14 C -0.0584(3) 0.2565(3) 0.7493(2) 0.0123(5) Uani 1 1 d . .
H14 H -0.0528 0.2819 0.6718 0.015 Uiso 1 1 calc R U
C15 C 0.7909(5) -0.3729(4) 0.8341(3) 0.0284(7) Uani 1 1 d . .
H15A H 0.8991 -0.4246 0.8531 0.043 Uiso 1 1 calc R U
H15B H 0.7797 -0.3886 0.7566 0.043 Uiso 1 1 calc R U
H15C H 0.7015 -0.4166 0.8821 0.043 Uiso 1 1 calc R U
loop_
_atom_site_aniso_label
_atom_site_aniso_U_11
_atom_site_aniso_U_22
_atom_site_aniso_U_33
_atom_site_aniso_U_23
_atom_site_aniso_U_13
_atom_site_aniso_U_12
Re1 0.00808(7) 0.00728(7) 0.01057(7) -0.00062(4) -0.00137(4) -0.00170(4)
O1 0.0129(9) 0.0092(9) 0.0136(9) -0.0005(7) -0.0045(7) -0.0012(7)
O2 0.0222(11) 0.0123(10) 0.0157(10) 0.0026(8) -0.0060(8) -0.0002(8)
O3 0.0182(11) 0.0159(11) 0.0323(13) 0.0060(9) -0.0056(9) 0.0002(9)
O4 0.0143(10) 0.0226(11) 0.0190(11) 0.0034(9) -0.0004(8) -0.0075(8)
O5 0.0323(13) 0.0235(12) 0.0247(12) -0.0116(10) 0.0015(10) -0.0108(10)
O6 0.0341(15) 0.0252(14) 0.0400(15) -0.0091(11) -0.0197(12) 0.0085(12)
N1 0.0086(10) 0.0108(11) 0.0112(11) -0.0002(8) -0.0015(8) -0.0018(8)
N2 0.0100(11) 0.0111(11) 0.0107(11) 0.0003(8) 0.0000(8) -0.0024(9)
N3 0.0151(12) 0.0219(13) 0.0116(11) -0.0005(9) -0.0019(9) -0.0077(10)
C1 0.0067(11) 0.0130(13) 0.0103(12) -0.0002(10) 0.0003(9) -0.0014(10)
C2 0.0082(12) 0.0113(13) 0.0103(12) -0.0008(10) -0.0005(9) -0.0027(10)
C3 0.0149(13) 0.0118(13) 0.0169(14) -0.0009(10) -0.0010(10) -0.0023(10)
C4 0.0180(14) 0.0170(14) 0.0164(14) -0.0066(11) -0.0019(11) -0.0058(11)
C5 0.0146(14) 0.0218(16) 0.0122(13) -0.0016(11) -0.0036(10) -0.0033(11)
C6 0.0130(13) 0.0148(14) 0.0130(13) 0.0029(10) -0.0022(10) -0.0018(11)
C7 0.0125(13) 0.0103(13) 0.0206(14) -0.0010(11) -0.0005(11) -0.0031(10)
C8 0.0158(13) 0.0105(13) 0.0131(13) -0.0007(10) -0.0046(10) -0.0025(10)
C9 0.0165(14) 0.0111(14) 0.0189(14) -0.0039(11) 0.0018(11) -0.0022(11)
C10 0.0122(13) 0.0130(13) 0.0127(13) -0.0003(10) -0.0036(10) -0.0005(10)
C11 0.0146(13) 0.0115(13) 0.0116(13) -0.0001(10) -0.0030(10) -0.0015(10)
C12 0.0133(13) 0.0082(12) 0.0137(13) -0.0021(10) -0.0006(10) -0.0010(10)
C13 0.0120(13) 0.0158(14) 0.0136(13) -0.0012(10) -0.0028(10) -0.0041(10)
C14 0.0133(13) 0.0140(13) 0.0099(12) -0.0005(10) -0.0020(10) -0.0020(10)
C15 0.0347(19) 0.0231(17) 0.0266(17) -0.0057(13) -0.0068(14) 0.0049(14)
loop_
_atom_type_symbol
_atom_type_description
_atom_type_scat_dispersion_real
_atom_type_scat_dispersion_imag
_atom_type_scat_source
C C 0.0033 0.0016 'International Tables Vol C Tables 4.2.6.8 and 6.1.1.4'
H H 0.0000 0.0000 'International Tables Vol C Tables 4.2.6.8 and 6.1.1.4'
N N 0.0061 0.0033 'International Tables Vol C Tables 4.2.6.8 and 6.1.1.4'
O O 0.0106 0.0060 'International Tables Vol C Tables 4.2.6.8 and 6.1.1.4'
Re Re -1.0185 7.2310 'International Tables Vol C Tables 4.2.6.8 and 6.1.1.4'
loop_
_geom_angle_atom_site_label_1
_geom_angle_atom_site_label_2
_geom_angle_atom_site_label_3
_geom_angle
C7 Re1 C8 88.66(12)
C7 Re1 C9 89.55(13)
C8 Re1 C9 87.72(12)
C7 Re1 O1 171.34(10)
C8 Re1 O1 97.32(10)
C9 Re1 O1 96.91(10)
C7 Re1 N1 97.86(11)
C8 Re1 N1 95.71(10)
C9 Re1 N1 171.89(10)
O1 Re1 N1 75.39(8)
C7 Re1 N2 92.92(10)
C8 Re1 N2 178.38(9)
C9 Re1 N2 92.65(11)
O1 Re1 N2 81.07(8)
N1 Re1 N2 83.72(9)
C1 O1 Re1 118.24(17)
C15 O6 H1O6 103(4)
C6 N1 C2 118.1(2)
C6 N1 Re1 127.0(2)
C2 N1 Re1 114.74(18)
C14 N2 C10 115.9(2)
C14 N2 Re1 122.22(18)
C10 N2 Re1 121.68(19)
C12 N3 H3A 120.0
C12 N3 H3B 120.0
H3A N3 H3B 120.0
O2 C1 O1 125.1(3)
O2 C1 C2 119.1(2)
O1 C1 C2 115.7(2)
N1 C2 C3 122.6(2)
N1 C2 C1 115.1(2)
C3 C2 C1 122.3(2)
C2 C3 C4 118.9(3)
C2 C3 H3 120.6
C4 C3 H3 120.6
C3 C4 C5 119.0(3)
C3 C4 H4 120.5
C5 C4 H4 120.5
C6 C5 C4 119.1(3)
C6 C5 H5 120.4
C4 C5 H5 120.4
N1 C6 C5 122.3(3)
N1 C6 H6 118.8
C5 C6 H6 118.8
O3 C7 Re1 177.7(3)
O4 C8 Re1 178.0(3)
O5 C9 Re1 178.5(3)
N2 C10 C11 123.7(3)
N2 C10 H10 118.2
C11 C10 H10 118.2
C10 C11 C12 120.2(3)
C10 C11 H11 119.9
C12 C11 H11 119.9
N3 C12 C13 121.0(3)
N3 C12 C11 123.0(3)
C13 C12 C11 116.0(2)
C14 C13 C12 120.0(3)
C14 C13 H13 120.0
C12 C13 H13 120.0
N2 C14 C13 124.1(2)
N2 C14 H14 118.0
C13 C14 H14 118.0
O6 C15 H15A 109.5
O6 C15 H15B 109.5
H15A C15 H15B 109.5
O6 C15 H15C 109.5
H15A C15 H15C 109.5
H15B C15 H15C 109.5
loop_
_geom_bond_atom_site_label_1
_geom_bond_atom_site_label_2
_geom_bond_distance
Re1 C7 1.905(3)
Re1 C8 1.916(3)
Re1 C9 1.932(3)
Re1 O1 2.1439(19)
Re1 N1 2.177(2)
Re1 N2 2.192(2)
O1 C1 1.284(3)
O2 C1 1.232(3)
O3 C7 1.154(4)
O4 C8 1.158(3)
O5 C9 1.150(4)
O6 C15 1.416(4)
O6 H1O6 0.78(5)
N1 C6 1.347(4)
N1 C2 1.357(4)
N2 C14 1.350(4)
N2 C10 1.364(4)
N3 C12 1.340(4)
N3 H3A 0.8800
N3 H3B 0.8800
C1 C2 1.509(4)
C2 C3 1.379(4)
C3 C4 1.387(4)
C3 H3 0.9500
C4 C5 1.391(4)
C4 H4 0.9500
C5 C6 1.383(4)
C5 H5 0.9500
C6 H6 0.9500
C10 C11 1.366(4)
C10 H10 0.9500
C11 C12 1.409(4)
C11 H11 0.9500
C12 C13 1.409(4)
C13 C14 1.372(4)
C13 H13 0.9500
C14 H14 0.9500
C15 H15A 0.9800
C15 H15B 0.9800
C15 H15C 0.9800
loop_
_geom_hbond_atom_site_label_D
_geom_hbond_atom_site_label_H
_geom_hbond_atom_site_label_A
_geom_hbond_distance_DH
_geom_hbond_distance_HA
_geom_hbond_distance_DA
_geom_hbond_angle_DHA
O6 H1O6 O2 0.78(5) 2.12(5) 2.869(3) 162(5)
loop_
_geom_torsion_atom_site_label_1
_geom_torsion_atom_site_label_2
_geom_torsion_atom_site_label_3
_geom_torsion_atom_site_label_4
_geom_torsion
Re1 O1 C1 O2 -173.2(2)
Re1 O1 C1 C2 8.0(3)
C6 N1 C2 C3 -1.6(4)
Re1 N1 C2 C3 175.3(2)
C6 N1 C2 C1 177.5(2)
Re1 N1 C2 C1 -5.6(3)
O2 C1 C2 N1 179.7(2)
O1 C1 C2 N1 -1.4(3)
O2 C1 C2 C3 -1.2(4)
O1 C1 C2 C3 177.7(2)
N1 C2 C3 C4 0.3(4)
C1 C2 C3 C4 -178.7(2)
C2 C3 C4 C5 0.9(4)
C3 C4 C5 C6 -0.7(4)
C2 N1 C6 C5 1.8(4)
Re1 N1 C6 C5 -174.7(2)
C4 C5 C6 N1 -0.6(4)
C14 N2 C10 C11 -1.3(4)
Re1 N2 C10 C11 174.3(2)
N2 C10 C11 C12 1.7(4)
C10 C11 C12 N3 -180.0(3)
C10 C11 C12 C13 -0.6(4)
N3 C12 C13 C14 178.7(3)
C11 C12 C13 C14 -0.8(4)
C10 N2 C14 C13 -0.2(4)
Re1 N2 C14 C13 -175.7(2)
C12 C13 C14 N2 1.2(5)
