#------------------------------------------------------------------------------
#$Date: 2016-02-14 06:40:26 +0200 (Sun, 14 Feb 2016) $
#$Revision: 176432 $
#$URL: svn://www.crystallography.net/cod/cif/4/34/24/4342400.cif $
#------------------------------------------------------------------------------
#
# This file is available in the Crystallography Open Database (COD),
# http://www.crystallography.net/
#
# All data on this site have been placed in the public domain by the
# contributors.
#
data_4342400
loop_
_publ_author_name
'Rueff, Jean-Michel'
'Perez, Olivier'
'Caignaert, Vincent'
'Hix, Gary'
'Berchel, Mathieu'
'Quentel, Fran\,cois'
'Jaffr\`es, Paul-Alain'
_publ_section_title
;
 Silver-Based Hybrid Materials from meta- or para-Phosphonobenzoic Acid:
 Influence of the Topology on Silver Release in Water.
;
_journal_issue                   5
_journal_name_full               'Inorganic chemistry'
_journal_page_first              2152
_journal_paper_doi               10.1021/ic502395s
_journal_volume                  54
_journal_year                    2015
_chemical_formula_sum            'C7 H4 Ag3 O5 P'
_chemical_formula_weight         522.7
_chemical_name_systematic        ' ?'
_space_group_IT_number           14
_symmetry_cell_setting           monoclinic
_symmetry_Int_Tables_number      14
_symmetry_space_group_name_Hall  '-P 2ybc'
_symmetry_space_group_name_H-M   'P 1 21/c 1'
_cell_angle_alpha                90
_cell_angle_beta                 92.558(6)
_cell_angle_gamma                90
_cell_formula_units_Z            4
_cell_length_a                   6.9399(4)
_cell_length_b                   5.7694(2)
_cell_length_c                   22.9600(17)
_cell_measurement_temperature    293
_cell_volume                     918.38(9)
_diffrn_ambient_temperature      293
_diffrn_measured_fraction_theta_full 0.98
_diffrn_measured_fraction_theta_max 0.97
_diffrn_radiation_probe          x-ray
_diffrn_radiation_source         'X-ray tube'
_diffrn_radiation_type           'Mo K\a'
_diffrn_radiation_wavelength     0.71069
_diffrn_reflns_av_R_equivalents  0.0478
_diffrn_reflns_av_sigmaI/netI    0.0491
_diffrn_reflns_limit_h_max       10
_diffrn_reflns_limit_h_min       -11
_diffrn_reflns_limit_k_max       9
_diffrn_reflns_limit_k_min       -9
_diffrn_reflns_limit_l_max       31
_diffrn_reflns_limit_l_min       -36
_diffrn_reflns_number            14385
_diffrn_reflns_theta_full        33.77
_diffrn_reflns_theta_max         35
_diffrn_reflns_theta_min         5.88
_exptl_absorpt_coefficient_mu    6.505
_exptl_absorpt_correction_T_max  0.9490
_exptl_absorpt_correction_T_min  0.4708
_exptl_absorpt_correction_type   multi-scan
_exptl_absorpt_process_details   Sadabs
_exptl_crystal_colour            colourless
_exptl_crystal_density_diffrn    3.7803
_exptl_crystal_description       plate
_exptl_crystal_F_000             968
_exptl_crystal_size_max          0.21
_exptl_crystal_size_mid          0.16
_exptl_crystal_size_min          0.008
_refine_diff_density_max         2.25
_refine_diff_density_min         -2.30
_refine_ls_goodness_of_fit_gt    1.63
_refine_ls_goodness_of_fit_ref   1.40
_refine_ls_hydrogen_treatment    constr
_refine_ls_number_constraints    0
_refine_ls_number_parameters     146
_refine_ls_number_reflns         4002
_refine_ls_number_restraints     0
_refine_ls_R_factor_all          0.0881
_refine_ls_R_factor_gt           0.0403
_refine_ls_shift/su_max          0.0010
_refine_ls_shift/su_mean         0.0000
_refine_ls_structure_factor_coef F
_refine_ls_weighting_details     w=1/(\s^2^(F)+0.0001F^2^)
_refine_ls_weighting_scheme      sigma
_refine_ls_wR_factor_gt          0.0416
_refine_ls_wR_factor_ref         0.0471
_reflns_number_gt                2369
_reflns_number_total             4002
_reflns_threshold_expression     I>3\s(I)
_cod_data_source_file            ic502395s_si_002.cif
_cod_data_source_block           I
_cod_depositor_comments
;
The following automatic conversions were performed:

'_diffrn_radiation_probe' value 'X-ray' changed to 'x-ray' according
to
/usr/data/users/saulius/crontab/automatic-downloads/rss-feeds/ACS/lib/dictionaries/cif_core.dic
dictionary named 'cif_core.dic' version 2.4.2 from 2011-04-26.

Automatic conversion script
Id: cif_fix_values 3008 2015-01-20 13:52:24Z robertas 

 Adding full bibliography for 4342400.cif.
;
_cod_original_sg_symbol_Hall     -p_2ybc
_cod_original_formula_sum        'C7 H4 Ag3 O5 P1 '
_cod_database_code               4342400
loop_
_space_group_symop_id
_space_group_symop_operation_xyz
1 x,y,z
2 -x,y+1/2,-z+1/2
3 -x,-y,-z
4 x,-y+1/2,z+1/2
loop_
_atom_site_label
_atom_site_type_symbol
_atom_site_fract_x
_atom_site_fract_y
_atom_site_fract_z
_atom_site_adp_type
_atom_site_U_iso_or_equiv
_atom_site_site_symmetry_multiplicity
_atom_site_occupancy
_atom_site_calc_flag
Ag1 Ag 0.47004(6) 0.18960(6) 0.055452(16) Uani 0.03097(11) 4 1 d
Ag2 Ag 0.04491(5) 0.19926(6) 0.052421(16) Uani 0.03138(11) 4 1 d
Ag3 Ag 0.73836(5) 0.16160(7) 0.43361(2) Uani 0.04294(14) 4 1 d
P1 P 0.24480(15) 0.16545(17) 0.43040(5) Uani 0.0182(3) 4 1 d
O1 O 0.0657(4) 0.2941(4) 0.45094(13) Uani 0.0234(9) 4 1 d
O2 O 0.4311(4) 0.2834(5) 0.45403(13) Uani 0.0241(9) 4 1 d
O4 O 0.3217(7) 0.0910(7) 0.13614(16) Uani 0.0586(16) 4 1 d
O3 O 0.2442(4) -0.0893(5) 0.44778(13) Uani 0.0264(9) 4 1 d
C1 C 0.2431(6) 0.1886(6) 0.35126(17) Uani 0.0204(11) 4 1 d
C2 C 0.3107(6) 0.0067(7) 0.31685(18) Uani 0.0259(12) 4 1 d
C3 C 0.3164(6) 0.0285(8) 0.25714(19) Uani 0.0280(13) 4 1 d
C6 C 0.1778(6) 0.3893(7) 0.32319(19) Uani 0.0270(13) 4 1 d
C4 C 0.2480(6) 0.2306(8) 0.22990(18) Uani 0.0255(12) 4 1 d
C5 C 0.1818(6) 0.4104(8) 0.2638(2) Uani 0.0307(14) 4 1 d
O5 O 0.1780(6) 0.4283(9) 0.14179(18) Uani 0.0799(19) 4 1 d
C7 C 0.2487(7) 0.2531(10) 0.1648(2) Uani 0.0359(15) 4 1 d
H1c2 H 0.353486 -0.134821 0.335216 Uiso 0.0311 4 1 d
H1c3 H 0.367229 -0.094942 0.234365 Uiso 0.0336 4 1 d
H1c6 H 0.129206 0.514826 0.345749 Uiso 0.0324 4 1 d
H1c5 H 0.138092 0.551506 0.245338 Uiso 0.0368 4 1 d
loop_
_atom_site_aniso_label
_atom_site_aniso_type_symbol
_atom_site_aniso_U_11
_atom_site_aniso_U_22
_atom_site_aniso_U_33
_atom_site_aniso_U_12
_atom_site_aniso_U_13
_atom_site_aniso_U_23
Ag1 Ag 0.0388(2) 0.03137(18) 0.02355(18) 0.00076(14) 0.01016(14) 0.00117(13)
Ag2 Ag 0.0347(2) 0.0376(2) 0.02166(18) 0.00117(15) -0.00085(13) -0.00428(14)
Ag3 Ag 0.02752(19) 0.0475(2) 0.0542(3) 0.00025(16) 0.00652(18) -0.01676(19)
P1 P 0.0199(5) 0.0219(5) 0.0128(4) -0.0003(4) 0.0021(4) -0.0002(4)
O1 O 0.0231(15) 0.0274(14) 0.0199(15) 0.0028(11) 0.0031(11) -0.0020(12)
O2 O 0.0223(15) 0.0314(15) 0.0183(15) -0.0043(11) -0.0017(11) -0.0014(12)
O4 O 0.095(3) 0.060(2) 0.022(2) -0.031(2) 0.018(2) -0.0085(18)
O3 O 0.0302(16) 0.0258(14) 0.0232(16) 0.0012(12) 0.0016(13) 0.0058(12)
C1 C 0.0247(19) 0.0254(18) 0.0109(17) -0.0010(15) -0.0010(14) -0.0011(15)
C2 C 0.036(2) 0.0248(19) 0.017(2) 0.0045(17) 0.0015(18) -0.0011(16)
C3 C 0.028(2) 0.038(2) 0.018(2) -0.0005(18) 0.0014(17) -0.0063(18)
C6 C 0.035(2) 0.029(2) 0.018(2) 0.0096(17) 0.0062(18) 0.0033(16)
C4 C 0.022(2) 0.044(2) 0.0104(18) -0.0017(17) 0.0025(15) 0.0024(16)
C5 C 0.030(2) 0.037(2) 0.025(2) 0.0098(19) 0.0029(19) 0.0094(19)
O5 O 0.070(3) 0.143(4) 0.028(2) 0.063(3) 0.017(2) 0.039(3)
C7 C 0.024(2) 0.066(3) 0.018(2) -0.011(2) -0.0008(18) 0.003(2)
loop_
_atom_type_symbol
_atom_type_scat_dispersion_real
_atom_type_scat_dispersion_imag
_atom_type_scat_source
C 0.0033 0.0016 'International Tables Vol C tables 4.2.6.8 and 6.1.1.1'
H 0.0000 0.0000 'International Tables Vol C tables 4.2.6.8 and 6.1.1.1'
Ag -0.8971 1.1015 'International Tables Vol C tables 4.2.6.8 and 6.1.1.1'
O 0.0106 0.0060 'International Tables Vol C tables 4.2.6.8 and 6.1.1.1'
P 0.1023 0.0942 'International Tables Vol C tables 4.2.6.8 and 6.1.1.1'
S 0.1246 0.1234 'International Tables Vol C tables 4.2.6.8 and 6.1.1.1'
loop_
_geom_angle_atom_site_label_1
_geom_angle_atom_site_label_2
_geom_angle_atom_site_label_3
_geom_angle
O1 P1 O2 110.85(16)
O1 P1 O3 111.93(16)
O1 P1 C1 107.52(17)
O2 P1 O3 110.27(16)
O2 P1 C1 106.70(18)
O3 P1 C1 109.39(17)
P1 C1 C2 121.2(3)
P1 C1 C6 120.7(3)
C2 C1 C6 118.1(4)
C1 C2 C3 121.0(4)
C1 C2 H1c2 119.48
C3 C2 H1c2 119.48
C2 C3 C4 119.8(4)
C2 C3 H1c3 120.09
C4 C3 H1c3 120.09
C1 C6 C5 120.9(4)
C1 C6 H1c6 119.54
C5 C6 H1c6 119.54
C3 C4 C5 119.2(4)
C3 C4 C7 120.2(4)
C5 C4 C7 120.6(4)
C6 C5 C4 120.9(4)
C6 C5 H1c5 119.57
C4 C5 H1c5 119.57
O4 C7 C4 118.3(4)
O4 C7 O5 123.0(5)
C4 C7 O5 118.7(5)
loop_
_geom_bond_atom_site_label_1
_geom_bond_atom_site_label_2
_geom_bond_site_symmetry_2
_geom_bond_distance
Ag1 O2 2_645 2.454(3)
Ag1 O2 4_554 2.337(3)
Ag1 O4 . 2.233(4)
Ag1 O3 2_655 2.362(3)
Ag2 O1 2_545 2.460(3)
Ag2 O1 4_554 2.341(3)
Ag2 O4 . 2.728(4)
Ag2 O3 2_555 2.348(3)
Ag2 O5 . 2.577(5)
Ag2 C7 . 2.904(5)
Ag3 O1 1_655 2.413(3)
Ag3 O2 . 2.313(3)
Ag3 O4 2_655 2.969(4)
Ag3 O3 3_656 2.752(3)
Ag3 O5 2_645 2.288(5)
P1 O1 . 1.540(3)
P1 O2 . 1.538(3)
P1 O3 . 1.523(3)
P1 C1 . 1.822(4)
P1 C2 . 2.820(4)
P1 C6 . 2.800(4)
O1 O2 . 2.534(4)
O1 O3 . 2.538(4)
O1 C1 . 2.716(5)
O2 O3 . 2.512(4)
O2 C1 . 2.701(5)
O4 C3 . 2.803(6)
O4 C4 . 2.375(6)
O4 O5 . 2.193(7)
O4 C7 . 1.263(7)
O3 C1 . 2.735(5)
C1 C2 . 1.406(6)
C1 C3 . 2.425(6)
C1 C6 . 1.392(6)
C1 C4 . 2.799(6)
C1 C5 . 2.404(6)
C2 C3 . 1.379(6)
C2 C6 . 2.399(6)
C2 C4 . 2.401(6)
C2 C5 . 2.760(6)
C2 H1c2 . 0.96
C3 C6 . 2.773(6)
C3 C4 . 1.396(6)
C3 C5 . 2.401(6)
C3 C7 . 2.511(7)
C3 H1c3 . 0.96
C6 C4 . 2.399(6)
C6 C5 . 1.372(6)
C6 H1c6 . 0.96
C4 C5 . 1.387(6)
C4 O5 . 2.354(6)
C4 C7 . 1.500(6)
C5 O5 . 2.801(6)
C5 C7 . 2.508(7)
C5 H1c5 . 0.96
O5 C7 . 1.232(7)
H1c2 H1c3 . 2.3331
H1c2 H1c6 1_545 2.5691
H1c3 H1c5 1_545 2.6055
H1c6 H1c5 . 2.3187
loop_
_refln_index_h
_refln_index_k
_refln_index_l
_refln_F_squared_calc
_refln_F_squared_meas
_refln_F_squared_sigma
_refln_observed_status
0 0 8 203440.00 184784.00 6435.79 o
0 0 10 210938.00 207006.00 7213.29 o
0 0 12 12445.40 13295.60 411.48 o
0 0 14 10290.70 10651.40 342.95 o
0 0 16 48217.20 50863.60 1459.21 o
0 0 18 34559.20 37417.00 1094.71 o
0 0 20 10935.50 12480.30 414.42 o
0 0 22 795.41 590.11 82.31 o
0 0 24 4672.43 4652.45 212.67 o
0 0 26 5859.56 6330.02 348.84 o
0 0 28 3402.73 3922.57 247.37 o
0 0 30 1204.37 1112.88 124.51 o
0 0 34 409.50 460.19 107.25 o
0 0 36 623.28 841.41 136.15 o
0 1 6 14037.40 14939.90 235.46 o
0 1 7 359.66 303.89 14.13 o
0 1 8 15669.40 15049.90 250.82 o
0 1 9 6.53 -18.50 12.26 <
0 1 10 3943.14 3701.51 90.24 o
0 1 11 3521.07 3603.81 88.36 o
0 1 12 5446.23 5419.77 135.77 o
0 1 13 3580.88 3697.66 103.53 o
0 1 14 20357.60 21073.90 446.75 o
0 1 15 1065.31 1121.22 57.16 o
0 1 16 22517.00 23986.30 509.78 o
0 1 17 544.66 579.09 47.18 o
0 1 18 6074.02 6513.49 171.11 o
0 1 19 2219.77 2090.98 83.56 o
0 1 20 501.09 379.55 51.34 o
0 1 21 2045.84 2193.85 91.67 o
0 1 22 8851.81 8555.73 221.43 o
0 1 23 1194.63 1237.61 78.78 o
0 1 24 15220.00 14929.90 353.52 o
0 1 26 6306.44 6857.30 266.31 o
0 1 27 1553.94 1390.19 90.84 o
0 1 28 1.92 31.18 44.06 <
0 1 29 1053.12 1044.50 82.73 o
0 1 30 3482.56 3091.69 152.16 o
0 1 31 178.01 191.85 57.16 o
0 1 32 3373.42 3061.53 156.74 o
0 1 33 15.29 83.14 59.03 <
0 1 34 3659.57 4393.39 204.96 o
0 1 35 425.57 291.00 79.40 o
0 1 36 223.03 133.65 72.13 <
0 2 0 94691.90 89814.60 2193.89 o
0 2 1 11386.90 11359.30 162.11 o
0 2 2 68071.20 67079.80 1143.84 o
0 2 3 79685.00 78126.20 1413.34 o
0 2 4 1568.71 1513.60 25.78 o
0 2 5 63551.40 62448.00 1241.44 o
0 2 6 22845.70 23926.70 371.92 o
0 2 7 10452.90 9710.96 149.57 o
0 2 8 63023.90 63731.60 992.36 o
0 2 9 3118.99 3312.84 68.19 o
0 2 10 39683.40 39464.20 632.18 o
0 2 11 29706.70 30942.90 586.54 o
0 2 12 7106.43 7436.36 161.98 o
0 2 13 33259.40 32070.40 609.22 o
0 2 14 2155.24 1968.16 65.48 o
0 2 15 5329.15 5210.08 125.99 o
0 2 16 7846.74 7716.26 191.71 o
0 2 17 451.55 464.98 46.98 o
0 2 18 16468.80 17764.10 394.76 o
0 2 19 4802.01 4990.83 145.73 o
0 2 20 4522.65 5031.07 149.05 o
0 2 21 7506.42 8263.43 215.60 o
0 2 22 159.14 135.52 71.50 <
0 2 23 2217.15 2541.19 108.30 o
0 2 24 432.62 453.54 82.31 o
0 2 25 33.50 104.34 43.65 <
0 2 26 1312.39 1541.50 94.37 o
0 2 27 277.98 390.98 58.62 o
0 2 28 2837.02 3022.01 147.17 o
0 2 29 678.15 845.57 76.91 o
0 2 30 584.56 662.86 75.45 o
0 2 31 662.55 976.93 86.88 o
0 2 32 137.42 115.78 63.81 <
0 2 33 97.59 227.18 71.71 o
0 2 34 42.50 72.54 65.68 <
0 2 35 61.30 103.10 69.63 <
0 2 36 422.82 354.19 85.01 o
0 3 1 6151.41 5872.83 92.12 o
0 3 2 1976.58 1743.71 32.43 o
0 3 3 3945.92 4003.67 65.28 o
0 3 4 4376.25 3917.05 62.37 o
0 3 5 3335.60 3656.69 59.46 o
0 3 6 10925.40 11222.80 176.58 o
0 3 7 857.35 859.73 22.86 o
0 3 8 189.04 180.84 13.51 o
0 3 9 7661.84 8195.01 145.35 o
0 3 10 917.75 956.17 39.91 o
0 3 11 15448.30 16387.20 323.24 o
0 3 12 2958.56 3068.34 82.53 o
0 3 13 12997.70 13740.20 278.06 o
0 3 14 2183.54 2251.26 70.47 o
0 3 15 1401.60 1495.59 57.99 o
0 3 16 5424.15 5607.39 137.00 o
0 3 17 5818.85 5771.04 143.03 o
0 3 18 116.80 90.00 38.25 <
0 3 19 10717.90 9745.60 219.36 o
0 3 20 1093.07 1208.51 74.83 o
0 3 21 12294.00 11646.80 284.87 o
0 3 22 1836.96 1884.92 96.66 o
0 3 23 2127.06 2168.05 105.60 o
0 3 24 870.00 862.61 70.26 o
0 3 25 887.63 658.08 64.85 o
0 3 26 473.64 498.23 62.36 o
0 3 27 5659.07 5494.81 226.60 o
0 3 29 5040.48 5173.73 221.18 o
0 3 30 517.18 757.22 80.44 o
0 3 31 1620.68 1973.45 122.64 o
0 3 32 468.17 549.78 77.32 o
0 3 33 91.33 62.98 65.89 <
0 3 34 168.84 194.76 75.24 <
0 3 35 1015.90 595.72 91.87 o
0 4 0 435.65 490.96 21.62 o
0 4 1 8829.19 8593.88 156.58 o
0 4 2 458.96 490.34 14.55 o
0 4 3 42573.00 41163.50 678.78 o
0 4 4 462.91 565.38 25.77 o
0 4 5 43267.40 42642.30 700.00 o
0 4 6 918.85 911.48 24.11 o
0 4 7 11247.00 10769.10 172.60 o
0 4 8 516.16 483.27 21.62 o
0 4 9 1335.63 1400.39 36.79 o
0 4 10 2.03 20.16 22.24 <
0 4 11 19997.70 20464.70 366.32 o
0 4 12 371.24 398.25 33.05 o
0 4 13 22115.40 22936.20 411.05 o
0 4 14 1863.15 2016.52 67.56 o
0 4 15 6201.38 6768.96 156.55 o
0 4 16 947.11 1075.68 57.99 o
0 4 17 116.22 113.28 40.95 <
0 4 18 16.31 11.43 42.61 <
0 4 19 3200.08 3351.14 106.02 o
0 4 20 654.36 536.07 59.45 o
0 4 21 5376.13 4865.15 139.91 o
0 4 22 854.19 666.81 81.07 o
0 4 23 3872.10 3990.80 171.91 o
0 4 24 330.72 390.35 57.78 o
0 4 25 262.75 359.80 60.69 o
0 4 26 71.72 30.97 48.22 <
0 4 27 2.03 40.74 54.87 <
0 4 28 310.26 192.68 78.99 <
0 4 29 477.85 623.98 78.36 o
0 4 30 410.68 434.00 73.58 o
0 4 31 788.19 1002.08 96.24 o
0 4 32 103.31 76.91 75.24 <
0 4 33 868.52 926.84 99.36 o
0 5 1 9490.87 9832.33 285.07 o
0 5 2 1563.32 1473.77 61.74 o
0 5 3 7335.61 7189.57 214.56 o
0 5 4 1238.10 1122.26 35.34 o
0 5 5 5.74 50.92 12.89 o
0 5 6 208.67 178.76 17.46 o
0 5 7 4635.05 4485.19 96.25 o
0 5 8 152.96 269.38 24.11 o
0 5 9 10119.70 10441.20 206.26 o
0 5 10 1554.39 1596.82 50.72 o
0 5 11 11257.60 11366.10 213.13 o
0 5 12 1130.40 1025.80 42.61 o
0 5 13 3681.51 3668.63 88.56 o
0 5 14 5.51 -27.02 30.14 <
0 5 15 221.06 304.72 36.79 o
0 5 16 710.41 753.69 46.77 o
0 5 17 4396.98 4689.57 114.75 o
0 5 18 858.03 896.50 64.02 o
0 5 19 9960.87 10718.70 291.28 o
0 5 20 301.79 354.60 36.79 o
0 5 21 3705.22 4025.28 140.11 o
0 5 22 65.48 66.72 30.55 <
0 5 23 366.24 379.96 46.56 o
0 5 24 468.32 398.67 48.43 o
0 5 25 866.14 833.93 63.40 o
0 5 26 579.36 502.18 58.62 o
0 5 27 3288.51 2879.64 122.23 o
0 5 28 22.61 25.98 54.04 <
0 5 29 2826.58 2509.60 120.56 o
0 5 30 87.17 152.77 83.56 <
0 5 31 290.96 462.48 93.74 o
0 6 0 6966.83 7720.55 289.60 o
0 6 1 939.37 1055.93 49.26 o
0 6 2 3967.00 4064.46 136.58 o
0 6 3 1982.75 2177.20 85.02 o
0 6 4 6.89 34.09 26.61 <
0 6 5 3027.67 2901.91 104.98 o
0 6 6 2911.17 3121.62 136.99 o
0 6 7 1193.72 1212.25 73.58 o
0 6 8 6395.86 6732.22 256.75 o
0 6 9 11.59 28.89 33.05 <
0 6 10 2085.23 2104.86 102.06 o
0 6 11 1216.38 1143.65 73.58 o
0 6 12 0.44 8.11 35.96 <
0 6 13 1388.14 1330.73 80.44 o
0 6 14 1504.59 1302.26 79.61 o
0 6 15 1506.22 1252.99 80.44 o
0 6 16 2582.89 2385.08 127.21 o
0 6 17 253.42 166.70 45.52 o
0 6 18 756.98 719.81 66.93 o
0 6 19 21.15 3.33 45.73 <
0 6 20 32.83 8.31 66.51 <
0 6 21 530.92 573.68 97.48 o
0 6 22 426.42 541.67 99.15 o
0 6 23 969.18 986.29 126.17 o
0 6 24 630.56 483.68 105.38 o
0 6 25 443.94 432.34 109.96 o
0 6 26 183.20 -10.81 91.25 <
0 6 27 50.66 -20.16 101.85 <
0 6 28 0.59 33.05 118.68 <
0 7 1 3480.54 3730.09 117.24 o
0 7 2 18.18 75.66 32.63 <
0 7 3 725.72 561.01 41.16 o
0 7 4 314.20 368.11 39.08 o
0 7 5 63.28 69.01 45.52 <
0 7 6 734.51 871.55 69.22 o
0 7 7 2244.23 2159.11 112.66 o
0 7 8 503.74 483.27 55.91 o
0 7 9 2570.38 2564.88 125.76 o
0 7 10 52.73 32.22 42.82 <
0 7 11 1338.78 1151.97 78.36 o
0 7 12 64.05 81.48 45.52 <
0 7 13 22.68 39.28 44.27 <
0 7 14 1077.82 1095.84 79.82 o
0 7 15 378.18 376.64 55.08 o
0 7 16 1392.73 1259.64 127.83 o
0 7 17 1428.01 1546.07 142.59 o
0 7 18 288.38 120.14 78.99 <
0 7 19 517.36 598.00 105.18 o
0 7 20 61.33 55.70 79.61 <
0 7 21 198.93 71.29 88.75 <
0 7 22 583.12 713.16 120.35 o
0 7 23 16.64 3.12 101.43 <
0 7 24 1075.87 828.94 140.51 o
0 8 0 2054.20 2228.93 124.72 o
0 8 1 86.60 136.77 46.56 <
0 8 2 1404.96 1537.13 71.92 o
0 8 3 121.68 75.24 39.28 <
0 8 4 14.16 58.41 44.06 <
0 8 5 152.71 147.58 46.77 o
0 8 6 698.17 590.73 72.54 o
0 8 7 0.18 38.04 43.44 <
0 8 8 1312.20 1271.69 89.80 o
0 8 9 118.40 42.19 52.38 <
0 8 10 1342.11 1019.35 86.05 o
0 8 11 249.68 228.64 80.23 <
0 8 12 218.98 19.12 74.41 <
0 8 13 8.71 -37.83 79.19 <
0 8 14 208.31 59.86 76.91 <
0 8 15 2.40 1.25 78.15 <
0 8 16 378.64 356.27 97.07 o
0 8 17 186.33 180.21 91.04 <
0 8 18 515.69 430.89 112.04 o
0 9 1 171.28 156.72 54.87 <
0 9 2 279.41 378.71 63.40 o
0 9 3 14.89 -50.51 71.29 <
0 9 4 795.21 699.86 71.09 o
0 9 5 36.68 22.24 67.97 <
0 9 6 648.65 727.92 93.54 o
0 9 7 117.95 48.85 109.33 <
0 9 8 102.79 134.27 71.50 <
0 9 9 75.56 -91.87 75.66 <
1 0 -36 2.68 4.99 96.44 <
1 0 -34 1173.08 1232.82 141.55 o
1 0 -32 372.44 364.37 94.78 o
1 0 -30 1585.45 1955.78 166.50 o
1 0 -28 379.79 363.12 78.57 o
1 0 -26 307.97 400.33 75.24 o
1 0 -24 2265.49 2849.25 162.35 o
1 0 -22 2387.00 2935.34 156.32 o
1 0 -20 2987.84 2995.51 150.29 o
1 0 -18 232.65 146.33 56.54 <
1 0 -16 268.36 436.92 56.54 o
1 0 -14 7963.81 6659.24 238.10 o
1 0 -12 18652.30 17485.40 525.88 o
1 0 -10 2208.15 2213.82 76.71 o
1 0 -8 496.25 368.33 25.36 o
1 0 -6 5443.60 5008.88 133.74 o
1 0 6 531.59 399.73 21.41 o
1 0 8 65.21 106.21 19.12 o
1 0 10 1294.62 1163.06 51.34 o
1 0 12 8988.01 8843.79 289.08 o
1 0 14 1093.68 883.22 73.38 o
1 0 16 1055.28 956.17 76.91 o
1 0 18 186.06 143.63 55.08 <
1 0 20 593.66 677.41 81.69 o
1 0 22 12.74 -45.73 67.55 <
1 0 24 29.54 23.07 145.29 <
1 0 26 11.82 6.86 51.96 <
1 0 28 64.32 355.85 87.30 o
1 0 30 76.97 240.49 79.19 o
1 0 32 478.20 322.39 90.21 o
1 0 34 193.78 143.63 97.07 <
1 0 36 19.52 1.66 99.35 <
1 1 -36 257.38 355.43 78.15 o
1 1 -35 162.04 215.13 72.54 <
1 1 -34 58.27 45.52 61.52 <
1 1 -33 0.47 -41.99 58.20 <
1 1 -32 393.03 560.38 74.00 o
1 1 -31 126.16 113.49 56.54 <
1 1 -30 578.66 534.19 68.18 o
1 1 -29 18.99 17.46 64.23 <
1 1 -28 1401.99 1232.20 87.30 o
1 1 -27 81.75 173.77 49.26 o
1 1 -26 471.57 331.95 51.13 o
1 1 -25 369.18 219.91 64.44 o
1 1 -24 0.28 32.84 59.24 <
1 1 -23 102.77 73.58 54.25 <
1 1 -22 2200.19 2080.35 91.88 o
1 1 -21 2.10 -0.21 44.48 <
1 1 -20 2643.80 2454.16 95.00 o
1 1 -19 535.43 510.92 50.51 o
1 1 -18 2156.31 2066.46 81.90 o
1 1 -17 5.19 30.14 35.34 <
1 1 -16 25.65 55.70 33.88 <
1 1 -15 1381.01 1323.50 59.66 o
1 1 -14 1148.06 1185.26 54.25 o
1 1 -13 0.57 30.35 25.15 <
1 1 -12 2629.98 2251.84 90.43 o
1 1 -11 1538.67 1378.00 52.38 o
1 1 -10 5968.44 6806.61 134.33 o
1 1 -9 659.73 710.07 24.74 o
1 1 -8 421.12 423.62 17.88 o
1 1 -7 82.45 71.71 10.39 o
1 1 -6 2708.96 2872.53 51.98 o
1 1 -5 107.43 124.71 8.73 o
1 1 4 361.16 398.68 11.85 o
1 1 5 893.02 779.53 18.50 o
1 1 6 5001.90 5391.57 95.25 o
1 1 7 304.51 291.63 13.72 o
1 1 8 2760.73 2820.40 57.80 o
1 1 9 527.10 519.66 20.79 o
1 1 10 1132.93 1178.21 35.34 o
1 1 11 56.96 71.29 20.37 o
1 1 12 781.86 726.07 36.17 o
1 1 13 87.50 83.56 24.11 o
1 1 14 1528.30 1445.74 60.49 o
1 1 15 3.98 -8.94 32.43 <
1 1 16 966.09 924.58 56.33 o
1 1 17 209.36 145.91 40.12 o
1 1 18 48.90 132.61 39.08 o
1 1 19 147.53 109.54 43.03 <
1 1 20 75.49 83.97 43.03 <
1 1 21 17.59 74.62 48.22 <
1 1 22 689.78 647.90 68.18 o
1 1 23 12.14 25.36 55.70 <
1 1 24 98.46 265.22 126.17 <
1 1 25 4.58 69.22 41.99 <
1 1 26 209.66 201.20 45.52 o
1 1 27 22.29 -8.52 41.57 <
1 1 28 33.55 1.45 45.52 <
1 1 29 43.55 139.05 52.59 <
1 1 30 9.82 -84.18 52.79 <
1 1 31 0.15 95.40 53.83 <
1 1 32 154.12 331.11 66.51 o
1 1 33 0.90 67.76 58.41 <
1 1 34 86.77 166.70 67.55 <
1 1 35 3.59 148.82 72.33 <
1 1 36 150.96 -57.99 73.79 <
1 2 -36 58.08 6.65 76.91 <
1 2 -35 268.15 355.64 81.89 o
1 2 -34 369.61 188.11 67.97 <
1 2 -33 0.42 83.77 62.15 <
1 2 -32 442.62 454.17 70.67 o
1 2 -31 63.48 62.98 54.46 <
1 2 -30 602.87 646.85 77.32 o
1 2 -29 535.52 620.45 70.05 o
1 2 -28 72.91 -3.53 47.60 <
1 2 -27 1657.83 2279.84 122.22 o
1 2 -26 402.46 304.51 69.63 o
1 2 -25 497.73 582.00 59.45 o
1 2 -24 755.16 791.94 86.68 o
1 2 -23 112.16 70.25 59.86 <
1 2 -22 1204.43 1305.79 79.82 o
1 2 -21 536.92 747.87 64.64 o
1 2 -20 669.68 619.00 58.20 o
1 2 -19 1773.93 1849.60 82.52 o
1 2 -18 634.79 504.27 51.55 o
1 2 -17 6613.94 6791.77 177.97 o
1 2 -16 2207.00 2353.13 85.02 o
1 2 -15 913.67 1038.69 54.04 o
1 2 -14 1736.30 1795.80 67.56 o
1 2 -13 428.26 413.64 27.23 o
1 2 -12 3110.49 3076.12 80.24 o
1 2 -11 6925.61 6769.97 137.03 o
1 2 -10 2462.55 2425.19 60.70 o
1 2 -9 11227.70 10912.10 192.20 o
1 2 -8 95.37 152.36 13.72 o
1 2 -7 11823.80 11544.20 198.26 o
1 2 -6 9402.00 9434.70 169.52 o
1 2 -5 233.15 252.34 11.22 o
1 2 -4 4406.81 4373.03 71.94 o
1 2 -3 6768.34 6747.50 104.41 o
1 2 -2 3602.10 3655.08 71.94 o
1 2 -1 31510.70 32764.20 684.83 o
1 2 0 82.36 62.98 7.27 o
1 2 1 13491.50 13342.20 226.64 o
1 2 2 3663.81 3574.00 54.06 o
1 2 3 958.80 899.67 17.05 o
1 2 4 2083.86 1953.34 31.60 o
1 2 5 1569.39 1598.39 27.65 o
1 2 6 5961.33 5813.82 92.74 o
1 2 7 13495.30 12834.50 196.82 o
1 2 8 252.51 294.74 15.59 o
1 2 9 9843.80 9644.60 167.22 o
1 2 10 997.05 985.91 37.21 o
1 2 11 1001.62 975.93 39.70 o
1 2 12 366.90 324.47 27.44 o
1 2 13 365.97 394.10 31.80 o
1 2 14 13.15 25.77 25.77 <
1 2 15 1698.70 1782.06 63.40 o
1 2 16 1154.91 1175.89 54.88 o
1 2 17 2529.27 2648.74 86.27 o
1 2 18 651.87 636.88 56.12 o
1 2 19 203.40 272.08 49.47 o
1 2 20 5.23 8.52 47.39 <
1 2 21 19.61 -9.35 50.09 <
1 2 22 48.64 55.50 55.70 <
1 2 23 75.13 88.13 60.90 <
1 2 24 13.73 8.52 35.13 <
1 2 25 289.69 370.81 51.13 o
1 2 26 140.67 238.82 49.26 o
1 2 27 175.83 311.16 55.29 o
1 2 28 0.25 165.04 50.09 o
1 2 29 12.36 50.30 54.04 <
1 2 30 14.59 -25.15 55.29 <
1 2 31 0.18 -35.34 54.25 <
1 2 32 28.75 167.74 60.69 <
1 2 33 18.75 87.92 65.47 <
1 2 34 0.39 174.39 70.05 <
1 2 35 37.56 49.05 72.33 <
1 3 -35 99.73 66.31 80.23 <
1 3 -34 81.53 87.09 69.01 <
1 3 -33 358.88 231.14 72.96 o
1 3 -32 0.13 41.78 71.29 <
1 3 -31 161.92 163.17 61.94 <
1 3 -30 284.96 303.68 65.06 o
1 3 -29 9.36 -80.44 57.37 <
1 3 -28 1243.84 1393.08 97.49 o
1 3 -27 364.19 411.14 61.32 o
1 3 -26 352.74 456.87 59.86 o
1 3 -25 345.11 328.00 53.00 o
1 3 -24 183.83 231.97 88.75 <
1 3 -23 680.50 399.09 117.86 o
1 3 -22 63.35 13.93 59.86 <
1 3 -21 133.77 121.18 56.95 <
1 3 -20 1714.96 1750.43 86.26 o
1 3 -19 328.92 298.48 53.00 o
1 3 -18 3665.30 3960.95 126.81 o
1 3 -17 1897.97 1968.72 83.98 o
1 3 -16 587.35 675.33 51.76 o
1 3 -15 101.65 76.70 29.93 <
1 3 -14 2.89 7.48 26.81 <
1 3 -13 295.31 259.20 25.15 o
1 3 -12 1021.71 922.08 36.38 o
1 3 -11 589.34 583.67 27.65 o
1 3 -10 3139.00 3078.58 69.64 o
1 3 -9 2098.23 2250.88 54.05 o
1 3 -8 5147.85 5295.91 103.33 o
1 3 -7 142.21 157.35 13.51 o
1 3 -6 1173.05 1238.06 27.65 o
1 3 -5 810.66 837.07 20.58 o
1 3 -4 358.25 328.21 13.30 o
1 3 -3 351.79 335.90 16.01 o
1 3 -2 1851.50 1802.72 47.60 o
1 3 -1 667.22 668.49 24.32 o
1 3 0 1805.62 1704.18 39.91 o
1 3 1 158.50 182.08 13.09 o
1 3 2 4080.18 3868.95 78.38 o
1 3 3 445.79 469.76 18.71 o
1 3 4 1186.60 1124.99 24.53 o
1 3 5 1271.80 1305.63 26.82 o
1 3 6 7.98 19.33 9.35 <
1 3 7 32.41 14.13 10.39 <
1 3 8 1593.08 1638.03 39.91 o
1 3 9 1152.18 1222.88 37.21 o
1 3 10 1159.01 1094.20 36.17 o
1 3 11 449.64 471.84 29.72 o
1 3 12 865.17 817.52 39.49 o
1 3 13 12.40 33.46 25.77 <
1 3 14 198.96 107.25 27.64 o
1 3 15 234.76 266.68 34.50 o
1 3 16 159.03 115.36 35.13 o
1 3 17 373.30 365.20 43.44 o
1 3 18 1052.35 1142.61 62.15 o
1 3 19 306.90 261.07 45.73 o
1 3 20 219.97 140.51 48.43 <
1 3 21 2.80 -32.01 50.30 <
1 3 22 7.64 34.92 60.28 <
1 3 23 0.13 -81.27 74.00 <
1 3 24 37.81 -39.08 42.40 <
1 3 25 20.60 58.82 59.65 <
1 3 26 86.06 39.70 42.19 <
1 3 27 57.74 55.91 47.60 <
1 3 28 132.11 238.82 55.08 o
1 3 29 18.53 74.83 55.08 <
1 3 30 1.19 2.29 61.94 <
1 3 31 38.69 151.73 60.28 <
1 3 32 0.30 -82.10 65.68 <
1 3 33 5.79 -53.63 69.84 <
1 3 34 32.84 25.15 70.46 <
1 4 -33 4.03 -27.44 75.87 <
1 4 -32 4.56 -28.68 75.45 <
1 4 -31 148.91 81.48 69.42 <
1 4 -30 6.50 -114.53 63.81 <
1 4 -29 646.94 627.52 75.24 o
1 4 -28 1.68 42.61 50.92 <
1 4 -27 596.40 560.17 66.10 o
1 4 -26 28.16 -17.04 47.18 <
1 4 -25 164.04 188.52 48.64 o
1 4 -24 0.36 -20.16 39.08 <
1 4 -23 5.85 20.37 86.47 <
1 4 -22 9.95 -18.91 121.18 <
1 4 -21 497.38 509.04 73.17 o
1 4 -20 75.73 89.17 63.81 <
1 4 -19 1392.76 1424.27 82.73 o
1 4 -18 7.49 34.71 42.82 <
1 4 -17 1371.74 1327.83 64.44 o
1 4 -16 68.16 39.49 40.12 <
1 4 -15 394.27 367.49 40.32 o
1 4 -14 584.88 617.55 41.16 o
1 4 -13 160.29 178.13 29.31 o
1 4 -12 16.40 17.46 24.32 <
1 4 -11 1420.95 1329.30 43.24 o
1 4 -10 69.90 67.76 17.25 o
1 4 -9 4110.61 3997.08 77.75 o
1 4 -8 183.38 172.73 16.00 o
1 4 -7 3331.96 3286.02 63.82 o
1 4 -6 195.38 188.73 14.76 o
1 4 -5 22.13 22.86 20.99 <
1 4 -4 479.05 515.49 21.83 o
1 4 -3 2804.98 2700.38 62.99 o
1 4 -2 36.09 38.45 16.42 <
1 4 -1 3555.95 3347.22 76.30 o
1 4 0 134.85 141.96 14.55 o
1 4 1 3703.06 3504.41 74.01 o
1 4 2 1226.12 1217.06 33.67 o
1 4 3 476.44 425.69 19.95 o
1 4 4 714.55 725.43 25.98 o
1 4 5 1100.14 1099.60 27.44 o
1 4 6 2.40 10.39 10.18 <
1 4 7 3622.39 3531.99 71.31 o
1 4 8 97.89 119.10 15.80 o
1 4 9 824.39 758.69 27.02 o
1 4 10 500.13 506.13 24.94 o
1 4 11 54.23 31.39 20.58 <
1 4 12 701.18 682.19 34.92 o
1 4 13 109.15 96.65 28.89 o
1 4 14 472.34 507.38 35.96 o
1 4 15 391.32 404.28 36.79 o
1 4 16 59.10 48.85 38.87 <
1 4 17 321.76 359.17 43.44 o
1 4 18 308.73 356.68 50.92 o
1 4 19 1.01 -42.40 49.68 <
1 4 20 259.29 260.65 56.33 o
1 4 21 40.88 39.49 58.82 <
1 4 22 235.81 217.00 72.13 o
1 4 23 1.09 101.64 67.34 <
1 4 24 65.65 85.43 45.10 <
1 4 25 0.28 63.40 48.01 <
1 4 26 51.20 43.44 51.55 <
1 4 27 5.04 92.70 52.17 <
1 4 28 197.40 246.72 59.86 o
1 4 29 1.39 20.58 59.03 <
1 4 30 98.68 160.26 66.31 <
1 4 31 9.50 -8.73 73.37 <
1 4 32 67.11 218.25 112.24 <
1 4 33 6.29 -92.50 78.57 <
1 5 -31 324.96 171.48 115.15 <
1 5 -30 20.80 -1.04 107.88 <
1 5 -29 45.70 70.46 95.41 <
1 5 -28 57.15 14.97 91.46 <
1 5 -27 12.68 1.25 79.82 <
1 5 -26 108.56 82.31 77.74 <
1 5 -25 143.60 211.18 55.29 o
1 5 -24 221.67 269.38 54.67 o
1 5 -23 1059.83 1077.13 79.19 o
1 5 -22 100.04 111.41 46.56 <
1 5 -21 385.82 377.26 51.13 o
1 5 -20 0.11 -67.55 57.58 <
1 5 -19 3.31 -44.27 52.79 <
1 5 -18 225.72 263.14 58.62 o
1 5 -17 363.25 356.06 46.77 o
1 5 -16 612.34 538.56 47.18 o
1 5 -15 927.60 714.00 48.22 o
1 5 -14 417.05 393.89 39.70 o
1 5 -13 261.96 329.04 33.26 o
1 5 -12 120.47 140.51 27.85 o
1 5 -11 218.73 251.09 25.57 o
1 5 -10 256.48 221.57 27.23 o
1 5 -9 156.88 152.77 23.07 o
1 5 -8 655.09 654.55 38.45 o
1 5 -7 578.21 544.59 34.71 o
1 5 -6 1265.34 1346.33 54.04 o
1 5 -5 208.92 187.69 22.03 o
1 5 -4 99.84 66.51 17.88 o
1 5 -3 24.21 28.27 15.17 <
1 5 -2 6.96 29.72 17.67 <
1 5 -1 314.37 305.34 19.75 o
1 5 0 1057.00 882.58 32.22 o
1 5 1 276.85 235.71 18.50 o
1 5 2 337.33 316.57 20.16 o
1 5 3 31.33 -26.61 16.00 <
1 5 4 383.35 363.75 25.36 o
1 5 5 55.74 57.37 19.54 <
1 5 6 0.28 3.95 20.58 <
1 5 7 105.63 63.40 24.73 <
1 5 8 18.61 31.39 18.29 <
1 5 9 63.41 81.27 20.99 o
1 5 10 327.63 231.14 25.15 o
1 5 11 14.14 21.62 23.90 <
1 5 12 12.63 14.13 25.98 <
1 5 13 20.25 28.89 30.55 <
1 5 14 28.87 56.12 32.63 <
1 5 15 212.20 217.62 40.53 o
1 5 16 12.83 -19.75 43.44 <
1 5 17 10.69 -10.60 46.14 <
1 5 18 6.27 46.56 51.76 <
1 5 19 0.59 13.09 63.19 <
1 5 20 0.11 56.95 57.58 <
1 5 21 5.54 26.19 27.85 <
1 5 22 15.95 37.62 31.80 <
1 5 23 45.78 47.81 35.96 <
1 5 24 2.86 -14.13 34.50 <
1 5 25 25.87 50.09 39.70 <
1 5 26 13.48 26.61 47.39 <
1 5 27 2.84 -5.61 48.22 <
1 5 28 0.72 43.86 53.63 <
1 5 29 19.12 -25.98 76.49 <
1 5 30 16.94 -13.93 81.06 <
1 6 -28 0.23 28.68 115.78 <
1 6 -27 104.48 92.70 103.93 <
1 6 -26 117.36 -101.64 98.52 <
1 6 -25 6.39 53.21 96.03 <
1 6 -24 137.37 165.04 91.66 <
1 6 -23 52.25 97.28 86.68 <
1 6 -22 36.48 203.90 85.22 <
1 6 -21 121.53 9.56 72.33 <
1 6 -20 43.55 69.63 70.25 <
1 6 -19 219.54 183.54 74.62 <
1 6 -18 60.59 43.65 41.78 <
1 6 -17 108.63 101.22 62.36 <
1 6 -16 368.53 350.03 47.18 o
1 6 -15 22.96 47.18 29.31 <
1 6 -14 288.96 311.99 34.09 o
1 6 -13 31.51 14.34 25.57 <
1 6 -12 169.12 193.10 29.52 o
1 6 -11 199.74 203.91 28.68 o
1 6 -10 0.63 18.29 22.45 <
1 6 -9 121.31 77.11 24.73 o
1 6 -8 242.16 198.92 27.85 o
1 6 -7 369.59 260.24 29.10 o
1 6 -6 1010.49 950.13 46.77 o
1 6 -5 29.29 11.43 22.24 <
1 6 -4 871.91 887.35 39.29 o
1 6 -3 161.60 56.12 21.62 <
1 6 -2 8.08 54.87 19.33 <
1 6 -1 86.17 74.41 19.54 o
1 6 0 358.98 321.14 30.35 o
1 6 1 89.26 103.10 28.48 o
1 6 2 469.10 430.68 37.62 o
1 6 3 205.78 185.62 32.22 o
1 6 4 1459.33 1364.83 64.85 o
1 6 5 5.98 26.19 21.82 <
1 6 6 217.25 180.63 24.32 o
1 6 7 30.26 59.45 26.81 <
1 6 8 209.91 263.14 31.39 o
1 6 9 4.48 19.33 28.27 <
1 6 10 547.81 517.77 49.89 o
1 6 11 5.07 24.53 28.68 <
1 6 12 372.35 336.10 37.21 o
1 6 13 13.47 -23.28 35.54 <
1 6 14 273.70 234.88 44.69 o
1 6 15 44.04 48.01 43.03 <
1 6 16 0.28 53.63 39.91 <
1 6 17 79.36 122.63 45.10 <
1 6 18 126.19 9.98 44.69 <
1 6 19 6.53 14.97 45.73 <
1 6 20 261.89 199.96 49.26 o
1 6 21 6.88 -21.62 51.76 <
1 6 22 89.94 55.91 70.25 <
1 6 23 94.09 91.87 73.37 <
1 6 24 10.90 91.25 80.65 <
1 6 25 127.74 105.38 93.74 <
1 6 26 2.41 4.99 92.29 <
1 6 27 49.36 38.45 99.98 <
1 7 -24 2.93 41.78 97.69 <
1 7 -23 282.54 271.25 107.67 <
1 7 -22 68.76 74.83 92.29 <
1 7 -21 340.41 327.17 94.37 o
1 7 -20 446.07 579.09 110.37 o
1 7 -19 77.15 137.81 83.35 <
1 7 -18 24.72 53.21 75.45 <
1 7 -17 53.58 118.06 73.79 <
1 7 -16 0.23 56.74 70.05 <
1 7 -15 202.13 33.05 65.68 <
1 7 -14 129.72 103.10 71.29 <
1 7 -13 565.65 585.95 90.83 o
1 7 -12 390.01 453.75 79.82 o
1 7 -11 270.66 404.28 53.00 o
1 7 -10 249.87 206.19 46.56 o
1 7 -9 1.85 55.50 39.08 <
1 7 -8 2.96 7.27 38.25 <
1 7 -7 72.59 123.26 40.74 o
1 7 -6 71.68 17.25 35.54 <
1 7 -5 255.33 245.48 39.49 o
1 7 -4 319.39 284.76 40.53 o
1 7 -3 452.86 481.19 39.08 o
1 7 -2 235.99 319.27 36.58 o
1 7 -1 55.23 70.25 30.14 <
1 7 0 46.73 56.54 29.93 <
1 7 1 0.03 6.03 30.97 <
1 7 2 3.95 77.11 35.34 <
1 7 3 88.68 77.53 42.19 <
1 7 4 113.33 24.94 33.88 <
1 7 5 181.52 131.36 35.34 o
1 7 6 134.85 174.39 44.90 o
1 7 7 137.64 40.53 40.12 <
1 7 8 107.31 82.52 44.27 <
1 7 9 56.07 67.97 41.78 <
1 7 10 91.59 187.90 45.73 o
1 7 11 1.22 50.30 43.86 <
1 7 12 0.18 -23.90 42.40 <
1 7 13 119.70 187.28 47.81 o
1 7 14 104.75 98.94 46.35 <
1 7 15 20.79 40.53 46.14 <
1 7 16 72.08 29.93 50.51 <
1 7 17 52.88 -34.50 49.47 <
1 7 18 74.14 46.77 71.50 <
1 7 19 13.53 -35.13 72.54 <
1 7 21 16.71 -113.07 90.83 <
1 7 22 26.94 41.16 103.93 <
1 7 23 8.54 -54.04 102.89 <
1 7 24 68.82 -11.02 114.32 <
1 8 -18 0.83 95.20 93.74 <
1 8 -17 73.31 122.43 94.37 <
1 8 -16 64.62 -27.85 81.48 <
1 8 -15 7.11 -140.09 84.80 <
1 8 -14 63.56 106.01 77.32 <
1 8 -13 10.97 51.76 80.86 <
1 8 -12 4.27 68.59 76.07 <
1 8 -11 10.31 51.34 72.13 <
1 8 -10 1.30 93.53 60.07 <
1 8 -9 19.94 26.19 56.33 <
1 8 -8 30.31 -13.72 57.99 <
1 8 -7 77.91 37.00 52.59 <
1 8 -6 108.63 134.48 45.52 <
1 8 -5 28.59 -40.74 45.73 <
1 8 -4 21.93 32.22 41.78 <
1 8 -3 42.94 -8.11 39.28 <
1 8 -2 0.52 42.40 40.12 <
1 8 -1 8.08 -25.57 36.37 <
1 8 0 44.06 -20.16 35.34 <
1 8 1 43.65 0.83 36.58 <
1 8 2 83.39 37.62 35.96 <
1 8 3 26.90 82.10 38.45 <
1 8 4 20.09 15.38 40.95 <
1 8 5 116.31 145.50 44.27 o
1 8 6 3.39 126.58 59.03 <
1 8 7 15.73 78.98 54.87 <
1 8 8 44.85 32.84 55.70 <
1 8 9 1.80 -46.77 54.25 <
1 8 10 119.61 66.31 88.13 <
1 8 11 26.09 56.33 64.23 <
1 8 12 1.53 21.62 60.28 <
1 8 13 32.44 120.97 76.28 <
1 8 14 1.52 59.65 81.89 <
1 8 15 114.19 7.69 84.60 <
1 8 16 6.21 7.27 85.64 <
1 8 17 6.80 115.98 107.88 <
1 8 18 56.48 141.76 95.82 <
1 9 -9 55.55 206.40 119.72 <
1 9 -8 20.58 44.27 69.42 <
1 9 -7 14.11 128.66 69.63 <
1 9 -6 7.99 48.85 70.67 <
1 9 -5 3.50 24.94 68.18 <
1 9 -4 23.42 -59.45 62.56 <
1 9 -3 5.76 22.45 65.27 <
1 9 -2 86.85 92.08 70.25 <
1 9 -1 46.58 38.04 65.47 <
1 9 0 51.26 128.04 66.31 <
1 9 1 38.63 -45.52 48.64 <
1 9 2 2.77 70.25 54.46 <
1 9 3 7.75 -38.04 55.50 <
1 9 4 15.46 49.47 58.41 <
1 9 5 0.06 -87.30 59.65 <
1 9 6 23.35 79.40 69.22 <
1 9 7 14.40 81.89 70.46 <
1 9 8 26.89 41.57 71.71 <
2 0 -36 1671.88 1364.62 166.08 o
2 0 -34 403.80 293.08 102.47 <
2 0 -32 302.65 362.71 91.04 o
2 0 -30 4728.37 4978.30 308.91 o
2 0 -28 6733.08 5674.82 331.59 o
2 0 -26 3115.38 2487.19 178.77 o
2 0 -24 775.82 386.41 139.68 <
2 0 -22 8488.75 7333.48 284.22 o
2 0 -20 18338.80 14912.40 490.86 o
2 0 -18 8694.09 7434.21 274.67 o
2 0 -16 2.37 60.07 48.85 <
2 0 -14 12550.90 13081.00 410.98 o
2 0 -12 28405.10 29705.00 860.70 o
2 0 -10 6950.08 7096.58 229.99 o
2 0 -8 3091.66 3286.56 98.13 o
2 0 -6 331.76 337.57 23.07 o
2 0 -4 9484.16 10234.80 229.91 o
2 0 -2 21532.40 22577.00 452.42 o
2 0 0 2032.49 2326.27 59.05 o
2 0 2 26973.30 29017.70 637.01 o
2 0 4 9116.68 9920.69 210.55 o
2 0 6 32.21 65.68 13.09 o
2 0 8 10023.20 10884.20 249.41 o
2 0 10 13092.50 13120.30 397.96 o
2 0 12 33137.30 34281.20 988.73 o
2 0 14 6466.85 6175.85 220.60 o
2 0 16 1316.95 1162.18 84.81 o
2 0 18 18304.50 15546.50 505.03 o
2 0 20 21941.80 19894.90 633.20 o
2 0 22 5226.35 5573.29 238.86 o
2 0 24 51.12 112.24 61.11 <
2 0 26 5997.27 4776.66 282.31 o
2 0 28 9689.78 9803.05 517.27 o
2 0 30 4361.36 4718.40 293.11 o
2 0 32 26.12 149.24 95.40 <
2 0 34 614.13 418.00 114.74 o
2 0 36 2820.34 2744.07 225.95 o
2 1 -36 18.63 35.96 75.04 <
2 1 -35 7.96 -8.94 69.01 <
2 1 -34 120.94 114.32 65.89 <
2 1 -33 180.19 205.98 67.97 o
2 1 -32 1052.46 1079.83 93.54 o
2 1 -31 43.46 58.20 56.54 <
2 1 -30 460.06 617.54 72.96 o
2 1 -29 209.77 240.28 57.99 o
2 1 -28 287.96 307.42 55.29 o
2 1 -27 93.61 131.36 49.47 <
2 1 -26 5.08 -0.62 40.32 <
2 1 -25 935.58 927.26 71.09 o
2 1 -24 1697.68 1972.63 145.92 o
2 1 -23 1373.96 1227.85 83.35 o
2 1 -22 7212.28 7329.19 217.47 o
2 1 -21 417.96 372.89 64.85 o
2 1 -20 8200.72 7266.82 196.48 o
2 1 -19 3305.13 3104.47 109.14 o
2 1 -18 1160.33 959.08 61.32 o
2 1 -17 3649.61 3560.45 113.71 o
2 1 -16 2838.18 2976.01 98.74 o
2 1 -15 6120.95 5785.18 151.36 o
2 1 -14 28991.90 29480.50 610.92 o
2 1 -13 33.22 -21.62 43.23 <
2 1 -12 43524.20 43887.80 885.33 o
2 1 -11 4524.06 4196.88 109.57 o
2 1 -10 17701.80 17994.60 378.52 o
2 1 -9 36327.10 35159.70 744.73 o
2 1 -8 4867.25 4630.78 95.44 o
2 1 -7 18297.70 18289.30 318.27 o
2 1 -6 65311.70 63768.10 1259.03 o
2 1 -5 480.78 502.82 19.54 o
2 1 -4 116848.00 117553.00 2309.78 o
2 1 -3 11980.10 12030.60 198.53 o
2 1 -2 46101.00 47353.40 805.73 o
2 1 -1 20383.70 20028.10 349.74 o
2 1 0 3455.21 3434.80 57.80 o
2 1 1 68242.80 70525.90 1390.65 o
2 1 2 64179.20 65407.40 1179.53 o
2 1 3 2482.44 2382.58 37.42 o
2 1 4 117992.00 117702.00 1992.76 o
2 1 5 6509.87 6791.10 110.85 o
2 1 6 46299.00 45234.60 774.46 o
2 1 7 22000.10 22095.90 361.44 o
2 1 8 1.93 7.90 14.13 <
2 1 9 16316.90 16800.00 324.60 o
2 1 10 32407.10 33711.70 631.89 o
2 1 11 6411.39 6313.61 138.48 o
2 1 12 42590.50 43405.90 811.66 o
2 1 13 636.64 690.72 47.39 o
2 1 14 24755.20 25342.50 490.28 o
2 1 15 4460.33 4316.12 113.30 o
2 1 16 756.13 864.28 57.16 o
2 1 17 6336.80 6148.64 167.78 o
2 1 18 3306.06 3013.01 106.64 o
2 1 19 1379.45 1480.20 79.20 o
2 1 20 9146.75 8756.54 228.50 o
2 1 21 6.83 -14.34 54.67 <
2 1 22 8735.96 8951.42 237.64 o
2 1 23 322.59 295.78 69.22 o
2 1 24 1407.05 1565.20 92.50 o
2 1 25 730.03 832.47 69.42 o
2 1 26 35.59 81.89 45.31 <
2 1 27 469.91 575.35 63.19 o
2 1 28 504.03 645.40 70.46 o
2 1 29 67.53 85.01 55.29 <
2 1 30 991.65 1263.37 98.11 o
2 1 31 14.33 90.42 57.16 <
2 1 32 2005.38 2370.07 136.57 o
2 1 33 34.98 85.22 66.51 <
2 1 34 107.62 143.00 70.05 <
2 1 35 41.42 127.62 76.70 <
2 2 -35 431.42 572.23 88.96 o
2 2 -34 92.37 87.09 72.75 <
2 2 -33 2380.87 2099.86 131.16 o
2 2 -32 56.23 218.46 64.23 o
2 2 -31 1087.91 785.29 83.14 o
2 2 -30 2524.03 2688.14 142.60 o
2 2 -29 75.75 37.62 51.76 <
2 2 -28 2620.83 2539.73 134.91 o
2 2 -27 1230.26 1440.06 97.28 o
2 2 -26 1992.38 1872.45 109.34 o
2 2 -25 4283.46 4083.37 180.23 o
2 2 -24 76.54 423.61 159.42 <
2 2 -23 4167.72 3395.30 145.93 o
2 2 -22 3827.87 3621.25 133.25 o
2 2 -21 262.39 248.39 69.22 o
2 2 -20 10333.70 9393.90 238.91 o
2 2 -19 1314.75 1620.50 78.78 o
2 2 -18 4570.65 4383.54 131.80 o
2 2 -17 10066.60 9217.74 275.10 o
2 2 -16 1487.32 1491.03 61.32 o
2 2 -15 4358.59 4387.99 123.90 o
2 2 -14 4333.31 4258.71 112.47 o
2 2 -13 176.15 146.95 27.44 o
2 2 -12 14930.60 14951.20 312.01 o
2 2 -11 536.00 513.62 32.01 o
2 2 -10 13016.70 13150.00 255.22 o
2 2 -9 3192.05 3145.62 75.67 o
2 2 -8 5939.18 6227.91 129.54 o
2 2 -7 6620.12 7083.99 143.07 o
2 2 -6 172.24 197.88 17.46 o
2 2 -5 45.30 55.08 9.77 o
2 2 -4 5811.51 5881.65 102.10 o
2 2 -3 460.34 458.13 16.01 o
2 2 -2 12191.30 12231.60 188.28 o
2 2 -1 54.90 50.92 6.86 o
2 2 0 16259.00 16692.50 242.04 o
2 2 1 662.21 748.52 16.84 o
2 2 2 10769.50 10962.20 155.81 o
2 2 3 16.30 17.46 6.65 <
2 2 4 1688.52 1777.37 34.09 o
2 2 5 3259.69 3581.71 56.96 o
2 2 6 1246.30 1231.64 29.10 o
2 2 7 2891.10 3030.64 56.96 o
2 2 8 11464.00 11963.10 192.81 o
2 2 9 3724.68 3636.34 68.81 o
2 2 10 19565.90 19942.10 361.63 o
2 2 11 1218.98 1205.21 43.44 o
2 2 12 11314.30 11698.00 241.24 o
2 2 13 1487.77 1492.28 56.33 o
2 2 14 1322.15 1451.53 56.54 o
2 2 15 12547.60 12390.80 259.33 o
2 2 16 4566.46 4616.64 120.16 o
2 2 17 4809.73 4758.43 131.18 o
2 2 18 9099.35 9562.11 228.92 o
2 2 19 592.55 664.52 55.29 o
2 2 20 9877.63 9860.88 250.54 o
2 2 21 967.90 712.54 74.41 o
2 2 22 3354.24 3266.97 138.24 o
2 2 23 4770.30 4196.75 166.72 o
2 2 24 214.36 76.91 46.77 <
2 2 25 5113.84 5277.54 217.86 o
2 2 26 4204.26 4310.97 188.96 o
2 2 27 529.12 800.25 76.91 o
2 2 28 3290.01 3302.25 158.81 o
2 2 29 419.08 249.01 57.58 o
2 2 30 2139.66 2473.39 135.32 o
2 2 31 1996.29 1608.45 109.75 o
2 2 32 105.21 261.48 72.33 o
2 2 33 1514.72 1320.34 108.71 o
2 2 34 631.31 632.92 93.54 o
2 2 35 396.81 461.23 120.56 o
2 3 -34 94.22 88.96 77.32 <
2 3 -33 51.97 -50.51 73.37 <
2 3 -32 360.28 283.93 73.37 o
2 3 -31 13.54 79.40 59.24 <
2 3 -30 19.04 31.80 55.08 <
2 3 -29 266.21 410.51 65.68 o
2 3 -28 88.86 44.07 50.30 <
2 3 -27 1166.51 1296.42 94.58 o
2 3 -26 248.88 202.04 51.76 o
2 3 -25 2407.13 1818.22 151.33 o
2 3 -24 773.29 683.85 65.27 o
2 3 -23 1216.00 1131.60 99.77 o
2 3 -22 638.21 468.51 152.57 o
2 3 -21 122.46 167.12 65.89 <
2 3 -20 4.52 72.96 56.12 <
2 3 -19 6826.36 7196.45 192.51 o
2 3 -18 418.52 413.01 52.59 o
2 3 -17 13485.00 13745.20 314.21 o
2 3 -16 271.81 137.60 42.19 o
2 3 -15 12042.10 12655.30 287.39 o
2 3 -14 4055.31 4234.24 118.70 o
2 3 -13 391.39 451.05 38.66 o
2 3 -12 1016.67 1017.28 43.24 o
2 3 -11 16947.10 16814.30 342.18 o
2 3 -10 5.25 26.81 25.77 <
2 3 -9 50463.50 50526.90 929.68 o
2 3 -8 1398.39 1454.04 40.74 o
2 3 -7 40499.00 40298.30 810.65 o
2 3 -6 2292.26 2200.19 55.09 o
2 3 -5 4249.06 4569.48 87.32 o
2 3 -4 6992.02 7326.79 154.91 o
2 3 -3 20272.90 19429.20 470.29 o
2 3 -2 1122.00 1117.29 34.51 o
2 3 -1 78852.80 79507.10 1534.68 o
2 3 0 73.10 139.47 21.20 o
2 3 1 62204.00 61966.60 1119.34 o
2 3 2 4314.83 4261.01 88.98 o
2 3 3 12416.20 12153.80 222.35 o
2 3 4 6911.90 7242.71 128.71 o
2 3 5 11615.80 12344.60 229.82 o
2 3 6 1250.04 1227.66 30.97 o
2 3 7 44488.50 43938.30 802.45 o
2 3 8 688.35 643.95 33.26 o
2 3 9 44688.60 44770.20 772.34 o
2 3 10 597.97 596.14 32.63 o
2 3 11 9394.66 9508.40 182.78 o
2 3 12 3260.04 3199.51 78.16 o
2 3 13 1035.75 995.04 42.20 o
2 3 14 3892.96 3935.47 94.38 o
2 3 15 13379.50 14440.10 296.96 o
2 3 16 83.21 96.44 43.65 <
2 3 17 10811.70 11549.10 265.32 o
2 3 18 210.40 198.92 58.20 o
2 3 19 6542.07 6742.52 168.60 o
2 3 20 600.07 642.90 60.69 o
2 3 21 14.46 96.65 70.46 <
2 3 22 1142.37 1052.61 75.25 o
2 3 23 1274.29 1193.96 188.74 o
2 3 24 1389.86 1193.13 82.11 o
2 3 25 1670.19 1851.65 106.43 o
2 3 26 95.14 175.01 54.87 o
2 3 27 1277.64 1580.37 102.89 o
2 3 28 1.85 -29.52 57.37 <
2 3 29 645.92 659.95 74.21 o
2 3 30 288.09 100.81 60.07 <
2 3 31 4.47 67.97 62.15 <
2 3 32 478.35 430.26 78.99 o
2 3 33 38.15 -23.28 72.33 <
2 3 34 363.16 238.20 135.52 <
2 4 -33 1017.53 1025.37 107.05 o
2 4 -32 29.98 -35.54 74.83 <
2 4 -31 1622.42 1464.81 113.29 o
2 4 -30 25.81 -40.95 69.42 <
2 4 -29 272.64 173.14 66.31 <
2 4 -28 1.96 -28.27 57.78 <
2 4 -27 461.21 459.15 68.80 o
2 4 -26 129.70 137.60 57.78 <
2 4 -25 4965.49 5102.64 215.16 o
2 4 -24 27.21 50.09 49.47 <
2 4 -23 3291.38 3151.76 158.19 o
2 4 -22 0.97 -17.46 83.56 <
2 4 -21 983.82 1012.69 90.42 o
2 4 -20 28.66 -39.49 67.14 <
2 4 -19 664.79 617.55 69.84 o
2 4 -18 1096.67 1057.18 74.62 o
2 4 -17 3519.84 3466.97 115.37 o
2 4 -16 767.84 676.37 51.76 o
2 4 -15 8680.98 8920.75 214.36 o
2 4 -14 315.23 370.61 37.83 o
2 4 -13 1699.41 1925.88 63.19 o
2 4 -12 835.05 749.34 38.66 o
2 4 -11 276.07 229.68 28.27 o
2 4 -10 3591.62 3591.79 73.59 o
2 4 -9 2113.52 2247.92 51.14 o
2 4 -8 3982.47 4043.20 77.54 o
2 4 -7 2554.52 2622.56 57.58 o
2 4 -6 719.21 659.75 35.54 o
2 4 -5 3053.60 3028.41 85.44 o
2 4 -4 124.65 189.56 25.98 o
2 4 -3 661.68 678.46 32.22 o
2 4 -2 8599.61 8286.76 190.47 o
2 4 -1 18.91 0.42 18.50 <
2 4 0 6540.22 6432.46 141.80 o
2 4 1 5.42 0.00 19.12 <
2 4 2 2790.17 2769.16 71.30 o
2 4 3 859.82 873.85 34.51 o
2 4 4 48.25 82.10 20.99 o
2 4 5 2919.26 2875.60 77.95 o
2 4 6 4797.58 4796.77 90.43 o
2 4 7 5123.11 5341.71 100.83 o
2 4 8 5587.14 5416.42 110.81 o
2 4 9 1243.90 1329.71 39.49 o
2 4 10 2147.97 2085.15 52.38 o
2 4 11 78.78 92.50 23.90 o
2 4 12 167.49 135.11 27.64 o
2 4 13 3897.91 3876.37 92.09 o
2 4 14 1139.55 1117.47 48.22 o
2 4 15 7400.09 7318.01 163.21 o
2 4 16 3058.22 3243.25 88.97 o
2 4 17 4321.40 4131.23 106.64 o
2 4 18 405.32 419.04 51.13 o
2 4 19 12.48 9.56 46.77 <
2 4 20 231.20 245.68 56.12 o
2 4 21 2444.17 2232.09 90.21 o
2 4 22 125.64 145.29 82.73 <
2 4 23 4856.78 4650.09 139.28 o
2 4 24 205.97 221.99 38.66 o
2 4 25 3551.04 3404.54 128.67 o
2 4 26 280.53 367.70 48.85 o
2 4 27 206.24 98.11 45.31 <
2 4 28 3.23 42.61 48.85 <
2 4 29 763.50 370.40 71.92 o
2 4 30 15.28 -38.66 54.87 <
2 4 31 2067.59 1824.84 107.47 o
2 4 32 13.17 -19.95 73.16 <
2 5 -30 70.59 26.19 114.53 <
2 5 -29 288.40 118.89 111.41 <
2 5 -28 305.02 225.94 115.57 <
2 5 -27 505.67 551.23 120.97 o
2 5 -26 219.10 364.79 104.55 o
2 5 -25 355.25 543.54 103.72 o
2 5 -24 2.11 40.12 82.31 <
2 5 -23 20.96 111.82 70.88 <
2 5 -22 488.88 466.64 86.88 o
2 5 -21 462.76 326.54 51.55 o
2 5 -20 1609.88 1643.99 91.04 o
2 5 -19 1573.90 1547.54 118.27 o
2 5 -18 1164.99 1210.58 84.39 o
2 5 -17 3213.85 3371.28 119.74 o
2 5 -16 8.37 36.58 49.26 <
2 5 -15 1549.39 1545.05 75.25 o
2 5 -14 1222.84 1331.98 59.45 o
2 5 -13 48.73 47.60 33.05 <
2 5 -12 5212.90 5020.07 107.89 o
2 5 -11 4136.02 4032.48 98.54 o
2 5 -10 2541.19 2564.92 86.68 o
2 5 -9 9876.43 9862.15 237.65 o
2 5 -8 7.64 -11.64 32.63 <
2 5 -7 6513.60 6581.91 180.04 o
2 5 -6 3191.35 3132.29 97.91 o
2 5 -5 340.54 430.68 34.09 o
2 5 -4 6472.13 6658.25 161.33 o
2 5 -3 2809.87 2936.65 71.51 o
2 5 -2 4576.63 4410.97 106.44 o
2 5 -1 16892.30 17066.40 348.99 o
2 5 0 53.31 153.40 45.52 o
2 5 1 13067.30 12798.60 267.22 o
2 5 2 3791.11 3815.26 95.00 o
2 5 3 1120.61 1105.41 43.24 o
2 5 4 5542.23 5492.99 128.06 o
2 5 5 960.13 955.33 41.99 o
2 5 6 2379.33 2292.40 68.60 o
2 5 7 7551.00 7629.77 170.90 o
2 5 8 0.03 -16.42 32.22 <
2 5 9 11751.10 11536.60 240.99 o
2 5 10 2314.06 2468.03 70.05 o
2 5 11 2969.32 2799.01 72.96 o
2 5 12 2928.76 2737.68 75.87 o
2 5 13 37.41 11.43 29.72 <
2 5 14 757.79 614.01 46.98 o
2 5 15 1834.74 1765.61 71.51 o
2 5 16 85.90 43.44 54.25 <
2 5 17 3643.03 3532.21 110.38 o
2 5 18 512.91 568.28 68.38 o
2 5 19 1828.42 1590.37 94.99 o
2 5 20 742.40 636.25 45.52 o
2 5 21 773.31 710.67 48.22 o
2 5 22 112.07 180.63 36.79 o
2 5 23 96.94 168.57 43.65 o
2 5 24 18.06 23.49 38.66 <
2 5 25 704.80 673.67 62.98 o
2 5 26 259.11 234.04 65.06 o
2 5 27 654.92 623.36 80.23 o
2 5 28 29.61 39.49 71.29 <
2 5 29 437.83 314.49 81.90 o
2 5 30 5.33 9.15 80.86 <
2 6 -27 26.00 10.60 100.60 <
2 6 -26 483.37 572.23 121.60 o
2 6 -25 511.09 440.24 109.75 o
2 6 -24 19.35 64.23 90.21 <
2 6 -23 995.48 1205.79 141.34 o
2 6 -22 762.85 915.61 85.43 o
2 6 -21 658.03 722.93 76.28 o
2 6 -20 717.16 863.23 75.45 o
2 6 -19 40.52 79.19 49.88 <
2 6 -18 992.02 1057.80 77.53 o
2 6 -17 553.74 556.64 60.07 o
2 6 -16 35.67 -1.87 37.83 <
2 6 -15 2138.07 2294.01 112.04 o
2 6 -14 480.87 483.89 54.04 o
2 6 -13 2419.36 2582.13 118.49 o
2 6 -12 679.17 731.66 58.41 o
2 6 -11 322.58 367.49 33.67 o
2 6 -10 225.39 261.90 30.97 o
2 6 -9 71.57 79.61 25.77 o
2 6 -8 30.81 41.36 32.01 <
2 6 -7 2147.38 2018.80 75.66 o
2 6 -6 81.45 129.08 32.22 o
2 6 -5 3513.05 3571.93 95.62 o
2 6 -4 1.22 11.85 27.44 <
2 6 -3 2226.88 2195.50 67.14 o
2 6 -2 12.42 11.64 23.90 <
2 6 -1 38.15 51.13 23.90 <
2 6 0 10.07 4.78 27.02 <
2 6 1 420.42 374.56 32.84 o
2 6 2 4.23 -3.33 29.10 <
2 6 3 3691.37 3341.83 89.60 o
2 6 4 889.97 934.95 45.73 o
2 6 5 3219.73 3355.91 100.19 o
2 6 6 356.61 407.19 32.43 o
2 6 7 1179.51 1222.02 58.82 o
2 6 8 64.65 20.16 27.02 <
2 6 9 7.68 -25.98 25.98 <
2 6 10 509.02 502.81 40.12 o
2 6 11 1295.75 1400.57 66.52 o
2 6 12 1334.94 1195.20 61.73 o
2 6 13 3220.35 3051.98 112.04 o
2 6 14 981.71 863.86 55.08 o
2 6 15 1753.07 1802.80 81.07 o
2 6 16 2.35 -26.81 38.45 <
2 6 17 213.20 153.40 41.78 o
2 6 18 500.30 555.39 62.56 o
2 6 19 315.99 229.68 48.01 o
2 6 20 1301.09 1200.81 90.21 o
2 6 21 1305.01 1172.54 102.06 o
2 6 22 658.59 454.38 65.48 o
2 6 23 1109.30 711.71 109.54 o
2 6 24 12.51 -172.52 98.94 <
2 6 25 510.62 392.23 109.12 o
2 6 26 395.46 189.15 105.59 <
2 6 27 6.86 -3.95 98.94 <
2 7 -23 271.09 238.62 109.75 <
2 7 -22 589.28 885.26 132.20 o
2 7 -21 395.78 577.84 114.74 o
2 7 -20 574.05 633.96 115.36 o
2 7 -19 450.96 342.13 93.12 o
2 7 -18 189.07 352.31 93.53 o
2 7 -17 0.56 -82.52 78.36 <
2 7 -16 26.97 25.98 70.46 <
2 7 -15 135.27 85.22 72.75 <
2 7 -14 1487.25 1362.12 131.58 o
2 7 -13 370.83 457.28 88.13 o
2 7 -12 2368.33 2519.13 182.92 o
2 7 -11 445.11 542.09 88.55 o
2 7 -10 958.49 1097.29 112.45 o
2 7 -9 315.06 265.64 56.54 o
2 7 -8 63.81 83.56 46.77 <
2 7 -7 15.74 57.37 37.00 <
2 7 -6 1990.53 2202.33 94.99 o
2 7 -5 23.57 8.52 49.88 <
2 7 -4 4100.14 4203.68 149.46 o
2 7 -3 270.05 260.23 43.03 o
2 7 -2 1782.74 1925.65 87.51 o
2 7 -1 329.70 354.39 37.62 o
2 7 0 6.97 -5.40 30.55 <
2 7 1 210.30 193.10 39.49 o
2 7 2 2780.11 2961.31 114.54 o
2 7 3 150.25 275.82 44.69 o
2 7 4 3214.18 3476.45 129.09 o
2 7 5 2.51 12.68 38.66 <
2 7 6 1664.04 1640.46 98.74 o
2 7 7 108.32 93.12 46.98 <
2 7 8 29.41 21.62 44.69 <
2 7 9 375.86 350.24 54.87 o
2 7 10 765.04 814.39 72.96 o
2 7 11 553.31 527.33 64.44 o
2 7 12 2559.57 2477.99 129.29 o
2 7 13 355.48 329.04 55.91 o
2 7 14 654.43 441.70 87.09 o
2 7 15 8.58 103.51 52.59 <
2 7 16 70.01 78.36 56.74 <
2 7 17 102.40 14.97 56.54 <
2 7 18 138.80 -37.41 60.69 <
2 7 19 760.06 478.49 103.31 o
2 7 20 446.67 550.82 113.28 o
2 7 21 479.93 581.58 112.87 o
2 7 22 381.16 453.33 115.57 o
2 7 23 95.32 -2.08 101.02 <
2 8 -17 8.71 226.35 100.39 <
2 8 -15 94.60 -123.47 88.75 <
2 8 -14 47.96 -69.22 67.14 <
2 8 -13 245.98 261.69 73.17 o
2 8 -12 358.55 463.31 77.11 o
2 8 -11 321.92 452.29 74.62 o
2 8 -10 647.14 750.78 85.64 o
2 8 -9 11.46 -10.81 65.68 <
2 8 -8 596.59 626.48 78.57 o
2 8 -7 253.65 171.69 62.56 <
2 8 -6 76.71 51.55 60.49 <
2 8 -5 701.12 641.24 75.45 o
2 8 -4 74.64 66.51 73.37 <
2 8 -3 442.73 483.06 66.93 o
2 8 -2 305.06 377.67 65.27 o
2 8 -1 39.89 84.60 44.69 <
2 8 0 687.17 757.64 54.25 o
2 8 1 348.45 356.47 44.90 o
2 8 2 454.87 533.15 48.64 o
2 8 3 773.30 815.64 62.57 o
2 8 4 123.65 127.83 41.36 o
2 8 5 629.55 490.96 91.46 o
2 8 6 36.49 6.44 54.04 <
2 8 7 29.03 65.27 59.03 <
2 8 8 624.97 768.45 79.19 o
2 8 9 213.49 154.64 90.21 <
2 8 10 670.23 726.25 112.45 o
2 8 11 630.73 484.31 108.09 o
2 8 12 453.11 446.68 74.20 o
2 8 13 274.61 179.79 93.53 <
2 8 14 58.91 -71.09 96.44 <
2 8 15 78.97 139.47 87.51 <
2 8 16 315.38 437.74 104.34 o
2 8 17 104.77 392.85 111.62 o
2 9 -7 161.74 127.21 77.11 <
2 9 -6 185.72 -36.37 67.76 <
2 9 -5 126.99 193.93 75.66 <
2 9 -4 184.32 197.67 78.98 <
2 9 -3 0.28 25.77 72.33 <
2 9 -2 172.40 -32.22 72.33 <
2 9 -1 151.06 143.00 117.44 <
2 9 0 4.16 -61.94 71.09 <
2 9 1 82.49 30.76 70.88 <
2 9 2 129.17 271.46 99.77 <
2 9 3 17.49 39.91 68.38 <
2 9 4 271.57 313.65 75.45 o
2 9 5 17.41 119.10 70.67 <
2 9 6 141.34 158.59 106.01 <
3 0 -36 421.96 440.86 123.05 o
3 0 -34 1527.14 1569.56 167.95 o
3 0 -32 2408.76 1889.30 173.15 o
3 0 -30 431.99 268.34 82.52 o
3 0 -28 226.04 378.50 79.82 o
3 0 -26 1896.99 1440.92 130.96 o
3 0 -24 5657.97 3936.99 244.68 o
3 0 -22 4214.68 3241.91 179.19 o
3 0 -20 49.14 -12.89 100.81 <
3 0 -18 3491.06 3478.06 161.11 o
3 0 -16 5353.69 5688.56 215.80 o
3 0 -14 8967.92 8814.97 295.07 o
3 0 -12 1132.80 1125.80 71.09 o
3 0 -10 669.84 608.83 51.34 o
3 0 -8 4685.85 4799.33 165.92 o
3 0 -6 3889.36 3905.81 115.18 o
3 0 -4 3420.30 3251.89 84.83 o
3 0 -2 587.15 517.79 21.83 o
3 0 0 4.69 22.03 12.26 <
3 0 2 344.78 288.30 20.79 o
3 0 4 2645.04 2765.21 76.09 o
3 0 6 5095.08 5104.78 146.79 o
3 0 8 3200.14 3370.59 108.11 o
3 0 10 18.79 10.18 27.85 <
3 0 12 864.59 912.72 66.93 o
3 0 14 4639.52 4569.56 180.25 o
3 0 16 3602.49 3500.76 156.95 o
3 0 18 430.58 484.72 77.11 o
3 0 20 62.27 6.65 75.66 <
3 0 22 2176.95 1632.39 186.66 o
3 0 24 1097.98 964.47 117.44 o
3 0 26 311.75 282.27 81.27 o
3 0 28 31.55 84.18 82.73 <
3 0 32 990.36 897.74 128.66 o
3 0 34 9.34 57.16 101.22 <
3 1 -35 6.11 31.59 71.29 <
3 1 -34 165.54 162.13 70.46 <
3 1 -33 630.26 563.29 78.78 o
3 1 -32 201.29 203.49 64.43 o
3 1 -31 117.43 202.04 60.07 o
3 1 -30 3306.99 3583.70 173.99 o
3 1 -29 168.35 368.32 60.90 o
3 1 -28 4007.44 4368.51 196.44 o
3 1 -27 17.59 88.96 50.30 <
3 1 -26 3706.98 3796.63 173.37 o
3 1 -25 212.25 178.13 44.69 o
3 1 -24 85.92 98.52 59.45 <
3 1 -23 1076.01 910.22 91.67 o
3 1 -22 2307.92 2179.92 104.56 o
3 1 -21 812.47 999.18 77.95 o
3 1 -20 11848.00 12313.60 298.39 o
3 1 -19 514.25 576.60 60.28 o
3 1 -18 13060.00 14370.00 329.61 o
3 1 -17 1620.86 1777.89 78.37 o
3 1 -16 10720.00 10759.40 252.03 o
3 1 -15 382.68 364.58 41.99 o
3 1 -14 60.78 25.57 26.81 <
3 1 -13 2730.27 2749.84 87.31 o
3 1 -12 17063.00 17385.60 370.92 o
3 1 -11 3553.62 3507.97 97.29 o
3 1 -10 35997.50 36541.50 739.96 o
3 1 -9 21.09 95.82 24.94 o
3 1 -8 46409.40 47580.30 951.93 o
3 1 -7 6231.17 6237.67 131.00 o
3 1 -6 11150.90 11588.90 210.71 o
3 1 -5 2634.85 2281.61 53.22 o
3 1 -4 8908.79 9162.40 168.88 o
3 1 -3 3750.10 3681.27 71.94 o
3 1 -2 59426.80 60482.90 1296.91 o
3 1 -1 47.49 171.90 13.09 o
3 1 0 49654.40 49694.10 820.76 o
3 1 1 1250.36 1273.02 26.61 o
3 1 2 38500.20 38698.10 605.94 o
3 1 3 5295.45 4703.02 85.25 o
3 1 4 0.55 17.88 10.81 <
3 1 5 6570.52 6187.19 111.46 o
3 1 6 18971.60 18774.80 325.27 o
3 1 7 159.81 302.43 19.12 o
3 1 8 33207.30 34325.80 642.88 o
3 1 9 984.09 1070.30 37.21 o
3 1 10 15200.20 15084.10 283.11 o
3 1 11 669.51 686.77 32.43 o
3 1 12 3914.00 3946.21 99.79 o
3 1 13 1617.59 1487.72 55.71 o
3 1 14 509.14 532.12 38.66 o
3 1 15 987.27 1007.72 50.51 o
3 1 16 5041.97 5147.26 130.77 o
3 1 17 547.87 547.50 52.80 o
3 1 18 4998.35 5562.74 161.32 o
3 1 19 122.30 119.72 51.34 <
3 1 20 2727.67 2994.40 118.90 o
3 1 21 424.36 549.57 72.33 o
3 1 22 424.01 279.98 73.79 o
3 1 23 83.92 154.02 51.76 <
3 1 24 3.30 86.26 55.08 <
3 1 25 98.04 132.20 52.38 <
3 1 26 1014.36 1271.89 92.71 o
3 1 27 25.67 70.67 52.38 <
3 1 28 887.38 1151.74 91.04 o
3 1 29 81.08 203.49 63.60 o
3 1 30 693.00 650.80 77.12 o
3 1 31 129.48 178.76 96.24 <
3 1 32 84.16 84.39 67.14 <
3 1 33 0.13 -21.41 74.83 <
3 1 34 8.49 -22.45 75.66 <
3 1 35 31.00 -71.29 75.45 <
3 2 -35 37.19 37.21 79.40 <
3 2 -34 449.68 484.10 87.72 o
3 2 -33 5.85 27.85 69.42 <
3 2 -32 1635.43 1650.01 116.61 o
3 2 -31 971.84 1008.12 93.54 o
3 2 -30 336.62 251.92 65.47 o
3 2 -29 1060.40 685.31 109.96 o
3 2 -28 2.89 2.29 50.30 <
3 2 -27 172.68 84.60 49.89 <
3 2 -26 794.69 461.45 88.76 o
3 2 -25 16.58 -16.21 45.31 <
3 2 -24 2558.46 2382.59 123.06 o
3 2 -23 258.20 253.17 78.57 o
3 2 -22 2428.93 2080.35 111.63 o
3 2 -21 3047.03 2623.16 111.00 o
3 2 -20 399.89 371.44 60.07 o
3 2 -19 2467.59 2440.61 99.57 o
3 2 -18 957.87 986.09 66.52 o
3 2 -17 0.77 39.08 37.21 <
3 2 -16 2605.05 2612.98 93.96 o
3 2 -15 265.53 353.15 42.61 o
3 2 -14 4185.43 4319.95 121.41 o
3 2 -13 2000.32 2192.84 76.29 o
3 2 -12 1605.29 1733.00 65.27 o
3 2 -11 1603.28 1577.31 60.07 o
3 2 -10 18.36 30.55 24.94 <
3 2 -9 2180.55 2286.44 70.05 o
3 2 -8 2293.85 2351.53 62.36 o
3 2 -7 135.12 123.67 20.79 o
3 2 -6 1407.18 1235.58 40.12 o
3 2 -5 1009.81 1064.07 32.84 o
3 2 -4 2514.22 2421.24 55.51 o
3 2 -3 628.16 588.46 20.58 o
3 2 -2 809.81 708.19 22.03 o
3 2 -1 61.79 75.45 10.18 o
3 2 0 87.28 94.57 10.39 o
3 2 1 2727.47 2744.76 49.06 o
3 2 2 119.32 68.18 11.02 o
3 2 3 424.35 399.30 15.80 o
3 2 4 2895.92 2714.41 55.71 o
3 2 5 6.69 10.18 9.98 <
3 2 6 822.31 796.32 24.74 o
3 2 7 15.18 27.44 15.38 <
3 2 8 1382.42 1514.11 44.48 o
3 2 9 475.68 460.61 23.90 o
3 2 10 4.55 -1.66 19.54 <
3 2 11 2259.85 2306.37 62.57 o
3 2 12 745.03 796.73 37.21 o
3 2 13 876.48 858.67 40.33 o
3 2 14 3464.17 3273.94 92.72 o
3 2 15 58.89 76.70 37.00 <
3 2 16 95.29 172.73 41.36 o
3 2 17 499.80 448.35 49.47 o
3 2 18 633.72 647.89 54.67 o
3 2 19 1069.38 966.14 63.81 o
3 2 20 190.02 178.96 54.04 o
3 2 21 348.02 226.98 67.76 o
3 2 22 899.33 921.23 88.76 o
3 2 23 138.29 270.42 56.74 o
3 2 24 514.18 506.96 66.51 o
3 2 25 4.51 -81.48 54.25 <
3 2 26 16.43 24.94 52.17 <
3 2 27 221.24 302.01 84.39 o
3 2 28 21.10 50.09 55.70 <
3 2 29 178.83 342.96 70.88 o
3 2 30 60.15 95.41 67.97 <
3 2 31 65.50 48.01 64.23 <
3 2 32 150.45 170.65 74.83 <
3 2 33 22.83 162.33 73.37 <
3 2 34 38.48 6.86 71.29 <
3 3 -34 0.40 144.46 82.31 <
3 3 -33 927.31 699.24 135.11 o
3 3 -32 102.27 117.85 74.20 <
3 3 -31 1244.11 1418.02 111.41 o
3 3 -30 488.92 391.19 72.33 o
3 3 -29 332.36 274.58 66.10 o
3 3 -28 439.00 492.83 71.50 o
3 3 -27 98.56 4.78 73.37 <
3 3 -26 290.57 219.91 57.58 o
3 3 -25 2308.11 2470.70 131.16 o
3 3 -24 78.90 -7.90 46.56 <
3 3 -23 2968.78 2923.50 142.18 o
3 3 -22 340.63 304.72 78.99 o
3 3 -21 2879.19 2988.57 134.49 o
3 3 -20 869.96 847.23 74.62 o
3 3 -19 211.71 265.02 59.03 o
3 3 -18 1037.16 1103.95 70.88 o
3 3 -17 941.58 884.24 62.15 o
3 3 -16 440.12 360.42 48.64 o
3 3 -15 8667.83 8892.85 215.20 o
3 3 -14 21.91 24.11 37.83 <
3 3 -13 8345.55 8558.80 203.97 o
3 3 -12 1147.01 1147.41 56.95 o
3 3 -11 3811.07 4030.29 112.05 o
3 3 -10 1812.90 1736.13 63.19 o
3 3 -9 11.80 37.21 23.90 <
3 3 -8 2075.36 2119.47 59.24 o
3 3 -7 9023.66 8706.02 188.81 o
3 3 -6 741.60 764.30 33.88 o
3 3 -5 21365.60 21101.10 349.14 o
3 3 -4 21.55 111.41 18.71 o
3 3 -3 9014.97 8652.86 146.19 o
3 3 -2 2718.30 2723.05 60.29 o
3 3 -1 150.42 139.47 13.93 o
3 3 0 2210.06 2048.84 41.99 o
3 3 1 4812.34 4832.10 83.99 o
3 3 2 1709.58 1889.55 40.53 o
3 3 3 15197.30 14843.00 251.90 o
3 3 4 523.03 580.55 22.03 o
3 3 5 11538.30 11027.20 195.49 o
3 3 6 341.34 444.81 20.79 o
3 3 7 1359.11 1127.26 34.71 o
3 3 8 736.71 808.16 30.56 o
3 3 9 2360.65 2319.88 61.12 o
3 3 10 827.03 710.68 35.96 o
3 3 11 4807.17 4642.88 105.19 o
3 3 12 812.99 868.86 43.44 o
3 3 13 3397.56 3575.74 89.18 o
3 3 14 290.84 306.59 34.92 o
3 3 15 2081.67 2165.99 70.05 o
3 3 16 202.34 185.62 36.37 o
3 3 17 2.33 -2.08 37.00 <
3 3 18 1.48 -38.25 41.16 <
3 3 19 1147.26 1250.08 63.61 o
3 3 20 442.67 442.53 46.35 o
3 3 21 825.05 893.79 72.33 o
3 3 22 412.16 234.88 86.68 <
3 3 23 692.42 929.75 80.23 o
3 3 24 133.15 209.73 58.20 o
3 3 25 381.58 522.55 74.00 o
3 3 26 10.36 87.09 55.70 <
3 3 27 1.09 88.96 60.69 <
3 3 28 0.36 29.10 56.33 <
3 3 29 205.25 274.16 70.46 o
3 3 30 200.83 205.36 69.22 <
3 3 31 313.08 473.29 81.27 o
3 3 32 110.39 196.84 76.07 <
3 3 33 191.71 266.89 83.97 o
3 4 -32 206.37 217.00 86.26 <
3 4 -31 897.17 776.97 102.06 o
3 4 -30 203.94 293.91 80.65 o
3 4 -29 1835.68 1450.89 114.74 o
3 4 -28 29.34 31.39 63.60 <
3 4 -27 1660.14 1501.81 108.71 o
3 4 -26 2.96 -18.50 54.25 <
3 4 -25 200.52 118.06 55.71 <
3 4 -24 200.68 294.11 57.37 o
3 4 -23 791.23 483.48 78.99 o
3 4 -22 687.00 800.88 70.67 o
3 4 -21 3677.82 3534.08 159.86 o
3 4 -20 185.51 228.43 77.74 <
3 4 -19 4867.68 4925.99 200.61 o
3 4 -18 29.15 72.96 60.28 <
3 4 -17 2185.25 2185.73 93.54 o
3 4 -16 0.64 30.14 47.81 <
3 4 -15 45.21 29.31 44.27 <
3 4 -14 2118.34 2069.33 79.82 o
3 4 -13 3046.61 2883.23 92.92 o
3 4 -12 228.09 278.32 40.12 o
3 4 -11 7966.39 7975.70 204.17 o
3 4 -10 279.16 332.36 37.62 o
3 4 -9 4766.18 4663.18 99.58 o
3 4 -8 1.04 17.25 19.12 <
3 4 -7 991.68 902.33 33.05 o
3 4 -6 520.39 610.48 33.88 o
3 4 -5 202.18 183.74 27.02 o
3 4 -4 1574.93 1495.81 61.53 o
3 4 -3 2383.69 2161.47 76.29 o
3 4 -2 39.17 54.46 27.44 <
3 4 -1 8265.36 7857.64 172.99 o
3 4 0 214.38 236.33 27.44 o
3 4 1 3287.55 3210.32 84.19 o
3 4 2 545.14 581.59 34.09 o
3 4 3 1434.19 1386.46 49.89 o
3 4 4 395.32 477.24 33.47 o
3 4 5 0.22 8.31 18.50 <
3 4 6 213.32 194.55 20.37 o
3 4 7 1337.57 1091.91 33.05 o
3 4 8 78.18 28.06 21.41 <
3 4 9 6743.96 6420.91 162.37 o
3 4 10 41.09 62.15 34.30 <
3 4 11 3301.66 3217.32 83.15 o
3 4 12 198.35 266.68 32.43 o
3 4 13 745.65 765.96 42.20 o
3 4 14 57.82 130.95 33.05 o
3 4 15 143.98 139.47 37.83 o
3 4 16 75.76 184.78 55.91 o
3 4 17 1125.19 1084.41 58.62 o
3 4 18 5.17 55.91 46.97 <
3 4 19 2895.59 2848.66 94.79 o
3 4 20 24.86 -32.01 58.82 <
3 4 21 1223.55 1238.85 136.98 o
3 4 22 2.09 -24.11 33.05 <
3 4 23 1.77 37.62 35.54 <
3 4 24 36.43 57.58 37.83 <
3 4 25 152.22 64.43 43.65 <
3 4 26 1.83 -13.72 45.10 <
3 4 27 288.64 173.35 50.92 o
3 4 28 12.26 41.16 49.47 <
3 4 29 481.60 493.66 84.39 o
3 4 30 2.93 -34.50 71.09 <
3 4 31 260.62 309.70 83.56 o
3 5 -30 1.06 416.95 139.89 <
3 5 -29 95.58 136.56 120.35 <
3 5 -27 127.30 180.21 104.55 <
3 5 -26 85.20 127.62 100.60 <
3 5 -25 1397.48 1292.69 146.13 o
3 5 -24 47.43 43.65 87.92 <
3 5 -23 1112.23 1149.67 129.91 o
3 5 -22 0.10 66.51 73.37 <
3 5 -21 630.38 767.20 102.68 o
3 5 -20 80.43 117.65 64.23 <
3 5 -19 60.76 51.55 56.74 <
3 5 -18 321.31 440.45 77.32 o
3 5 -17 453.53 131.37 147.58 <
3 5 -16 202.09 192.68 71.09 <
3 5 -15 2928.70 2761.15 124.10 o
3 5 -14 4.16 61.32 58.82 <
3 5 -13 2582.33 2376.16 106.85 o
3 5 -12 153.71 168.57 54.25 o
3 5 -11 666.89 547.71 60.07 o
3 5 -10 550.22 611.31 50.72 o
3 5 -9 16.12 -46.14 38.45 <
3 5 -8 433.28 449.18 43.23 o
3 5 -7 1853.59 1758.76 62.78 o
3 5 -6 41.79 114.94 29.93 o
3 5 -5 4743.06 4627.35 122.44 o
3 5 -4 664.21 686.35 39.29 o
3 5 -3 3264.50 3243.50 99.16 o
3 5 -2 606.23 696.33 46.35 o
3 5 -1 3.47 21.62 27.02 <
3 5 0 1023.91 912.51 43.24 o
3 5 1 722.34 675.96 38.45 o
3 5 2 4.96 -31.18 28.89 <
3 5 3 3428.06 3382.59 91.67 o
3 5 4 295.91 286.22 36.58 o
3 5 5 2486.22 2409.64 74.21 o
3 5 6 1080.20 1108.94 50.93 o
3 5 7 535.71 588.86 42.61 o
3 5 8 667.79 662.44 50.51 o
3 5 9 143.80 189.36 40.12 o
3 5 10 202.47 233.63 46.56 o
3 5 11 841.98 798.80 56.12 o
3 5 12 219.38 244.85 49.05 o
3 5 13 1416.46 1261.73 71.50 o
3 5 14 454.73 372.48 74.62 o
3 5 15 326.57 211.80 73.17 <
3 5 16 447.48 396.17 69.42 o
3 5 17 70.40 -14.13 36.79 <
3 5 18 325.09 387.44 44.48 o
3 5 19 23.35 21.82 35.54 <
3 5 20 13.78 -13.93 38.25 <
3 5 21 326.56 331.53 49.68 o
3 5 22 71.94 60.69 49.68 <
3 5 23 213.41 243.40 53.42 o
3 5 24 248.63 250.26 60.90 o
3 5 25 230.63 9.56 60.90 <
3 5 26 175.58 194.14 59.03 o
3 5 27 23.54 128.66 74.00 <
3 5 28 87.51 99.56 124.30 <
3 5 29 29.90 19.95 121.80 <
3 6 -26 101.39 202.66 114.94 <
3 6 -25 246.00 313.65 80.02 o
3 6 -24 63.73 -53.42 68.59 <
3 6 -23 79.40 158.18 67.76 <
3 6 -22 73.03 147.78 62.56 <
3 6 -21 1128.81 1162.56 94.37 o
3 6 -20 64.96 -34.71 54.04 <
3 6 -19 2447.36 2482.35 131.16 o
3 6 -18 156.51 107.25 70.05 <
3 6 -17 1164.18 1190.42 84.18 o
3 6 -16 154.59 185.61 47.81 o
3 6 -15 89.26 114.94 43.03 <
3 6 -14 150.36 188.11 46.56 o
3 6 -13 736.40 800.46 64.64 o
3 6 -12 15.13 -34.71 37.83 <
3 6 -11 2777.28 2884.19 128.26 o
3 6 -10 134.06 154.02 62.15 <
3 6 -9 3362.74 3242.41 118.07 o
3 6 -8 190.89 167.95 37.21 o
3 6 -7 591.76 631.05 58.82 o
3 6 -6 94.51 171.90 45.73 o
3 6 -5 0.06 21.20 38.25 <
3 6 -4 11.93 0.21 37.62 <
3 6 -3 1160.13 1182.52 55.71 o
3 6 -2 30.87 100.19 36.58 <
3 6 -1 3039.17 2895.04 97.49 o
3 6 0 0.81 -20.99 36.17 <
3 6 1 2451.63 2228.35 74.83 o
3 6 2 344.43 267.51 38.87 o
3 6 3 382.61 467.05 41.99 o
3 6 4 0.24 -53.00 37.00 <
3 6 5 28.22 19.75 38.25 <
3 6 6 32.92 23.70 40.12 <
3 6 7 947.76 1062.58 56.95 o
3 6 8 26.32 -26.81 29.72 <
3 6 9 2055.59 2030.64 83.98 o
3 6 10 27.57 38.45 32.01 <
3 6 11 1385.00 1308.70 65.89 o
3 6 12 281.80 405.53 54.04 o
3 6 13 165.27 161.71 35.96 o
3 6 14 8.54 -3.12 34.30 <
3 6 15 168.88 224.27 40.53 o
3 6 16 66.25 81.27 37.41 <
3 6 17 558.59 652.46 56.95 o
3 6 18 3.31 74.41 50.72 <
3 6 19 691.30 767.41 64.64 o
3 6 20 85.10 -14.97 50.72 <
3 6 21 451.83 335.90 56.33 o
3 6 22 59.17 60.49 52.59 <
3 6 23 0.86 -120.14 63.60 <
3 6 24 36.37 28.06 70.46 <
3 6 26 3.42 27.44 103.30 <
3 7 -22 149.34 124.09 101.85 <
3 7 -21 32.19 -7.07 92.91 <
3 7 -20 128.35 224.69 103.10 <
3 7 -19 0.06 -90.83 87.71 <
3 7 -18 568.10 552.90 108.09 o
3 7 -17 0.51 161.92 80.44 <
3 7 -16 46.81 91.25 74.41 <
3 7 -15 63.80 62.77 74.62 <
3 7 -14 29.67 26.61 67.14 <
3 7 -13 68.97 32.01 56.54 <
3 7 -12 338.49 389.94 66.31 o
3 7 -11 20.76 -3.12 49.05 <
3 7 -10 637.34 752.86 75.45 o
3 7 -9 48.15 -11.02 50.92 <
3 7 -8 437.53 557.05 65.68 o
3 7 -7 25.47 5.20 47.60 <
3 7 -6 8.81 17.46 48.43 <
3 7 -5 76.94 101.85 61.94 <
3 7 -4 191.79 185.41 49.05 o
3 7 -3 24.95 92.08 46.97 <
3 7 -2 952.13 794.44 57.16 o
3 7 -1 69.13 61.32 37.62 <
3 7 0 684.80 690.50 53.00 o
3 7 1 5.64 51.55 37.00 <
3 7 2 53.91 43.86 38.45 <
3 7 3 48.01 9.15 36.79 <
3 7 4 14.23 19.95 39.49 <
3 7 5 13.69 -85.01 38.25 <
3 7 6 595.78 691.33 71.50 o
3 7 7 22.76 56.95 47.81 <
3 7 8 589.28 511.95 63.19 o
3 7 9 15.21 29.72 49.88 <
3 7 10 125.25 83.97 51.55 <
3 7 11 0.40 -50.72 48.85 <
3 7 12 0.30 58.41 49.68 <
3 7 13 4.36 99.98 54.04 <
3 7 14 49.88 71.92 57.99 <
3 7 15 32.13 -77.95 56.95 <
3 7 16 331.74 192.06 58.20 o
3 7 17 5.24 -9.98 58.82 <
3 7 18 108.63 9.56 64.02 <
3 7 19 1.43 -43.65 66.93 <
3 7 20 35.63 -3.74 94.78 <
3 7 21 22.63 -37.41 70.05 <
3 8 -16 375.10 528.16 115.57 o
3 8 -15 27.47 -10.81 77.11 <
3 8 -14 371.60 432.34 122.64 o
3 8 -13 24.07 -48.64 102.47 <
3 8 -12 227.76 337.97 75.04 o
3 8 -11 109.20 30.97 63.81 <
3 8 -10 17.18 -28.48 60.49 <
3 8 -9 223.36 168.99 69.63 <
3 8 -8 338.04 358.34 71.92 o
3 8 -7 94.00 -1.87 65.06 <
3 8 -6 425.55 503.43 75.87 o
3 8 -5 5.39 -20.99 54.87 <
3 8 -4 276.81 362.08 70.46 o
3 8 -3 40.91 -13.30 60.28 <
3 8 -2 86.85 -39.49 59.24 <
3 8 -1 92.26 98.11 61.32 <
3 8 0 58.59 85.64 64.64 <
3 8 1 147.69 219.91 64.43 o
3 8 2 338.08 315.32 101.43 o
3 8 3 90.94 -25.77 45.73 <
3 8 4 355.42 447.10 70.26 o
3 8 5 0.07 74.20 59.03 <
3 8 6 166.32 56.12 57.99 <
3 8 7 7.98 -35.13 65.27 <
3 8 8 18.01 76.70 61.11 <
3 8 9 66.85 97.28 101.22 <
3 8 10 50.91 -23.90 60.28 <
3 8 11 69.44 32.01 104.34 <
3 8 12 390.39 454.37 79.82 o
3 8 13 61.10 -88.96 66.93 <
3 8 15 1.20 -16.00 70.05 <
4 0 -34 48.93 48.43 100.81 <
4 0 -32 220.50 236.75 98.52 <
4 0 -30 92.14 -34.09 80.02 <
4 0 -28 364.85 202.24 79.40 <
4 0 -26 591.99 511.95 91.46 o
4 0 -24 2319.72 2078.68 161.72 o
4 0 -22 1326.41 1193.75 114.12 o
4 0 -20 614.32 629.39 96.24 o
4 0 -18 10023.10 9884.99 344.74 o
4 0 -16 10275.80 10319.70 348.50 o
4 0 -14 5429.01 5632.83 211.85 o
4 0 -12 1852.27 1457.38 97.70 o
4 0 -10 29866.80 28678.90 722.91 o
4 0 -8 44440.90 44437.90 1100.19 o
4 0 -6 12568.60 12775.40 333.84 o
4 0 -4 4100.67 3716.27 115.39 o
4 0 -2 47637.80 49533.90 1390.94 o
4 0 0 75214.70 81400.80 1981.82 o
4 0 2 17965.20 18475.40 470.66 o
4 0 4 2631.11 2978.99 108.93 o
4 0 6 34315.80 36118.60 1022.21 o
4 0 8 45420.70 46443.20 1145.96 o
4 0 10 17577.20 18276.00 475.74 o
4 0 12 336.87 367.70 57.99 o
4 0 14 11181.70 11349.80 375.13 o
4 0 16 13099.30 13340.90 437.94 o
4 0 18 7324.47 7631.32 288.36 o
4 0 20 206.65 112.03 84.80 <
4 0 22 802.98 861.57 107.67 o
4 0 24 2986.43 2654.93 210.78 o
4 0 26 1313.86 1423.85 159.85 o
4 0 28 664.53 573.06 111.83 o
4 0 30 13.52 78.78 97.90 <
4 0 32 25.11 -115.78 99.77 <
4 1 -34 672.45 414.47 87.72 o
4 1 -33 5.64 29.31 69.63 <
4 1 -32 705.84 482.02 80.03 o
4 1 -31 23.72 81.06 62.77 <
4 1 -30 406.73 315.11 68.80 o
4 1 -29 149.46 126.38 56.95 <
4 1 -28 211.58 309.29 65.06 o
4 1 -27 430.35 316.15 61.94 o
4 1 -26 2903.24 2146.05 121.40 o
4 1 -25 13.00 105.59 49.47 <
4 1 -24 2701.11 2231.69 120.15 o
4 1 -23 721.86 649.56 62.98 o
4 1 -22 529.68 415.51 93.33 o
4 1 -21 152.00 169.40 88.34 <
4 1 -20 604.66 636.04 68.18 o
4 1 -19 16.00 25.77 51.96 <
4 1 -18 3108.35 3065.54 109.55 o
4 1 -17 1.46 35.13 45.73 <
4 1 -16 7652.35 7356.96 189.41 o
4 1 -15 1365.96 1381.26 67.14 o
4 1 -14 658.99 629.40 48.85 o
4 1 -13 327.36 319.27 39.91 o
4 1 -12 908.84 956.16 52.38 o
4 1 -11 44.62 33.88 30.14 <
4 1 -10 3375.54 3447.17 89.18 o
4 1 -9 2471.75 2567.51 71.93 o
4 1 -8 1960.24 2013.05 60.28 o
4 1 -7 863.80 946.82 39.91 o
4 1 -6 1462.16 1667.74 52.80 o
4 1 -5 2.50 3.95 20.58 <
4 1 -4 151.87 164.83 19.95 o
4 1 -3 869.01 906.49 34.92 o
4 1 -2 285.97 315.11 20.58 o
4 1 -1 44.71 49.47 16.42 o
4 1 0 158.12 171.27 17.67 o
4 1 1 5045.87 5183.07 105.62 o
4 1 2 0.27 18.29 14.97 <
4 1 3 575.54 598.22 33.88 o
4 1 4 104.02 140.93 23.07 o
4 1 5 1824.16 1801.23 61.74 o
4 1 6 3776.36 3940.21 100.83 o
4 1 7 1083.84 1156.77 47.19 o
4 1 8 3164.48 3117.86 75.25 o
4 1 9 0.45 28.68 22.86 <
4 1 10 1024.14 1121.63 48.64 o
4 1 11 101.70 79.19 29.10 <
4 1 12 1008.68 953.26 48.43 o
4 1 13 1829.70 1987.23 69.84 o
4 1 14 4171.69 3896.00 107.27 o
4 1 15 180.76 159.84 38.87 o
4 1 16 8629.85 8416.25 194.19 o
4 1 17 12.57 21.20 50.09 <
4 1 18 955.56 1020.59 70.05 o
4 1 19 758.45 594.68 66.51 o
4 1 20 677.17 518.81 76.08 o
4 1 21 944.95 997.52 76.91 o
4 1 22 3180.82 2474.73 130.75 o
4 1 23 35.64 50.51 56.54 <
4 1 24 4614.79 4359.45 199.57 o
4 1 25 49.97 27.64 64.23 <
4 1 26 1496.86 1875.33 123.47 o
4 1 27 265.89 90.83 65.27 <
4 1 28 202.77 -43.65 62.36 <
4 1 29 415.71 412.39 74.00 o
4 1 30 1864.13 1552.33 116.20 o
4 1 31 28.22 -18.29 72.75 <
4 1 32 1209.65 1137.83 108.29 o
4 1 33 46.59 27.02 71.92 <
4 2 -34 74.09 32.43 79.61 <
4 2 -33 37.08 -10.18 76.49 <
4 2 -32 7.63 49.68 73.79 <
4 2 -31 111.00 182.29 69.42 <
4 2 -30 84.57 168.15 64.64 <
4 2 -29 281.64 321.97 66.93 o
4 2 -28 24.10 -9.77 57.16 <
4 2 -27 560.14 372.48 65.89 o
4 2 -26 131.47 136.77 55.50 <
4 2 -25 77.70 8.11 48.43 <
4 2 -24 579.45 458.33 61.11 o
4 2 -23 521.77 669.72 65.47 o
4 2 -22 42.47 -29.10 85.01 <
4 2 -21 2580.82 2771.53 138.44 o
4 2 -20 9.62 2.91 71.09 <
4 2 -19 2661.58 2732.26 111.63 o
4 2 -18 1851.95 1844.40 87.93 o
4 2 -17 945.59 1005.01 67.35 o
4 2 -16 1796.61 1815.30 80.65 o
4 2 -15 3422.33 3490.29 110.59 o
4 2 -14 1058.60 1050.12 60.07 o
4 2 -13 11022.80 11044.00 254.52 o
4 2 -12 192.89 273.95 40.95 o
4 2 -11 8984.95 9114.83 212.51 o
4 2 -10 8025.56 8090.55 190.67 o
4 2 -9 479.75 486.60 34.50 o
4 2 -8 6850.54 6783.32 148.24 o
4 2 -7 4160.09 3871.81 94.59 o
4 2 -6 1910.80 1892.89 57.58 o
4 2 -5 24123.80 23804.90 453.23 o
4 2 -4 625.46 639.59 35.96 o
4 2 -3 18098.60 18375.20 342.23 o
4 2 -2 9999.23 10042.90 215.65 o
4 2 -1 1329.71 1478.15 37.42 o
4 2 0 19426.30 20374.70 319.99 o
4 2 1 10783.80 11063.20 181.35 o
4 2 2 1817.46 2026.14 49.06 o
4 2 3 21881.80 23098.00 383.90 o
4 2 4 519.59 645.61 31.80 o
4 2 5 10693.70 10242.40 197.98 o
4 2 6 8601.26 9210.32 197.33 o
4 2 7 1634.48 1369.03 45.11 o
4 2 8 10850.70 10481.80 211.28 o
4 2 9 3627.09 3452.56 82.11 o
4 2 10 4479.19 4220.83 97.29 o
4 2 11 13771.80 13596.20 278.05 o
4 2 12 121.36 88.34 30.35 <
4 2 13 6663.97 6581.43 140.96 o
4 2 14 3178.65 3123.77 85.02 o
4 2 15 18.90 -24.73 34.71 <
4 2 16 3333.90 3617.68 96.66 o
4 2 17 456.27 494.91 47.60 o
4 2 18 2286.42 2148.74 79.20 o
4 2 19 2923.08 2706.91 97.08 o
4 2 20 298.49 336.52 60.28 o
4 2 21 1589.89 1726.93 104.14 o
4 2 22 329.58 200.16 52.38 o
4 2 23 341.50 394.10 60.07 o
4 2 24 853.66 767.21 105.59 o
4 2 25 223.24 265.64 65.89 o
4 2 26 437.63 456.87 76.91 o
4 2 27 244.08 121.39 72.96 <
4 2 28 535.48 601.74 85.01 o
4 2 29 197.35 160.88 87.30 <
4 2 30 40.96 -9.98 66.51 <
4 2 31 31.10 28.68 74.83 <
4 2 32 48.72 206.82 80.44 <
4 2 33 56.41 50.09 82.93 <
4 3 -33 3.53 67.97 84.80 <
4 3 -32 12.54 25.36 79.82 <
4 3 -31 117.86 18.71 72.96 <
4 3 -30 55.53 2.49 73.16 <
4 3 -29 1392.84 1070.90 100.81 o
4 3 -28 6.33 46.35 64.02 <
4 3 -27 1067.59 893.38 87.72 o
4 3 -26 70.90 107.25 55.29 <
4 3 -25 2.57 33.67 49.26 <
4 3 -24 301.58 427.98 63.40 o
4 3 -23 923.74 1050.31 82.31 o
4 3 -22 112.24 156.10 86.47 <
4 3 -21 2027.59 1994.06 116.61 o
4 3 -20 77.94 90.42 73.79 <
4 3 -19 1288.34 1258.60 92.29 o
4 3 -18 184.40 344.42 74.00 o
4 3 -17 21.49 106.21 54.25 <
4 3 -16 829.14 810.44 65.27 o
4 3 -15 1262.95 1273.37 71.50 o
4 3 -14 406.55 426.94 48.64 o
4 3 -13 2722.72 2667.43 90.84 o
4 3 -12 653.79 767.21 51.55 o
4 3 -11 406.81 431.93 43.23 o
4 3 -10 92.93 35.13 34.09 <
4 3 -9 356.80 334.65 33.67 o
4 3 -8 1125.37 1155.51 46.98 o
4 3 -7 1116.14 1034.33 43.44 o
4 3 -6 1436.50 1373.79 47.19 o
4 3 -5 294.43 325.09 26.19 o
4 3 -4 612.39 604.66 25.15 o
4 3 -3 20.15 27.44 15.17 <
4 3 -2 400.58 458.33 23.70 o
4 3 -1 1164.62 1064.89 32.43 o
4 3 0 497.35 507.59 25.36 o
4 3 1 5.40 32.22 18.08 <
4 3 2 1493.39 1586.03 42.40 o
4 3 3 455.98 515.70 23.70 o
4 3 4 1533.06 1522.63 39.70 o
4 3 5 1992.01 2077.67 50.72 o
4 3 6 1008.94 911.89 34.30 o
4 3 7 567.41 539.81 32.01 o
4 3 8 0.06 -1.25 23.49 <
4 3 9 180.66 200.16 28.68 o
4 3 10 572.49 522.35 34.50 o
4 3 11 3740.20 3702.37 93.75 o
4 3 12 1688.82 1774.55 60.28 o
4 3 13 3169.33 3078.44 83.77 o
4 3 14 1002.39 1040.55 53.21 o
4 3 15 449.19 467.05 45.31 o
4 3 16 380.64 361.67 46.77 o
4 3 17 1227.14 1011.66 68.80 o
4 3 18 208.63 126.38 44.69 <
4 3 19 2791.56 2665.94 94.58 o
4 3 20 588.84 571.19 57.58 o
4 3 21 2655.88 2725.99 92.92 o
4 3 22 867.70 928.09 52.17 o
4 3 23 435.87 487.63 44.07 o
4 3 24 217.77 335.89 63.19 o
4 3 25 765.42 602.79 77.95 o
4 3 26 9.41 35.54 62.36 <
4 3 27 2103.99 1838.15 130.54 o
4 3 28 175.29 241.94 76.70 o
4 3 29 1089.96 1001.47 99.98 o
4 3 30 306.49 150.28 74.20 <
4 3 31 135.91 161.92 77.53 <
4 4 -31 29.52 389.10 135.94 <
4 4 -29 110.34 267.09 120.14 <
4 4 -28 0.03 27.44 75.04 <
4 4 -27 86.42 211.80 71.50 <
4 4 -26 245.05 411.35 74.00 o
4 4 -25 47.26 116.19 58.41 <
4 4 -24 324.90 216.59 54.87 o
4 4 -23 760.38 808.57 75.66 o
4 4 -22 326.79 310.74 55.29 o
4 4 -21 1561.41 1738.35 100.61 o
4 4 -20 29.72 -12.26 40.32 <
4 4 -19 1404.19 1467.92 86.47 o
4 4 -18 762.42 785.08 61.73 o
4 4 -17 1.63 3.95 59.45 <
4 4 -16 1027.51 1224.71 78.57 o
4 4 -15 1139.64 1282.09 75.66 o
4 4 -14 1057.48 1237.39 73.58 o
4 4 -13 7893.32 8213.49 201.88 o
4 4 -12 0.70 29.10 47.81 <
4 4 -11 6714.27 6553.81 170.27 o
4 4 -10 676.62 668.47 44.07 o
4 4 -9 95.55 83.77 30.35 <
4 4 -8 1808.57 1847.94 64.44 o
4 4 -7 5551.15 5499.42 139.91 o
4 4 -6 1049.36 1068.20 39.29 o
4 4 -5 12664.70 12881.90 294.04 o
4 4 -4 248.37 198.09 44.27 o
4 4 -3 11513.10 12220.20 317.11 o
4 4 -2 1742.09 1611.80 66.52 o
4 4 -1 1138.62 1039.10 54.04 o
4 4 0 709.26 574.32 44.07 o
4 4 1 6052.57 6141.77 162.99 o
4 4 2 530.39 610.06 36.38 o
4 4 3 15345.90 15214.30 294.27 o
4 4 4 97.17 65.68 34.50 <
4 4 5 11107.90 11274.00 215.84 o
4 4 6 677.35 789.66 37.83 o
4 4 7 603.01 595.72 41.99 o
4 4 8 540.45 461.24 37.83 o
4 4 9 1692.42 1756.26 62.36 o
4 4 10 2.42 59.86 40.12 <
4 4 11 7746.02 7387.48 166.53 o
4 4 12 13.40 -30.55 39.70 <
4 4 13 5587.67 5495.96 131.59 o
4 4 14 191.12 265.02 49.68 o
4 4 15 1059.04 1191.66 61.32 o
4 4 16 314.73 353.98 43.23 o
4 4 17 525.69 573.48 52.80 o
4 4 18 263.80 299.31 34.71 o
4 4 19 1310.71 1400.78 60.49 o
4 4 20 18.57 -13.30 30.55 <
4 4 21 1681.22 1770.58 72.75 o
4 4 22 310.36 344.42 40.12 o
4 4 23 574.54 503.85 46.98 o
4 4 24 7.21 -9.35 44.06 <
4 4 25 12.64 -0.83 52.79 <
4 4 26 52.14 -53.83 68.18 <
4 4 27 114.47 109.12 77.11 <
4 4 28 258.25 300.97 81.89 o
4 4 29 171.36 147.58 76.70 <
4 4 30 16.30 -66.31 127.21 <
4 5 -28 30.39 -36.58 114.32 <
4 5 -27 605.32 492.41 132.61 o
4 5 -26 135.31 83.56 95.82 <
4 5 -25 195.02 55.08 94.37 <
4 5 -24 283.91 270.00 99.15 <
4 5 -23 96.52 117.85 83.77 <
4 5 -22 0.07 85.43 79.82 <
4 5 -21 970.19 767.83 111.00 o
4 5 -20 159.02 159.63 74.41 <
4 5 -19 1004.25 1161.52 116.82 o
4 5 -18 369.43 529.62 87.30 o
4 5 -17 666.99 1004.99 103.51 o
4 5 -16 0.64 37.00 42.40 <
4 5 -15 109.16 43.44 40.53 <
4 5 -14 24.37 59.45 76.49 <
4 5 -13 787.37 768.24 82.31 o
4 5 -12 969.30 832.89 79.19 o
4 5 -11 1249.75 1394.13 76.49 o
4 5 -10 278.17 258.99 51.55 o
4 5 -9 799.30 878.41 65.06 o
4 5 -8 57.28 6.65 40.95 <
4 5 -7 152.37 209.31 45.52 o
4 5 -6 1114.20 1140.53 62.98 o
4 5 -5 223.68 244.65 37.83 o
4 5 -4 1032.43 1074.43 52.80 o
4 5 -3 670.52 680.32 51.55 o
4 5 -2 358.30 292.45 45.31 o
4 5 -1 628.02 630.85 53.63 o
4 5 0 518.55 624.20 52.80 o
4 5 1 934.20 944.72 57.58 o
4 5 2 1879.87 1820.08 67.14 o
4 5 3 603.56 622.33 48.02 o
4 5 4 1315.20 1255.90 59.24 o
4 5 5 0.86 11.85 36.17 <
4 5 6 64.04 73.37 41.36 <
4 5 7 1154.45 1193.95 71.71 o
4 5 8 662.78 666.81 60.90 o
4 5 9 1266.43 1495.56 80.65 o
4 5 10 1597.19 1673.51 87.51 o
4 5 11 1846.08 1747.94 88.13 o
4 5 12 829.87 760.14 70.26 o
4 5 13 521.54 367.70 64.44 o
4 5 14 0.12 30.35 32.84 <
4 5 15 204.32 207.65 42.40 o
4 5 16 567.78 575.14 50.30 o
4 5 17 2143.92 2163.05 92.92 o
4 5 18 679.12 636.46 53.84 o
4 5 19 1836.09 1874.52 90.00 o
4 5 20 266.44 289.75 47.18 o
4 5 21 527.33 395.34 53.21 o
4 5 22 14.81 -28.48 45.31 <
4 5 23 0.11 69.63 65.68 <
4 5 24 223.75 289.13 83.56 o
4 5 25 594.45 668.47 162.75 o
4 5 26 255.94 143.84 87.71 <
4 5 27 1364.08 1129.52 167.12 o
4 6 -25 28.87 90.62 79.82 <
4 6 -24 705.23 757.02 93.54 o
4 6 -23 33.92 59.24 67.97 <
4 6 -22 549.47 536.06 84.18 o
4 6 -21 28.64 -68.18 61.94 <
4 6 -20 17.02 91.46 62.77 <
4 6 -19 14.36 95.61 55.91 <
4 6 -18 227.28 199.96 58.20 o
4 6 -17 108.69 91.04 51.76 <
4 6 -16 2169.58 2408.33 123.89 o
4 6 -15 68.74 21.20 40.53 <
4 6 -14 1388.95 1381.65 75.45 o
4 6 -13 219.05 272.71 44.07 o
4 6 -12 8.06 -51.34 36.79 <
4 6 -11 102.15 87.09 36.17 <
4 6 -10 1190.90 1243.63 67.35 o
4 6 -9 81.49 44.07 35.13 <
4 6 -8 2863.53 2795.02 108.30 o
4 6 -7 275.82 390.56 73.58 o
4 6 -6 1842.63 1684.74 86.68 o
4 6 -5 556.57 642.49 62.15 o
4 6 -4 0.07 43.44 58.61 <
4 6 -3 414.40 369.36 56.74 o
4 6 -2 1223.19 1232.82 63.81 o
4 6 -1 2.03 -24.94 49.68 <
4 6 0 2836.96 2918.08 108.51 o
4 6 1 311.65 269.38 55.91 o
4 6 2 1570.87 1402.24 80.44 o
4 6 3 669.63 614.43 56.33 o
4 6 4 134.88 228.22 50.72 o
4 6 5 674.51 652.05 73.37 o
4 6 6 854.39 713.58 58.41 o
4 6 7 130.50 180.63 60.28 <
4 6 8 1438.59 1364.41 69.01 o
4 6 9 72.86 47.18 36.17 <
4 6 10 455.86 397.42 44.27 o
4 6 11 355.70 419.87 44.48 o
4 6 12 53.69 37.83 38.87 <
4 6 13 587.25 576.80 50.30 o
4 6 14 770.41 831.43 59.45 o
4 6 15 206.19 150.28 42.82 o
4 6 16 290.13 342.96 49.26 o
4 6 17 45.94 46.97 43.86 <
4 6 18 80.43 128.04 49.68 <
4 6 19 69.01 106.01 49.68 <
4 6 20 83.86 99.77 53.00 <
4 6 21 279.93 251.92 59.45 o
4 6 22 147.24 45.94 79.61 <
4 6 23 342.42 -107.25 94.78 <
4 6 24 103.70 -19.12 101.85 <
4 7 -21 0.41 101.43 105.38 <
4 7 -20 2.64 -54.67 79.61 <
4 7 -19 65.56 43.23 74.20 <
4 7 -18 139.23 203.90 72.33 <
4 7 -17 227.84 228.64 76.91 <
4 7 -16 347.29 532.94 84.18 o
4 7 -15 118.73 68.18 63.19 <
4 7 -14 67.67 61.32 76.07 <
4 7 -13 18.59 -17.46 56.54 <
4 7 -12 0.16 52.79 58.41 <
4 7 -11 271.42 269.38 60.49 o
4 7 -10 63.01 133.03 56.74 <
4 7 -9 390.35 518.18 69.22 o
4 7 -8 39.53 40.74 51.55 <
4 7 -7 452.43 600.91 69.84 o
4 7 -6 14.61 -60.69 51.13 <
4 7 -5 20.13 76.28 51.76 <
4 7 -4 1.16 48.85 51.13 <
4 7 -3 475.58 495.95 64.02 o
4 7 -2 11.10 115.15 52.38 <
4 7 -1 819.84 980.05 79.61 o
4 7 0 7.54 2.49 51.34 <
4 7 1 535.10 596.55 68.38 o
4 7 2 206.70 175.43 54.67 o
4 7 3 7.59 -51.55 49.88 <
4 7 4 45.40 64.43 39.49 <
4 7 5 347.60 295.57 47.60 o
4 7 6 153.12 119.10 70.67 <
4 7 7 882.83 894.00 80.86 o
4 7 8 264.98 390.77 82.31 o
4 7 9 728.77 794.85 77.53 o
4 7 10 125.64 63.19 54.46 <
4 7 11 48.36 20.99 58.20 <
4 7 12 15.92 -157.76 62.77 <
4 7 13 164.08 105.80 59.03 <
4 7 14 595.55 469.55 77.11 o
4 7 15 352.03 328.20 70.46 o
4 7 16 341.20 271.25 70.46 o
4 7 17 581.30 530.03 84.39 o
4 7 19 84.09 217.42 81.89 <
4 8 -14 153.12 77.32 98.52 <
4 8 -13 179.21 91.87 93.74 <
4 8 -12 0.12 -30.14 72.13 <
4 8 -11 310.58 180.63 70.88 <
4 8 -10 256.37 369.57 101.02 o
4 8 -9 134.34 100.60 64.23 <
4 8 -8 504.92 479.11 76.49 o
4 8 -7 7.34 -29.93 64.43 <
4 8 -6 207.01 208.48 66.72 o
4 8 -5 120.37 72.75 65.27 <
4 8 -4 7.62 36.58 65.89 <
4 8 -3 250.38 124.71 99.56 <
4 8 -2 267.74 404.69 70.67 o
4 8 -1 43.32 6.86 60.28 <
4 8 0 590.46 585.33 120.14 o
4 8 1 2.94 61.32 61.32 <
4 8 2 247.85 238.62 65.27 o
4 8 3 117.22 153.60 64.85 <
4 8 4 3.17 84.18 98.11 <
4 8 5 66.01 18.71 92.91 <
4 8 6 137.69 96.24 69.84 <
4 8 7 0.88 17.67 72.33 <
4 8 8 293.71 472.66 118.89 o
4 8 9 40.57 84.18 72.54 <
4 8 10 213.52 146.75 71.71 <
4 8 11 33.75 50.72 71.29 <
4 8 12 6.29 7.07 78.57 <
4 8 13 1.81 99.56 107.46 <
5 0 -32 2568.61 2630.56 225.95 o
5 0 -30 1393.36 993.78 144.05 o
5 0 -28 20.35 74.41 81.89 <
5 0 -26 2739.53 2677.77 203.50 o
5 0 -24 5063.25 5613.44 333.03 o
5 0 -22 5965.40 6714.81 375.45 o
5 0 -20 2055.87 2204.63 159.85 o
5 0 -18 16.00 -55.70 62.77 <
5 0 -16 15522.40 16398.40 447.33 o
5 0 -14 13676.10 13866.00 379.10 o
5 0 -12 11243.20 11118.50 307.13 o
5 0 -10 1179.46 1126.83 63.61 o
5 0 -8 6384.47 6233.15 185.04 o
5 0 -6 36045.30 35932.40 906.44 o
5 0 -4 22675.30 23124.00 568.03 o
5 0 -2 5069.72 5371.17 179.21 o
5 0 0 2968.12 3250.87 113.09 o
5 0 2 21751.50 22538.70 575.29 o
5 0 4 21648.90 22504.70 653.50 o
5 0 6 10249.80 11357.30 350.39 o
5 0 8 305.62 297.44 44.07 o
5 0 10 6608.19 7017.06 212.69 o
5 0 12 9502.14 9465.80 324.78 o
5 0 14 4523.74 5091.75 210.38 o
5 0 16 1575.02 1687.23 134.70 o
5 0 18 689.42 785.91 91.04 o
5 0 20 2131.97 2416.86 173.36 o
5 0 22 2007.84 2697.47 192.90 o
5 0 24 1330.19 1582.86 153.82 o
5 0 26 273.77 278.11 128.87 <
5 0 28 228.61 320.72 114.74 <
5 0 30 914.17 1357.52 173.35 o
5 0 32 396.45 760.75 147.79 o
5 1 -33 134.16 39.49 81.69 <
5 1 -32 636.55 814.18 101.02 o
5 1 -31 150.80 -16.42 73.79 <
5 1 -30 1957.28 1677.88 122.02 o
5 1 -29 13.83 101.22 66.72 <
5 1 -28 3529.22 2806.69 155.49 o
5 1 -27 194.41 261.69 64.23 o
5 1 -26 597.33 542.30 71.50 o
5 1 -25 476.76 551.44 68.80 o
5 1 -24 116.45 198.92 54.87 o
5 1 -23 381.51 303.05 55.50 o
5 1 -22 3198.10 3296.23 154.03 o
5 1 -21 64.87 39.49 43.44 <
5 1 -20 6582.28 6951.98 251.55 o
5 1 -19 348.09 396.80 75.87 o
5 1 -18 6307.81 6070.31 175.67 o
5 1 -17 184.10 260.86 57.78 o
5 1 -16 57.36 47.18 50.92 <
5 1 -15 1168.21 1166.94 60.07 o
5 1 -14 1599.70 1627.59 65.89 o
5 1 -13 312.55 261.27 41.36 o
5 1 -12 7287.52 7277.27 165.70 o
5 1 -11 60.54 -9.56 33.26 <
5 1 -10 10489.30 10702.20 225.41 o
5 1 -9 310.71 325.71 34.50 o
5 1 -8 3910.35 3910.78 100.41 o
5 1 -7 117.54 108.50 30.14 o
5 1 -6 57.84 23.90 28.89 <
5 1 -5 905.00 957.83 47.60 o
5 1 -4 1695.02 1718.87 56.33 o
5 1 -3 166.75 74.62 45.10 <
5 1 -2 6680.25 6514.23 149.28 o
5 1 -1 60.52 87.09 24.53 o
5 1 0 11237.00 11380.80 217.73 o
5 1 1 103.05 108.29 27.23 o
5 1 2 4257.67 4462.22 109.56 o
5 1 3 467.31 515.90 37.41 o
5 1 4 948.16 932.89 47.81 o
5 1 5 151.69 131.57 31.59 o
5 1 6 911.56 934.96 48.85 o
5 1 7 1331.41 1181.71 56.54 o
5 1 8 7160.04 7224.36 186.08 o
5 1 9 103.88 138.64 36.58 o
5 1 10 10593.20 10597.70 242.04 o
5 1 11 374.33 340.89 41.78 o
5 1 12 3473.10 3685.29 104.77 o
5 1 13 617.77 667.64 50.51 o
5 1 14 39.16 -45.52 43.65 <
5 1 15 177.29 236.96 56.33 o
5 1 16 1250.21 1364.82 71.09 o
5 1 17 795.47 560.39 114.74 o
5 1 18 5267.30 5199.45 187.51 o
5 1 19 122.82 74.62 47.60 <
5 1 20 3577.46 3230.79 148.01 o
5 1 21 113.87 101.02 49.47 <
5 1 22 562.08 533.36 68.80 o
5 1 23 444.75 458.11 68.59 o
5 1 24 130.93 49.89 63.19 <
5 1 25 65.38 -1.45 72.96 <
5 1 26 535.85 430.89 83.97 o
5 1 27 22.92 -3.95 72.96 <
5 1 28 1383.25 1344.03 119.52 o
5 1 29 35.86 146.95 80.65 <
5 1 30 547.86 607.98 96.03 o
5 1 31 18.24 91.46 82.31 <
5 1 32 78.27 100.60 80.02 <
5 2 -32 499.29 438.16 94.78 o
5 2 -31 215.47 104.97 74.62 <
5 2 -30 682.24 600.29 87.30 o
5 2 -29 1809.24 1694.50 121.18 o
5 2 -28 13.16 -70.25 61.52 <
5 2 -27 2515.51 2540.76 142.80 o
5 2 -26 1144.30 1027.87 91.67 o
5 2 -25 632.33 805.86 83.14 o
5 2 -24 2750.96 2832.42 145.30 o
5 2 -23 144.98 87.92 52.59 <
5 2 -22 1984.05 2407.49 125.55 o
5 2 -21 2059.96 2351.59 121.81 o
5 2 -20 672.49 474.12 85.85 o
5 2 -19 6298.78 6488.52 217.25 o
5 2 -18 347.07 468.09 75.66 o
5 2 -17 5752.72 5818.02 171.30 o
5 2 -16 3607.32 3588.17 121.61 o
5 2 -15 653.78 558.93 58.62 o
5 2 -14 7073.90 7341.87 172.98 o
5 2 -13 1818.56 1713.03 68.80 o
5 2 -12 4385.64 4429.21 116.00 o
5 2 -11 12482.30 12260.30 256.19 o
5 2 -10 101.19 113.28 43.65 <
5 2 -9 12636.00 12696.10 261.60 o
5 2 -8 2585.61 2689.06 79.41 o
5 2 -7 6730.09 6550.99 148.65 o
5 2 -6 10530.20 11036.70 263.25 o
5 2 -5 62.13 59.03 37.41 <
5 2 -4 10103.80 10428.00 250.15 o
5 2 -3 10572.40 10346.10 248.08 o
5 2 -2 1889.06 1844.85 56.75 o
5 2 -1 22615.00 22169.30 394.05 o
5 2 0 621.04 583.67 31.18 o
5 2 1 8384.38 8533.49 157.19 o
5 2 2 8608.74 9290.20 169.04 o
5 2 3 1269.98 1207.90 41.57 o
5 2 4 7790.08 8504.92 169.87 o
5 2 5 3388.50 3617.97 102.69 o
5 2 6 3749.75 3873.09 113.71 o
5 2 7 10297.50 9708.50 238.29 o
5 2 8 8.28 40.12 34.09 <
5 2 9 8709.37 8081.42 182.97 o
5 2 10 1808.51 1753.78 60.70 o
5 2 11 1892.25 1906.35 65.48 o
5 2 12 4442.36 4666.60 128.89 o
5 2 13 4.60 -7.48 37.21 <
5 2 14 1551.37 1762.48 65.69 o
5 2 15 2470.89 2517.93 81.49 o
5 2 16 1111.05 1148.43 61.73 o
5 2 17 2599.36 2469.49 100.82 o
5 2 18 87.22 -3.33 56.33 <
5 2 19 1851.29 1818.82 84.81 o
5 2 20 798.58 902.31 63.60 o
5 2 21 463.27 388.48 65.27 o
5 2 22 795.20 859.08 82.94 o
5 2 23 41.51 69.01 57.99 <
5 2 24 780.16 831.22 84.60 o
5 2 25 626.74 1088.34 93.54 o
5 2 26 236.26 149.66 67.55 <
5 2 27 779.14 989.20 99.77 o
5 2 28 63.49 145.08 82.31 <
5 2 29 489.98 553.11 97.90 o
5 2 30 293.33 398.25 89.17 o
5 2 31 49.10 186.45 90.00 <
5 3 -30 514.28 480.98 93.54 o
5 3 -29 0.57 1.66 74.20 <
5 3 -28 937.61 685.73 91.04 o
5 3 -27 577.23 642.69 83.35 o
5 3 -26 515.19 633.76 81.69 o
5 3 -25 1594.97 1710.08 113.49 o
5 3 -24 21.65 -5.20 56.54 <
5 3 -23 2305.49 2355.54 127.63 o
5 3 -22 1351.78 1433.62 96.86 o
5 3 -21 241.81 298.69 80.23 o
5 3 -20 2533.31 2750.30 149.66 o
5 3 -19 222.54 31.59 123.47 <
5 3 -18 2114.30 2297.55 122.22 o
5 3 -17 2359.56 2347.04 118.69 o
5 3 -16 637.38 650.59 70.88 o
5 3 -15 2892.48 2754.10 140.73 o
5 3 -14 426.07 417.17 51.55 o
5 3 -13 1373.84 1449.01 67.14 o
5 3 -12 2685.39 2733.10 86.68 o
5 3 -11 99.14 43.03 42.82 <
5 3 -10 6658.52 6753.85 156.13 o
5 3 -9 1197.20 1139.09 53.21 o
5 3 -8 2358.27 2432.51 82.32 o
5 3 -7 2379.29 2348.74 81.07 o
5 3 -6 118.94 143.00 30.97 o
5 3 -5 1588.19 1401.02 53.01 o
5 3 -4 1287.52 1237.83 46.77 o
5 3 -3 1135.64 1137.63 42.61 o
5 3 -2 2820.95 2601.56 74.84 o
5 3 -1 347.24 367.70 30.97 o
5 3 0 8644.50 8910.43 174.86 o
5 3 1 1018.16 1051.99 43.86 o
5 3 2 1531.77 1508.48 51.76 o
5 3 3 1361.48 1412.44 50.30 o
5 3 4 1.02 60.07 29.10 <
5 3 5 2650.84 2424.43 68.39 o
5 3 6 849.37 853.06 49.06 o
5 3 7 1420.18 1431.56 56.33 o
5 3 8 3257.28 3208.16 89.39 o
5 3 9 194.77 248.80 36.58 o
5 3 10 4450.42 4490.92 116.62 o
5 3 11 997.53 940.78 49.47 o
5 3 12 707.92 726.47 48.22 o
5 3 13 2508.30 2384.89 78.78 o
5 3 14 29.74 28.06 37.62 <
5 3 15 2102.74 1711.16 69.22 o
5 3 16 551.47 646.85 52.17 o
5 3 17 212.30 192.89 54.25 o
5 3 18 2098.30 1974.52 104.56 o
5 3 19 19.24 -1.25 99.15 <
5 3 20 831.90 890.05 62.15 o
5 3 21 1072.96 937.66 64.02 o
5 3 22 229.88 257.74 48.85 o
5 3 23 1249.26 1002.51 70.05 o
5 3 24 59.55 165.66 64.85 <
5 3 25 282.19 343.38 70.46 o
5 3 26 233.53 292.87 90.62 o
5 3 27 1.11 164.83 130.74 <
5 3 28 466.65 438.16 94.57 o
5 3 29 75.48 -46.77 85.64 <
5 3 30 121.71 287.26 128.66 <
5 4 -29 1602.72 1345.70 175.44 o
5 4 -28 14.62 12.89 111.20 <
5 4 -27 1701.05 1498.69 175.64 o
5 4 -26 45.88 130.53 102.68 <
5 4 -25 448.21 706.92 126.17 o
5 4 -24 0.62 -13.93 82.52 <
5 4 -23 167.23 117.85 61.32 <
5 4 -22 18.31 20.79 55.08 <
5 4 -21 2203.36 2433.69 126.59 o
5 4 -20 16.69 70.67 51.76 <
5 4 -19 4343.98 4688.06 193.53 o
5 4 -18 9.57 30.35 43.86 <
5 4 -17 3591.76 4083.48 169.42 o
5 4 -16 28.02 -59.45 34.30 <
5 4 -15 385.61 384.53 41.57 o
5 4 -14 276.29 245.68 36.37 o
5 4 -13 1578.20 1608.45 71.50 o
5 4 -12 47.86 -23.70 56.12 <
5 4 -11 6780.89 6621.90 169.43 o
5 4 -10 5.02 -61.32 41.57 <
5 4 -9 9603.29 9510.25 212.90 o
5 4 -8 0.36 117.44 51.96 <
5 4 -7 3928.83 3956.99 97.08 o
5 4 -6 47.78 104.55 47.18 <
5 4 -5 89.43 100.81 30.97 o
5 4 -4 132.11 53.63 28.89 <
5 4 -3 7002.11 6795.25 154.47 o
5 4 -2 186.66 307.00 34.50 o
5 4 -1 9441.84 9629.31 216.65 o
5 4 0 0.56 -28.27 29.93 <
5 4 1 8366.34 8043.02 182.54 o
5 4 2 122.94 98.94 32.63 o
5 4 3 527.59 427.36 37.41 o
5 4 4 3.11 -7.90 31.80 <
5 4 5 1634.97 1512.01 61.11 o
5 4 6 8.80 32.22 32.01 <
5 4 7 7224.08 7050.11 159.25 o
5 4 8 25.28 60.07 41.16 <
5 4 9 4104.37 4320.15 122.03 o
5 4 10 121.69 39.49 48.22 <
5 4 11 2049.07 1844.61 77.74 o
5 4 12 23.27 -2.49 26.81 <
5 4 13 0.50 15.80 25.77 <
5 4 14 44.11 -11.22 27.85 <
5 4 15 883.49 843.70 47.39 o
5 4 16 4.69 -6.65 30.55 <
5 4 17 2735.36 2697.72 91.05 o
5 4 18 43.63 39.70 38.45 <
5 4 19 1161.78 1372.50 75.87 o
5 4 20 46.64 42.82 40.12 <
5 4 21 343.52 320.10 54.46 o
5 4 22 5.55 7.90 45.52 <
5 4 23 21.94 34.71 48.85 <
5 4 24 5.85 -15.80 54.04 <
5 4 25 350.29 219.91 74.00 <
5 4 26 23.71 56.95 133.03 <
5 4 27 891.63 842.45 175.64 o
5 4 28 28.00 52.17 155.27 <
5 5 -27 302.49 198.29 120.35 <
5 5 -26 0.07 91.46 113.90 <
5 5 -25 925.03 887.77 144.25 o
5 5 -24 11.62 9.15 101.22 <
5 5 -23 1698.35 1714.04 169.82 o
5 5 -22 16.99 -24.73 87.09 <
5 5 -21 798.88 881.94 120.56 o
5 5 -20 8.00 30.14 81.06 <
5 5 -19 102.18 77.74 78.78 <
5 5 -18 52.00 129.08 58.20 <
5 5 -17 1562.77 1579.55 84.81 o
5 5 -16 12.39 -16.42 47.81 <
5 5 -15 1771.43 1973.25 91.46 o
5 5 -14 2.86 -82.52 39.08 <
5 5 -13 2431.04 2504.18 103.31 o
5 5 -12 0.34 -17.46 35.13 <
5 5 -11 153.80 184.78 38.04 o
5 5 -10 30.91 27.02 31.59 <
5 5 -9 687.59 618.17 46.77 o
5 5 -8 109.10 37.62 74.41 <
5 5 -7 2099.15 1979.30 90.63 o
5 5 -6 2.94 44.69 49.68 <
5 5 -5 2218.34 2201.11 93.54 o
5 5 -4 50.65 -105.38 68.38 <
5 5 -3 1264.51 1179.61 72.34 o
5 5 -2 13.45 37.41 50.09 <
5 5 -1 12.64 -26.81 54.25 <
5 5 0 56.88 23.70 53.83 <
5 5 1 592.94 514.24 61.32 o
5 5 2 1.54 28.68 54.46 <
5 5 3 2241.70 2158.29 94.58 o
5 5 4 10.96 36.58 55.70 <
5 5 5 1929.05 1811.13 89.59 o
5 5 6 30.39 -39.91 55.29 <
5 5 7 675.98 738.93 70.26 o
5 5 8 5.23 68.59 31.18 <
5 5 9 2.63 8.52 31.59 <
5 5 10 5.04 7.27 32.43 <
5 5 11 937.98 1066.94 60.90 o
5 5 12 11.97 53.42 36.58 <
5 5 13 1792.78 1948.93 85.85 o
5 5 14 3.63 -12.89 38.87 <
5 5 15 927.44 915.20 61.53 o
5 5 16 6.38 52.59 42.61 <
5 5 17 146.87 99.77 60.28 <
5 5 18 1.72 2.49 60.28 <
5 5 19 199.93 166.08 60.90 <
5 5 20 44.81 198.09 68.18 <
5 5 21 727.98 775.72 85.64 o
5 5 22 10.43 84.60 71.50 <
5 5 23 596.66 512.37 84.60 o
5 5 24 18.17 47.39 81.27 <
5 5 25 124.46 129.91 91.46 <
5 6 -23 134.95 152.36 71.50 <
5 6 -22 300.94 302.22 73.17 o
5 6 -21 653.68 754.52 78.78 o
5 6 -20 131.37 173.35 63.40 <
5 6 -19 556.44 616.92 71.09 o
5 6 -18 57.08 41.57 51.96 <
5 6 -17 640.81 639.37 66.10 o
5 6 -16 638.12 622.53 61.53 o
5 6 -15 0.41 0.83 44.06 <
5 6 -14 1010.68 966.13 67.35 o
5 6 -13 315.13 347.95 50.92 o
5 6 -12 578.93 602.37 53.42 o
5 6 -11 1138.97 990.45 63.19 o
5 6 -10 4.94 -37.00 39.70 <
5 6 -9 1259.98 1239.68 69.01 o
5 6 -8 618.23 575.35 50.51 o
5 6 -7 844.72 834.76 57.37 o
5 6 -6 1392.47 1424.68 73.17 o
5 6 -5 62.66 75.87 36.58 <
5 6 -4 1118.26 1044.70 63.19 o
5 6 -3 705.65 784.46 54.25 o
5 6 -2 247.83 194.97 39.28 o
5 6 -1 1761.84 1736.49 79.82 o
5 6 0 420.85 414.67 45.31 o
5 6 1 1243.68 1260.88 67.97 o
5 6 2 724.68 788.82 55.08 o
5 6 3 264.66 291.00 43.03 o
5 6 4 1480.69 1450.05 73.38 o
5 6 5 97.86 101.43 37.62 <
5 6 6 329.86 282.27 56.54 o
5 6 7 953.15 1033.68 72.54 o
5 6 8 18.17 62.77 38.25 <
5 6 9 1046.89 1117.66 66.51 o
5 6 10 381.95 320.93 46.14 o
5 6 11 446.70 496.15 51.76 o
5 6 12 353.77 296.19 46.98 o
5 6 13 75.86 4.78 41.16 <
5 6 14 701.88 762.21 73.17 o
5 6 15 28.73 -85.43 47.39 <
5 6 16 6.29 48.22 67.76 <
5 6 17 513.57 638.74 82.73 o
5 6 18 27.71 -76.49 69.84 <
5 6 19 353.87 452.29 87.30 o
5 6 20 93.62 134.27 75.66 <
5 6 21 204.85 98.11 80.23 <
5 6 22 256.27 104.34 87.92 <
5 7 -18 294.39 320.10 90.21 o
5 7 -17 290.13 383.49 86.26 o
5 7 -16 115.70 108.08 74.83 <
5 7 -15 602.30 623.78 87.09 o
5 7 -14 45.40 54.46 66.10 <
5 7 -13 432.07 557.26 102.68 o
5 7 -12 460.42 447.93 74.20 o
5 7 -11 120.47 66.72 60.28 <
5 7 -10 699.72 811.27 83.97 o
5 7 -9 148.59 79.82 76.49 <
5 7 -8 353.04 247.56 77.74 o
5 7 -7 469.25 503.22 71.92 o
5 7 -6 8.55 12.68 53.00 <
5 7 -5 647.99 700.27 74.41 o
5 7 -4 143.71 120.76 57.58 <
5 7 -3 295.93 296.61 59.86 o
5 7 -2 436.81 428.60 65.06 o
5 7 -1 2.83 83.97 56.33 <
5 7 0 677.95 760.55 77.95 o
5 7 1 274.13 348.78 63.19 o
5 7 2 328.65 308.25 62.77 o
5 7 3 346.52 328.41 63.19 o
5 7 4 12.72 -11.43 53.42 <
5 7 6 150.36 240.90 97.69 <
5 7 7 107.99 129.08 97.69 <
5 7 8 537.32 535.85 73.58 o
5 7 9 15.37 -63.60 101.02 <
5 7 10 547.71 498.65 109.33 o
5 7 11 170.28 239.45 69.42 o
5 7 12 88.18 31.39 67.34 <
5 7 13 357.20 351.07 75.87 o
5 7 14 64.91 54.25 98.32 <
5 7 15 129.69 172.93 112.24 <
5 7 16 216.20 399.08 120.97 o
5 7 17 23.33 -132.40 119.72 <
5 8 -10 0.05 67.55 96.65 <
5 8 -9 43.02 126.38 71.71 <
5 8 -8 104.26 62.77 66.93 <
5 8 -7 23.44 -24.94 67.76 <
5 8 -6 448.45 275.41 94.57 <
5 8 -5 4.59 69.22 69.22 <
5 8 -4 438.53 274.79 74.00 o
5 8 -3 32.82 118.06 68.59 <
5 8 -2 8.72 -14.13 65.27 <
5 8 -1 83.34 106.84 67.14 <
5 8 0 27.36 -57.78 70.05 <
5 8 1 69.70 152.15 73.37 <
5 8 2 226.54 251.30 75.45 o
5 8 3 49.98 183.12 73.58 <
5 8 4 461.16 562.46 123.47 o
5 8 5 0.85 16.21 99.98 <
5 8 6 117.04 24.94 115.78 <
5 8 7 37.45 -88.34 115.98 <
5 8 8 3.83 -20.16 112.45 <
6 0 -32 6.11 27.23 123.46 <
6 0 -30 21.75 -175.01 104.97 <
6 0 -28 21.69 -82.73 98.32 <
6 0 -26 44.76 -58.20 83.35 <
6 0 -24 193.41 302.64 87.92 o
6 0 -22 471.94 462.27 90.00 o
6 0 -20 39.67 81.89 62.98 <
6 0 -18 1808.94 1819.44 140.10 o
6 0 -16 1242.86 1293.52 123.26 o
6 0 -14 1684.08 1693.27 95.83 o
6 0 -12 329.83 419.45 57.78 o
6 0 -10 4429.73 4571.40 154.67 o
6 0 -8 7566.02 7044.83 217.27 o
6 0 -6 2064.21 2152.07 81.48 o
6 0 -4 588.15 600.29 55.50 o
6 0 -2 7465.78 7615.02 224.96 o
6 0 0 6369.24 6880.39 208.94 o
6 0 2 1732.00 1622.82 84.39 o
6 0 4 1006.25 1052.82 70.26 o
6 0 6 3071.58 3095.08 131.59 o
6 0 8 2457.06 2531.46 116.62 o
6 0 10 101.38 153.19 51.55 <
6 0 12 787.64 969.04 113.49 o
6 0 14 1366.29 1454.21 121.81 o
6 0 16 37.75 73.37 57.58 <
6 0 18 81.15 39.49 62.15 <
6 0 20 681.67 720.85 103.10 o
6 0 22 207.09 242.57 86.68 <
6 0 24 90.16 127.42 94.16 <
6 0 26 979.42 968.41 154.44 o
6 0 28 324.89 115.78 147.37 <
6 0 30 77.06 -48.64 139.89 <
6 1 -31 121.96 237.58 89.79 <
6 1 -30 0.57 -24.53 82.93 <
6 1 -29 55.35 -69.01 77.11 <
6 1 -28 292.90 282.06 74.83 o
6 1 -27 1.30 -25.36 62.77 <
6 1 -26 1062.79 1271.06 101.85 o
6 1 -25 276.54 389.52 69.01 o
6 1 -24 135.35 190.40 59.24 o
6 1 -23 517.61 429.02 65.47 o
6 1 -22 318.00 319.27 58.62 o
6 1 -21 134.94 138.85 53.00 <
6 1 -20 1440.52 1472.08 94.58 o
6 1 -19 109.71 94.16 34.30 <
6 1 -18 712.81 783.63 50.72 o
6 1 -17 705.46 690.92 67.76 o
6 1 -16 393.29 532.32 63.81 o
6 1 -15 1417.68 1287.71 72.75 o
6 1 -14 2617.06 2444.56 88.14 o
6 1 -13 116.82 59.86 45.10 <
6 1 -12 4872.12 4889.29 129.93 o
6 1 -11 329.70 281.64 43.65 o
6 1 -10 1697.18 1717.18 68.39 o
6 1 -9 2431.64 2350.40 80.03 o
6 1 -8 633.68 563.51 47.81 o
6 1 -7 1668.24 1596.62 69.64 o
6 1 -6 4368.51 4057.12 107.89 o
6 1 -5 68.18 100.81 47.39 <
6 1 -4 9082.89 9231.18 229.76 o
6 1 -3 1315.45 1339.06 61.11 o
6 1 -2 1839.95 1741.52 59.03 o
6 1 -1 1976.32 1975.59 63.40 o
6 1 0 1401.01 1357.15 52.80 o
6 1 1 2560.16 2547.08 81.90 o
6 1 2 7759.45 7914.64 179.22 o
6 1 3 21.54 10.81 44.27 <
6 1 4 8749.61 8817.46 197.11 o
6 1 5 1256.31 1226.60 59.03 o
6 1 6 483.42 378.72 44.27 o
6 1 7 1980.53 1886.82 78.16 o
6 1 8 931.40 861.17 58.41 o
6 1 9 764.92 725.64 55.71 o
6 1 10 4968.61 4953.55 148.64 o
6 1 11 1.91 9.77 48.01 <
6 1 12 3551.01 3322.50 116.83 o
6 1 13 1017.61 976.11 67.76 o
6 1 14 761.61 492.63 57.37 o
6 1 15 595.07 425.28 60.69 o
6 1 16 1136.63 1163.19 65.48 o
6 1 17 369.34 255.25 67.97 o
6 1 18 1071.05 1188.96 83.35 o
6 1 19 1.41 -10.60 46.35 <
6 1 20 997.64 980.47 83.35 o
6 1 21 293.71 303.47 59.24 o
6 1 22 236.08 339.22 70.05 o
6 1 23 141.80 172.52 62.77 <
6 1 24 64.66 41.78 62.77 <
6 1 25 68.15 75.04 70.88 <
6 1 26 361.75 166.70 88.34 <
6 1 27 0.59 115.98 87.30 <
6 1 28 96.91 106.84 96.44 <
6 1 29 34.30 170.86 147.78 <
6 1 30 24.92 112.03 98.52 <
6 2 -31 42.20 -56.74 88.75 <
6 2 -30 7.59 124.71 83.77 <
6 2 -29 1.25 -103.93 78.36 <
6 2 -28 8.69 -23.90 70.25 <
6 2 -27 254.91 295.57 77.74 o
6 2 -26 7.21 53.00 61.94 <
6 2 -25 383.97 330.28 69.01 o
6 2 -24 56.74 120.35 83.97 <
6 2 -23 0.06 51.55 52.59 <
6 2 -22 0.13 -9.77 39.70 <
6 2 -21 242.21 290.58 44.69 o
6 2 -20 37.69 -21.82 36.17 <
6 2 -19 825.15 753.07 53.42 o
6 2 -18 128.92 210.97 93.33 <
6 2 -17 535.85 668.68 72.33 o
6 2 -16 413.45 413.43 74.00 o
6 2 -15 72.59 62.36 50.51 <
6 2 -14 249.34 201.83 46.77 o
6 2 -13 1093.64 1245.92 94.58 o
6 2 -12 44.11 -3.53 46.77 <
6 2 -11 1890.90 1899.27 74.42 o
6 2 -10 1180.14 1123.91 59.66 o
6 2 -9 130.79 87.30 41.36 <
6 2 -8 700.63 731.25 53.21 o
6 2 -7 535.74 456.45 48.85 o
6 2 -6 503.17 503.64 48.02 o
6 2 -5 2117.14 2048.34 79.20 o
6 2 -4 0.52 7.48 36.58 <
6 2 -3 1105.00 1094.19 49.89 o
6 2 -2 254.02 261.07 36.17 o
6 2 -1 34.40 65.89 33.05 <
6 2 0 2640.84 2579.91 74.63 o
6 2 1 2422.75 2642.88 75.25 o
6 2 2 19.10 -9.15 34.71 <
6 2 3 1884.02 2083.66 76.91 o
6 2 4 0.63 13.72 40.74 <
6 2 5 135.48 188.11 43.23 o
6 2 6 96.10 106.42 40.95 <
6 2 7 295.82 238.62 46.98 o
6 2 8 44.10 -24.94 42.19 <
6 2 9 1545.88 1446.53 72.54 o
6 2 10 15.84 23.90 46.56 <
6 2 11 1370.37 1350.90 74.62 o
6 2 12 326.37 299.94 48.01 o
6 2 13 0.04 5.40 45.73 <
6 2 14 6.03 -32.22 62.36 <
6 2 15 1048.49 895.25 69.63 o
6 2 16 202.87 128.66 106.01 <
6 2 17 883.99 951.99 61.11 o
6 2 18 334.09 298.27 44.48 o
6 2 19 353.26 403.66 50.92 o
6 2 20 153.87 241.74 58.41 o
6 2 21 107.84 -11.64 55.29 <
6 2 22 0.32 -140.51 63.19 <
6 2 23 386.20 201.21 75.24 <
6 2 24 129.30 85.22 72.54 <
6 2 25 671.95 534.19 82.94 o
6 2 26 646.21 455.62 84.81 o
6 2 27 43.89 156.51 81.06 <
6 2 28 178.18 47.60 80.44 <
6 2 29 78.17 21.62 94.16 <
6 3 -29 568.33 319.48 97.28 o
6 3 -28 23.98 15.59 78.98 <
6 3 -27 5.91 105.59 76.70 <
6 3 -26 0.09 97.28 74.41 <
6 3 -25 754.47 677.62 124.30 o
6 3 -24 41.45 -14.97 51.13 <
6 3 -23 1660.80 1846.65 94.58 o
6 3 -22 11.51 -1.87 45.73 <
6 3 -21 719.59 836.00 65.06 o
6 3 -20 73.23 96.24 40.95 <
6 3 -19 0.83 -11.64 38.45 <
6 3 -18 0.39 -7.48 35.34 <
6 3 -17 2051.52 2058.70 122.02 o
6 3 -16 8.69 -16.21 64.02 <
6 3 -15 2817.21 2714.37 106.22 o
6 3 -14 2.41 -50.09 53.21 <
6 3 -13 1186.72 1260.68 71.92 o
6 3 -12 51.77 118.27 46.98 <
6 3 -11 371.98 323.01 45.52 o
6 3 -10 0.04 12.89 48.43 <
6 3 -9 4139.61 3960.53 125.77 o
6 3 -8 11.26 31.18 40.32 <
6 3 -7 3399.70 3443.88 112.25 o
6 3 -6 183.49 169.40 34.71 o
6 3 -5 206.45 169.61 36.58 o
6 3 -4 89.69 81.06 33.26 <
6 3 -3 1023.33 1151.34 51.97 o
6 3 -2 13.19 46.14 35.54 <
6 3 -1 6401.90 6395.95 139.08 o
6 3 0 51.01 84.39 37.41 <
6 3 1 2489.14 2300.09 71.92 o
6 3 2 146.34 160.46 38.25 o
6 3 3 53.18 90.62 38.25 <
6 3 4 197.92 206.40 41.78 o
6 3 5 2385.42 2417.73 84.60 o
6 3 6 80.60 117.02 53.21 <
6 3 7 3967.88 4107.90 116.41 o
6 3 8 19.12 18.71 143.21 <
6 3 9 1703.25 1515.96 70.47 o
6 3 10 171.51 72.54 40.95 <
6 3 11 230.54 259.20 45.10 o
6 3 12 79.12 19.54 45.73 <
6 3 13 2065.52 1898.02 87.30 o
6 3 14 92.15 51.55 59.86 <
6 3 15 2111.25 1832.75 93.33 o
6 3 16 26.64 32.22 39.28 <
6 3 17 398.35 496.78 63.40 o
6 3 18 14.63 69.01 42.82 <
6 3 19 65.73 67.76 43.44 <
6 3 20 49.69 50.51 47.81 <
6 3 21 498.36 667.43 64.85 o
6 3 22 101.68 66.72 47.60 <
6 3 23 939.26 836.63 85.64 o
6 3 24 41.75 -28.48 60.69 <
6 3 25 117.43 192.47 70.05 <
6 3 26 3.77 -12.68 77.74 <
6 3 27 18.16 149.03 78.36 <
6 3 28 7.49 15.17 90.00 <
6 4 -27 54.66 -28.27 117.64 <
6 4 -26 14.62 104.55 110.99 <
6 4 -25 225.94 88.96 80.44 <
6 4 -24 62.62 59.86 70.46 <
6 4 -23 8.90 16.21 66.93 <
6 4 -22 124.85 149.86 68.18 <
6 4 -21 84.98 91.46 62.36 <
6 4 -20 2.34 53.63 67.97 <
6 4 -19 331.02 293.91 67.97 o
6 4 -18 81.10 121.39 55.91 <
6 4 -17 243.67 298.90 58.82 o
6 4 -16 243.04 295.99 56.54 o
6 4 -15 20.60 -60.28 46.14 <
6 4 -14 60.79 50.09 44.69 <
6 4 -13 613.03 626.90 46.77 o
6 4 -12 98.95 112.45 45.94 <
6 4 -11 893.89 850.56 44.27 o
6 4 -10 292.50 339.64 28.68 o
6 4 -9 92.14 36.79 24.94 <
6 4 -8 382.64 450.42 32.63 o
6 4 -7 133.28 127.21 25.36 o
6 4 -6 40.37 82.73 25.36 o
6 4 -5 604.68 524.63 33.67 o
6 4 -4 199.65 220.12 151.11 <
6 4 -3 644.06 666.60 138.43 o
6 4 -2 1683.59 1615.52 76.08 o
6 4 -1 5.96 -56.95 51.13 <
6 4 0 332.59 287.05 53.63 o
6 4 1 723.13 786.12 69.22 o
6 4 2 8.25 18.71 131.16 <
6 4 3 526.41 501.14 33.67 o
6 4 4 283.34 293.70 28.27 o
6 4 5 63.05 68.38 24.11 <
6 4 6 1447.75 1412.22 66.31 o
6 4 7 314.15 192.06 33.88 o
6 4 8 938.38 949.71 55.71 o
6 4 9 540.14 527.54 44.48 o
6 4 10 2.51 49.88 33.67 <
6 4 11 289.13 250.26 38.45 o
6 4 12 255.29 231.76 39.70 o
6 4 13 71.66 108.71 40.95 <
6 4 14 777.75 684.89 57.37 o
6 4 15 492.96 546.87 56.12 o
6 4 16 747.13 979.01 81.27 o
6 4 17 610.40 379.76 66.51 o
6 4 18 0.53 26.61 54.25 <
6 4 19 4.69 -20.79 77.95 <
6 4 20 4.30 97.69 60.07 <
6 4 21 110.41 125.34 63.19 <
6 4 22 394.70 242.36 100.81 <
6 4 23 480.55 251.92 81.48 o
6 4 24 217.14 190.19 78.15 <
6 4 25 264.39 354.39 122.43 <
6 4 26 30.95 -12.89 144.67 <
6 5 -25 32.32 -60.28 92.70 <
6 5 -24 32.75 -48.22 86.26 <
6 5 -23 413.09 485.55 95.20 o
6 5 -22 351.34 399.08 88.55 o
6 5 -21 539.91 545.62 86.26 o
6 5 -20 690.63 692.58 88.76 o
6 5 -19 18.68 75.04 53.21 <
6 5 -18 626.78 629.39 63.40 o
6 5 -17 1.54 -83.77 47.60 <
6 5 -16 2.56 6.24 44.27 <
6 5 -15 694.99 816.88 64.02 o
6 5 -14 345.38 375.60 48.22 o
6 5 -13 375.01 357.10 42.19 o
6 5 -12 1818.60 1811.95 85.64 o
6 5 -11 24.39 93.53 38.04 <
6 5 -10 775.41 667.64 53.84 o
6 5 -9 110.08 132.20 47.81 <
6 5 -8 0.04 61.32 35.13 <
6 5 -7 162.58 146.54 37.83 o
6 5 -6 1090.95 1067.57 60.49 o
6 5 -5 182.24 162.13 36.17 o
6 5 -4 1345.48 1380.20 68.39 o
6 5 -3 86.22 54.04 33.67 <
6 5 -2 677.38 676.78 49.47 o
6 5 -1 215.02 201.83 38.04 o
6 5 0 15.99 71.29 34.71 <
6 5 1 98.48 170.65 37.21 o
6 5 2 1010.32 933.91 56.75 o
6 5 3 18.38 -6.65 33.88 <
6 5 4 971.03 817.72 60.28 o
6 5 5 515.00 528.99 46.14 o
6 5 6 222.69 169.61 52.17 o
6 5 7 148.18 253.38 53.21 o
6 5 8 136.35 213.88 53.00 o
6 5 9 101.06 145.91 53.21 <
6 5 10 461.62 346.29 81.27 o
6 5 11 73.27 19.54 51.55 <
6 5 12 443.18 384.33 63.60 o
6 5 13 452.86 297.44 63.19 o
6 5 14 1.07 99.56 59.03 <
6 5 15 417.87 424.03 107.05 o
6 5 16 77.71 54.46 62.15 <
6 5 17 0.46 -78.98 61.94 <
6 5 18 254.71 270.63 70.05 o
6 5 19 0.09 51.13 69.42 <
6 5 20 75.02 94.78 71.50 <
6 5 21 151.89 143.00 74.00 <
6 5 22 10.08 93.53 85.43 <
6 5 23 157.44 -27.85 80.44 <
6 6 -21 4.54 -8.52 70.46 <
6 6 -20 22.60 -9.77 64.43 <
6 6 -19 2.58 66.10 61.73 <
6 6 -18 12.84 15.59 59.45 <
6 6 -17 17.85 -38.04 54.87 <
6 6 -16 160.62 133.44 55.29 <
6 6 -15 204.54 234.88 54.25 o
6 6 -14 175.66 51.55 47.60 <
6 6 -13 9.60 70.05 46.77 <
6 6 -12 2.17 -41.78 45.73 <
6 6 -11 0.14 -7.27 42.40 <
6 6 -10 165.74 104.14 42.82 <
6 6 -9 15.15 -62.36 40.95 <
6 6 -8 189.35 312.41 51.55 o
6 6 -7 182.96 192.68 42.61 o
6 6 -6 56.31 75.87 40.12 <
6 6 -5 159.82 120.56 42.19 <
6 6 -4 123.95 51.96 39.91 <
6 6 -3 13.59 11.64 39.28 <
6 6 -2 442.19 368.95 52.80 o
6 6 -1 0.08 -27.02 38.87 <
6 6 0 351.04 393.26 48.85 o
6 6 1 124.52 183.95 45.31 o
6 6 2 5.04 -16.21 40.53 <
6 6 3 182.32 261.48 45.73 o
6 6 4 606.09 617.34 72.33 o
6 6 5 202.08 246.52 60.69 o
6 6 6 544.66 544.17 68.59 o
6 6 7 23.05 -68.59 55.29 <
6 6 8 161.72 99.98 56.12 <
6 6 9 24.81 34.50 60.49 <
6 6 10 3.02 -33.05 58.82 <
6 6 11 219.54 88.13 62.77 <
6 6 12 415.29 420.91 71.71 o
6 6 13 149.95 80.44 69.22 <
6 6 14 619.57 505.51 79.61 o
6 6 15 207.37 262.31 77.53 o
6 6 16 39.27 29.52 73.16 <
6 6 17 16.77 92.91 79.19 <
6 6 18 35.02 87.92 77.32 <
6 6 19 81.51 133.44 86.26 <
6 7 -15 76.81 -21.82 76.91 <
6 7 -14 111.93 53.00 77.32 <
6 7 -13 0.77 -2.91 70.88 <
6 7 -12 482.13 505.30 81.90 o
6 7 -11 71.29 -80.65 72.13 <
6 7 -10 354.65 240.70 70.67 o
6 7 -9 142.47 99.98 79.40 <
6 7 -8 2.36 -15.38 62.98 <
6 7 -7 181.66 168.15 73.58 <
6 7 -6 219.78 237.58 65.68 o
6 7 -5 9.90 -1.25 49.47 <
6 7 -4 501.05 473.91 58.62 o
6 7 -3 43.35 69.84 48.85 <
6 7 -2 287.86 254.21 52.80 o
6 7 -1 99.49 37.41 47.39 <
6 7 0 1.03 -34.30 61.52 <
6 7 1 89.87 -14.76 82.52 <
6 7 2 414.96 571.81 110.37 o
6 7 3 36.25 16.63 88.55 <
6 7 5 11.09 -54.67 142.59 <
6 7 6 105.39 71.29 107.04 <
6 7 7 27.85 -10.18 100.39 <
6 7 8 7.20 73.37 102.26 <
6 7 9 21.63 25.77 110.37 <
6 7 10 194.57 181.46 115.36 <
6 7 11 0.19 -45.10 100.19 <
6 7 12 228.81 274.16 114.53 <
6 7 13 1.57 -184.99 117.44 <
7 0 -28 390.83 462.89 133.86 o
7 0 -26 1056.06 996.69 141.97 o
7 0 -24 2451.84 2246.83 188.74 o
7 0 -22 1094.84 964.05 120.56 o
7 0 -20 1.00 27.85 67.76 <
7 0 -18 2909.99 3085.00 204.54 o
7 0 -16 1203.94 1149.89 110.37 o
7 0 -14 4028.97 4050.50 242.38 o
7 0 -12 542.80 465.81 71.50 o
7 0 -10 405.10 337.35 67.76 o
7 0 -8 2491.25 2544.12 135.32 o
7 0 -6 1670.24 1787.22 104.35 o
7 0 -4 3461.47 3324.79 134.29 o
7 0 -2 471.47 339.64 63.81 o
7 0 0 59.36 80.02 55.29 <
7 0 2 1489.96 1580.60 93.75 o
7 0 4 4935.73 4994.47 176.50 o
7 0 6 1931.13 2083.03 109.13 o
7 0 8 1070.29 858.88 84.18 o
7 0 10 333.16 295.99 65.47 o
7 0 12 2898.67 3050.72 198.73 o
7 0 14 4255.86 4486.43 267.75 o
7 0 16 527.47 544.17 88.75 o
7 0 20 1158.67 1071.93 127.63 o
7 0 22 1680.00 1481.44 152.99 o
7 0 24 954.55 884.44 139.06 o
7 0 26 41.55 166.28 126.17 <
7 1 -29 58.85 75.66 89.38 <
7 1 -28 1470.51 1765.37 132.20 o
7 1 -27 11.68 -93.53 75.24 <
7 1 -26 1620.34 1760.80 125.76 o
7 1 -25 364.58 503.43 81.90 o
7 1 -24 34.87 32.01 62.36 <
7 1 -23 435.28 376.43 67.97 o
7 1 -22 952.03 965.92 85.01 o
7 1 -21 369.28 378.92 63.60 o
7 1 -20 3960.15 4200.74 186.46 o
7 1 -19 21.52 9.56 48.22 <
7 1 -18 4360.52 4866.01 204.34 o
7 1 -17 248.79 283.10 54.25 o
7 1 -16 2372.15 2373.22 119.94 o
7 1 -15 1399.54 1438.41 90.21 o
7 1 -14 265.71 251.51 49.68 o
7 1 -13 985.91 919.99 76.08 o
7 1 -12 5354.64 5186.55 157.79 o
7 1 -11 238.47 151.73 51.76 <
7 1 -10 10175.50 10040.70 276.74 o
7 1 -9 109.63 90.83 65.06 <
7 1 -8 7383.52 7419.15 201.87 o
7 1 -7 1501.81 1370.86 74.83 o
7 1 -6 370.98 259.61 61.32 o
7 1 -5 2027.91 1837.75 82.32 o
7 1 -4 3918.30 4050.74 122.23 o
7 1 -3 660.54 618.17 68.59 o
7 1 -2 12399.10 12620.10 271.77 o
7 1 -1 34.33 0.21 51.34 <
7 1 0 9760.38 10018.80 226.01 o
7 1 1 898.78 867.19 62.36 o
7 1 2 2657.25 2964.45 99.36 o
7 1 3 1434.56 1252.58 69.22 o
7 1 4 592.41 621.49 57.58 o
7 1 5 1021.29 892.76 77.53 o
7 1 6 6845.44 6904.07 174.01 o
7 1 7 4.80 -20.99 66.10 <
7 1 8 7371.24 7466.51 206.24 o
7 1 9 296.55 279.36 57.99 o
7 1 10 2764.81 2668.64 109.96 o
7 1 11 556.09 649.97 50.09 o
7 1 12 217.68 247.14 40.12 o
7 1 13 405.88 408.44 45.73 o
7 1 14 646.39 652.26 54.87 o
7 1 15 230.79 235.92 52.38 o
7 1 16 3486.28 3861.87 171.29 o
7 1 17 57.65 60.69 51.96 <
7 1 18 1854.03 2360.92 129.50 o
7 1 19 55.72 -14.97 53.42 <
7 1 20 829.62 982.13 91.04 o
7 1 21 241.57 450.84 73.58 o
7 1 22 36.24 -9.56 63.40 <
7 1 23 80.73 119.72 72.13 <
7 1 24 269.63 273.33 109.75 <
7 1 25 38.87 141.13 78.98 <
7 1 26 1209.72 1367.30 129.08 o
7 1 27 11.41 -44.48 101.43 <
7 2 -28 79.60 -27.64 91.66 <
7 2 -27 229.37 24.53 77.53 <
7 2 -26 573.80 663.69 96.03 o
7 2 -25 18.27 127.83 71.29 <
7 2 -24 1093.42 1251.73 103.93 o
7 2 -23 203.19 209.52 65.89 o
7 2 -22 873.01 613.39 113.49 o
7 2 -21 570.29 455.62 70.46 o
7 2 -20 6.10 91.04 54.87 <
7 2 -19 347.82 207.86 73.17 <
7 2 -18 592.54 514.86 88.96 o
7 2 -17 163.98 143.63 44.90 o
7 2 -16 1826.37 2004.23 87.51 o
7 2 -15 48.52 88.34 35.13 <
7 2 -14 1679.56 1653.76 96.45 o
7 2 -13 294.18 258.36 64.23 o
7 2 -12 280.19 261.69 55.29 o
7 2 -11 413.48 424.23 64.44 o
7 2 -10 69.47 65.47 51.55 <
7 2 -9 348.44 304.30 50.92 o
7 2 -8 1308.70 1334.47 73.38 o
7 2 -7 40.03 46.97 47.39 <
7 2 -6 2045.64 2076.59 85.64 o
7 2 -5 2.87 16.84 47.39 <
7 2 -4 1258.01 1199.16 57.58 o
7 2 -3 48.34 27.23 78.36 <
7 2 -2 268.10 383.70 82.73 o
7 2 -1 496.02 499.07 116.40 o
7 2 0 157.43 291.20 92.91 o
7 2 1 689.47 574.73 92.50 o
7 2 2 1110.40 1153.42 68.18 o
7 2 3 151.85 234.04 51.34 o
7 2 4 2100.86 2212.33 90.84 o
7 2 5 36.64 -24.11 50.30 <
7 2 6 1418.61 1465.85 79.40 o
7 2 7 277.23 339.84 59.45 o
7 2 8 104.35 222.61 58.82 o
7 2 9 1091.20 1028.29 74.83 o
7 2 10 380.62 425.48 57.37 o
7 2 11 740.62 569.12 62.98 o
7 2 12 1209.40 1158.41 78.78 o
7 2 13 47.70 56.74 36.79 <
7 2 14 1838.58 1892.40 89.38 o
7 2 15 59.30 -54.04 41.78 <
7 2 16 379.96 378.71 48.85 o
7 2 17 619.74 460.61 52.59 o
7 2 18 24.52 47.18 45.73 <
7 2 19 554.29 523.38 69.63 o
7 2 20 344.87 360.63 64.64 o
7 2 21 170.33 241.94 69.22 o
7 2 22 1003.15 1000.63 94.58 o
7 2 23 18.91 77.32 70.05 <
7 2 24 312.71 372.06 91.04 o
7 2 25 137.96 -123.05 91.66 <
7 2 26 12.51 147.37 86.88 <
7 3 -27 163.18 293.08 123.67 <
7 3 -26 22.41 52.38 82.31 <
7 3 -25 1324.26 1480.59 118.07 o
7 3 -24 37.26 -80.23 71.09 <
7 3 -23 1709.21 1870.56 125.55 o
7 3 -22 42.54 64.43 65.27 <
7 3 -21 1223.62 1387.47 101.23 o
7 3 -20 309.30 359.59 65.68 o
7 3 -19 8.62 150.69 44.27 o
7 3 -18 179.40 167.53 45.10 o
7 3 -17 1278.30 1332.18 73.79 o
7 3 -16 27.60 -23.70 39.91 <
7 3 -15 3975.21 4056.90 143.85 o
7 3 -14 17.32 53.42 48.01 <
7 3 -13 4458.98 4367.33 149.88 o
7 3 -12 572.86 597.80 49.26 o
7 3 -11 528.67 596.97 40.95 o
7 3 -10 221.74 297.23 37.62 o
7 3 -9 483.83 416.34 76.08 o
7 3 -8 537.33 416.55 60.28 o
7 3 -7 4911.56 4598.99 121.61 o
7 3 -6 23.06 -90.62 115.57 <
7 3 -5 7214.90 7137.31 171.10 o
7 3 -4 178.20 171.07 61.94 <
7 3 -3 2762.82 2598.38 83.15 o
7 3 -2 1487.57 1550.86 62.57 o
7 3 -1 195.74 186.45 49.47 o
7 3 0 93.57 199.12 53.42 o
7 3 1 2139.48 1956.86 85.02 o
7 3 2 608.13 575.14 58.62 o
7 3 3 6656.25 6107.91 169.85 o
7 3 4 25.35 33.88 90.83 <
7 3 5 2956.09 2809.17 104.14 o
7 3 6 455.21 552.48 62.98 o
7 3 7 193.62 148.41 61.11 <
7 3 8 751.83 947.42 58.20 o
7 3 9 757.52 887.97 57.99 o
7 3 10 127.41 164.21 39.91 o
7 3 11 1968.90 1949.36 88.97 o
7 3 12 152.85 215.13 43.03 o
7 3 13 2285.27 2201.10 96.03 o
7 3 14 43.03 60.69 39.70 <
7 3 15 464.87 383.91 49.47 o
7 3 16 238.69 226.98 47.81 o
7 3 17 17.06 -60.69 44.48 <
7 3 18 202.52 168.57 61.94 <
7 3 19 460.90 520.68 62.77 o
7 3 20 208.51 300.97 57.78 o
7 3 21 737.28 769.91 76.08 o
7 3 22 5.88 5.40 75.66 <
7 3 23 504.55 334.02 119.31 <
7 3 24 4.08 28.27 78.36 <
7 4 -25 90.37 -94.78 118.27 <
7 4 -24 121.62 156.31 113.07 <
7 4 -23 180.43 244.44 114.11 <
7 4 -22 69.73 110.79 100.39 <
7 4 -21 1355.94 1414.29 112.66 o
7 4 -20 28.06 -70.67 66.51 <
7 4 -19 1704.16 1893.21 122.64 o
7 4 -18 51.83 82.31 60.07 <
7 4 -17 414.18 447.72 67.76 o
7 4 -16 161.48 167.12 59.65 <
7 4 -15 0.87 9.98 50.72 <
7 4 -14 425.65 468.92 68.59 o
7 4 -13 842.76 784.87 50.93 o
7 4 -12 30.65 -3.95 38.25 <
7 4 -11 2022.77 2093.62 90.63 o
7 4 -10 15.17 1.45 36.17 <
7 4 -9 1713.33 1700.32 78.99 o
7 4 -8 200.43 207.23 38.25 o
7 4 -7 226.13 333.61 49.05 o
7 4 -6 347.41 440.24 43.65 o
7 4 -5 53.88 23.90 32.01 <
7 4 -4 319.98 364.99 42.19 o
7 4 -3 859.76 854.09 53.63 o
7 4 -2 3.94 -14.55 33.46 <
7 4 -1 2329.02 2200.48 117.65 o
7 4 1 1642.90 1609.07 98.53 o
7 4 2 205.04 276.03 56.12 o
7 4 3 320.18 452.92 59.03 o
7 4 4 243.52 383.08 57.37 o
7 4 5 178.18 138.43 49.47 <
7 4 6 27.63 -27.44 49.68 <
7 4 7 1039.94 1255.47 90.00 o
7 4 8 4.47 37.41 54.25 <
7 4 9 2679.56 2475.09 131.79 o
7 4 10 170.10 276.03 61.32 o
7 4 11 1183.20 1190.42 92.91 o
7 4 12 97.46 99.35 84.80 <
7 4 13 34.74 12.06 55.29 <
7 4 14 49.16 170.65 63.81 <
7 4 15 591.92 499.90 70.88 o
7 4 16 0.51 -65.06 60.69 <
7 4 17 984.55 1057.59 93.95 o
7 4 18 3.78 7.48 63.19 <
7 4 19 1235.55 1207.46 103.31 o
7 4 20 56.82 31.39 110.37 <
7 4 21 269.24 235.29 79.40 <
7 4 22 31.81 74.00 79.61 <
7 4 23 71.35 -84.18 116.61 <
7 5 -22 1.87 96.44 73.79 <
7 5 -21 189.38 177.92 69.01 <
7 5 -20 94.21 78.15 61.73 <
7 5 -19 0.57 27.23 57.16 <
7 5 -18 507.33 458.95 66.10 o
7 5 -17 524.34 486.80 64.64 o
7 5 -16 130.62 112.45 51.96 <
7 5 -15 1946.85 1914.64 119.73 o
7 5 -14 6.97 23.07 46.14 <
7 5 -13 775.93 973.19 68.80 o
7 5 -12 95.63 21.41 43.03 <
7 5 -11 294.61 308.87 49.47 o
7 5 -10 386.24 214.09 45.73 o
7 5 -9 154.76 173.35 43.03 o
7 5 -8 403.68 318.43 54.46 o
7 5 -7 1969.89 2173.85 95.41 o
7 5 -6 7.06 -3.12 38.45 <
7 5 -5 2441.22 2548.45 103.93 o
7 5 -4 80.36 28.89 47.18 <
7 5 -3 700.08 710.46 73.58 o
7 5 -2 281.19 202.24 81.27 <
7 5 -1 8.88 112.86 50.51 <
7 5 0 207.08 182.71 57.78 o
7 5 1 1177.80 1095.22 85.43 o
7 5 2 33.31 109.33 55.29 <
7 5 3 1791.48 1925.44 113.49 o
7 5 4 31.64 161.92 56.33 <
7 5 5 1506.09 1500.35 101.02 o
7 5 6 155.36 226.15 59.86 o
7 5 7 140.98 159.63 75.87 <
7 5 8 145.20 105.17 60.28 <
7 5 9 193.63 114.32 57.16 <
7 5 10 1.47 -42.61 56.12 <
7 5 11 768.73 541.26 111.83 o
7 5 12 5.55 19.95 60.90 <
7 5 13 733.27 661.40 83.97 o
7 5 14 29.26 50.51 89.59 <
7 5 15 648.21 592.18 84.18 o
7 5 16 45.41 -26.40 100.81 <
7 5 17 0.03 59.86 67.76 <
7 5 18 42.95 6.65 72.54 <
7 5 19 112.92 297.65 86.88 o
7 6 -17 241.87 426.93 95.82 o
7 6 -16 88.62 32.01 61.52 <
7 6 -15 9.88 -74.83 59.24 <
7 6 -14 31.09 77.53 55.50 <
7 6 -13 462.98 516.11 82.93 o
7 6 -12 46.64 -33.88 52.38 <
7 6 -11 1019.68 1171.29 77.95 o
7 6 -10 1.60 -32.63 68.18 <
7 6 -9 874.03 964.88 80.86 o
7 6 -8 14.96 -134.48 50.09 <
7 6 -7 105.45 154.85 79.19 <
7 6 -6 71.61 -16.84 62.56 <
7 6 -5 37.96 104.76 88.96 <
7 6 -4 58.68 -61.52 94.16 <
7 6 -3 835.91 965.92 88.96 o
7 6 -2 38.66 61.32 58.61 <
7 6 -1 955.04 1257.34 139.68 o
7 6 0 7.02 -96.44 63.19 <
7 6 1 628.28 738.93 128.87 o
7 6 2 65.05 65.06 57.99 <
7 6 3 47.30 -39.49 60.69 <
7 6 4 72.43 63.40 61.94 <
7 6 5 227.02 221.99 69.22 o
7 6 6 126.60 98.11 65.27 <
7 6 7 631.44 608.61 81.90 o
7 6 8 37.34 13.93 70.88 <
7 6 9 830.58 896.08 94.78 o
7 6 10 9.89 12.89 73.58 <
7 6 11 337.41 540.01 82.93 o
7 6 12 174.42 174.18 76.07 <
7 6 13 1.55 6.24 77.95 <
7 6 14 30.08 -8.31 79.19 <
7 6 15 291.15 332.78 121.60 <
7 7 -8 273.46 171.90 127.00 <
7 7 -7 61.85 40.53 80.02 <
7 7 -6 60.65 34.09 75.04 <
7 7 -5 76.45 23.07 72.75 <
7 7 -4 120.71 121.18 74.83 <
7 7 -3 65.51 -155.06 75.04 <
7 7 -2 318.73 233.84 117.44 <
7 7 -1 5.91 -149.86 115.15 <
7 7 0 269.20 122.84 71.29 <
7 7 1 8.68 78.57 108.92 <
7 7 2 73.39 -119.93 76.91 <
7 7 4 1.90 33.05 103.30 <
7 7 5 68.95 288.92 112.86 <
7 7 6 177.05 188.32 116.19 <
8 0 -26 7.33 -38.25 111.62 <
8 0 -24 1160.80 1171.08 155.90 o
8 0 -22 2223.09 2688.12 212.65 o
8 0 -20 925.99 928.09 121.60 o
8 0 -18 52.94 50.72 77.32 <
8 0 -16 804.23 795.06 105.18 o
8 0 -14 2504.30 2713.09 185.42 o
8 0 -12 340.47 249.84 49.68 o
8 0 -10 173.91 106.84 56.33 <
8 0 -8 967.68 900.03 98.11 o
8 0 -6 442.18 413.01 51.13 o
8 0 -4 16.78 -40.12 33.46 <
8 0 -2 1000.10 492.00 84.60 o
8 0 0 474.65 227.60 58.82 o
8 0 2 7.79 69.22 37.83 <
8 0 4 1642.82 1502.02 91.67 o
8 0 6 1262.03 1228.67 119.31 o
8 0 8 336.85 239.66 68.59 o
8 0 10 251.87 337.77 77.11 o
8 0 12 1914.11 2222.49 172.11 o
8 0 14 2286.62 2205.46 176.06 o
8 0 16 16.03 -50.72 69.84 <
8 0 18 62.67 230.72 97.69 <
8 0 20 993.97 1150.71 151.74 o
8 0 22 1051.10 1084.19 149.87 o
8 0 24 187.01 232.59 117.02 <
8 1 -26 22.40 151.32 89.17 <
8 1 -25 43.49 65.06 83.14 <
8 1 -24 91.37 145.71 75.24 <
8 1 -23 3.05 142.59 69.84 <
8 1 -22 521.92 637.70 82.52 o
8 1 -21 5.63 17.88 61.11 <
8 1 -20 500.42 399.29 68.18 o
8 1 -19 268.10 224.69 59.24 o
8 1 -18 23.10 -36.37 58.61 <
8 1 -17 491.76 509.46 65.68 o
8 1 -16 19.47 -15.17 49.88 <
8 1 -15 158.27 225.73 50.30 o
8 1 -14 2180.64 2212.94 115.16 o
8 1 -13 15.54 -122.43 47.60 <
8 1 -12 1864.92 1837.94 82.94 o
8 1 -11 822.29 876.12 69.63 o
8 1 -10 385.39 353.56 53.63 o
8 1 -9 1163.59 1053.44 59.24 o
8 1 -8 558.94 582.00 55.91 o
8 1 -7 547.08 541.26 85.43 o
8 1 -6 2158.34 2201.51 90.42 o
8 1 -5 11.25 58.82 53.00 <
8 1 -4 3190.50 3253.41 128.05 o
8 1 -3 905.12 844.12 54.87 o
8 1 -2 287.14 240.49 51.34 o
8 1 -1 1764.69 1764.56 79.61 o
8 1 0 551.30 534.61 46.56 o
8 1 1 539.42 564.96 47.39 o
8 1 2 2242.11 2472.58 98.53 o
8 1 3 0.53 -33.05 35.34 <
8 1 4 1986.19 2264.07 94.58 o
8 1 5 628.89 560.59 48.22 o
8 1 6 15.57 12.06 35.54 <
8 1 7 804.46 734.57 55.08 o
8 1 8 348.26 332.78 44.27 o
8 1 9 398.42 443.57 49.05 o
8 1 10 1082.61 1259.63 71.09 o
8 1 11 0.14 9.15 40.12 <
8 1 12 395.63 548.53 55.50 o
8 1 13 207.09 282.48 49.68 o
8 1 14 9.72 203.28 56.12 o
8 1 15 211.73 217.00 59.86 o
8 1 16 509.64 456.66 69.42 o
8 1 17 39.71 97.28 59.86 <
8 1 18 104.45 79.61 64.64 <
8 1 19 2.16 -41.78 64.02 <
8 1 20 30.72 -10.81 69.42 <
8 1 21 34.09 -7.69 67.55 <
8 1 22 19.95 14.76 72.54 <
8 1 23 13.53 -97.69 81.27 <
8 1 24 97.98 43.86 91.66 <
8 2 -25 638.38 825.19 104.76 o
8 2 -24 391.77 139.06 108.71 <
8 2 -23 5.83 -145.29 76.91 <
8 2 -22 731.44 808.98 91.87 o
8 2 -21 272.19 400.95 76.49 o
8 2 -20 849.42 1039.08 93.12 o
8 2 -19 1046.48 808.99 83.35 o
8 2 -18 97.89 21.20 53.83 <
8 2 -17 398.24 365.62 60.90 o
8 2 -16 195.57 108.08 52.17 <
8 2 -15 5.26 -46.77 47.81 <
8 2 -14 558.66 531.07 49.26 o
8 2 -13 644.34 599.88 50.93 o
8 2 -12 832.55 917.07 58.41 o
8 2 -11 1318.68 1218.27 66.31 o
8 2 -10 6.46 -18.08 33.05 <
8 2 -9 138.39 86.68 34.30 <
8 2 -8 0.11 -11.43 35.13 <
8 2 -7 262.09 261.27 58.82 o
8 2 -6 62.28 13.72 67.34 <
8 2 -5 811.72 672.42 71.50 o
8 2 -4 8.41 211.60 151.11 <
8 2 -3 609.45 635.21 74.83 o
8 2 -2 80.56 215.75 61.94 o
8 2 -1 11.27 44.69 60.49 <
8 2 0 154.04 106.21 75.66 <
8 2 1 1010.88 935.58 78.57 o
8 2 2 558.64 512.78 74.62 o
8 2 3 787.33 591.36 80.44 o
8 2 4 274.04 232.59 41.57 o
8 2 5 167.09 90.62 76.28 <
8 2 6 107.41 91.04 37.62 <
8 2 7 181.07 213.05 41.16 o
8 2 8 10.37 34.50 38.45 <
8 2 9 786.68 679.49 55.08 o
8 2 10 175.37 115.36 39.70 <
8 2 11 633.28 575.14 54.25 o
8 2 12 1116.18 1075.67 71.09 o
8 2 13 4.84 33.05 41.57 <
8 2 14 355.29 319.68 51.34 o
8 2 15 257.87 314.69 64.64 o
8 2 16 1.62 19.54 46.14 <
8 2 17 553.12 536.89 62.56 o
8 2 18 128.27 250.26 66.72 o
8 2 19 207.16 265.43 72.96 o
8 2 20 464.74 547.29 79.19 o
8 2 21 2.08 -85.64 73.37 <
8 2 22 273.28 331.11 88.75 o
8 2 23 106.76 99.35 83.14 <
8 3 -24 27.44 -7.48 114.53 <
8 3 -23 34.54 96.44 112.66 <
8 3 -22 16.24 -157.14 103.93 <
8 3 -21 91.37 148.82 99.56 <
8 3 -20 0.64 -75.87 93.33 <
8 3 -19 421.82 634.17 111.62 o
8 3 -18 0.08 -40.32 57.58 <
8 3 -17 1078.24 1022.88 87.51 o
8 3 -16 15.36 68.38 48.85 <
8 3 -15 513.52 543.96 65.68 o
8 3 -14 33.80 53.21 40.53 <
8 3 -13 34.58 78.15 39.28 <
8 3 -12 11.97 -47.81 37.62 <
8 3 -11 1611.85 1484.35 75.25 o
8 3 -10 14.66 -60.69 39.70 <
8 3 -9 3312.06 3230.33 120.36 o
8 3 -8 0.66 -37.21 37.21 <
8 3 -7 1115.57 1204.34 66.52 o
8 3 -6 18.10 44.27 33.26 <
8 3 -5 26.34 43.86 33.26 <
8 3 -4 38.81 68.80 35.75 <
8 3 -3 1613.81 1657.08 78.78 o
8 3 -2 26.70 56.12 53.21 <
8 3 -1 4230.71 4080.42 143.23 o
8 3 0 0.14 -48.64 38.04 <
8 3 1 1624.48 1566.87 76.08 o
8 3 2 4.93 -1.04 35.96 <
8 3 3 66.53 71.71 47.81 <
8 3 4 2.70 11.43 38.04 <
8 3 5 1097.79 1240.09 82.52 o
8 3 6 21.46 100.19 42.19 <
8 3 7 1746.08 1874.10 88.34 o
8 3 8 10.92 -6.86 42.82 <
8 3 9 884.86 959.48 64.85 o
8 3 10 2.78 -63.40 43.03 <
8 3 11 5.02 2.29 40.53 <
8 3 12 21.94 49.26 41.99 <
8 3 13 447.21 348.37 52.59 o
8 3 14 0.34 28.68 43.03 <
8 3 15 391.36 424.65 59.65 o
8 3 16 15.50 56.54 49.05 <
8 3 17 65.74 128.04 52.59 <
8 3 18 13.30 97.07 54.46 <
8 3 19 14.48 1.87 71.09 <
8 3 20 41.83 137.81 81.69 <
8 3 21 11.17 -14.76 109.75 <
8 4 -21 133.28 44.07 111.41 <
8 4 -20 152.63 40.95 100.39 <
8 4 -19 476.83 518.19 117.44 o
8 4 -18 169.04 273.95 104.34 <
8 4 -17 573.33 601.33 83.97 o
8 4 -16 471.44 516.73 79.61 o
8 4 -15 42.77 36.79 49.26 <
8 4 -14 17.30 -35.96 45.94 <
8 4 -13 293.17 315.32 67.14 o
8 4 -12 196.23 181.25 57.99 o
8 4 -11 599.35 548.53 71.92 o
8 4 -10 503.17 515.48 70.26 o
8 4 -9 129.69 130.53 55.91 <
8 4 -8 639.37 689.88 73.37 o
8 4 -7 10.38 -61.32 51.55 <
8 4 -6 177.86 148.41 54.46 <
8 4 -5 407.45 376.22 61.53 o
8 4 -4 103.65 134.07 54.67 <
8 4 -3 366.82 392.02 62.15 o
8 4 -2 736.35 728.75 102.68 o
8 4 -1 0.52 50.92 55.50 <
8 4 0 524.51 640.20 74.41 o
8 4 1 373.28 368.74 88.55 o
8 4 2 225.49 226.77 56.74 o
8 4 3 348.28 188.52 78.36 <
8 4 4 21.11 60.69 53.00 <
8 4 5 62.98 31.80 56.54 <
8 4 6 257.64 164.83 60.90 <
8 4 7 74.05 -38.04 56.54 <
8 4 8 373.10 393.47 67.55 o
8 4 9 386.79 443.57 71.92 o
8 4 10 78.51 44.07 65.89 <
8 4 11 322.56 255.46 89.17 <
8 4 12 0.05 67.55 68.18 <
8 4 13 0.87 -28.89 65.89 <
8 4 14 57.11 119.52 68.80 <
8 4 15 177.80 231.97 75.45 o
8 4 16 61.57 141.13 70.88 <
8 4 17 222.32 327.99 78.98 o
8 4 18 0.56 -49.47 75.66 <
8 4 19 74.73 -0.62 77.74 <
8 5 -17 26.19 24.73 87.71 <
8 5 -16 54.57 98.32 83.77 <
8 5 -15 99.82 41.16 79.40 <
8 5 -14 189.95 61.32 75.24 <
8 5 -13 25.95 83.97 75.66 <
8 5 -12 380.42 385.16 80.44 o
8 5 -11 282.19 214.51 71.09 o
8 5 -10 29.58 -86.68 65.47 <
8 5 -9 513.34 653.71 81.90 o
8 5 -8 139.39 46.14 62.56 <
8 5 -7 152.81 78.78 61.73 <
8 5 -6 742.77 698.82 78.36 o
8 5 -5 5.47 -72.75 61.94 <
8 5 -4 425.71 347.33 69.01 o
8 5 -3 363.18 343.79 97.90 o
8 5 -2 31.74 -3.95 87.92 <
8 5 -1 425.49 446.27 71.71 o
8 5 0 191.29 148.82 64.64 <
8 5 1 308.77 349.20 103.72 o
8 5 2 931.37 901.48 88.55 o
8 5 3 18.49 40.95 59.86 <
8 5 4 376.43 262.94 93.95 <
8 5 5 187.14 155.89 62.98 <
8 5 6 27.39 -96.65 91.66 <
8 5 7 93.56 147.99 64.85 <
8 5 8 236.97 241.74 106.42 <
8 5 9 115.02 25.98 68.80 <
8 5 10 422.07 663.48 133.24 o
8 5 11 20.49 -21.82 76.91 <
8 5 12 325.84 408.85 84.39 o
8 5 13 4.46 76.91 107.67 <
8 5 14 6.39 -68.80 77.74 <
8 5 15 16.97 -136.77 80.23 <
8 6 -11 1.03 -90.00 81.89 <
8 6 -10 99.32 186.65 82.10 <
8 6 -9 11.89 8.94 77.74 <
8 6 -8 261.07 485.97 114.32 o
8 6 -7 78.77 -78.98 71.92 <
8 6 -6 162.89 -34.09 74.83 <
8 6 -5 56.08 58.61 70.05 <
8 6 -4 1.40 33.05 72.33 <
8 6 -3 3.70 91.87 73.58 <
8 6 -2 153.74 219.70 76.91 <
8 6 -1 0.04 36.58 71.71 <
8 6 0 190.46 203.91 71.09 <
8 6 1 7.09 163.79 107.46 <
8 6 2 31.23 140.93 73.37 <
8 6 3 11.53 -35.34 69.63 <
8 6 4 56.06 145.71 100.60 <
8 6 5 40.37 -87.92 72.33 <
8 6 6 129.43 100.19 71.09 <
8 6 7 5.23 0.83 114.74 <
8 6 8 29.56 33.46 76.07 <
9 0 -22 794.91 924.34 143.21 o
9 0 -20 183.16 302.01 109.54 <
9 0 -18 53.79 16.63 84.80 <
9 0 -14 1964.91 1895.93 154.44 o
9 0 -12 1190.97 1209.54 121.81 o
9 0 -10 8.26 55.91 65.47 <
9 0 -8 1741.16 1496.62 130.54 o
9 0 -6 4824.64 4305.82 260.68 o
9 0 -2 151.58 148.20 74.00 <
9 0 0 1098.87 300.77 178.34 <
9 0 2 3456.22 3752.31 240.92 o
9 0 4 1932.55 2086.13 161.72 o
9 0 6 709.35 708.17 102.89 o
9 0 8 291.11 326.12 92.70 o
9 0 10 1056.52 992.11 127.21 o
9 0 12 1309.38 1418.44 143.42 o
9 0 14 372.83 406.15 104.55 o
9 0 16 179.93 -161.92 98.94 <
9 0 18 337.45 489.92 126.38 o
9 0 20 254.39 395.13 133.03 <
9 1 -23 42.03 -51.34 83.35 <
9 1 -22 166.18 160.26 76.49 <
9 1 -21 1.41 4.78 69.84 <
9 1 -20 229.04 143.21 69.84 <
9 1 -19 2.65 42.19 65.47 <
9 1 -18 121.49 84.80 61.94 <
9 1 -17 140.34 86.88 48.64 <
9 1 -16 2.16 23.07 51.13 <
9 1 -15 0.34 19.75 49.26 <
9 1 -14 58.21 46.98 46.35 <
9 1 -13 30.86 -32.63 49.88 <
9 1 -12 162.82 138.85 50.09 <
9 1 -11 1.72 -32.84 46.97 <
9 1 -10 213.41 235.29 52.17 o
9 1 -9 15.52 -68.80 45.94 <
9 1 -8 18.80 16.84 44.27 <
9 1 -7 28.18 89.59 46.97 <
9 1 -6 1.00 -46.14 44.48 <
9 1 -5 3.64 35.54 65.89 <
9 1 -4 39.99 64.85 45.52 <
9 1 -3 83.99 -3.74 38.87 <
9 1 -2 101.54 79.40 36.79 <
9 1 -1 15.65 -5.82 46.14 <
9 1 0 458.02 339.64 57.58 o
9 1 1 2.37 -23.07 44.06 <
9 1 2 86.79 77.11 40.32 <
9 1 3 35.95 -8.11 40.74 <
9 1 4 1.46 -25.15 39.08 <
9 1 5 141.07 156.72 46.14 o
9 1 6 83.14 42.61 43.03 <
9 1 7 66.09 15.17 45.31 <
9 1 8 562.64 419.45 54.46 o
9 1 9 11.68 52.38 44.69 <
9 1 10 635.80 483.06 58.41 o
9 1 11 38.96 23.90 57.78 <
9 1 12 25.27 77.74 59.86 <
9 1 13 131.79 15.17 61.53 <
9 1 14 176.48 74.83 87.71 <
9 1 15 82.40 10.60 64.43 <
9 1 16 251.43 235.71 107.88 <
9 1 17 10.85 -122.63 70.25 <
9 1 18 668.22 385.58 85.43 o
9 1 19 4.16 29.93 74.41 <
9 1 20 101.26 135.10 92.08 <
9 2 -21 297.25 360.01 87.51 o
9 2 -20 61.80 51.96 76.28 <
9 2 -19 877.72 935.78 76.49 o
9 2 -18 117.83 155.48 53.42 <
9 2 -17 623.79 533.15 98.32 o
9 2 -16 812.20 761.18 76.70 o
9 2 -15 103.90 81.06 55.71 <
9 2 -14 693.09 736.65 101.43 o
9 2 -13 341.81 305.76 61.11 o
9 2 -12 482.46 353.98 59.86 o
9 2 -11 1107.61 773.03 109.54 o
9 2 -10 20.53 77.32 49.47 <
9 2 -9 1369.77 1363.36 90.42 o
9 2 -8 715.73 719.19 71.30 o
9 2 -7 351.90 243.19 52.59 o
9 2 -6 1596.12 1451.92 83.35 o
9 2 -5 150.90 138.85 44.27 o
9 2 -4 910.69 881.74 85.01 o
9 2 -3 1516.20 1550.86 96.03 o
9 2 -2 59.48 4.16 46.56 <
9 2 -1 1089.63 976.94 65.27 o
9 2 0 390.82 453.13 63.60 o
9 2 1 583.38 428.18 51.76 o
9 2 2 1192.38 1036.81 67.97 o
9 2 3 11.24 -73.16 59.24 <
9 2 4 1133.81 1059.88 68.18 o
9 2 5 668.43 412.39 64.23 o
9 2 6 211.83 175.85 47.18 o
9 2 7 1040.19 961.14 66.93 o
9 2 8 33.08 112.03 46.97 <
9 2 9 325.31 365.83 55.71 o
9 2 10 373.69 498.65 69.22 o
9 2 11 28.83 24.11 49.05 <
9 2 12 627.37 516.32 72.54 o
9 2 13 97.92 144.04 69.42 <
9 2 14 294.52 277.07 94.37 <
9 2 15 302.63 167.32 59.45 <
9 2 16 36.58 76.07 68.18 <
9 2 17 334.88 518.18 80.23 o
9 2 18 15.72 -43.44 72.75 <
9 2 19 87.18 -8.73 81.69 <
9 3 -19 75.21 -82.52 101.02 <
9 3 -18 216.85 269.38 98.94 <
9 3 -17 201.44 7.27 89.79 <
9 3 -16 0.66 8.94 83.77 <
9 3 -14 81.76 -112.24 89.59 <
9 3 -13 61.50 6.65 82.52 <
9 3 -12 155.74 223.86 96.65 <
9 3 -11 10.22 33.05 85.84 <
9 3 -10 440.24 628.56 108.29 o
9 3 -9 91.69 146.12 59.65 <
9 3 -8 40.17 104.14 59.65 <
9 3 -7 149.32 64.23 59.45 <
9 3 -6 22.73 13.72 52.79 <
9 3 -5 207.14 48.43 55.71 <
9 3 -4 219.90 264.81 85.43 o
9 3 -3 143.60 93.33 57.37 <
9 3 -2 160.37 129.08 57.37 <
9 3 -1 78.69 65.68 56.33 <
9 3 0 530.21 491.17 69.84 o
9 3 1 123.88 184.57 83.77 <
9 3 2 4.04 54.46 57.78 <
9 3 3 193.59 62.98 85.64 <
9 3 4 28.17 -16.00 80.02 <
9 3 5 491.51 393.47 72.54 o
9 3 6 273.96 141.13 94.57 <
9 3 7 283.50 184.16 63.81 <
9 3 8 256.33 294.95 68.38 o
9 3 9 0.15 0.83 62.98 <
9 3 10 226.15 187.49 69.63 <
9 3 11 277.65 39.70 87.51 <
9 3 12 9.95 -14.55 65.06 <
9 3 13 390.91 378.30 120.35 o
9 3 14 73.17 -45.52 96.65 <
9 3 15 336.94 123.26 76.49 <
9 3 16 229.72 149.45 86.26 <
9 3 17 17.00 -65.27 84.39 <
9 4 -16 0.37 -109.54 99.15 <
9 4 -15 24.41 145.29 106.01 <
9 4 -12 27.79 95.20 92.91 <
9 4 -11 694.21 443.98 82.52 o
9 4 -10 0.37 33.05 68.18 <
9 4 -9 633.47 593.43 86.47 o
9 4 -8 0.96 169.82 74.00 <
9 4 -7 306.36 244.23 69.22 o
9 4 -6 0.15 101.85 63.60 <
9 4 -5 103.89 128.25 61.52 <
9 4 -4 6.83 27.23 63.40 <
9 4 -3 705.71 562.67 74.83 o
9 4 -2 0.24 40.95 98.31 <
9 4 -1 925.23 744.13 118.89 o
9 4 0 27.42 16.42 82.10 <
9 4 1 187.33 155.48 65.47 <
9 4 2 21.41 65.89 61.52 <
9 4 3 1.95 -93.53 97.07 <
9 4 4 2.08 5.61 62.98 <
9 4 5 359.18 330.28 73.58 o
9 4 6 19.85 -15.59 123.05 <
9 4 7 725.73 737.69 90.00 o
9 4 8 1.50 88.55 69.63 <
9 4 9 234.58 146.12 104.55 <
9 4 10 2.00 -12.47 81.69 <
9 4 11 2.86 116.19 76.49 <
9 4 12 19.82 295.78 109.33 <
9 4 13 54.10 6.86 76.70 <
9 5 -10 7.75 7.07 82.93 <
9 5 -9 190.89 245.68 83.97 <
9 5 -8 0.12 -57.99 79.61 <
9 5 -7 259.12 244.44 128.04 <
9 5 -6 42.42 122.63 77.11 <
9 5 -5 320.00 512.78 116.82 o
9 5 -4 38.69 177.09 78.57 <
9 5 -3 184.77 207.65 75.24 <
9 5 -2 27.62 78.98 74.20 <
9 5 -1 7.74 -4.99 70.88 <
9 5 0 2.83 -4.78 72.54 <
9 5 1 157.74 -55.91 111.83 <
9 5 3 420.02 432.76 86.26 o
9 5 4 44.71 99.35 79.61 <
9 5 5 268.21 205.36 116.19 <
9 5 6 22.55 33.05 121.39 <
9 5 7 93.08 63.19 78.36 <
9 5 8 1.74 -13.09 82.52 <
10 0 -18 1286.59 990.87 135.32 o
10 0 -12 1113.17 912.50 122.85 o
10 0 -10 3270.76 3659.98 244.04 o
10 0 -8 2031.82 2004.23 169.82 o
10 0 -6 104.15 175.22 93.33 <
10 0 -4 999.89 998.76 122.22 o
10 0 -2 3347.11 3576.64 238.22 o
10 0 0 3029.92 3555.61 238.22 o
10 0 4 576.41 589.27 107.67 o
10 0 6 1603.05 1769.53 162.55 o
10 0 8 1541.47 1820.25 171.28 o
10 0 10 384.03 436.91 108.92 o
10 0 12 74.27 64.43 101.43 <
10 1 -17 77.27 109.75 68.18 <
10 1 -16 622.64 630.64 110.58 o
10 1 -15 80.69 132.40 86.68 <
10 1 -14 7.29 146.33 78.78 <
10 1 -13 90.00 36.37 58.41 <
10 1 -12 151.80 231.55 61.94 o
10 1 -11 34.63 -8.94 62.98 <
10 1 -10 314.21 325.50 65.27 o
10 1 -9 63.60 -16.63 58.20 <
10 1 -8 55.43 120.97 56.95 <
10 1 -7 69.75 58.82 52.38 <
10 1 -6 0.20 45.52 53.83 <
10 1 -5 0.13 44.06 53.21 <
10 1 -4 93.62 26.61 79.82 <
10 1 -3 27.66 87.92 56.33 <
10 1 -2 0.16 -21.20 57.58 <
10 1 -1 203.68 297.44 94.37 o
10 1 0 52.52 114.11 55.91 <
10 1 1 1.02 10.39 75.04 <
10 1 2 72.37 123.88 85.84 <
10 1 3 7.54 9.77 48.64 <
10 1 4 2.27 -164.41 98.94 <
10 1 5 151.69 102.89 55.08 <
10 1 6 207.27 244.85 77.53 o
10 1 7 38.30 -5.82 78.57 <
10 1 8 263.14 402.20 115.78 o
10 1 9 1.12 -68.80 63.81 <
10 1 10 167.75 248.80 107.67 <
10 1 11 89.69 -53.00 68.59 <
10 1 12 10.81 -18.71 97.48 <
10 1 13 82.64 85.64 71.50 <
10 1 14 202.43 227.60 78.98 <
10 2 -15 374.72 187.69 109.75 <
10 2 -14 2.06 127.00 93.33 <
10 2 -13 907.49 744.13 110.17 o
10 2 -12 226.75 226.15 63.40 o
10 2 -11 343.73 377.26 67.97 o
10 2 -10 1002.35 900.03 85.85 o
10 2 -9 84.75 18.50 60.90 <
10 2 -8 519.18 586.16 73.79 o
10 2 -7 975.66 872.59 81.27 o
10 2 -6 32.14 -76.07 58.61 <
10 2 -5 1154.26 1149.05 93.12 o
10 2 -4 306.38 397.00 70.67 o
10 2 -3 505.90 561.21 112.66 o
10 2 -2 600.97 599.46 114.53 o
10 2 -1 41.30 28.68 60.07 <
10 2 0 1216.68 308.67 199.34 <
10 2 1 1005.68 754.11 80.86 o
10 2 2 31.81 60.49 106.21 <
10 2 3 933.27 986.08 89.79 o
10 2 4 85.20 8.52 62.36 <
10 2 5 348.75 102.47 70.67 <
10 2 6 345.07 558.09 81.06 o
10 2 7 31.31 65.47 59.03 <
10 2 8 390.64 410.10 65.27 o
10 2 9 411.79 -147.79 125.34 <
10 2 10 190.46 52.38 73.79 <
10 2 11 485.36 455.83 71.29 o
10 2 12 17.47 -111.41 90.21 <
10 2 13 89.48 90.42 74.62 <
10 3 -12 14.17 79.19 96.86 <
10 3 -11 17.62 -80.44 100.39 <
10 3 -10 6.49 132.61 100.39 <
10 3 -9 111.40 178.76 97.07 <
10 3 -8 62.09 74.41 89.17 <
10 3 -7 79.00 66.93 88.34 <
10 3 -6 117.61 233.84 102.89 <
10 3 -5 27.68 42.40 94.78 <
10 3 -4 28.29 136.14 90.83 <
10 3 -3 15.76 -26.61 66.31 <
10 3 -2 1.10 -46.14 71.09 <
10 3 -1 71.15 -47.81 74.20 <
10 3 0 0.35 48.64 70.67 <
10 3 1 5.70 78.15 120.97 <
10 3 2 72.10 -150.07 119.93 <
10 3 3 184.35 101.43 69.22 <
10 3 4 39.18 47.18 74.20 <
10 3 5 164.15 110.58 72.54 <
10 3 6 27.09 59.86 76.49 <
10 3 7 21.18 71.92 121.60 <
10 3 8 0.44 186.24 83.56 <
10 3 9 31.71 17.46 77.74 <
10 3 10 3.97 -13.09 82.31 <
10 4 -6 7.77 -46.14 102.89 <
10 4 -5 1052.28 906.89 108.09 o
10 4 -4 40.66 -18.91 80.44 <
10 4 -3 381.92 330.28 87.09 o
10 4 -2 62.89 68.18 79.61 <
10 4 -1 20.13 -64.64 125.96 <
10 4 0 24.30 23.70 123.88 <
10 4 1 669.48 517.77 144.25 o
10 4 2 0.29 115.98 130.32 <
10 4 3 768.88 805.03 105.59 o
11 0 -8 10.75 -1.25 91.25 <
11 0 -6 2.59 60.69 96.03 <
11 0 -4 48.34 -9.98 91.46 <
11 0 2 14.02 -276.65 107.25 <
11 0 4 162.63 127.83 105.17 <
11 1 -7 87.68 1.25 65.47 <
11 1 -6 5.80 80.23 67.34 <
11 1 -5 131.77 35.75 69.63 <
11 1 -4 220.81 80.23 93.53 <
11 1 -3 1.09 -17.25 69.01 <
11 1 -2 445.90 478.07 121.60 o
11 1 -1 11.57 55.29 106.21 <
11 1 0 27.45 87.09 101.85 <
11 1 1 60.87 41.78 102.06 <
11 1 2 0.40 81.48 74.41 <
11 1 3 92.93 92.91 74.00 <
