#------------------------------------------------------------------------------
#$Date: 2016-03-24 00:12:42 +0200 (Thu, 24 Mar 2016) $
#$Revision: 179527 $
#$URL: svn://www.crystallography.net/cod/cif/4/34/24/4342467.cif $
#------------------------------------------------------------------------------
#
# This file is available in the Crystallography Open Database (COD),
# http://www.crystallography.net/
#
# All data on this site have been placed in the public domain by the
# contributors.
#
data_4342467
loop_
_publ_author_name
'Mesbah, Adel'
'Prakash, Jai'
'Beard, Jessica C.'
'Pozzi, Eric A.'
'Tarasenko, Mariya S.'
'Leb\`egue, S\'ebastien'
'Malliakas, Christos D.'
'Van Duyne, Richard P.'
'Ibers, James A.'
_publ_section_title
;
 Positional Flexibility: Syntheses and Characterization of Six Uranium
 Chalcogenides Related to the 2H Hexagonal Perovskite Family.
;
_journal_issue                   6
_journal_name_full               'Inorganic chemistry'
_journal_page_first              2851
_journal_page_last               2857
_journal_paper_doi               10.1021/ic5029806
_journal_volume                  54
_journal_year                    2015
_chemical_formula_sum            'Ba3 Mn S6 U'
_chemical_formula_weight         897.35
_space_group_crystal_system      trigonal
_space_group_IT_number           167
_space_group_name_Hall           '-R 3 2"c'
_space_group_name_H-M_alt        'R -3 c :H'
_symmetry_space_group_name_Hall  '-R 3 2"c'
_symmetry_space_group_name_H-M   'R -3 c :H'
_audit_creation_method           SHELXL-2014/6
_cell_angle_alpha                90
_cell_angle_beta                 90
_cell_angle_gamma                120
_cell_formula_units_Z            6
_cell_length_a                   12.0220(5)
_cell_length_b                   12.0220(5)
_cell_length_c                   13.6410(6)
_cell_measurement_reflns_used    3903
_cell_measurement_temperature    100(2)
_cell_measurement_theta_max      60.178
_cell_measurement_theta_min      7.142
_cell_volume                     1707.38(13)
_computing_structure_refinement  'SHELXL-2014/6 (Sheldrick, 2014)'
_diffrn_ambient_temperature      100(2)
_diffrn_measured_fraction_theta_full 0.997
_diffrn_measured_fraction_theta_max 0.998
_diffrn_radiation_type           MoK\a
_diffrn_radiation_wavelength     0.71073
_diffrn_reflns_av_R_equivalents  0.0240
_diffrn_reflns_av_unetI/netI     0.0098
_diffrn_reflns_Laue_measured_fraction_full 0.997
_diffrn_reflns_Laue_measured_fraction_max 0.998
_diffrn_reflns_limit_h_max       16
_diffrn_reflns_limit_h_min       -16
_diffrn_reflns_limit_k_max       16
_diffrn_reflns_limit_k_min       -15
_diffrn_reflns_limit_l_max       19
_diffrn_reflns_limit_l_min       -19
_diffrn_reflns_number            7336
_diffrn_reflns_point_group_measured_fraction_full 0.997
_diffrn_reflns_point_group_measured_fraction_max 0.998
_diffrn_reflns_theta_full        25.242
_diffrn_reflns_theta_max         30.089
_diffrn_reflns_theta_min         3.571
_exptl_absorpt_coefficient_mu    26.519
_exptl_absorpt_correction_T_max  0.59607
_exptl_absorpt_correction_T_min  0.37814
_exptl_absorpt_correction_type   numerical
_exptl_absorpt_process_details   'face indexed (SADABS; Sheldrick, 2008)'
_exptl_crystal_colour            black
_exptl_crystal_density_diffrn    5.236
_exptl_crystal_description       block
_exptl_crystal_F_000             2286
_exptl_crystal_size_max          0.056
_exptl_crystal_size_mid          0.045
_exptl_crystal_size_min          0.038
_refine_diff_density_max         0.710
_refine_diff_density_min         -0.685
_refine_diff_density_rms         0.140
_refine_ls_extinction_coef       0.000063(10)
_refine_ls_extinction_expression Fc^*^=kFc[1+0.001xFc^2^\l^3^/sin(2\q)]^-1/4^
_refine_ls_extinction_method     SHELXL
_refine_ls_goodness_of_fit_ref   1.587
_refine_ls_hydrogen_treatment    undef
_refine_ls_matrix_type           full
_refine_ls_number_parameters     20
_refine_ls_number_reflns         562
_refine_ls_number_restraints     0
_refine_ls_restrained_S_all      1.587
_refine_ls_R_factor_all          0.0124
_refine_ls_R_factor_gt           0.0110
_refine_ls_shift/su_max          0.001
_refine_ls_shift/su_mean         0.000
_refine_ls_structure_factor_coef Fsqd
_refine_ls_weighting_details
'w=1/[\s^2^(Fo^2^)+(0.0065P)^2^] where P=(1.0000Fo^2^+0.0000Fc^2^)'
_refine_ls_weighting_scheme      calc
_refine_ls_wR_factor_gt          0.0228
_refine_ls_wR_factor_ref         0.0230
_reflns_Friedel_coverage         0.000
_reflns_number_gt                540
_reflns_number_total             562
_reflns_threshold_expression     'I > 2\s(I)'
_cod_data_source_file            ic5029806_si_001.cif
_cod_data_source_block           Ba3MnUS6
_cod_depositor_comments
'Adding full bibliography for 4342464--4342469.cif.'
_cod_original_cell_volume        1707.38(16)
_cod_database_code               4342467
#BEGIN Tags that were not found in dictionaries:
_shelx_space_group_comment
;
The symmetry employed for this shelxl refinement is uniquely defined
by the following loop, which should always be used as a source of
symmetry information in preference to the above space-group names.
They are only intended as comments.
;
_shelx_estimated_absorpt_t_min   0.318
_shelx_estimated_absorpt_t_max   0.432
_shelxl_version_number           2014/6
_shelx_res_file
;
TITL h in R-3c
CELL 0.71073  12.0220  12.0220  13.6410  90.000  90.000 120.000
ZERR    6.00   0.0005   0.0005   0.0006   0.000   0.000   0.000
LATT  3
SYMM -Y, X-Y, Z
SYMM -X+Y, -X, Z
SYMM Y, X, 0.5-Z
SYMM X-Y, -Y, 0.5-Z
SYMM -X, -X+Y, 0.5-Z
SFAC S MN BA U
UNIT 36 6 18 6
TEMP -173.160
SIZE 0.038 0.045 0.056
acta
L.S. 4
BOND
FMAP 2
PLAN 20

WGHT    0.006500    0.000000    0.000000    0.000000    0.000000    1.000000
EXTI    0.000063
FVAR       0.09039
U1    4    0.000000    0.000000    0.250000    10.16667    0.00585    0.00585 =
         0.00592    0.00000    0.00000    0.00293
MN1   2    0.000000    0.000000    0.000000    10.16667    0.00553    0.00553 =
         0.00478    0.00000    0.00000    0.00276
BA1   3    0.047640    0.333333    0.083333    10.50000    0.00595    0.00630 =
         0.00683   -0.00041   -0.00020    0.00315
S1    1    0.181932    0.155619    0.118274    11.00000    0.00641    0.00726 =
         0.00790   -0.00030    0.00001    0.00282
HKLF 4

REM  h in R-3c
REM R1 =  0.0110 for     540 Fo > 4sig(Fo)  and  0.0124 for all     562 data
REM     20 parameters refined using      0 restraints

END

WGHT      0.0065     11.3164

REM Highest difference peak  0.710,  deepest hole -0.685,  1-sigma level  0.140
Q1    1   0.0432  0.3298  0.0316  11.00000  0.05    0.71
Q2    1   0.0000  0.0000  0.1907  10.33333  0.05    0.68
Q3    1   0.2857  0.2902  0.0962  11.00000  0.05    0.49
Q4    1   0.1019  0.0449  0.1777  11.00000  0.05    0.44
Q5    1   0.0830  0.4081  0.0166  11.00000  0.05    0.43
Q6    1  -0.0414  0.2302  0.0881  11.00000  0.05    0.41
Q7    1   0.0000  0.0000  0.1496  10.33333  0.05    0.39
Q8    1   0.1664  0.1220  0.1774  11.00000  0.05    0.39
Q9    1   0.2205  0.3333  0.0833  10.50000  0.05    0.39
Q10   1   0.2055  0.2176  0.0641  11.00000  0.05    0.39
Q11   1  -0.0995  0.2865  0.0707  11.00000  0.05    0.38
Q12   1  -0.0467  0.2735 -0.0340  11.00000  0.05    0.38
Q13   1   0.0000  0.0000  0.0852  10.33333  0.05    0.37
Q14   1  -0.0440  0.3333  0.0833  10.50000  0.05    0.36
Q15   1  -0.0374  0.2685  0.1352  11.00000  0.05    0.36
Q16   1   0.1828  0.1730  0.0401  11.00000  0.05    0.36
Q17   1   0.0461 -0.0958  0.0030  11.00000  0.05    0.36
Q18   1   0.2773  0.2480  0.1475  11.00000  0.05    0.35
Q19   1   0.0000  0.2419  0.2500  10.50000  0.05    0.35
Q20   1   0.2621  0.1970  0.0690  11.00000  0.05    0.35
;
_shelx_res_checksum              20951
_shelx_hkl_file
;
  -3   0   0 8769.58  125.51   6
   0  -3   0 8610.91  134.28   5
   3   0   0 8644.03  121.20   3
  -3   3   0 8775.76  126.01   6
  -4   2   0 124.809   9.210   6
  -2   4   0 113.686   6.636   6
  -2  -2   0 111.608   4.405   4
   4  -2   0 108.612   7.082   3
  -2   4   0 113.336   7.267   1
  -5   4   0 906.779  22.478   6
  -5   1   0 935.409  22.345   6
  -5   4   0 906.984  21.964   1
  -1  -4   0 924.100  17.429   5
   5  -1   0 919.775  20.139   1
  -1   5   0 933.854  19.348   1
  -1   5   0 929.987  16.839   6
  -4   5   0 925.450  21.711   1
   5  -1   0 919.916  19.876   3
  -4   5   0 914.127  21.067   6
  -6   3   0 3601.85   61.21   6
   3   3   0 3506.94   58.70   7
   3   3   0 3608.74   58.60   5
   6  -3   0 3503.39   56.95   3
   6  -3   0 3634.25   60.40   7
  -3  -3   0 3537.14   54.70   6
  -3   6   0 3526.21   59.02   1
  -3   6   0 3585.49   56.11   6
  -3  -3   0 3614.57   48.87   4
   6  -6   0 5349.29   88.30   7
   0  -6   0 5212.10   86.33   5
   0   6   0 5360.89   77.61   6
   6   0   0 5447.78   83.87   1
  -6   0   0 5360.94   85.75   6
  -6   6   0 5376.58   88.16   1
   6   0   0 5388.04   82.19   3
   0   6   0 5435.30   82.87   1
  -6   6   0 5441.70   86.87   6
   0   6   0 5415.45   86.20   7
   6   0   0 5401.80   86.52   7
   5  -7   0 2709.05   50.64   7
   5   2   0 2645.92   48.26   7
   2   5   0 2753.15   44.60   1
   2   5   0 2686.38   47.88   7
  -7   2   0 2698.09   50.83   6
  -7   5   0 2724.67   51.53   6
   5   2   0 2789.63   45.16   1
  -2   7   0 2711.48   47.48   1
  -5  -2   0 2786.82   47.00   2
   7  -2   0 2698.89   48.47   1
  -2   7   0 2729.38   49.01   7
   7  -2   0 2696.15   49.21   7
  -5  -2   0 2667.62   46.68   6
   7  -5   0 2762.09   50.72   7
   7  -2   0 2739.91   47.48   3
  -2   7   0 2749.54   43.48   6
  -5   7   0 2721.45   50.24   1
  -5   7   0 2751.29   48.42   6
   4   4   0 95.8182  6.9944   1
   4   4   0 113.594   9.181   7
  -8   4   0 78.8971 10.6062   6
  -4   8   0 105.657   9.335   7
  -4  -4   0 103.282   7.962   6
  -4   8   0 94.9114  8.1596   6
  -4   8   0 89.7163  9.3773   1
  -4  -4   0 95.0859  5.3296   4
   8  -4   0 85.3489  9.5840   7
   8  -4   0 81.1638  8.8664   3
   7   1   0 914.667  23.012   3
   7  -8   0 908.186  25.637   7
   7   1   0 918.354  21.536   1
   1   7   0 916.565  23.468   7
  -8   1   0 914.566  26.022   6
  -8   7   0 910.480  26.481   6
   7   1   0 853.270  23.303   7
   1   7   0 918.681  20.964   1
  -7   8   0 953.157  25.547   6
  -7   8   0 885.441  25.960   1
   8  -7   0 923.817  25.974   7
  -7  -1   0 886.190  23.358   2
  -7  -1   0 900.510  24.252   6
  -7   8   0 920.116  24.449   7
   8  -1   0 920.307  23.233   1
   8  -1   0 910.958  23.344   3
  -1   8   0 868.908  21.845   1
  -1   8   0 922.683  24.058   7
   8  -1   0 872.713  24.048   7
   3   6   0 382.531  15.222   7
   6   3   0 371.035  15.414   7
  -9   6   0 387.579  18.398   6
  -9   3   0 414.474  18.784   6
   6  -9   0 404.240  17.370   7
  -6   9   0 394.169  15.559   6
   9  -6   0 369.625  16.795   7
  -3   9   0 380.295  15.659   7
  -6   9   0 403.815  16.085   7
  -3   9   0 363.397  15.067   1
  -6   9   0 391.736  16.921   1
   9  -3   0 374.234  15.938   1
   9  -3   0 393.801  15.834   3
   9  -3   0 366.412  16.428   7
   9   0   0 82.8470  9.4758   1
   9  -9   0 70.5311 11.1587   7
   9   0   0 94.2252 11.0223   7
   9   0   0 78.8708 10.0236   3
  -9   0   0 76.2938 11.3693   6
   0   9   0 80.7358  9.7269   7
  -9   9   0 61.4228 11.0604   6
   5   5   0 4213.82   74.05   7
 -10   5   0 4262.64   77.86   6
  -5  10   0 4221.56   74.90   1
  -5  10   0 4122.82   74.61   7
  10  -5   0 4171.41   72.43   3
  10  -5   0 4195.42   76.16   7
  -5  10   0 4297.64   69.72   6
   8   2   0 2257.10   45.22   3
 -10   2   0 2233.05   49.04   6
 -10   8   0 2335.17   50.97   6
   2   8   0 2212.54   46.40   7
   8 -10   0 2222.50   49.26   7
   8   2   0 2293.44   47.14   7
  -2  10   0 2311.93   47.85   7
  -8  10   0 2297.48   49.83   1
  10  -8   0 2282.04   49.43   7
  10  -2   0 2338.08   48.27   7
  -8  10   0 2275.86   47.27   6
  10  -2   0 2334.10   46.71   1
  10  -2   0 2265.49   46.21   3
  -2  10   0 2293.18   45.50   1
 -11   4   0 364.231  20.455   6
   4   7   0 349.773  16.734   7
   7   4   0 329.471  16.804   7
 -11   7   0 333.401  20.181   6
  11  -7   0 325.722  18.441   7
  -4  11   0 358.357  17.390   1
  -7  11   0 319.687  18.408   1
  -7  11   0 339.994  16.455   6
  11  -4   0 341.019  17.880   7
  -4  11   0 357.259  17.348   7
  11  -4   0 328.275  16.973   3
  11  -4   0 315.806  17.206   1
 -11  10   0 857.630  30.177   6
 -11   1   0 857.981  28.966   6
   1  10   0 875.435  26.941   7
  10   1   0 834.665  26.333   3
 -11   1   0 843.031  28.209   2
  10   1   0 819.561  27.031   7
  11  -1   0 809.313  26.332   3
  11 -10   0 882.888  29.598   7
  11  -1   0 905.100  28.728   7
 -10  11   0 837.393  28.539   6
  -1  11   0 821.234  27.448   7
   6   6   0 279.033  16.218   7
 -12   6   0 273.722  19.636   6
  12  -6   0 285.667  17.175   3
  12  -6   0 259.423  17.641   1
  -6  12   0 287.088  17.350   1
  12  -6   0 274.257  17.651   7
 -12   9   0 223.599  19.053   6
   3   9   0 244.519  16.400   7
 -12   3   0 238.955  18.941   6
   9   3   0 250.141  16.571   7
   9   3   0 287.891  15.982   3
  -9  12   0 245.734  18.293   1
  12  -3   0 245.820  16.099   3
  -9  12   0 222.139  16.281   6
  12  -9   0 263.649  18.396   7
  12  -3   0 233.996  16.535   1
  12  -3   0 244.177  17.202   7
  -3  12   0 241.402  16.464   7
   0  12   0 347.804  20.086   7
  12   0   0 337.710  18.987   3
 -12  12   0 341.214  21.673   6
  12   0   0 334.204  20.118   7
   5   8   0 3994.35   75.58   7
   8   5   0 3956.84   75.67   7
 -13   5   0 3914.78   79.49   6
 -13   8   0 3849.41   79.32   6
  13  -8   0 3937.50   78.19   7
  -8  13   0 3909.96   77.77   1
  13  -5   0 4095.94   76.46   1
  -5  13   0 4049.50   76.13   1
  13  -5   0 3932.48   74.19   3
  -5  13   0 3917.52   76.73   7
  13  -5   0 4009.99   77.47   7
 -13  11   0 1959.14   52.12   6
 -13   2   0 2179.64   51.27   6
   2  11   0 2132.75   49.21   7
  11   2   0 2039.15   49.14   7
 -13   2   0 2106.56   51.53   2
  11   2   0 2076.38   47.64   3
  13  -2   0 2053.50   50.51   7
 -11  13   0 2027.35   49.65   6
  -2  13   0 2102.16   50.41   7
  13  -2   0 2052.78   48.19   3
  13 -11   0 2084.52   51.77   7
   7   7   0 13.1042  9.3580   7
 -14   7   0 11.3823 11.9832   6
  -7  14   0 -4.3799  9.9087   1
  14  -7   0 3.93612 9.53339   3
  14  -7   0 -2.7528  9.9506   7
  14  -7   0 29.3962 11.5012   1
   4  10   0 68.3800 12.4586   7
  10   4   0 63.4079 11.8456   7
  10   4   0 76.6838 12.2615   3
 -14   4   0 48.3008 14.5944   6
 -14  10   0 57.4033 14.3092   6
  14 -10   0 61.8587 13.3489   7
  14  -4   0 79.5000 13.2998   7
  14  -4   0 60.6360 12.7329   3
   1  13   0 238.249  20.267   7
 -14  13   0 221.890  20.978   6
  13   1   0 273.024  20.260   7
  13   1   0 243.956  18.724   3
  -1  14   0 270.077  19.889   7
 -13  14   0 283.266  21.736   6
  14  -1   0 244.864  19.008   3
  14  -1   0 272.013  20.179   7
   6   9   0 4.15933 9.47539   7
 -15   9   0  5.0172 12.4433   6
   9   6   0 2.18076 9.50913   7
 -15   6   0 19.1769 13.5186   6
  15  -9   0 -3.4757 11.3870   7
  15  -9   0  6.3020 11.1331   1
  15  -6   0  1.0936 10.7017   7
  -9  15   0  4.2152 11.3493   1
  15  -6   0  7.1787 10.6785   3
  15  -6   0 -11.677  10.251   1
 -15  12   0 240.551  22.583   6
  12   3   0 296.758  19.694   3
   3  12   0 231.764  19.045   7
 -15   3   0 235.855  22.037   2
  12   3   0 257.771  19.578   7
  15  -3   0 272.170  20.195   3
  15  -3   0 219.791  20.378   7
 -16   8   0 2532.72   63.39   6
   8   8   0 2522.34   58.77   7
  -8  16   0 2572.92   61.28   1
  16  -8   0 2516.06   61.63   7
  16  -8   0 2673.95   61.73   1
 -16   5   0 1448.59   46.57   2
 -16   5   0 1439.88   45.85   6
 -16  11   0 1487.45   46.93   6
   5  11   0 1435.51   42.53   7
  11   5   0 1505.13   41.90   3
  11   5   0 1457.17   42.64   7
  16 -11   0 1481.91   45.04   7
  16  -5   0 1526.32   43.53   3
  16 -11   0 1417.14   44.71   1
  16  -5   0 1480.18   44.48   7
   0   1  -1 -5.0352  1.2919   5
   0  -1   1 -3.2467  1.6259   5
  -2   2  -1 3.78304 4.29960   6
   1   2  -1 181.775   6.683   5
  -3   2   1 193.352   8.745   6
  -3   1  -1 171.359   9.248   6
  -1  -2   1 173.378   5.868   4
   3  -2  -1 170.632   7.500   3
  -2   3   1 187.919   7.694   6
  -1  -2   1 179.580   6.678   5
   3  -1   1 186.738   6.930   3
   4   0   1 1.21006 4.44385   1
   4   0   1 3.74763 4.06444   3
  -4   0  -1 -6.2449  5.4681   6
  -4   4   1 7.77767 5.15159   1
   0  -4   1 0.42495 3.78613   5
  -4   4   1 -3.2730  5.5324   6
   1   3   1 3175.67   47.67   6
  -4   1   1 3231.18   51.75   6
  -4   3  -1 3197.91   53.11   6
  -1   4   1 3233.13   50.84   1
   4  -1  -1 3193.99   49.61   3
  -3  -1   1 3206.65   49.30   6
  -3   4  -1 3204.01   52.30   1
  -3   4  -1 3179.12   51.03   6
  -3  -1   1 3241.80   51.46   2
  -1   4   1 3199.07   48.39   6
   3   2   1 236.757   8.934   1
   2   3  -1 256.985   8.705   5
  -5   3   1 219.485  11.466   6
  -5   2  -1 236.799  12.704   6
  -5   3   1 253.095  11.200   1
  -2  -3   1 237.275   7.438   4
   5  -3  -1 245.755  10.163   3
  -3   5   1 242.244  10.171   1
  -2   5  -1 243.731   9.939   1
   5  -2   1 239.819  11.000   1
   5  -2   1 263.664   9.731   3
  -2   5  -1 240.860   8.450   6
  -3   5   1 242.323   9.845   6
   5   0  -1 -4.7028  4.1189   7
  -5   5  -1 11.0246  6.6031   6
   5   0  -1 0.70111 4.17417   1
   0   5   1 -0.6667  3.4128   6
   0  -5  -1 -0.7266  2.8460   5
   0   5   1 -1.2213  4.0162   1
   5   0  -1 0.24208 4.54505   3
  -5   0   1 4.16873 5.72239   6
   5   1   1 791.765  18.360   1
   1   5  -1 790.023  18.768   7
   5   1   1 762.838  19.721   7
   5  -6  -1 816.928  21.007   7
   1  -6   1 785.188  18.860   5
  -6   5   1 814.580  21.906   6
  -6   1  -1 764.131  21.648   6
  -6   5   1 795.705  20.970   1
  -5  -1  -1 755.820  19.834   6
  -5   6   1 801.929  20.931   1
  -1   6  -1 766.681  19.052   7
  -1   6  -1 786.592  17.934   1
   6  -1   1 770.535  20.230   7
  -1  -5   1 792.288  17.343   5
   6  -1   1 779.013  18.607   3
  -1   6  -1 814.470  14.654   6
   6  -5  -1 782.755  20.512   7
  -5   6   1 811.540  20.564   6
   6  -1   1 797.332  19.832   1
   2   4   1 1436.40   26.44   1
  -6   2   1 1385.29   30.19   6
   2   4   1 1417.54   28.52   7
  -6   4  -1 1428.20   31.80   6
   4   2  -1 1434.90   27.33   7
   6  -2  -1 1409.42   28.38   3
  -4  -2   1 1462.03   27.05   2
  -4   6  -1 1457.79   28.45   6
   6  -2  -1 1439.80   28.84   7
  -4   6  -1 1402.94   29.89   1
   6  -4   1 1437.22   28.03   3
  -4  -2   1 1464.65   26.48   6
   6  -4   1 1432.25   30.51   7
  -2   6   1 1405.75   28.17   1
   0   7  -1 -0.8653  4.3719   1
   0   7  -1 3.10373 4.87796   7
  -7   7   1 -2.5448  5.9861   1
  -7   7   1 1.92181 6.87136   6
   7   0   1 7.08074 5.30482   1
   7   0   1 -1.8712  5.4058   7
   0  -7   1 0.45000 4.18959   5
   7   0   1 0.33600 5.07700   3
  -7   0  -1 -6.7741  6.9308   6
   7  -7  -1 -2.1044  5.9192   7
   3   4  -1 244.755   9.144   5
   4  -7  -1 224.030  11.936   7
   4   3   1 231.603  11.221   7
   4   3   1 262.537  10.107   1
  -7   4   1 240.201  13.717   6
   3   4  -1 238.432  10.536   7
  -7   3  -1 235.929  13.797   6
  -3   7  -1 249.811  11.529   1
  -4   7   1 246.325  11.848   1
   7  -3   1 239.991  11.200   3
  -3  -4   1 250.294   8.081   4
  -3  -4   1 247.873   8.197   2
   7  -4  -1 244.284  11.587   3
   7  -4  -1 237.509  11.883   7
  -3   7  -1 250.523  11.345   7
   7  -3   1 260.648  12.437   7
  -4   7   1 238.372  10.964   6
  -4  -3  -1 254.374  10.868   6
   7  -3   1 240.279  12.258   1
  -4  -3  -1 257.047   8.807   2
  -3   7  -1 235.705   9.548   6
   6   1  -1 2868.53   49.92   3
  -7   6  -1 2894.39   54.32   6
  -7   1   1 2896.47   52.41   6
   6  -7   1 3018.26   54.31   7
   6   1  -1 2924.71   47.57   1
   6   1  -1 2840.53   50.71   7
   1  -7  -1 2871.47   49.77   5
   1   6   1 2860.72   51.41   7
   1   6   1 2873.92   48.73   1
   1   6   1 2925.48   45.25   6
  -6  -1   1 3002.00   50.62   6
   7  -1  -1 2881.28   51.56   7
   7  -6   1 2804.41   53.94   7
   7  -1  -1 2871.45   50.36   3
  -1   7   1 2823.69   45.66   6
  -1   7   1 2890.55   50.10   1
  -6   7  -1 2904.40   52.43   6
  -6  -1   1 3040.52   52.05   2
  -6   7  -1 2834.77   53.75   1
  -6   7  -1 2834.92   52.24   7
  -1   7   1 2844.72   51.69   7
   7  -1  -1 2896.91   49.97   1
   6   2   1 198.703  11.522   7
  -8   2  -1 201.596  14.105   6
   2   6  -1 189.979  10.617   7
   6  -8  -1 200.702  12.904   7
   2  -8   1 198.126  10.987   5
  -8   6   1 191.342  13.838   6
   6   2   1 193.213   9.954   1
  -2  -6   1 206.202   8.798   4
  -6  -2  -1 209.486  12.114   6
  -2   8  -1 192.306  10.479   1
  -2   8  -1 201.493  11.822   7
   8  -6  -1 194.311  12.847   7
   8  -2   1 187.565  12.128   7
   8  -2   1 197.195  11.172   3
  -6   8   1 221.667  12.450   6
  -6   8   1 209.074  13.066   1
   8  -2   1 198.399  11.878   1
  -8   3   1 20.9258  7.9273   6
   3   5   1 19.8088  5.0818   1
  -8   5  -1 14.4789  8.1315   6
   5   3  -1 22.8602  5.8073   7
   3   5   1 20.8924  6.0579   7
   5   3  -1 21.7664  5.5637   5
   8  -3  -1 23.8468  6.5266   3
  -5  -3   1 30.3731  5.5896   2
  -5  -3   1 25.7865  6.0582   6
  -5   8  -1 16.6281  6.8957   1
  -5   8  -1 17.1428  6.7590   6
   8  -5   1 23.0225  6.5570   3
  -3   8   1 24.0522  6.5584   1
  -3   8   1 29.2058  6.4402   7
   8  -5   1 16.7893  6.9511   7
  -3   8   1 16.0424  5.3638   6
  -3  -5  -1 25.8756  3.7057   4
   8  -3  -1 15.8171  6.1730   7
  -5   8  -1 0.95725 5.46145   7
  -8   0   1 -9.6610  7.0672   6
   8   0  -1 1.42714 6.02001   7
  -8   8  -1 -9.1730  7.6088   6
  -8   0   1 16.3653  7.6286   2
   8   0  -1 7.29174 5.79921   1
   0   8   1 2.12848 5.51471   7
   8  -8   1 4.89519 7.33559   7
   0   8   1 -5.0220  4.9551   1
   8   0  -1 6.63553 6.39540   3
   8   1   1 142.516  10.882   1
   8   1   1 152.653  12.544   7
   8  -9  -1 153.684  13.691   7
   1   8  -1 169.861  12.148   7
   8   1   1 159.380  11.185   3
  -9   1  -1 148.820  14.278   6
  -9   8   1 158.039  14.527   6
  -8  -1  -1 158.095  13.548   6
  -8   9   1 162.299  13.593   6
   9  -1   1 165.818  13.271   7
  -1   9  -1 153.955  12.185   7
   9  -1   1 156.390  11.334   3
   9  -8  -1 148.419  13.130   7
  -8   9   1 135.112  13.005   1
   9  -1   1 151.515  12.307   1
  -9   5   1 556.048  21.361   6
   5  -9  -1 538.322  19.250   7
   5   4   1 499.895  17.931   7
   5   4   1 544.377  15.530   1
  -9   4  -1 495.209  20.966   6
   4   5  -1 512.843  17.196   7
   9  -4   1 551.238  18.094   3
  -4   9  -1 538.064  15.573   6
   9  -4   1 504.883  18.810   1
  -5   9   1 543.025  18.265   7
  -4   9  -1 505.071  18.456   1
  -5   9   1 557.477  17.427   6
   9  -5  -1 516.495  19.066   7
  -4   9  -1 519.778  18.284   7
   9  -5  -1 515.108  18.540   3
  -5   9   1 531.773  18.777   1
   9  -4   1 525.573  19.182   7
   7   2  -1 1125.47   27.54   7
  -9   7  -1 1180.53   32.39   6
   7  -9   1 1173.39   30.77   7
   2   7   1 1180.76   28.63   7
   2   7   1 1183.96   25.65   1
   7   2  -1 1144.37   28.06   3
  -9   2   1 1170.69   30.79   6
  -7   9  -1 1177.74   29.27   7
  -2   9   1 1154.61   27.63   1
   9  -2  -1 1132.46   28.52   3
  -2   9   1 1128.68   28.91   7
  -7   9  -1 1146.09   29.23   6
   9  -2  -1 1118.01   28.89   7
  -7  -2   1 1119.47   26.81   2
   9  -7   1 1181.20   31.03   7
  -7  -2   1 1137.46   26.93   6
   9  -2  -1 1173.20   27.88   1
  -7   9  -1 1172.87   31.01   1
  10   0   1 0.69467 6.95343   3
 -10   0  -1 -2.9783  9.4959   6
  10 -10  -1 21.5347  9.1617   7
   0  10  -1 -0.2570  7.0324   7
  10   0   1 -8.6670  7.3449   7
 -10  10   1 -16.971   8.903   6
 -10   3  -1 693.566  25.879   6
   7   3   1 740.674  23.166   7
   7 -10  -1 711.615  24.508   7
   3   7  -1 726.245  21.813   7
 -10   7   1 722.553  25.935   6
  10  -3   1 749.124  24.288   7
  -7  10   1 712.103  24.481   1
  10  -3   1 679.533  21.975   3
  10  -3   1 738.676  23.372   1
  10  -7  -1 692.023  23.880   7
  -7  10   1 713.374  22.925   6
  -3  10  -1 711.132  22.007   1
  -3  10  -1 703.429  22.672   7
 -10   6  -1 699.880  25.723   6
   4   6   1 713.298  22.288   7
 -10   4   1 729.217  25.518   6
   6   4  -1 701.552  21.489   7
  -4  10   1 732.575  22.618   7
  -6  10  -1 726.350  22.875   7
  -6  10  -1 674.921  23.154   1
  10  -4  -1 657.801  22.692   7
  -6  10  -1 725.303  20.979   6
  10  -6   1 708.467  24.004   7
  10  -4  -1 711.068  22.650   3
  -4  10   1 668.656  22.134   1
   9   1  -1 1318.37   33.05   7
   9   1  -1 1317.29   32.77   3
   1   9   1 1429.66   34.08   7
 -10   1   1 1320.00   34.71   6
 -10   9  -1 1318.11   36.31   6
 -10   1   1 1371.22   35.52   2
  -1  10   1 1361.58   34.08   7
  10  -1  -1 1277.10   32.86   3
  -1  10   1 1325.90   31.37   1
  10  -1  -1 1357.49   34.02   7
  -9  -1   1 1319.02   32.56   2
  -9  10  -1 1327.19   34.83   6
  10  -9   1 1282.90   35.40   7
   2   9  -1 481.673  19.756   7
   9 -11  -1 523.730  22.732   7
   9   2   1 473.341  18.923   3
 -11   2  -1 482.026  23.006   6
 -11   9   1 486.221  23.294   6
   9   2   1 491.271  21.027   7
  11  -2   1 513.248  20.255   3
  -9  11   1 468.477  21.146   6
  -2  11  -1 496.098  20.599   7
  -9  11   1 463.918  22.081   1
  11  -9  -1 518.199  22.442   7
  11  -2   1 465.603  20.034   1
  11  -2   1 477.796  21.475   7
   5   6  -1 -0.7834  6.4181   7
 -11   6   1 1.30685 9.67078   6
   6   5   1 9.63528 7.40897   7
 -11   5  -1  8.3980 10.1925   6
  11  -5   1 11.7300  8.4451   7
  -6  11   1 23.7484  8.4403   1
  -5  11  -1 2.86018 6.93511   7
  11  -6  -1 10.2298  8.1722   7
  11  -6  -1 4.29427 7.64480   3
  11  -5   1 -3.1410  7.5800   3
  11  -5   1 -14.963   7.486   1
  -5  11  -1 -5.6355  7.0915   1
  -6  11   1 5.62896 7.62046   6
   8   3  -1 0.26435 6.61224   7
 -11   3   1 3.96020 9.56162   6
   3   8   1 6.76620 7.45526   7
 -11   8  -1 -0.3980  9.9445   6
   8   3  -1 -7.3235  6.5397   3
  11  -8   1 5.32177 8.25620   7
  -8  11  -1 3.38238 8.33978   1
  11  -3  -1 -10.243   7.468   1
  -3  11   1 7.21985 7.60100   1
  11  -3  -1 -5.3534  7.0573   3
  -3  11   1 -0.6776  6.8293   7
  -8  11  -1 0.95069 8.05720   6
  11  -3  -1 -14.810   6.733   7
 -11   0   1 -0.0308  8.8091   2
 -11  11  -1 -14.099   9.677   6
  11   0  -1 -9.0635  8.0139   7
  11   0  -1 4.10216 8.12403   3
   0  11   1 10.1190  8.6022   7
   1  11  -1 263.721  17.189   7
  11   1   1 291.582  17.367   3
 -12   1  -1 263.190  19.406   6
 -12  11   1 289.163  20.483   6
  11   1   1 239.909  18.202   7
  12  -1   1 262.731  17.182   3
 -11  12   1 281.282  19.790   6
  -1  12  -1 305.782  18.956   7
  12 -11  -1 241.205  19.424   7
  12  -1   1 290.939  18.932   7
   4   8  -1 267.816  16.464   7
 -12   8   1 293.663  20.208   6
 -12   4  -1 296.027  20.385   6
   8   4   1 285.101  16.688   7
  12  -4   1 268.352  16.795   3
  -4  12  -1 295.304  17.295   7
  -8  12   1 284.235  16.549   6
  -4  12  -1 257.159  16.630   1
  12  -4   1 305.848  18.203   7
  12  -8  -1 277.018  18.087   7
  -8  12   1 281.109  18.353   1
  12  -4   1 251.482  16.835   1
   7   5  -1 521.979  20.393   7
   5   7   1 501.690  20.914   7
 -12   7  -1 471.119  23.476   6
 -12   5   1 488.017  23.553   6
  -7  12  -1 489.518  21.994   1
  -5  12   1 508.828  21.693   1
  12  -5  -1 476.470  20.831   3
  12  -7   1 524.185  23.230   1
  12  -5  -1 524.464  21.879   7
  12  -7   1 497.926  22.641   7
  12  -5  -1 533.865  21.670   1
 -12  10  -1 206.488  18.957   6
  10   2  -1 227.922  15.840   3
 -12   2   1 240.598  18.612   2
  10   2  -1 224.224  15.938   7
   2  10   1 225.431  16.347   7
 -12   2   1 238.301  19.037   6
 -10  12  -1 231.032  17.046   6
  -2  12   1 230.121  16.393   7
  12  -2  -1 226.435  16.658   7
  12 -10   1 189.249  17.409   7
  12  -2  -1 194.317  16.056   3
  13   0   1 -5.7423  9.2367   7
   0  13  -1  6.2519 10.0878   7
  13   0   1 0.60440 9.84551   3
 -13  13   1 17.8353 12.6707   6
   3  10  -1 73.0691 12.2093   7
 -13  10   1 59.5032 14.2409   6
  10   3   1 78.7418 11.6694   3
 -13   3  -1 64.0585 14.4628   6
  10   3   1 64.1048 12.3489   7
  13  -3   1 76.3716 11.9576   3
  -3  13  -1 87.2468 13.0827   7
  13 -10  -1 44.7279 11.7454   7
 -10  13   1 79.3446 13.0990   6
 -10  13   1 44.8403 11.9012   1
  13  -3   1 62.6448 12.9591   7
   7   6   1 13.6895  9.0331   7
 -13   6  -1 35.1234 12.4209   6
   6   7  -1 31.0413  9.5205   7
 -13   7   1 42.3106 12.8249   6
  -6  13  -1 31.8590 10.8671   7
  13  -6   1 36.7196 10.0130   3
  13  -7  -1 21.0864  9.6653   3
  13  -6   1 22.9133 10.8747   7
  -7  13   1 23.1217 10.5958   1
  -6  13  -1 21.3786  9.7634   1
  13  -6   1 28.7804 11.0788   1
  13  -7  -1 35.9399 11.1791   7
 -13   4   1 27.4916 12.4566   2
   9   4  -1 20.9016  9.3702   7
 -13   4   1 19.4334 11.9154   6
 -13   9  -1 17.6207 12.0152   6
   4   9   1 20.3083  9.3271   7
   9   4  -1 4.88466 8.11528   3
  -4  13   1 9.18043 9.70558   1
  13  -9   1 -2.1697  9.4543   7
  13  -4  -1 7.25446 9.18277   7
  13  -4  -1 22.1299 10.2334   3
 -13  12  -1 77.9406 15.4066   6
  12   1  -1 82.4547 13.3742   7
  12   1  -1 69.7872 12.5609   3
   1  12   1 96.6554 13.9238   7
  -1  13   1 61.1584 12.7756   7
  13  -1  -1 67.1532 12.5981   3
  13  -1  -1 59.6394 12.4400   7
 -12  13  -1 105.871  15.513   6
  12   2   1 1198.54   35.31   3
   2  12  -1 1138.57   35.74   7
 -14  12   1 1209.92   39.53   6
 -14   2  -1 1138.37   37.99   6
  12   2   1 1165.34   37.14   7
  14  -2   1 1148.99   37.34   7
  14  -2   1 1205.98   35.67   3
 -12  14   1 1103.62   36.59   6
  -2  14  -1 1222.93   37.69   7
  14 -12  -1 1112.61   38.11   7
 -14   5  -1 154.850  17.702   6
   5   9  -1 154.957  15.032   7
   9   5   1 154.970  15.485   7
   9   5   1 149.961  14.987   3
 -14   9   1 163.379  18.821   6
  -5  14  -1 162.931  16.885   7
  14  -5   1 149.061  15.875   3
  -9  14   1 141.154  17.103   1
  14  -9  -1 151.735  16.356   7
  14  -5   1 167.602  16.784   1
  14  -5   1 171.353  17.014   7
   8   6  -1 -4.0671  8.2549   7
 -14   8  -1 10.1282 12.2228   6
 -14   6   1  2.5583 11.4210   6
   6   8   1 7.56391 8.84627   7
  14  -8   1  4.1354 10.4647   7
  14  -6  -1 2.41033 9.74684   3
  -6  14   1 -13.259   9.386   1
  14  -6  -1 -0.9083  9.6414   7
  14  -8   1 -7.1150 10.2445   1
  -8  14  -1  5.3604 10.3645   1
  14  -6  -1 23.3471 10.9322   1
  11   3  -1 179.838  16.792   3
  11   3  -1 149.871  15.891   7
   3  11   1 142.947  15.602   7
 -14   3   1 160.155  18.526   2
 -14   3   1 164.252  18.601   6
 -14  11  -1 139.439  18.153   6
  14  -3  -1 168.497  16.907   7
  14  -3  -1 164.352  17.122   3
  14   0  -1 -2.7835 10.4294   7
   0  14   1 -4.9030 10.3112   7
  14   0  -1 -7.0441 10.5091   3
 -14  14  -1 -4.7481 12.3433   6
 -15  14   1 662.176  31.816   6
   1  14  -1 683.205  30.091   7
  14   1   1 636.357  29.560   7
 -14  15   1 599.934  30.341   6
  15  -1   1 675.304  30.742   7
  -1  15  -1 703.990  30.591   7
 -15  11   1 477.479  27.333   6
  11   4   1 501.480  23.529   3
   4  11  -1 465.916  23.988   7
  11   4   1 461.778  24.014   7
 -15   4  -1 497.960  27.444   6
  15  -4   1 485.534  25.622   7
  15 -11  -1 490.950  26.068   7
  -4  15  -1 447.298  25.076   7
  15  -4   1 529.594  24.537   3
   8   7   1  5.0896 10.1009   7
 -15   8   1 12.2567 13.1132   6
 -15   7  -1 21.7768 13.5764   6
   7   8  -1 18.4377  9.6294   7
  15  -7   1  7.8759 10.7177   1
  -8  15   1 19.8571 11.9747   1
  15  -8  -1 20.2607 11.3854   7
  15  -7   1 -1.2637 10.3075   7
  15  -8  -1 24.5551 11.5852   1
  10   5  -1 31.0898 10.1392   3
  10   5  -1 22.1560 10.2287   7
 -15   5   1 -18.024  11.556   6
   5  10   1 18.7992 10.7681   7
 -15   5   1 -2.5931 12.7984   2
 -15  10  -1 -0.2673 12.3423   6
  15  -5  -1  8.4286 10.6450   7
  15 -10   1 16.8040 11.7876   7
  15  -5  -1  5.2161 10.3512   3
  15 -10   1 34.6681 12.8934   1
  13   2  -1 42.7944 12.7200   7
  13   2  -1 29.2413 11.7959   3
 -15  13  -1 36.9233 14.2185   6
   2  13   1 26.1130 12.7739   7
  15  -2  -1 26.0635 11.5534   7
  15  -2  -1 47.3119 13.2496   3
 -16  10   1 12.7524 14.0418   6
   6  10  -1 15.1203 10.1832   7
  10   6   1 19.7326 10.9358   7
  10   6   1 29.8877 11.3020   3
 -16   6  -1 43.3935 15.0445   6
  16 -10  -1 11.2288 12.2018   1
 -10  16   1 32.8678 12.9515   1
  16  -6   1 35.1341 12.9305   3
  16 -10  -1 12.4237 12.2524   7
  16  -6   1 15.6096 11.8195   7
 -16   7   1 35.0370 14.9918   2
 -16   9  -1 37.5014 14.8115   6
 -16   7   1 25.4083 14.9362   6
   7   9   1 43.0049 12.6650   7
   9   7  -1 55.7002 12.3182   7
  16  -9   1 30.7456 13.4668   7
  16  -9   1 34.2520 13.5133   1
  16  -7  -1 37.5410 12.8772   3
  16  -7  -1 37.8260 12.7291   7
  12   4  -1 196.037  18.897   3
 -16   4   1 162.947  20.268   2
 -16  12  -1 139.361  19.481   6
  12   4  -1 108.922  14.906   7
   4  12   1 138.398  17.240   7
  16 -12   1 127.297  18.059   1
  16  -4  -1 180.132  19.162   7
  16  -4  -1 155.052  17.959   3
   1  -1   2 220.147   7.446   5
   0  -2   2 2570.46   43.51   5
   2  -2  -2 2604.95   38.89   3
   0   2  -2 2568.76   43.53   5
  -3   1   2 1166.16   22.60   2
   1   2   2 1110.35   20.09   6
  -3   1   2 1155.42   21.16   6
  -3   2  -2 1161.01   22.88   6
  -2   3  -2 1127.73   21.46   6
  -2  -1   2 1142.54   18.75   4
   3  -1  -2 1122.54   20.82   3
  -2  -1   2 1155.81   21.26   2
  -1   3   2 1150.29   20.63   6
   1   3  -2 90.8252  6.7009   5
  -4   1  -2 85.0759  8.1857   6
  -4   3   2 99.1788  7.8129   6
  -4   3   2 86.0142  7.2609   1
   1  -4   2 95.5673  7.6435   5
   3   1   2 84.4954  7.1136   1
  -3   4   2 97.2131  7.3626   1
  -1  -3   2 94.0435  6.0328   2
  -1  -3   2 97.6749  6.7054   5
   4  -1   2 109.524   7.989   1
   4  -1   2 97.8098  6.3691   3
  -3   4   2 89.0525  7.1665   6
  -1  -3   2 88.8085  6.0574   4
   4  -3  -2 91.2164  7.3705   3
  -4   0   2 169.079   8.866   6
  -4   0   2 161.293   9.258   2
  -4   4  -2 190.147  11.064   6
   0   4   2 169.024   7.593   6
   4   0  -2 191.782   9.141   3
   0   4   2 175.460   8.369   1
   5   0   2 5769.94   91.81   7
   0   5  -2 5711.90   89.32   7
   5   0   2 5876.17   84.78   3
  -5   5   2 5766.68   89.77   6
  -5   5   2 5781.64   91.11   1
  -5   0  -2 5851.68   90.11   6
   5  -5  -2 5716.39   91.52   7
   0  -5   2 5699.29   94.38   5
   5   0   2 5820.47   89.65   1
   2   3   2 3847.30   60.59   1
  -5   2   2 3816.28   62.23   6
   3   2  -2 3866.60   65.15   5
  -5   3  -2 3814.76   64.12   6
  -2   5   2 3902.01   62.13   1
   5  -3   2 3835.00   58.66   3
  -3   5  -2 3830.32   60.17   6
  -3  -2   2 3846.28   56.82   6
   5  -2  -2 3858.87   60.32   3
   5  -2  -2 3911.05   61.72   7
  -3   5  -2 3968.30   63.20   1
  -3  -2   2 3807.26   61.27   2
  -3  -2   2 3890.18   54.14   4
  -2   5   2 3765.52   59.35   6
   4   2   2 34.9258  6.1322   7
  -6   4   2 12.6048  6.5941   6
   4   2   2 14.4356  5.0907   1
   2   4  -2 21.4098  4.5450   7
  -6   2  -2 13.5698  6.9609   6
   4  -6  -2 14.3358  5.6818   7
   2  -6   2 0.27503 5.64219   5
  -6   4   2 11.2725  5.6244   1
   2   4  -2 23.8816  4.8846   5
  -4   6   2 12.4418  5.2737   1
  -2  -4   2 12.9043  4.1483   4
  -4   6   2 10.4574  5.4630   6
   6  -4  -2 15.6391  5.5499   3
  -2   6  -2 19.1333  5.3205   1
   6  -2   2 28.4719  5.4313   3
  -2   6  -2 20.5703  4.2886   6
  -2  -4   2 14.2493  4.0574   2
  -2   6  -2 18.2459  4.9380   7
   6  -2   2 22.9592  6.0448   1
   6  -4  -2 11.2705  5.3260   7
   6  -2   2 12.1967  5.5465   7
   1   5   2 293.228  10.815   1
  -6   1   2 285.230  12.914   6
   1   5   2 292.782   9.641   6
   1   5   2 264.702  11.391   7
  -6   1   2 264.549  13.034   2
   5   1  -2 270.967  10.348   7
  -6   5  -2 266.893  13.997   6
   6  -1  -2 268.432  11.723   3
   6  -1  -2 275.471  10.786   7
  -1   6   2 282.299   9.635   6
  -5   6  -2 280.329  11.917   7
  -1   6   2 282.849  11.194   1
  -5  -1   2 284.570  11.599   2
  -5  -1   2 300.516  11.235   6
  -5   6  -2 290.627  13.116   6
   6   1   2 41.9586  6.9535   7
  -7   1  -2 18.9453  7.5874   6
   1  -7   2 33.4085  5.9557   5
   6   1   2 29.4620  5.4930   3
  -7   6   2 34.1566  8.3455   6
   6  -7  -2 31.1412  6.9757   7
   6   1   2 32.5988  6.1817   1
   1   6  -2 27.7835  5.4788   7
  -7   6   2 26.5009  7.0480   1
  -6  -1  -2 29.5042  7.5668   6
   7  -1   2 47.6775  7.6275   7
   7  -6  -2 41.6082  7.5521   7
  -1   7  -2 28.6745  5.6850   1
  -1   7  -2 30.7779  6.1354   7
  -6   7   2 35.4593  7.7444   6
  -6   7   2 26.4930  6.9774   1
   7  -1   2 41.6803  7.3323   1
  -1  -6   2 30.8242  5.5439   5
   7  -1   2 33.2187  5.9896   3
   3   4   2 19.7028  5.7731   7
   4   3  -2 16.5568  5.3351   5
   3  -7  -2 24.4336  6.4428   7
  -7   3   2 18.8969  7.2138   6
   3   4   2 13.0422  4.9619   1
   4   3  -2 9.16912 4.61362   7
  -7   4  -2 4.08990 7.61377   6
   7  -4   2 12.3571  5.5276   3
  -4   7  -2 11.8616  5.2813   7
  -4   7  -2 15.1802  6.2025   1
  -4   7  -2 22.2931  6.0155   6
  -4  -3   2 19.4969  4.7598   2
   7  -4   2 22.0117  6.6798   7
  -3  -4  -2 14.8715  2.4703   4
  -4  -3   2 16.5555  4.2848   4
   7  -3  -2 17.5523  5.9435   3
  -3   7   2 14.3143  5.4464   6
   7  -3  -2 26.7153  6.1496   7
  -4  -3   2 17.6447  4.3620   6
  -3   7   2 14.6518  5.6614   1
   0   7   2 570.169  17.095   1
   7   0  -2 578.391  18.233   3
  -7   7  -2 590.493  19.142   7
   7   0  -2 586.175  15.964   1
   7   0  -2 585.609  17.367   7
  -7   0   2 605.689  18.691   6
  -7   0   2 579.670  18.817   2
   0   7   2 584.987  18.030   7
  -7   7  -2 584.711  20.427   6
   7  -7   2 595.821  20.089   7
   0   7   2 595.993  14.762   6
  -8   8   2 3179.37   61.47   1
   8   0   2 3224.53   55.39   3
   0   8  -2 3157.12   57.87   7
   8   0   2 3256.20   60.37   7
   8  -8  -2 3208.75   60.96   7
  -8   8   2 3269.70   60.72   6
   8   0   2 3152.41   57.50   1
  -8   0  -2 3212.55   60.31   6
   5   3   2 5786.76   90.86   1
   3   5  -2 5890.12   95.96   5
   3   5  -2 5799.98   92.18   7
   5  -8  -2 5941.41   95.89   7
   3  -8   2 5708.28   99.51   5
  -8   3  -2 5728.23   96.31   6
   5   3   2 5840.50   94.86   7
  -8   5   2 5854.06   95.57   6
  -5   8   2 5795.52   91.27   6
   8  -3   2 5704.19   94.64   1
  -3  -5   2 5867.66   81.20   4
   8  -3   2 5862.03   96.46   7
  -3   8  -2 5605.99   92.17   1
   8  -3   2 5872.94   89.41   3
  -5   8   2 5820.76   95.03   1
  -5  -3  -2 5874.44   90.52   6
   8  -5  -2 5634.95   95.02   7
   8  -5  -2 5716.38   91.22   3
  -3   8  -2 5671.09   94.06   7
   2   6   2 752.628  19.209   1
  -8   6  -2 756.179  21.687   7
   6   2  -2 708.608  19.320   7
   2  -8  -2 781.770  21.784   7
  -8   2   2 755.564  22.603   6
  -8   6  -2 708.502  23.744   6
   2   6   2 764.736  20.981   7
  -8   2   2 712.604  23.346   2
  -2   8   2 719.793  17.951   6
   8  -2  -2 731.011  20.632   7
   8  -2  -2 706.214  21.027   3
  -6  -2   2 769.397  19.011   6
  -6   8  -2 710.180  21.107   7
  -6   8  -2 729.678  21.476   6
  -2   8   2 770.475  21.296   7
  -2   8   2 727.351  20.721   1
   8  -6   2 762.419  23.701   7
  -6  -2   2 734.108  19.774   2
   2   7  -2 12.9861  6.0348   7
   7   2   2 7.40906 6.84151   7
   7   2   2 9.17079 6.07459   3
   7  -9  -2 12.4451  7.8628   7
   2  -9   2 15.3463  6.5881   5
   7   2   2 4.37687 5.86689   1
  -9   7   2 15.1004  7.7854   1
  -9   2  -2 6.57579 9.20596   6
  -9   7   2 29.1682  9.8021   6
  -2   9  -2 17.0536  6.8151   1
  -7  -2  -2 9.71732 7.97504   6
   9  -7  -2 -1.1742  6.7412   7
  -7   9   2 13.7302  7.6196   1
   9  -2   2 15.3756  6.9276   3
   9  -2   2 18.7719  7.8059   7
  -2  -7   2 8.34823 5.31160   4
  -7   9   2 4.89254 7.61545   6
  -2   9  -2 12.9784  6.8875   7
   9  -2   2 1.22060 6.70989   1
  -9   4   2 42.1785  9.8373   6
   4  -9  -2 37.7879  7.9188   7
   5   4  -2 25.0875  6.3656   7
   4   5   2 36.7830  6.5007   1
   4   5   2 42.1811  7.8171   7
  -9   5  -2 29.4674  9.9141   6
   9  -4  -2 41.0057  8.3525   3
   9  -4  -2 37.0315  7.7749   7
   9  -5   2 43.8039  8.9408   7
  -5   9  -2 26.9191  7.7902   1
  -4   9   2 38.6191  7.6386   7
   9  -5   2 35.6904  8.7919   1
  -5   9  -2 41.4263  7.4442   6
  -4   9   2 37.4212  6.9913   6
  -5   9  -2 33.1864  7.3573   7
  -4   9   2 36.4419  7.9261   1
   9  -5   2 44.1982  7.5070   3
  -9   1   2 410.672  18.369   2
   1   8   2 399.634  15.178   1
   8   1  -2 414.701  16.597   7
   8   1  -2 408.344  16.913   3
  -9   1   2 356.328  17.258   6
  -9   8  -2 385.858  19.627   6
   1   8   2 400.713  17.145   7
  -8   9  -2 415.809  18.634   6
  -8   9  -2 417.714  18.052   7
  -1   9   2 390.796  15.885   1
  -8  -1   2 411.256  16.890   6
   9  -8   2 430.230  19.472   7
  -1   9   2 425.638  17.407   7
   9  -1  -2 389.192  16.580   7
  -8  -1   2 391.364  16.671   2
   9  -1  -2 426.249  17.295   3
   1   9  -2 153.608  12.627   7
   9   1   2 146.165  13.747   7
 -10   9   2 163.408  14.874   1
   9   1   2 148.833  12.469   1
 -10   9   2 150.686  15.052   6
   9   1   2 170.164  12.209   3
   9 -10  -2 152.125  14.713   7
 -10   1  -2 150.827  15.480   6
  -9  10   2 139.064  13.987   1
  -9  10   2 150.401  14.631   6
  10  -1   2 146.291  13.744   7
  10  -1   2 161.598  13.548   1
  10  -1   2 164.008  12.279   3
  10  -9  -2 179.449  14.849   7
  -9  -1  -2 167.889  15.008   6
  -1  10  -2 157.261  13.828   7
 -10   4  -2 245.549  17.349   6
 -10   6   2 216.969  16.219   6
   6   4   2 225.908  14.067   7
   6 -10  -2 243.771  15.505   7
   4   6  -2 224.189  12.533   7
   6   4   2 246.953  12.287   1
   4 -10   2 221.395  14.765   5
  -4  10  -2 207.992  13.483   7
  10  -6  -2 248.261  14.973   7
  10  -4   2 243.234  15.391   7
  -4  10  -2 231.633  14.038   1
  10  -4   2 205.409  14.626   1
  10  -6  -2 226.578  14.680   3
  10  -4   2 227.824  13.566   3
  -6  10   2 238.989  14.541   1
  -6  10   2 221.743  13.620   6
 -10   3   2 324.113  17.762   6
   3   7   2 316.426  15.962   7
   3   7   2 307.161  13.710   1
 -10   7  -2 323.462  19.083   6
 -10   3   2 336.299  18.959   2
   7   3  -2 326.384  14.797   7
  -3  10   2 319.471  15.589   1
  -3  10   2 328.137  15.889   7
  10  -3  -2 330.364  16.007   7
  -7  10  -2 326.813  16.022   6
  10  -7   2 342.190  17.949   7
  10  -3  -2 319.713  16.361   3
  -7  10  -2 358.207  16.722   7
  10  -3  -2 328.818  15.641   1
 -10  10  -2 2833.84   59.00   6
   0  10   2 2846.56   54.44   1
 -10   0   2 2847.91   57.97   2
  10   0  -2 2819.47   56.28   3
   0  10   2 2906.31   58.08   7
  10   0  -2 2911.25   56.88   7
  11 -11  -2 1688.62   43.41   7
 -11  11   2 1517.36   42.26   6
 -11   0  -2 1520.53   41.53   6
  11   0   2 1646.34   38.38   3
  11   0   2 1686.92   42.12   7
   0  11  -2 1598.82   40.30   7
 -11   3  -2 2621.59   57.24   6
   8 -11  -2 2600.49   55.97   7
   8   3   2 2606.51   54.29   7
   8   3   2 2599.76   50.16   3
   3   8  -2 2512.69   51.49   7
 -11   8   2 2541.96   56.70   6
  -3  11  -2 2536.03   53.69   7
  11  -8  -2 2643.20   55.33   7
  11  -3   2 2690.93   51.49   3
  -8  11   2 2637.81   53.22   6
  11  -3   2 2598.08   54.00   1
  11  -3   2 2613.94   55.47   7
  -8  11   2 2599.91   55.85   1
   6   5  -2 815.046  23.774   7
   5   6   2 840.224  25.414   7
 -11   6  -2 771.334  28.553   6
 -11   5   2 770.294  27.729   6
  -6  11  -2 799.653  26.429   1
  11  -5  -2 796.798  25.756   3
  -6  11  -2 832.783  25.851   7
  11  -6   2 823.741  27.400   1
  11  -6   2 848.909  27.432   7
  -5  11   2 823.896  26.109   1
  11  -5  -2 812.389  26.040   7
 -11   2   2 115.318  14.407   2
 -11   2   2 140.236  14.721   6
   9   2  -2 136.472  12.948   3
   2   9   2 132.891  13.113   7
   9   2  -2 123.637  12.295   7
 -11   9  -2 112.620  14.230   6
  11  -2  -2 111.733  12.834   3
  11  -9   2 113.114  14.058   7
  11  -2  -2 113.893  12.116   7
  -9  11  -2 128.046  13.365   6
  -2  11   2 140.011  12.783   1
  -2  11   2 124.320  13.086   7
  10   2   2 202.598  14.725   3
 -12   2  -2 222.704  19.495   6
 -12  10   2 225.152  19.263   6
  10 -12  -2 196.864  17.651   7
  10   2   2 179.638  16.324   7
   2  10  -2 180.184  14.777   7
 -10  12   2 207.707  18.453   1
  12  -2   2 234.346  18.164   7
 -10  12   2 224.880  17.372   6
  12  -2   2 206.604  16.174   1
  -2  12  -2 203.823  16.064   7
  12 -10  -2 194.349  17.213   7
  12  -2   2 201.196  14.983   3
 -12   7   2 82.0994 13.9943   6
 -12   5  -2 77.1547 13.9065   6
   5   7  -2 97.7847 11.0391   7
   7   5   2 93.7298 11.9691   7
  -7  12   2 77.8981 11.2359   6
  -5  12  -2 81.2331 11.7925   1
  -7  12   2 85.8991 12.9066   1
  -5  12  -2 87.4999 11.7493   7
  12  -7  -2 75.5990 11.8134   7
  12  -5   2 80.6556 12.4760   7
  12  -5   2 88.5782 12.0053   3
  12  -7  -2 56.2601 11.0726   3
  12  -5   2 95.7173 13.2530   1
 -12   8  -2 16.6016 11.0860   6
 -12   4   2  4.9914 11.1431   2
   8   4  -2 8.85741 7.62510   7
 -12   4   2 23.6735 11.6195   6
   4   8   2 28.3877  9.3541   7
  12  -4  -2 6.00978 8.60886   7
  12  -4  -2 13.7783  9.0699   3
  -4  12   2 21.8712  9.0090   1
  12  -8   2 4.10506 9.87204   1
  12  -4  -2 20.8149  9.2662   1
  12  -8   2 8.72820 9.31493   7
  11   1  -2 49.8166 11.1014   3
 -12  11  -2 37.4358 12.6168   6
  11   1  -2 50.2071 10.9341   7
 -12   1   2 56.8577 12.0725   2
   1  11   2 46.0655 10.8094   7
 -11  12  -2 54.1846 12.6473   6
  12  -1  -2 46.7493 11.1954   3
  -1  12   2 70.3650 12.1069   7
  12  -1  -2 63.4428 11.6461   7
  12   1   2 120.336  14.799   3
 -13  12   2 123.018  17.548   6
 -13   1  -2 113.730  16.097   6
   1  12  -2 119.386  14.678   7
  12   1   2 130.506  15.767   7
  13 -12  -2 111.546  15.791   7
  13  -1   2 131.077  15.068   3
  -1  13  -2 118.747  15.048   7
  13  -1   2 156.728  16.896   7
 -12  13   2 137.149  16.955   6
   9   4   2 12.4445  8.4731   3
 -13   9   2  6.1678 11.4472   6
   9   4   2 10.8484  8.7712   7
 -13   4  -2 36.7513 12.5719   6
   4   9  -2 20.7838  8.8329   7
  13  -4   2 5.84303 9.57472   7
  13  -9  -2 1.62111 9.23200   7
  -4  13  -2 0.62898 9.03512   7
  13  -4   2 7.56351 9.23785   3
  -9  13   2 10.0324 10.7978   1
  13  -4   2 15.5711 10.2736   1
  -9  13   2 -3.5264 10.0746   6
 -13   6   2 515.952  26.850   2
 -13   7  -2 486.396  25.069   6
   6   7   2 493.300  22.095   7
   7   6  -2 481.901  20.577   7
 -13   6   2 478.750  24.709   6
  13  -6  -2 482.325  22.441   7
  -7  13  -2 522.359  22.755   7
  13  -7   2 518.174  24.085   7
  13  -6  -2 487.860  22.748   3
  -6  13   2 503.804  23.286   1
  13  -7   2 504.868  23.935   1
  13  -6  -2 523.387  22.848   1
 -13   3   2 1273.32   37.58   6
  10   3  -2 1177.92   34.40   3
 -13   3   2 1204.06   38.13   2
   3  10   2 1322.20   36.85   7
 -13  10  -2 1200.20   38.63   6
  10   3  -2 1194.20   34.23   7
  13  -3  -2 1220.97   35.91   3
  13  -3  -2 1317.91   36.29   7
  13   0  -2 2353.83   54.36   3
 -13  13  -2 2359.26   57.12   6
  13   0  -2 2316.20   54.19   7
  14   0   2 26.1746 12.9667   7
 -14  14   2 54.4483 14.8267   6
   0  14  -2 23.9720 11.8619   7
 -14  14   2 26.3356 15.8014   2
  11   3   2 699.069  28.579   7
  11   3   2 686.088  25.582   3
 -14   3  -2 671.976  29.959   6
   3  11  -2 631.976  25.817   7
 -14  11   2 663.192  30.194   6
  14 -11  -2 613.903  27.763   7
 -11  14   2 611.143  28.937   1
 -11  14   2 671.301  27.733   6
  14  -3   2 662.497  28.692   7
  -3  14  -2 664.456  27.964   7
  14  -3   2 677.269  26.449   3
   8   6   2 84.8493 12.9766   7
 -14   6  -2 77.1393 15.4265   6
   6   8  -2 84.1956 11.8858   7
 -14   8   2 119.342  16.733   6
 -14   8   2 101.098  17.113   2
  14  -6   2 124.216  15.098   1
  14  -6   2 79.1630 12.9701   3
  -8  14   2 77.4961 13.8343   1
  -6  14  -2 92.0862 13.9211   7
  14  -8  -2 91.8221 13.5679   7
  14  -6   2 87.7805 14.5369   7
   9   5  -2 325.430  18.022   7
 -14   5   2 304.553  22.965   2
 -14   5   2 326.479  22.873   6
 -14   9  -2 346.898  23.412   6
   9   5  -2 299.670  18.740   3
   5   9   2 375.515  20.352   7
  14  -9   2 331.546  21.995   7
  14  -5  -2 328.933  20.252   3
  14  -5  -2 303.075  19.866   7
  -5  14   2 334.900  20.773   1
  14  -9   2 313.005  21.195   1
   2  12   2 65.7756 13.5468   7
  12   2  -2 31.6630 11.2653   3
 -14   2   2 77.4528 14.7886   2
  12   2  -2 35.2061 11.2191   7
 -14  12  -2 31.0117 13.4066   6
  14  -2  -2 39.4454 11.9257   3
  14  -2  -2 36.1483 11.9309   7
   2  13  -2 434.363  23.915   7
 -15  13   2 432.347  28.818   2
 -15  13   2 444.270  27.774   6
  13   2   2 457.514  25.647   7
  -2  15  -2 461.136  25.508   7
 -13  15   2 466.058  26.489   6
  15 -13  -2 438.314  26.170   7
  15  -2   2 482.502  26.433   7
   5  10  -2 340.899  20.063   7
 -15  10   2 330.112  25.563   2
 -15  10   2 348.520  24.606   6
  10   5   2 347.169  21.915   7
 -15   5  -2 347.168  23.459   6
  15  -5   2 369.488  21.158   3
 -10  15   2 343.397  23.516   1
  15  -5   2 390.671  22.907   1
  15 -10  -2 382.280  22.880   7
  15  -5   2 326.557  22.576   7
  -5  15  -2 385.841  23.233   7
 -15   8  -2 493.901  27.862   6
   8   7  -2 486.654  22.354   7
 -15   7   2 481.966  28.233   2
 -15   7   2 510.827  28.002   6
   7   8   2 482.632  24.043   7
  15  -7  -2 468.371  24.693   3
  15  -7  -2 512.882  25.086   7
  -7  15   2 500.464  25.319   1
  15  -8   2 513.208  25.971   1
  15  -8   2 567.179  27.159   7
   4  11   2 20.9220 11.4517   7
 -15   4   2 11.8305 13.2235   2
  11   4  -2 15.8630  9.7568   7
 -15  11  -2 10.6211 12.7326   6
 -15   4   2  7.8509 13.1731   6
  11   4  -2 20.6229 10.4592   3
  15  -4  -2 -3.8346  9.8679   7
  15  -4  -2 21.2238 11.1331   3
  15 -11   2 23.6079 12.7126   1
  14   1  -2 27.3290 11.8480   7
 -15  14  -2 34.4044 14.7830   6
  14   1  -2 16.3288 12.8279   3
 -14  15  -2 63.8427 15.2335   6
  15  -1  -2 14.1360 12.5099   3
  15  -1  -2 43.4462 12.3473   7
 -16  12   2 22.7855 15.6394   2
 -16  12   2 59.1949 16.5533   6
  12   4   2 51.0691 13.7601   7
 -16   4  -2 66.4655 15.6587   6
   4  12  -2 66.5083 13.0800   7
  16  -4   2 47.9783 13.4550   7
  -4  16  -2 52.3721 14.0232   7
  16 -12  -2 44.8514 14.2140   7
   9   7   2 -6.1929 10.3456   7
 -16   7  -2 14.7036 13.9384   6
   7   9  -2 24.5887 10.9879   7
 -16   9   2 15.8526 14.7828   2
 -16   9   2 -4.4410 13.0508   6
  16  -7   2  1.7762 11.6469   1
  16  -7   2 14.3736 12.8743   7
  16  -9  -2 17.4614 12.1823   7
  -9  16   2 -2.1915 11.6578   1
  16  -9  -2 13.5486 12.5491   1
 -16   6   2 887.679  35.973   6
  10   6  -2 858.568  31.792   3
   6  10   2 884.869  32.998   7
  10   6  -2 840.821  30.640   7
 -16   6   2 847.423  35.994   2
 -16  10  -2 906.015  36.550   6
  16  -6  -2 888.541  33.338   7
  16 -10   2 888.730  34.909   1
  16  -6  -2 858.890  32.661   3
   0   0  -3 -8.8453  3.5229   5
   0   0   3 -8.8801  3.7016   5
   0   0   3 -11.927   3.348   6
   0   0   3 -7.1900  3.0307   4
   1   1   3 2614.12   41.17   6
   1   1  -3 2697.69   45.68   5
   1  -2   3 2663.95   43.30   2
  -2   1   3 2608.82   40.91   6
   1  -2   3 2599.53   45.81   5
  -2   1   3 2662.23   43.37   2
   1   1   3 2617.70   43.12   5
  -1   2  -3 2616.50   45.77   5
   2  -1  -3 2614.68   39.67   3
  -1  -1  -3 2603.49   35.95   4
  -1  -1   3 2671.05   45.67   5
  -1   2   3 2623.01   41.22   6
  -1  -1   3 2683.16   42.95   2
  -1  -1   3 2670.35   38.31   4
  -1  -1  -3 2562.63   42.98   5
   3   0   3 -0.0483  2.9814   3
   3  -3  -3 2.57911 4.35592   3
   0  -3   3 2.07292 4.38832   4
  -3   3   3 1.59282 4.23861   1
   0  -3   3 -0.4648  4.4411   5
   3   0   3 -4.1815  2.3753   4
   0  -3   3 1.71168 4.15965   2
   0   3  -3 6.13649 4.71225   5
  -3   3   3 4.76029 4.77846   6
  -3   3   3 -0.0635  4.6894   2
   3   0   3 11.2675  4.6926   1
  -3   0   3 7.60487 4.78824   2
  -3   0   3 0.96877 3.86571   6
  -3   3  -3 -1.0630  5.2697   6
   3   0  -3 5.26301 4.35831   3
   0  -3  -3 -1.1503  2.8848   5
   3  -3   3 4.53239 5.26958   1
   0   3   3 0.72019 4.19920   6
   0   3   3 -1.5080  4.0609   1
  -4   2   3 4328.13   66.78   1
  -4   2  -3 4246.57   68.28   6
  -4   2   3 4343.05   70.58   2
   2  -4   3 4266.67   74.14   5
   2   2  -3 4363.56   72.63   5
   2   2   3 4381.23   67.55   1
   2   2   3 4360.84   67.85   5
  -4   2   3 4303.45   67.08   6
  -2   4  -3 4372.24   65.37   6
  -2  -2   3 4328.50   68.23   2
  -2   4   3 4415.73   68.23   1
   4  -2   3 4370.63   62.86   3
  -2   4   3 4319.24   67.34   2
  -2  -2   3 4392.28   60.91   4
   4  -2  -3 4336.55   65.44   3
   4  -2   3 4202.21   68.81   1
  -2   4   3 4317.20   66.35   6
  -2  -2  -3 4269.60   56.40   4
   1  -5   3 162.981   9.447   5
  -5   4   3 176.260  10.240   6
  -5   4   3 164.894   9.872   1
   1   4  -3 176.405   7.526   7
  -5   1  -3 176.115  11.251   6
   4  -5  -3 157.157   9.240   7
   4   1   3 175.844   9.533   1
   1   4  -3 171.850   8.950   5
  -5   4   3 191.546  11.011   2
  -4   5   3 174.893   9.601   1
   5  -1   3 164.456  10.122   1
   5  -4  -3 163.501   9.362   3
  -4   5   3 159.897   9.832   6
   5  -1   3 171.366   7.820   3
  -1  -4   3 174.810   7.905   2
  -1  -4   3 185.117   9.143   5
  -1   5  -3 176.372   8.266   7
  -4   5   3 163.278   9.950   2
   5  -4  -3 172.523   9.169   7
  -1  -4   3 170.634   8.148   4
  -5   4  -3 538.581  17.566   6
   4   1  -3 544.265  12.781   7
   1   4   3 574.911  14.051   6
  -5   1   3 542.667  15.230   6
   1   4   3 556.651  15.121   1
  -5   1   3 556.384  16.787   2
  -4  -1   3 543.995  13.297   6
   5  -1  -3 543.694  13.537   7
   5  -1  -3 546.515  15.344   3
  -4   5  -3 566.841  16.632   6
  -1   5   3 556.711  14.168   6
  -4  -1   3 572.171  15.600   2
  -4   5  -3 548.592  15.722   7
  -1   5   3 561.473  15.602   1
  -6   0  -3 6.80137 6.76829   6
   6   0   3 10.2283  4.6102   3
   6   0   3 -6.1447  5.0148   7
   0  -6   3 2.67916 4.68336   5
   0   6  -3 2.45017 4.08418   7
   6  -6  -3 1.13375 5.37517   7
  -6   6   3 0.11672 5.36236   1
  -6   6   3 1.15820 6.16506   6
   6   0   3 0.90416 4.90849   1
  -6   3  -3 177.531  12.283   6
   3   3  -3 170.556   8.035   7
   3   3   3 215.444   9.894   1
   3   3  -3 199.096   9.678   5
   3  -6  -3 179.200  10.102   7
  -6   3   3 168.887  10.960   6
  -6   3   3 169.632  11.470   2
   3   3   3 221.985  10.474   7
  -6   3   3 197.935  10.135   1
  -3   6   3 188.121   8.756   2
  -3   6  -3 188.529   9.705   7
  -3  -3   3 182.643   8.140   4
  -3  -3   3 181.875   8.821   2
  -3   6   3 187.735  10.137   1
   6  -3  -3 173.351   9.141   7
   6  -3   3 179.087   9.040   3
  -3   6   3 173.281   9.619   6
   6  -3   3 168.064  11.185   1
  -3   6  -3 187.851   9.136   6
   6  -3  -3 207.531  10.472   3
  -6   6  -3 3.85800 5.38065   7
   0   6   3 1.73069 4.69734   1
   6   0  -3 14.4325  4.6868   7
   6   0  -3 4.18955 5.05595   3
   6   0  -3 -0.2196  3.9655   1
  -6   6  -3 5.20774 6.82975   6
  -6   0   3 4.61886 5.61943   6
   0   6   3 -1.9774  4.6685   7
  -6   0   3 -6.9450  5.2312   2
   0   6   3 5.68699 4.48176   6
   5   2   3 202.084  11.642   7
   2   5  -3 199.252   9.320   7
   5  -7  -3 192.751  11.319   7
  -7   5   3 205.956  12.864   6
  -7   2  -3 187.396  13.092   6
   5   2   3 194.415  10.586   1
   2  -7   3 221.629  11.737   5
  -7   5   3 252.532  12.613   1
   2   5  -3 208.061  10.167   5
  -2  -5   3 207.561   9.359   4
  -2   7  -3 213.009  10.738   1
  -2  -5   3 216.989   8.885   2
  -5   7   3 197.447  11.580   2
   7  -5  -3 215.934  11.783   3
  -2   7  -3 195.036  10.430   7
   7  -2   3 206.736   9.979   3
   7  -2   3 211.929  12.266   1
  -5   7   3 185.422  11.336   1
   7  -2   3 216.388  12.575   7
   7  -5  -3 226.904  11.506   7
  -5   7   3 213.865  11.672   6
   2  -7  -3 17.7493  6.3504   7
   2   5   3 5.44368 5.00249   7
  -7   5  -3 -0.6150  5.5722   7
   2   5   3 7.22622 4.90426   1
  -7   2   3 7.04140 6.64619   6
   5   2  -3 5.04362 4.26290   7
  -7   2   3 10.9751  7.1206   2
  -7   5  -3 11.7168  7.8672   6
  -5   7  -3 5.35853 5.36734   7
   7  -2  -3 7.35265 5.16129   7
  -2   7   3 7.69412 5.47542   1
  -5   7  -3 1.10688 6.17578   6
   7  -2  -3 4.11814 5.39832   3
   7  -5   3 14.9978  7.0732   7
  -5  -2   3 3.86734 5.05106   2
  -5  -2   3 12.0377  4.8122   6
  -2   7   3 5.39060 5.08312   6
   7  -8  -3 173.993  12.757   7
  -8   7   3 184.661  13.164   1
   7   1   3 158.485   9.931   3
   7   1   3 174.184  11.459   1
  -8   7   3 182.152  13.514   6
   1   7  -3 148.672  10.310   7
  -8   1  -3 170.458  14.140   6
   1  -8   3 186.261  11.162   5
   7   1   3 157.541  12.223   7
   8  -1   3 169.660  12.114   1
  -7   8   3 166.827  13.028   6
  -7   8   3 179.550  12.641   1
  -1  -7   3 164.628  10.063   5
   8  -7  -3 177.150  12.643   7
  -1  -7   3 165.718   9.956   4
   8  -1   3 152.055  12.314   7
  -7  -1  -3 174.181  13.336   6
  -1   8  -3 184.785  11.233   7
   8  -1   3 157.716  10.051   3
  -8   4   3 -14.284   7.082   2
   4  -8  -3 -4.6466  5.6903   7
  -8   4  -3 10.4194  8.3257   6
   4   4  -3 -3.5989  4.4998   7
   4   4   3 5.64862 5.18592   1
   4   4   3 3.86449 5.66626   7
  -8   4   3 -6.1538  7.2019   6
  -4   8  -3 2.60421 5.45724   7
  -4   8   3 4.11091 5.78687   1
  -4   8   3 4.32494 5.58632   2
  -4  -4   3 -0.1625  4.3184   4
   8  -4  -3 1.73378 5.98573   3
   8  -4   3 10.9449  5.6282   3
   8  -4   3 -1.1617  6.4056   1
  -4  -4   3 9.77066 5.08505   2
   8  -4  -3 -2.6216  5.5470   7
  -4   8   3 -3.3424  5.5407   6
   8  -4   3 -0.8166  6.5763   7
  -4   8  -3 18.0010  5.9511   6
   1  -8  -3 60.4035  8.9197   7
   7   1  -3 44.6252  7.6747   3
  -8   1   3 50.2946  8.8908   6
   1   7   3 58.5679  7.9280   1
  -8   7  -3 40.6504 10.1953   6
  -8   1   3 54.1586  9.2148   2
   7   1  -3 42.9077  6.9315   7
  -8   7  -3 56.9397  8.9732   7
   1   7   3 64.9063  8.4860   7
  -1   8   3 48.0769  7.7132   1
   8  -7   3 48.8919  9.3123   7
  -1   8   3 58.7396  8.2580   7
   8  -1  -3 64.9895  8.7090   3
  -7  -1   3 46.2517  8.2457   2
  -7   8  -3 50.7280  9.8010   6
  -7   8  -3 70.2836  9.3221   7
   8  -1  -3 47.4249  7.4258   7
  -7  -1   3 65.8872  8.2699   6
  -1   8   3 54.0334  7.1554   6
   9  -9  -3 -0.4197  7.8366   7
   9   0   3 7.89737 7.27316   7
  -9   0  -3 -5.5041  8.7502   6
   9   0   3 5.08895 6.21833   3
  -9   9   3 10.0157  9.0167   6
   9   0   3 0.68653 7.05853   1
  -9   9   3 1.48229 7.98735   1
   0   9  -3 -1.8228  6.2533   7
  -9   3  -3 488.144  21.201   6
   6   3   3 453.467  18.604   7
   3  -9   3 495.328  18.878   5
  -9   6   3 489.696  20.242   6
   3   6  -3 490.261  15.994   7
   6  -9  -3 477.401  18.851   7
   6   3   3 492.519  16.848   1
  -9   6   3 481.997  18.965   1
   9  -6  -3 492.595  18.482   7
   9  -3   3 476.914  19.372   1
   9  -6  -3 497.729  18.832   3
   9  -3   3 503.718  16.893   3
  -6   9   3 530.329  18.693   2
  -3   9  -3 458.631  17.530   7
  -3  -6   3 471.798  14.302   4
  -3   9  -3 519.449  17.568   1
  -6   9   3 491.543  18.192   6
  -6   9   3 481.405  18.959   1
   9  -3   3 459.396  19.139   7
  -6  -3  -3 506.376  18.048   6
   3   6   3 442.045  15.441   1
  -9   3   3 439.895  20.025   2
  -9   6  -3 454.349  21.041   6
   3   6   3 466.327  17.804   7
   6   3  -3 418.193  15.119   7
  -9   3   3 430.851  18.688   6
   3  -9  -3 480.592  18.573   7
  -3   9   3 446.899  15.354   6
  -6   9  -3 450.539  17.015   6
  -3   9   3 431.682  17.077   7
  -6  -3   3 438.662  15.383   2
   9  -6   3 453.418  19.503   1
   9  -3  -3 433.596  16.637   7
  -3   9   3 464.029  17.592   1
   9  -3  -3 399.441  17.230   3
  -6   9  -3 427.736  17.369   7
   9  -6   3 434.030  18.951   7
   0   9   3 2.59359 6.42449   7
   9   0  -3 -0.3811  6.8273   3
  -9   9  -3 9.60145 9.17791   6
  -9   0   3 -7.5391  6.9620   2
   9   0  -3 -7.1697  5.9579   7
  -9   9  -3 13.0793  8.1013   7
  -9   0   3 -2.4702  7.6885   6
   0   9   3 8.27734 6.71726   1
   8   2   3 11.2817  6.2945   3
   8   2   3 13.6086  7.6888   7
 -10   8   3 -8.5083  7.5849   1
 -10   8   3 4.81785 9.08375   6
   8   2   3 21.0253  7.6803   1
 -10   2  -3 -2.1614  9.6076   6
   2   8  -3 17.0676  7.0282   7
   8 -10  -3 8.61036 8.23189   7
  -2  -8   3 4.63744 6.22712   4
  -8  10   3 8.67198 9.03363   6
  -8  10   3 -6.9169  7.7780   1
  10  -8  -3 11.6165  8.3894   7
  -2  10  -3 6.81251 6.88581   7
  10  -2   3 -0.4370  7.9529   7
  -8  -2  -3 7.82743 8.87504   6
  10  -2   3 3.68345 7.93125   1
  10  -2   3 4.22222 6.47031   3
 -10   5   3 29.8642 10.3536   6
 -10   5  -3 28.5307 10.5955   6
   5   5   3 25.0887  8.1289   7
   5   5   3 43.7817  7.8160   1
   5 -10  -3 27.0464  8.5684   7
   5   5  -3 31.1393  6.9180   7
 -10   5   3 27.8871 10.7949   2
  10  -5  -3 17.5267  8.1821   3
  10  -5  -3 37.1937  8.3327   7
  -5  10   3 45.7282  9.2417   1
  -5  10   3 26.0752  7.6940   6
  10  -5   3 32.8474  9.2181   7
  10  -5   3 37.2526  8.0315   3
  -5  10  -3 33.0505  8.0814   7
  10  -5   3 46.6554 10.2237   1
   8   2  -3 25.1306  7.8435   3
   8   2  -3 27.9418  7.2944   7
 -10   2   3 36.2756 10.1297   6
 -10   8  -3 6.42514 9.67307   6
   2   8   3 33.0897  7.4478   1
 -10   2   3 49.9933 10.9239   2
   2   8   3 28.2151  8.3129   7
  -8  10  -3 21.8124  8.6992   7
  -8  10  -3 33.0056  9.4639   6
  -2  10   3 28.7798  8.2428   7
  10  -8   3 36.8247 10.0134   7
  -8  -2   3 31.3937  8.1054   2
  10  -2  -3 29.6471  8.7777   3
  -2  10   3 43.1983  8.8837   1
  10  -2  -3 48.3901  8.8450   7
  10   1   3 421.241  21.406   7
   1  10  -3 448.364  19.485   7
 -11   1  -3 477.190  23.752   6
  10   1   3 427.285  18.458   3
  10 -11  -3 453.122  22.458   7
  10   1   3 452.129  19.805   1
 -11  10   3 440.326  22.845   6
 -11  10   3 406.761  21.511   1
 -10  -1  -3 428.814  22.128   6
  11  -1   3 454.652  20.853   1
  11  -1   3 463.415  18.951   3
  -1  11  -3 415.637  19.900   7
 -10  11   3 420.511  21.914   6
 -10  11   3 463.530  22.397   1
  11  -1   3 432.929  21.999   7
  11 -10  -3 413.477  21.338   7
   7   4   3 680.011  23.615   7
 -11   7   3 692.069  28.363   2
   7 -11  -3 715.543  25.401   7
 -11   4  -3 698.710  27.213   6
   4   7  -3 694.177  21.516   7
 -11   7   3 701.201  26.897   6
  -7  11   3 686.090  23.091   6
  11  -4   3 669.832  22.399   3
  -4  11  -3 668.266  23.416   7
  11  -4   3 690.014  25.621   7
  11  -7  -3 654.614  23.848   3
  -7  11   3 661.143  24.625   1
  11  -4   3 684.539  25.024   1
  11  -7  -3 690.350  24.426   7
 -11   4   3 1754.69   43.07   6
 -11   7  -3 1800.87   44.93   6
 -11   4   3 1872.47   46.41   2
   7   4  -3 1745.62   38.49   7
   4   7   3 1846.22   41.74   7
  11  -7   3 1806.26   43.67   7
  11  -4  -3 1767.15   40.48   7
  11  -7   3 1760.19   43.64   1
  -7  11  -3 1727.85   41.30   7
  11  -4  -3 1818.98   41.94   3
  -4  11   3 1747.81   40.95   1
  10   1  -3 149.722  12.980   7
 -11   1   3 135.142  15.024   2
 -11   1   3 126.124  14.454   6
   1  10   3 145.337  14.047   7
 -11  10  -3 138.058  15.619   6
  10   1  -3 127.405  13.516   3
  -1  11   3 145.278  13.530   1
  11  -1  -3 132.632  13.017   7
 -10  11  -3 132.577  14.900   6
  11  -1  -3 109.405  13.061   3
 -10  -1   3 156.190  14.681   2
  12 -12  -3 -3.0506 10.4593   7
  12   0   3 11.7145 10.5174   7
 -12  12   3 -5.2137 12.2743   2
 -12   0  -3 25.6999 12.5332   6
   0  12  -3 3.72405 8.94249   7
 -12  12   3 15.4096 11.7773   6
 -12   9   3 543.178  26.787   2
   9   3   3 520.795  23.158   7
 -12   3  -3 517.888  25.496   6
 -12   9   3 510.493  24.754   6
   3   9  -3 509.210  20.808   7
   9   3   3 561.564  20.940   3
   9 -12  -3 516.574  24.534   7
  -9  12   3 487.715  23.560   1
  12  -3   3 543.870  23.369   1
  12  -9  -3 542.145  23.625   7
  -3  12  -3 500.228  21.876   7
  12  -3   3 534.299  21.462   3
  12  -3   3 539.917  23.833   7
  -9  12   3 560.157  23.344   6
 -12   6   3 1185.66   35.86   6
 -12   6  -3 1203.30   37.21   6
   6   6  -3 1201.69   30.49   7
 -12   6   3 1151.63   37.86   2
   6   6   3 1130.98   32.56   7
  12  -6  -3 1140.21   33.25   3
  12  -6   3 1184.90   34.89   7
  -6  12  -3 1177.11   33.14   7
  12  -6  -3 1152.58   32.91   7
  -6  12   3 1254.32   34.62   1
  12  -6   3 1116.61   33.94   1
   9   3  -3 555.608  22.156   3
   9   3  -3 539.463  20.922   7
 -12   3   3 511.900  25.108   2
   3   9   3 565.435  23.417   7
 -12   9  -3 541.213  25.940   6
 -12   3   3 589.197  25.022   6
  -3  12   3 577.591  22.425   1
  12  -3  -3 564.753  23.296   3
  12  -9   3 568.847  25.014   1
  12  -3  -3 542.281  22.278   7
  12   0  -3 8.32553 9.16397   3
  12   0  -3 -7.9838  8.0240   7
 -12  12  -3  3.7219 11.2617   6
  11   2   3 5.39897 9.81508   7
 -13  11   3 16.0091 13.3189   2
  11 -13  -3  2.7045 10.5434   7
 -13  11   3 -7.6585 11.1933   6
 -13   2  -3  0.9164 12.0586   6
   2  11  -3 9.19597 8.70523   7
 -11  13   3 -5.4560 10.5461   6
 -11  13   3 -11.410   9.363   1
  13  -2   3 -13.923   9.379   7
  13 -11  -3 10.1879 10.4336   7
  -2  13  -3 -2.0759  9.0175   7
  13  -2   3 -2.4602  9.5669   1
 -13   8   3 59.6621 13.9663   6
   8   5   3 80.8491 12.7896   7
   5   8  -3 93.1559 11.6017   7
 -13   8   3 73.4732 15.5760   2
 -13   5  -3 72.2638 14.5475   6
  -8  13   3 82.1008 12.7470   6
  13  -5   3 80.8716 12.5079   3
  13  -5   3 63.6598 12.8613   1
  13  -8  -3 73.2539 12.1150   7
  -8  13   3 78.5480 13.5994   1
  -5  13  -3 83.5358 12.4469   7
  13  -5   3 86.1316 13.8608   7
   8   5  -3 -1.1406  6.9409   7
 -13   8  -3  3.9101 11.3599   6
   5   8   3 0.03258 8.72167   7
 -13   5   3  6.5348 11.3529   6
 -13   5   3 -16.831  10.926   2
  13  -5  -3 5.12445 9.11685   7
  -5  13   3 0.26435 8.97693   1
  13  -5  -3 5.68979 8.99321   3
  -8  13  -3 1.51753 9.04579   7
  13  -8   3 11.3372 10.7672   1
 -13   2   3 268.878  20.444   2
   2  11   3 268.290  18.361   7
  11   2  -3 269.597  17.318   7
 -13  11  -3 256.567  20.122   6
  11   2  -3 239.648  17.511   3
  13  -2  -3 237.560  19.146   3
  13  -2  -3 289.523  18.257   7
 -11  13  -3 253.292  19.675   6
 -14  13   3 32.8752 14.3142   6
  13   1   3 17.5129 11.9473   7
 -14  13   3 30.7352 15.7861   2
   1  13  -3 16.2052 10.8277   7
 -13  14   3 13.9208 12.8949   6
  14 -13  -3  8.4985 12.3138   7
  -1  14  -3 27.0465 11.0870   7
  14  -1   3 23.3761 12.6168   7
 -14   4  -3 588.482  27.669   6
 -14  10   3 477.495  26.430   6
   4  10  -3 527.892  23.040   7
 -14  10   3 495.201  28.185   2
  10   4   3 574.549  25.356   7
  14  -4   3 520.822  26.353   7
  14  -4   3 526.957  24.930   1
 -10  14   3 526.690  24.688   6
 -10  14   3 487.060  26.424   1
  -4  14  -3 528.420  24.485   7
  14 -10  -3 512.328  24.908   7
 -14   7   3 699.120  32.127   2
   7   7  -3 729.898  25.571   7
   7   7   3 788.574  28.632   7
 -14   7  -3 759.668  31.329   6
 -14   7   3 710.443  30.176   6
  -7  14   3 693.502  28.726   1
  14  -7  -3 679.441  27.854   3
  14  -7   3 717.016  29.181   1
  -7  14  -3 786.924  28.847   7
  14  -7   3 753.874  30.306   7
  14  -7  -3 807.007  29.040   7
 -14   4   3 396.294  23.895   6
  10   4  -3 364.095  19.766   7
  10   4  -3 364.258  20.224   3
   4  10   3 409.243  21.996   7
 -14  10  -3 356.670  24.179   6
 -14   4   3 364.027  24.077   2
  14  -4  -3 387.173  21.900   3
  14  -4  -3 378.494  20.970   7
  -4  14   3 370.790  20.898   1
  14 -10   3 355.931  22.144   1
  13   1  -3 -4.1821  9.5350   3
 -14  13  -3 -8.5581 11.9217   6
  13   1  -3 17.7360 10.2514   7
  14  -1  -3 14.6054 10.2098   7
  14  -1  -3  1.3148 10.6541   3
 -13  14  -3 28.7014 13.4999   6
 -15  12   3 195.279  21.459   6
 -15  12   3 236.066  24.199   2
 -15   3  -3 190.208  20.918   6
   3  12  -3 215.395  17.373   7
  12   3   3 204.058  19.566   7
  -3  15  -3 192.166  19.183   7
 -12  15   3 198.371  20.629   1
 -12  15   3 203.031  19.537   6
  15 -12  -3 202.202  19.590   7
  15  -3   3 214.715  21.110   7
 -15   9   3 667.283  32.424   2
 -15   6  -3 626.287  29.881   6
   9   6   3 665.192  28.027   7
   6   9  -3 628.773  24.891   7
 -15   9   3 578.370  29.454   6
  15  -6   3 625.415  28.159   1
  15  -9  -3 621.336  27.511   7
  -6  15  -3 630.050  27.428   7
  15  -6   3 621.497  28.922   7
  -9  15   3 633.076  29.041   1
 -15   6   3 666.291  32.068   2
 -15   9  -3 640.523  30.180   6
 -15   6   3 755.991  31.733   6
   9   6  -3 671.364  26.007   7
   6   9   3 698.794  28.672   7
  15  -9   3 689.427  30.304   1
  -6  15   3 677.405  29.040   1
  15  -6  -3 688.538  28.130   7
  15  -6  -3 751.546  29.922   3
  12   3  -3 144.398  15.600   7
  12   3  -3 169.671  17.784   3
 -15   3   3 122.426  17.632   2
 -15  12  -3 140.073  18.809   6
  15 -12   3 160.367  18.586   1
  15  -3  -3 132.471  17.153   3
  15  -3  -3 132.977  16.358   7
   5  11  -3 31.5885 11.1459   7
  11   5   3 58.6724 13.7877   7
 -16  11   3 49.0782 16.1526   2
 -16  11   3 50.4578 15.3534   6
 -16   5  -3 59.2749 16.2622   6
  16  -5   3 40.4947 13.8521   7
 -11  16   3 48.7317 14.8152   1
  -5  16  -3 48.7850 13.9169   7
  16 -11  -3 35.8088 13.4525   7
 -16   8   3  6.1010 13.3636   6
   8   8  -3 -6.1001  8.3688   7
 -16   8  -3  6.1307 12.6650   6
 -16   8   3 -6.7550 12.7848   2
   8   8   3 16.7332 11.1338   7
  16  -8  -3 -9.5959 10.8392   7
  16  -8   3 -6.0587 11.9420   1
  -8  16   3 11.3160 12.2837   1
 -16  11  -3 67.1952 15.9587   6
 -16   5   3 91.3482 17.6431   6
 -16   5   3 78.1830 17.1465   2
  11   5  -3 64.9227 12.3473   7
  11   5  -3 74.4278 13.8029   3
   5  11   3 61.3460 14.7077   7
  16  -5  -3 78.4048 14.9366   3
  16 -11   3 31.9648 13.7989   1
  16  -5  -3 84.4624 14.6275   7
   0  -1   4 161.526   8.168   2
   0  -1   4 151.005   7.091   6
   1   0   4 154.099   8.019   6
   1   0   4 153.007   7.748   5
  -1   0  -4 143.754   7.681   5
   1   0   4 135.734   7.737   2
   1   0   4 144.214   6.082   4
   0  -1   4 133.448   6.848   4
   0  -1   4 140.626   8.196   5
   1  -1  -4 148.990   8.136   5
  -1   1   4 157.513   7.537   6
   0   1  -4 140.181   7.980   5
  -1   1   4 165.870   7.908   2
   2  -2   4 5630.02   93.93   5
   2  -2   4 5746.28   86.18   1
  -2   0   4 5717.27   88.90   2
  -2   0   4 5811.99   83.41   6
   2   0  -4 5667.82   93.80   5
   0   2   4 5674.28   84.59   6
   0   2   4 5650.41   86.67   2
   0  -2  -4 5815.29   90.98   5
   0   2   4 5677.62   86.16   1
   2   0  -4 5671.23   81.68   3
   2   1   4 3442.13   54.80   6
   1  -3   4 3447.44   56.88   2
  -3   2   4 3392.79   54.45   6
   2   1   4 3539.23   55.98   1
   1  -3   4 3470.38   51.14   4
  -3   2   4 3407.61   57.30   2
  -3   2   4 3460.55   54.31   1
   1   2  -4 3456.35   60.20   5
   1  -3   4 3363.74   60.26   5
   2   1   4 3484.12   57.19   5
  -2   3   4 3504.17   56.08   2
  -2   3   4 3506.73   54.91   6
  -1  -2   4 3515.32   51.02   6
   3  -2  -4 3407.64   52.68   3
   3  -1   4 3414.74   48.57   4
  -2  -1  -4 3478.66   46.89   4
   3  -1   4 3418.94   56.15   1
  -1   3  -4 3555.35   60.72   5
  -1  -2   4 3400.10   60.00   5
  -2   3   4 3524.16   55.53   1
  -1  -2   4 3495.01   56.52   2
  -1  -2   4 3537.60   50.78   4
  -4   4   4 577.135  15.776   1
   4   0   4 551.508  10.385   4
   4   0   4 589.842  12.465   3
   0   4  -4 572.957  13.151   7
  -4   4   4 571.017  16.420   6
   0   4  -4 593.791  16.874   5
   0  -4   4 557.295  16.511   5
   4  -4  -4 561.052  14.569   7
   0  -4   4 586.682  15.179   2
   0  -4   4 594.956  14.979   4
  -4   4   4 563.748  16.382   2
   4   0   4 591.667  16.445   1
   1   3   4 823.098  19.063   1
  -4   3  -4 777.796  19.917   6
   3   1  -4 804.107  20.408   5
  -4   1   4 833.866  20.213   2
   1   3   4 824.431  18.243   6
  -4   1   4 820.911  18.226   6
   3  -4   4 804.683  19.654   1
   4  -3   4 819.539  20.390   1
  -3   4  -4 798.074  18.874   6
  -1   4   4 796.567  18.201   6
  -1   4   4 830.565  19.257   1
  -3  -1   4 824.840  19.117   2
   4  -1  -4 823.826  18.527   3
  -3  -1   4 829.875  16.148   6
  -1  -3  -4 799.211  15.281   5
  -3   4  -4 806.088  18.465   7
   2   3  -4 6757.92   99.04   7
   2  -5   4 6610.84  111.73   5
  -5   3   4 6656.37  101.66   6
   3   2   4 6750.36  102.74   1
   3   2   4 6627.43  105.16   5
  -5   2  -4 6631.02  103.28   6
  -5   3   4 6561.76  106.67   2
   3  -5  -4 6713.98  103.45   7
   2   3  -4 6768.59  110.46   5
  -5   3   4 6881.01  102.04   1
   5  -2   4 6550.36  104.05   1
  -3   5   4 6583.57  100.90   6
  -2  -3   4 6620.22  103.52   2
  -2   5  -4 6962.64   98.39   6
  -3   5   4 6711.58  103.43   2
   5  -3  -4 6579.19  101.07   7
   5  -3  -4 6646.57   99.01   3
  -2   5  -4 6452.11  102.11   7
  -3   5   4 6802.10  103.50   1
  -2  -3   4 6810.99   92.72   4
   5   0  -4 5951.12   91.88   3
   0  -5  -4 6135.75   96.68   7
  -5   5  -4 6020.00   97.01   7
  -5   0   4 6203.75   91.85   6
   0   5   4 5991.16   91.89   6
  -5   0   4 6094.42   98.30   2
   5   0  -4 6079.61   91.57   7
   0  -5  -4 6181.38   94.84   5
  -5   5  -4 6142.41   95.81   6
   0   5   4 6065.13   95.15   1
   5   1   4 435.739  15.171   1
  -6   5   4 404.059  14.884   1
  -6   1  -4 456.842  16.815   6
   5  -6  -4 398.836  14.311   7
   5   1   4 438.271  12.001   3
  -6   5   4 432.350  16.205   2
   1   5  -4 401.926  12.072   7
  -6   5   4 435.764  16.069   6
   5   1   4 430.262  15.293   7
   1  -6   4 427.811  15.194   5
  -5   6   4 449.047  15.635   2
  -1   6  -4 417.360  13.206   7
   6  -5  -4 444.429  14.224   7
  -5   6   4 436.229  15.467   6
  -1  -5   4 419.124  13.087   2
   6  -1   4 435.072  15.671   7
   6  -1   4 414.500  12.261   3
  -5   6   4 415.327  15.125   1
  -1  -5   4 457.110  13.421   4
  -1  -5   4 424.910  14.527   5
   6  -5  -4 417.286  14.860   3
   6  -1   4 409.244  15.357   1
  -6   2   4 248.903  12.840   2
   2  -6  -4 212.461  11.093   7
  -6   4  -4 234.543  11.707   7
   4   2  -4 233.750   8.194   7
  -6   2   4 240.623  11.378   6
  -6   2   4 248.465  10.513   1
   2   4   4 209.643  10.698   1
  -6   4  -4 240.654  13.597   6
   2   4   4 222.102  10.242   6
  -2   6   4 228.572  11.468   1
  -4  -2   4 243.786  10.827   2
  -2   6   4 225.784  10.655   6
   6  -2  -4 241.862   9.623   7
   6  -4   4 244.639  13.068   1
  -4  -2   4 238.780   8.180   6
   6  -2  -4 234.946  11.441   3
  -4   6  -4 225.169  10.983   7
  -4   6  -4 247.032  11.775   6
  -2   6   4 237.820   8.565   2
   7   0   4 729.776  18.276   3
   0   7  -4 711.237  19.184   7
   7  -7  -4 704.392  21.283   7
  -7   0  -4 737.605  23.002   6
   0  -7   4 707.830  20.849   5
   0  -7   4 710.295  19.136   4
  -7   7   4 742.908  23.283   2
  -7   7   4 717.806  22.095   1
   7   0   4 710.055  21.399   1
  -7   7   4 773.838  23.018   6
   7   0   4 748.442  22.410   7
   3   4  -4 604.751  15.041   7
  -7   3  -4 585.181  18.591   7
  -7   4   4 618.956  19.725   6
   3  -7   4 632.475  20.377   5
  -7   3  -4 624.029  20.894   6
   4  -7  -4 573.491  18.012   7
   4   3   4 601.363  18.686   7
  -7   4   4 593.688  18.076   1
   4   3   4 585.963  17.701   1
  -7   4   4 631.102  20.874   2
  -7   3  -4 580.913  18.541   7
  -4   7   4 598.261  18.762   1
  -3  -4   4 614.122  16.417   2
   7  -4  -4 583.657  18.368   3
  -3   7  -4 613.591  17.502   7
  -3   7  -4 613.947  15.645   6
  -4   7   4 599.731  16.760   2
   7  -4  -4 609.827  17.196   7
   7  -3   4 582.534  19.544   1
  -3  -4   4 602.973  15.299   4
   7  -3   4 611.001  19.707   7
   7  -3   4 617.324  16.024   3
  -4   7   4 607.331  17.941   6
   6   1  -4 21.4711  4.9890   7
  -7   6  -4 17.6949  6.8369   7
  -7   1   4 26.1168  7.4121   2
  -7   6  -4 27.5257  8.6267   6
   6   1  -4 25.4069  6.4663   3
   1   6   4 28.2813  6.4467   1
  -7   1   4 28.9622  6.9597   6
   1   6   4 34.7634  6.1808   6
   1  -7  -4 6.22037 6.10512   7
   1   6   4 17.0021  6.0209   7
   7  -1  -4 22.0890  5.2911   7
  -1  -6  -4 19.4632  6.5710   7
   7  -1  -4 11.7683  6.2133   3
  -6  -1   4 21.5262  5.6700   6
  -1   7   4 12.8065  6.1040   1
  -1   7   4 13.7732  5.8045   6
  -6   7  -4 23.9996  7.5686   6
  -6  -1   4 24.6094  6.8052   2
  -6   7  -4 11.5874  6.4962   7
   7  -6   4 6.01535 7.05353   1
  -1   7   4 22.5571  6.2920   7
   6   2   4 2315.55   46.45   7
   2  -8   4 2257.43   47.15   5
   6   2   4 2320.74   40.45   3
  -8   6   4 2320.58   46.34   1
  -8   6   4 2292.51   49.08   2
  -8   6   4 2348.60   47.40   6
   6   2   4 2329.71   44.67   1
   6  -8  -4 2308.84   45.71   7
   2   6  -4 2266.87   42.12   7
  -8   2  -4 2305.00   47.92   6
  -6   8   4 2298.39   45.66   2
  -6   8   4 2260.73   46.38   1
   8  -6  -4 2251.67   44.67   3
  -2  -6   4 2357.48   39.69   4
  -2   8  -4 2225.12   43.72   7
   8  -2   4 2286.92   41.09   3
  -6   8   4 2316.68   45.28   6
   8  -2   4 2283.41   47.12   7
   8  -2   4 2280.79   46.59   1
   8  -6  -4 2306.85   45.43   7
  -8   5  -4 7207.26  117.56   6
   5   3  -4 7259.66  111.62   7
  -8   5  -4 7217.59  117.43   7
  -8   3   4 7225.31  114.65   6
   3  -8  -4 7344.07  117.16   7
   3   5   4 7229.67  113.71   1
  -8   3   4 7190.76  120.96   2
   3   5   4 7318.15  116.38   7
   8  -5   4 7437.38  119.33   7
  -3  -5  -4 7189.38  116.08   7
   8  -3  -4 7195.47  113.90   7
  -3   8   4 7279.24  111.29   6
   8  -5   4 7151.39  118.00   1
  -5   8  -4 7028.08  115.80   7
  -5   8  -4 7406.42  111.63   6
  -3   8   4 7328.15  115.69   1
  -5  -3   4 7335.80  115.31   2
   8  -3  -4 7215.95  112.03   3
  -8   0   4 6889.84  115.26   2
   8   0  -4 6758.60  108.74   3
  -8   8  -4 7024.59  114.72   7
  -8   0   4 7012.62  108.50   6
  -8   8  -4 7055.36  113.44   6
   0   8   4 6889.93  111.16   1
   8   0  -4 6748.09  109.21   7
   0   8   4 6918.88  105.61   6
   0   8   4 6943.91  112.89   7
  -9   8   4 997.006  30.948   2
   8   1   4 933.597  27.972   7
   8   1   4 967.056  26.706   1
  -9   8   4 967.327  29.474   6
   8  -9  -4 946.435  28.089   7
  -9   8   4 975.926  28.758   1
  -9   1  -4 908.861  28.803   6
   8   1   4 974.470  24.043   3
   1   8  -4 924.830  24.810   7
  -1  -8   4 963.765  23.635   4
  -8   9   4 942.535  28.985   2
  -8   9   4 940.492  28.221   6
  -8   9   4 989.094  28.795   1
  -8  -1  -4 992.751  28.415   6
   9  -1   4 984.814  29.082   7
   9  -1   4 964.993  24.250   3
  -1   9  -4 930.364  25.652   7
   9  -8  -4 936.401  27.558   7
   9  -1   4 981.679  27.830   1
  -9   5   4 424.540  20.558   2
   5  -9  -4 410.788  17.800   7
   4  -9   4 472.397  19.642   5
  -9   5   4 461.765  19.657   6
   4   5  -4 477.164  15.373   7
   5   4   4 460.568  16.951   1
  -9   4  -4 494.026  21.236   6
   5   4   4 462.305  18.558   7
  -5   9   4 441.669  18.312   1
  -5   9   4 483.775  17.391   6
   9  -4   4 461.558  16.105   3
   9  -5  -4 441.144  17.815   3
   9  -4   4 434.109  18.929   7
  -4  -5   4 475.855  14.172   4
   9  -5  -4 464.485  17.223   7
  -4   9  -4 444.609  17.239   7
   9  -4   4 436.823  19.315   1
  -9   2   4 309.744  17.368   2
  -9   7  -4 300.694  16.038   7
   2   7   4 305.545  14.925   7
   7   2  -4 283.010  14.756   3
  -9   2   4 284.200  15.690   6
   2  -9  -4 287.609  15.401   7
  -9   7  -4 328.980  18.556   6
   2   7   4 267.572  13.732   1
   7   2  -4 273.609  12.677   7
  -2   9   4 272.070  14.607   1
   9  -7   4 251.134  16.557   1
  -7   9  -4 319.270  16.185   6
  -2   9   4 289.359  13.500   6
  -7  -2   4 293.288  14.387   2
   9  -2  -4 280.251  13.696   7
   9  -2  -4 297.515  15.594   3
  -7   9  -4 325.039  15.962   7
   0 -10   4 3450.73   59.17   4
   0  10  -4 3503.43   65.14   7
 -10  10   4 3411.17   68.99   1
  10   0   4 3314.13   65.20   1
  10 -10  -4 3454.59   68.26   7
 -10   0  -4 3361.08   67.97   6
 -10  10   4 3210.75   69.65   2
 -10  10   4 3271.35   67.58   6
  10   0   4 3573.62   69.03   7
   7   3   4 1506.15   34.64   1
 -10   7   4 1494.26   37.33   1
 -10   3  -4 1509.20   39.53   6
   3   7  -4 1514.96   33.40   7
   7 -10  -4 1460.17   36.79   7
   3 -10   4 1513.44   37.09   5
 -10   7   4 1499.31   40.95   2
   7   3   4 1556.66   37.16   7
 -10   7   4 1499.02   38.68   6
   7   3   4 1575.16   32.50   3
  -7  10   4 1453.30   35.59   6
  -3  10  -4 1449.98   35.33   7
  -7  10   4 1552.54   37.97   1
  -3  -7   4 1517.66   30.23   4
  10  -7  -4 1488.96   36.01   7
  10  -3   4 1478.50   32.73   3
  10  -3   4 1474.85   37.47   1
  -7  10   4 1570.69   36.53   2
  -7  -3  -4 1523.35   35.59   6
  10  -3   4 1456.46   37.90   7
 -10   4   4 376.924  19.205   6
   6   4  -4 383.798  15.244   7
   4 -10  -4 409.751  18.807   7
   4   6   4 389.811  17.692   7
   4   6   4 415.108  16.499   1
 -10   4   4 398.238  20.759   2
 -10   6  -4 367.782  20.233   6
  10  -6   4 383.644  19.666   1
  10  -6   4 390.290  19.721   7
  10  -4  -4 405.052  17.071   7
  10  -4  -4 369.850  17.850   3
  -4  10   4 388.049  16.355   6
  -6  10  -4 404.943  17.791   7
  -4  10   4 375.198  17.597   1
   1   9   4 185.529  14.986   7
 -10   1   4 206.489  16.058   2
   9   1  -4 233.301  14.060   7
 -10   9  -4 228.696  17.713   6
 -10   1   4 214.245  15.332   6
   9   1  -4 204.652  14.597   3
   1   9   4 236.372  14.047   1
  10  -1  -4 235.092  14.263   7
  -9  10  -4 245.341  16.828   6
  -9  10  -4 243.278  16.717   7
  -9  -1   4 223.375  15.144   2
  -1  10   4 230.967  14.576   1
  10  -1  -4 222.704  15.102   3
 -11   9   4 448.386  21.530   1
 -11   2  -4 393.692  22.329   6
   9   2   4 438.982  20.871   7
   9   2   4 441.452  19.437   1
   9 -11  -4 457.207  21.838   7
 -11   9   4 397.208  21.946   6
 -11   9   4 442.027  23.904   2
   2   9  -4 422.219  18.040   7
  11  -9  -4 453.589  21.075   7
  11  -2   4 441.899  21.912   7
  -9  -2  -4 472.388  21.643   6
  11  -2   4 422.373  20.141   1
  -9  11   4 426.721  21.650   1
  -9  11   4 442.975  21.840   2
  -2  11  -4 404.221  19.144   7
  -9  11   4 463.064  21.799   6
 -11   6   4 1255.11   38.58   2
 -11   5  -4 1379.71   38.45   6
   5   6  -4 1267.46   30.56   7
   6   5   4 1331.76   32.15   1
   6 -11  -4 1323.61   35.14   7
   6   5   4 1320.33   34.54   7
 -11   6   4 1298.40   36.16   6
  -6  11   4 1303.01   35.36   1
  11  -5   4 1300.46   36.11   7
  11  -6  -4 1258.74   34.12   3
  -6  11   4 1333.43   32.70   6
  11  -6  -4 1308.21   33.95   7
  11  -5   4 1308.30   35.91   1
  -5  11  -4 1265.03   33.64   7
 -11   3   4 2916.08   59.74   6
 -11   3   4 2984.79   63.61   2
   3   8   4 3074.49   59.74   7
 -11   8  -4 2862.92   62.19   6
   8   3  -4 3053.90   56.00   7
   3   8   4 2938.77   56.24   1
   8   3  -4 2894.21   57.84   3
  11  -8   4 2976.49   62.63   1
  -3  11   4 2903.81   58.81   1
  11  -3  -4 2889.74   58.87   3
  -8  11  -4 2963.92   59.93   7
  11  -3  -4 2902.24   57.12   7
  11   0  -4 2005.30   47.24   3
  11   0  -4 2034.70   44.99   7
   0  11   4 2081.99   45.90   1
 -11   0   4 2025.71   48.43   2
 -11  11  -4 1983.71   48.63   6
 -12  11   4 31.1880 13.7170   2
 -12  11   4  1.3545 10.4676   1
 -12   1  -4 31.0358 12.7366   6
  11 -12  -4 12.3526 10.3999   7
  11   1   4 12.4871 10.5370   7
 -12  11   4 39.7964 13.3059   6
   1  11  -4 9.46181 8.76115   7
  12  -1   4  4.9294 10.2238   1
 -11  12   4 44.2491 13.8069   2
  12  -1   4  4.2685 10.4550   7
  -1  12  -4 15.3109  9.2598   7
 -11  12   4 13.2791 10.2175   1
 -11  12   4 37.8988 12.7612   6
 -11  -1  -4 25.0184 12.1443   6
  12 -11  -4 10.1172 10.1156   7
   8 -12  -4 89.9568 13.5038   7
 -12   4  -4 107.393  16.161   6
 -12   8   4 91.8027 14.3850   6
 -12   8   4 72.4401 14.9344   2
   8   4   4 72.5967 12.0046   7
   4   8  -4 54.9621  9.5552   7
  -8  12   4 96.4417 13.0535   6
  12  -4   4 84.2081 11.6488   3
  12  -8  -4 88.3586 12.2487   7
  -4  12  -4 70.1358 10.9582   7
  -8  12   4 72.8882 12.8521   1
  12  -4   4 93.2360 13.7213   7
  12  -4   4 91.6024 12.9765   1
 -12   5   4 168.921  16.670   6
   5   7   4 197.230  16.023   7
 -12   7  -4 134.555  16.803   6
 -12   5   4 189.054  19.165   2
   7   5  -4 148.866  12.165   7
  12  -7   4 151.097  15.864   1
  -5  12   4 196.145  16.308   1
  -7  12  -4 166.360  14.905   7
  12  -5  -4 123.752  13.216   7
  12  -5  -4 150.541  15.277   3
  10   2  -4 240.778  16.687   3
  10   2  -4 221.825  15.454   7
 -12   2   4 263.313  19.521   2
 -12   2   4 250.674  18.634   6
 -12  10  -4 250.620  20.843   6
  -2  12   4 290.840  17.895   1
  12  -2  -4 263.236  18.052   3
  12 -10   4 271.625  19.561   1
  12  -2  -4 254.427  16.602   7
 -10  12  -4 253.054  18.253   6
 -13  13   4 3006.97   69.50   6
  13 -13  -4 3163.85   70.50   7
 -13  13   4 3066.35   72.57   2
   0  13  -4 3158.49   66.96   7
  13   0   4 3171.61   70.45   7
 -13  10   4 1893.09   53.17   2
  10 -13  -4 1946.45   49.92   7
 -13  10   4 2002.87   52.12   6
   3  10  -4 1970.13   45.39   7
  10   3   4 1984.61   49.31   7
 -13   3  -4 1934.76   51.05   6
  13  -3   4 1982.87   48.65   1
 -10  13   4 1885.34   49.82   1
  13  -3   4 2074.82   51.04   7
  13 -10  -4 2063.17   49.81   7
 -10  13   4 1948.11   48.21   6
  -3  13  -4 2000.13   48.03   7
   6   7  -4 729.022  24.179   7
 -13   7   4 695.273  28.833   6
 -13   7   4 721.471  31.363   2
   7   6   4 809.863  28.024   7
 -13   6  -4 715.554  30.026   6
  13  -7  -4 730.942  26.780   7
  -7  13   4 768.805  28.409   1
  13  -6   4 706.329  28.449   1
  13  -7  -4 718.375  27.596   3
  -6  13  -4 714.856  26.699   7
 -13   4   4 99.5299 15.5516   6
 -13   9  -4 123.661  16.673   6
   9   4  -4 131.015  14.074   3
   4   9   4 152.903  15.752   7
   9   4  -4 126.716  12.793   7
 -13   4   4 139.350  17.448   2
  13  -9   4 111.003  15.387   1
  13  -4  -4 123.177  14.737   3
  -4  13   4 134.560  14.602   1
  -9  13  -4 117.474  14.736   7
  13  -4  -4 125.668  13.944   7
  12   1  -4 182.674  15.867   7
  12   1  -4 194.985  17.688   3
 -13   1   4 194.260  18.490   2
 -13  12  -4 184.190  19.199   6
  13  -1  -4 171.526  17.452   3
 -12  13  -4 209.441  18.845   6
  13 -12   4 190.658  19.208   1
  13  -1  -4 186.532  16.675   7
 -14  12   4 43.3337 15.1988   6
  12 -14  -4 38.3089 13.3123   7
 -14   2  -4 12.9509 13.6151   6
  12   2   4 63.6461 14.4395   7
   2  12  -4 41.7109 11.4480   7
 -14  12   4 39.0499 15.6273   2
  -2  14  -4 43.3937 11.7526   7
  14 -12  -4 24.1110 12.6453   7
  14  -2   4 43.6433 14.0919   7
 -12  14   4 32.6770 13.0766   1
 -12  14   4 38.8211 13.7983   6
 -14   9   4 439.310  27.439   2
 -14   5  -4 471.456  26.488   6
   5   9  -4 502.795  21.386   7
   9   5   4 529.764  24.811   7
 -14   9   4 470.924  26.654   6
  -5  14  -4 464.570  23.335   7
  14  -5   4 505.467  25.219   1
  14  -9  -4 490.461  24.152   7
  -9  14   4 459.896  25.025   1
 -14   6   4 808.327  34.341   2
   6   8   4 870.558  30.606   7
   8   6  -4 867.222  27.432   7
 -14   8  -4 795.366  32.898   6
 -14   6   4 807.365  31.756   6
  -8  14  -4 839.513  30.471   7
  -6  14   4 751.470  29.417   1
  14  -6  -4 848.944  31.306   3
  14  -8   4 842.727  31.966   1
  14  -6  -4 832.195  29.243   7
  11   3  -4 778.326  29.345   3
 -14  11  -4 752.346  32.460   6
  11   3  -4 798.160  27.715   7
 -14   3   4 814.748  32.698   2
  14  -3  -4 829.067  30.934   3
  14 -11   4 825.887  32.373   1
  14  -3  -4 783.318  28.528   7
  -3  14   4 815.854  29.579   1
 -14  14  -4 558.256  28.306   6
  14 -14   4 611.685  29.619   1
  14   0  -4 521.965  24.535   7
  14   0  -4 603.193  28.227   3
 -15  11   4 213.277  21.774   6
 -15  11   4 186.301  21.771   2
  11   4   4 245.987  20.191   7
   4  11  -4 194.153  17.225   7
 -15   4  -4 189.433  20.863   6
  15  -4   4 213.785  20.056   1
  15 -11  -4 212.262  19.506   7
 -11  15   4 203.914  20.246   1
  -4  15  -4 178.966  18.810   7
 -11  15   4 240.064  20.834   6
   7   8  -4 888.039  29.115   7
 -15   8   4 930.131  37.825   2
   8   7   4 934.086  33.125   7
 -15   8   4 926.287  35.764   6
 -15   7  -4 867.247  35.277   6
  -8  15   4 907.811  34.133   1
  15  -7   4 910.379  34.187   1
  15  -8  -4 915.838  32.311   7
  -7  15  -4 963.229  33.496   7
 -15   5   4 1354.77   42.08   6
 -15  10  -4 1278.71   41.65   6
  10   5  -4 1327.13   38.91   3
  10   5  -4 1255.34   36.03   7
 -15   5   4 1460.87   45.70   2
  -5  15   4 1276.37   39.49   1
  15  -5  -4 1321.91   40.18   3
  15  -5  -4 1324.27   38.72   7
  15 -10   4 1252.35   41.43   1
 -15  13  -4 895.009  35.182   6
  13   2  -4 846.223  32.547   3
  13   2  -4 850.016  30.074   7
 -15   2   4 791.948  33.636   2
  15  -2  -4 825.822  32.599   3
  15  -2  -4 807.448  30.852   7
 -16  10   4 1142.82   42.10   6
 -16   6  -4 1189.86   41.96   6
   6  10  -4 1176.76   35.93   7
 -16  10   4 1137.36   43.97   2
  10   6   4 1207.60   39.68   7
 -10  16   4 1226.44   41.76   1
  -6  16  -4 1275.15   40.93   7
 -16   7   4 161.388  20.710   6
   9   7  -4 215.098  16.975   7
 -16   9  -4 174.764  19.815   6
 -16   7   4 201.482  22.352   2
  16  -7  -4 205.589  20.100   3
  16  -9   4 173.244  19.793   1
  -7  16   4 190.462  20.454   1
   1   0  -5 1.42806 4.94665   5
   1  -1   5 -4.4451  4.6977   5
  -1   0   5 -2.6002  4.2495   6
   1  -1   5 -5.1540  4.0624   1
   0   1   5 0.61742 4.57655   5
   1  -1   5 -0.3813  4.0985   4
  -1   0   5 4.04645 4.69178   2
   1  -1   5 0.42434 4.65131   6
   1   0  -5 -0.0281  3.2990   3
   0   1   5 2.88173 4.41526   2
   1  -1   5 -2.8818  4.7327   2
  -1   1  -5 -0.9611  4.6053   5
   0   1   5 3.71771 4.20725   1
   0   1   5 1.33704 4.55430   6
   0  -1  -5 2.96045 4.39427   5
   2   0   5 3.69341 4.57997   5
   0  -2   5 1.38488 4.71217   2
   2   0   5 6.85101 4.73135   1
   2  -2  -5 3.83304 3.78665   3
   0  -2   5 3.78188 3.84220   6
  -2   2   5 3.73970 4.75617   2
   0   2  -5 14.0796  5.1923   5
   2   0   5 7.97673 3.81589   4
  -2   2   5 3.77644 4.10808   1
   0  -2   5 -0.9185  4.7810   5
   0  -2   5 0.04064 4.39211   4
  -2   2   5 -4.8439  4.4443   6
   1  -3  -5 1260.06   25.19   5
  -3   1   5 1253.57   24.07   6
   1   2   5 1207.23   24.53   6
   1  -3  -5 1189.48   23.83   7
   2  -3   5 1227.76   23.46   4
   2  -3   5 1313.85   24.89   1
   1   2   5 1237.36   24.04   5
   1   2   5 1233.68   23.75   2
  -3   1   5 1250.42   26.21   2
   2  -3   5 1234.78   28.09   5
   1   2   5 1258.48   25.40   1
   2   1  -5 1247.89   27.58   5
  -2  -1   5 1218.85   25.69   2
  -1  -2  -5 1218.21   23.74   5
  -1   3   5 1270.25   24.12   2
  -2  -1   5 1252.00   23.11   4
   3  -2   5 1243.63   22.55   4
  -2  -1   5 1237.00   22.36   6
  -1   3   5 1240.74   25.02   1
   3  -2   5 1227.23   25.53   1
  -2   3  -5 1197.08   23.26   7
  -1   3   5 1233.38   24.73   6
   3  -2   5 1213.97   27.81   5
   3  -1  -5 1262.42   23.60   3
  -4   3   5 785.543  19.616   6
   1  -4   5 830.843  20.112   2
  -4   3   5 804.640  20.479   2
  -4   3   5 806.274  18.794   1
   1  -4   5 832.477  21.794   5
   1  -4   5 825.330  18.847   4
   3   1   5 845.425  18.855   5
  -4   1  -5 803.052  19.837   7
   3   1   5 831.328  20.287   1
   3  -4  -5 818.256  18.318   7
  -1  -3   5 828.849  15.315   6
   4  -1   5 832.415  14.807   3
  -1   4  -5 824.705  17.243   7
  -3  -1  -5 760.738  19.687   7
   4  -3  -5 834.813  17.032   7
  -1  -3   5 821.936  19.703   2
  -3   4   5 826.282  19.620   2
   4  -3  -5 840.969  18.913   3
  -1  -3   5 836.350  18.355   4
   4  -1   5 793.351  20.283   1
  -1  -3   5 811.028  21.259   5
  -3   4   5 823.692  19.704   1
   4  -1   5 788.898  15.513   4
  -3   4   5 827.555  19.904   6
  -4   0   5 -4.4302  4.3409   6
   0  -4  -5 -5.2993  4.5898   7
   0   4   5 4.21353 3.77009   2
   0  -4  -5 -5.4732  3.4362   5
   4  -4   5 -18.513   5.163   1
  -4   4  -5 13.8345  6.1724   6
   0   4   5 0.59740 5.05953   6
  -4   4  -5 -3.5279  4.7297   7
  -4   0   5 -12.550   4.637   2
   0   4   5 -8.4491  4.2759   1
   4   0  -5 -7.0188  4.4295   3
  -5   5   5 1.09639 5.71469   6
   5   0   5 2.07555 5.57527   1
   5  -5  -5 -4.0460  4.2546   7
   5   0   5 3.54636 2.73530   4
   5   0   5 -11.984   3.361   3
   0   5  -5 3.23042 3.59727   7
   0  -5   5 0.85809 5.16392   5
  -5   5   5 8.37899 5.39272   1
   0  -5   5 -0.3711  4.8985   4
  -5   0  -5 2.80507 5.43189   7
   0  -5   5 -1.3049  5.1846   2
  -5   5   5 -9.4283  5.5928   2
   3  -5   5 11.8530  6.5775   5
   2   3   5 23.8250  5.8073   1
   3  -5   5 22.7915  6.1982   1
  -5   2   5 15.3978  5.6163   6
   2   3   5 22.9046  5.8280   6
  -5   3  -5 22.2429  5.9896   7
   2  -5  -5 23.6313  5.4732   7
  -5   2   5 29.0286  6.4649   2
  -5   2   5 27.2532  5.1075   1
  -5   3  -5 16.0090  6.7620   6
  -3  -2   5 29.3584  4.3603   6
  -2   5   5 22.0583  5.6560   1
   5  -3   5 27.0033  6.5222   1
   5  -2  -5 25.7577  4.1001   7
  -3   5  -5 22.4063  6.2380   6
  -2   5   5 19.6616  5.1111   2
  -2   5   5 19.8651  5.7061   6
   5  -2  -5 16.3717  5.5135   3
  -2  -3  -5 15.8523  5.5676   7
  -3   5  -5 32.0918  5.3583   7
  -3  -2   5 17.1737  5.1836   4
  -3  -2   5 23.1309  5.8439   2
   4   2   5 929.596  23.266   1
   2   4  -5 985.887  19.011   7
  -6   2  -5 926.386  25.085   6
   4   2   5 944.499  20.218   5
   4  -6  -5 994.906  23.348   7
  -6   4   5 954.298  22.955   1
   2  -6   5 938.139  25.368   5
  -6   2  -5 986.588  24.145   7
  -6   4   5 933.413  25.124   2
  -6   4   5 943.805  23.785   6
  -2   6  -5 949.750  21.540   7
  -4   6   5 966.404  23.928   1
  -4   6   5 995.161  23.043   2
   6  -2   5 941.819  19.209   3
  -2  -4   5 957.058  22.350   2
  -4   6   5 977.718  23.731   6
  -2  -4   5 958.756  20.887   4
   6  -4  -5 968.251  23.126   3
  -4  -2  -5 929.500  23.892   7
   6  -2   5 934.241  24.778   1
   6  -4  -5 962.099  21.288   7
  -2   6  -5 1005.96   20.27   6
   5  -6   5 576.592  19.475   1
  -6   1   5 583.579  19.127   2
  -6   1   5 543.823  16.562   6
  -6   5  -5 567.056  18.291   7
   1   5   5 569.323  16.456   6
   1   5   5 584.185  17.757   1
  -6   5  -5 572.410  19.385   6
  -6   1   5 625.722  15.338   1
   1  -6  -5 547.787  17.591   7
   5   1  -5 587.352  13.161   7
   5   1  -5 549.639  17.198   3
  -5  -1   5 576.870  17.962   2
  -5   6  -5 578.512  17.898   7
   6  -5   5 565.576  19.517   1
   6  -1  -5 583.262  17.753   3
  -1   6   5 562.998  16.645   6
  -1   6   5 568.662  17.836   1
   6  -1  -5 546.006  13.900   7
  -5  -1   5 598.787  14.991   6
  -1  -5  -5 566.743  17.654   7
  -5   6  -5 591.933  18.827   6
   6   1   5 2981.47   55.32   7
   1  -7   5 2974.50   56.98   5
  -7   6   5 3009.59   54.88   6
   6   1   5 2912.69   53.89   1
  -7   6   5 2877.44   56.38   2
  -7   1  -5 2863.76   54.99   6
   6  -7  -5 2896.88   53.54   7
  -7   1  -5 2916.58   54.77   7
   6   1   5 2946.21   47.22   3
   1   6  -5 2920.17   50.03   7
  -7   6   5 2976.02   54.48   1
  -1  -6   5 2842.17   55.63   5
   7  -1   5 2937.93   55.30   7
   7  -6  -5 2872.28   52.73   7
  -6   7   5 2887.79   54.58   2
  -6  -1  -5 2924.04   54.50   7
   7  -1   5 2857.23   54.64   1
  -6   7   5 2796.22   53.99   1
  -1  -6   5 2961.18   48.37   4
  -1   7  -5 2841.41   51.27   7
  -1  -6   5 2982.36   51.77   2
   7  -1   5 2817.04   47.26   3
  -6   7   5 2926.42   53.84   6
   3   4   5 889.966  23.250   7
  -7   3   5 865.691  25.327   2
  -7   4  -5 876.045  25.467   6
  -7   3   5 898.263  23.567   6
   4   3  -5 875.221  18.416   7
   3   4   5 858.864  22.907   1
   3  -7  -5 897.595  23.352   7
  -7   3   5 917.191  22.396   1
  -7   4  -5 854.478  23.752   7
   4  -7   5 906.256  26.687   5
  -3   7   5 910.888  22.709   6
  -4   7  -5 899.468  22.284   6
  -3   7   5 875.359  23.675   1
   7  -4   5 857.737  24.973   1
  -4   7  -5 836.607  22.455   7
  -3   7   5 897.680  20.293   2
  -4  -3   5 874.752  19.786   4
  -3  -4  -5 897.599  23.341   7
  -4  -3   5 886.197  22.162   2
   7  -3  -5 880.735  23.406   3
   7  -3  -5 891.582  20.589   7
  -7   7  -5 0.91946 7.80841   6
   0   7   5 0.87747 5.44492   6
  -7   0   5 -1.3902  6.6164   2
   0  -7  -5 6.22057 6.16905   7
   7  -7   5 2.35373 7.72549   1
   7   0  -5 -0.9219  5.7782   3
  -7   7  -5 5.38477 6.37073   7
   0   7   5 7.80642 6.23635   1
  -7   0   5 -6.7229  5.6850   6
   7   0  -5 6.40477 4.78124   7
  -8   0  -5 2.94340 8.43300   6
   8  -8  -5 -4.2419  6.8876   7
   0   8  -5 -1.1805  5.4708   7
  -8   8   5 -8.8388  7.4574   6
  -8   8   5 -6.6131  6.8087   1
  -8   8   5 5.99795 8.24035   2
   8   0   5 7.46572 7.46018   1
   0  -8   5 -1.0053  6.2131   4
   8   0   5 -6.8492  7.1264   7
   0  -8   5 10.4258  6.6761   5
  -8   5   5 95.0054  9.9917   1
   5  -8  -5 99.0221 10.2144   7
   5   3   5 81.0833  9.2931   1
   5   3   5 96.4768 10.2497   7
   3  -8   5 102.631  11.006   5
  -8   5   5 89.0271 10.9775   6
  -8   5   5 93.9767 11.4228   2
  -8   3  -5 107.297  10.868   7
  -8   3  -5 89.9704 11.4878   6
   3   5  -5 88.1634  7.2448   7
  -3  -5   5 116.128   9.343   2
   8  -3   5 93.6832 11.0737   1
   8  -5  -5 98.7846 10.1155   3
  -5   8   5 85.0528  9.8905   1
  -5  -3  -5 100.733  10.639   7
  -5   8   5 102.468   9.845   2
   8  -5  -5 75.2063  8.8123   7
   8  -3   5 105.391   8.620   3
  -5   8   5 108.431  10.281   6
   8  -3   5 99.6085 11.3009   7
  -3  -5   5 93.0938  8.2015   4
  -3   8  -5 84.9477  8.5893   7
   2  -8  -5 107.384  10.680   7
  -8   2   5 107.411  11.835   2
   2   6   5 110.444   9.694   6
  -8   6  -5 127.214  11.759   7
   2   6   5 118.808  10.568   7
  -8   6  -5 113.610  12.935   6
  -8   2   5 120.685  11.320   6
   2   6   5 102.805   9.955   1
   6   2  -5 103.554   8.260   7
   8  -2  -5 124.280  11.361   3
  -2   8   5 125.767  10.447   6
   8  -2  -5 116.124   9.026   7
   8  -6   5 103.395  12.024   1
  -2  -6  -5 123.660  11.181   7
  -6  -2   5 124.536  10.846   2
  -6   8  -5 124.201  10.870   7
  -2   8   5 85.5271  9.8647   1
  -6   8  -5 106.244  11.306   6
   2  -9   5 1576.67   38.31   5
   7  -9  -5 1533.97   37.07   7
  -9   2  -5 1601.00   39.72   6
  -9   7   5 1636.36   38.09   1
   7   2   5 1670.99   38.38   7
  -9   7   5 1579.79   39.18   6
  -9   7   5 1531.94   40.26   2
   7   2   5 1605.32   36.72   1
   2   7  -5 1592.08   33.33   7
   9  -2   5 1692.50   39.25   7
  -2   9  -5 1583.72   35.53   7
  -7   9   5 1559.23   37.07   6
  -7   9   5 1617.52   37.32   2
  -7   9   5 1595.49   38.59   1
   9  -7  -5 1541.77   36.49   7
   9  -2   5 1590.97   38.47   1
  -2  -7   5 1623.83   32.11   4
  -9   4   5 272.901  15.742   6
   5  -9   5 233.569  16.491   5
   4   5   5 241.180  14.351   7
  -9   5  -5 268.509  15.389   7
  -9   5  -5 257.270  17.010   6
   5   4  -5 255.614  11.372   7
   4   5   5 256.081  13.765   1
  -9   4   5 249.113  16.738   2
   4  -9  -5 247.787  14.941   7
  -9   5  -5 245.675  14.926   7
   9  -5   5 250.016  16.140   1
  -5  -4   5 253.420  13.068   2
   9  -4  -5 250.871  14.735   3
  -4   9   5 259.175  15.023   1
   9  -4  -5 271.148  13.525   7
  -4   9   5 248.088  13.707   6
  -5   9  -5 228.804  13.889   7
   8   1  -5 12.3814  7.4839   3
   1  -9  -5 22.9715  8.4369   7
  -9   8  -5 13.8633  9.7377   6
   1   8   5 11.9936  7.2397   1
  -9   1   5 13.1303  8.3023   6
   8   1  -5 23.2387  6.5440   7
  -9   8  -5 27.5648  8.9123   7
  -9   1   5 23.4801  9.1790   2
   9  -8   5 15.1403  9.3038   1
  -1   9   5 18.6581  7.1569   6
  -8  -1   5 24.3825  8.4167   2
  -8   9  -5 19.5680  9.4159   6
   9  -1  -5 27.0284  8.3104   3
   9  -1  -5 27.0964  7.0749   7
  -8   9  -5 35.2604  8.9851   7
  -1   9   5 15.1573  7.3429   1
   9 -10  -5 850.199  28.328   7
   1 -10   5 853.812  25.088   4
 -10   9   5 894.880  28.703   1
 -10   9   5 842.642  29.533   6
   1   9  -5 916.438  25.333   7
 -10   9   5 863.113  30.892   2
 -10   1  -5 845.834  29.561   6
   9   1   5 847.820  26.939   1
   9   1   5 893.433  28.959   7
  -1  10  -5 883.503  26.073   7
  10  -1   5 908.659  29.403   7
  -9  -1  -5 864.013  28.655   6
  -9  10   5 863.437  28.786   6
  10  -9  -5 849.055  27.751   7
  -9  10   5 908.663  29.770   2
  10  -1   5 894.250  28.259   1
  -1  -9   5 893.085  24.386   4
  -9  10   5 888.306  29.002   1
 -10   6   5 302.560  16.613   1
   6 -10  -5 317.342  16.909   7
   6   4   5 306.227  15.891   1
   6   4   5 306.407  17.108   7
 -10   6   5 324.027  19.464   2
 -10   6   5 302.929  18.384   6
 -10   4  -5 294.652  18.479   6
   4   6  -5 304.495  13.593   7
   4 -10   5 368.208  18.658   5
  -4  -6   5 323.691  13.219   4
  10  -6  -5 313.473  15.917   7
  -6  10   5 322.532  17.240   1
  -6  10   5 306.196  16.075   6
  10  -4   5 286.503  17.877   1
  -4  10  -5 304.236  15.733   7
  10  -4   5 316.661  14.307   3
  10  -4   5 314.381  18.152   7
  10  -6  -5 328.507  17.250   3
 -10   7  -5 227.465  18.277   6
 -10   3   5 219.082  17.143   2
   3 -10  -5 219.428  15.592   7
   3   7   5 206.814  13.423   1
   7   3  -5 198.903  11.796   7
 -10   3   5 217.418  15.998   6
   3   7   5 218.852  15.123   7
  -3  10   5 224.729  15.134   1
  -3  10   5 234.718  13.819   6
  -7  10  -5 228.994  15.266   7
  10  -3  -5 214.986  13.369   7
  10  -3  -5 223.520  15.040   3
  10  -7   5 235.236  16.854   1
  -7  -3   5 212.970  13.558   2
 -10  10  -5 0.44738 8.95759   7
 -10  10  -5 -7.8923  9.1544   6
  10   0  -5 -1.8327  8.0913   3
  10 -10   5 4.25817 9.33230   1
   0  10   5 13.7922  7.6005   1
 -10   0   5 17.4337  9.4131   2
  10   0  -5 3.94779 7.20833   7
 -11  11   5  0.1304 11.4851   2
 -11  11   5 24.2196 10.6904   1
   0  11  -5 -3.0050  8.1117   7
  11 -11  -5 -1.5200  9.5827   7
 -11  11   5 -1.1204 10.0745   6
  11   0   5 0.33481 9.36848   7
  11   0   5 -6.5774  8.8127   1
 -11   0  -5  7.4630 11.2835   6
   8 -11  -5 59.4614 11.5778   7
   8   3   5 78.7410 12.1213   7
 -11   8   5 60.3590 12.6813   6
   3   8  -5 58.9251  9.2629   7
 -11   3  -5 59.3499 13.2551   6
 -11   8   5 65.7806 14.3237   2
 -11   8   5 56.9569 11.0810   1
   8   3   5 59.5819 10.2445   1
  -8  11   5 60.2504 11.7835   1
  11  -8  -5 50.8441 10.1279   7
  -3  11  -5 59.0584 10.0042   7
  -8  -3  -5 53.9526 11.5561   6
  11  -3   5 67.5706 12.0240   7
  -8  11   5 64.6894 11.6275   6
  11  -3   5 54.3075 11.5138   1
   5   6   5 23.2402  8.5203   1
   5   6   5 24.4128  9.1383   7
   5 -11  -5 14.2162  9.1118   7
 -11   5   5 15.1038 10.8301   2
 -11   5   5 1.50612 9.81798   6
 -11   6  -5 12.7623 11.1242   6
   6   5  -5 24.1825  7.1752   7
  -6  11  -5 19.4403  8.4787   7
  11  -6   5 24.9388 10.6663   1
  11  -5  -5 22.7576  8.4727   7
  -5  11   5 21.1646  8.7657   6
  -5  11   5 22.6162  8.9960   1
  11  -5  -5 39.0523  9.8077   3
 -11   2   5 598.687  25.764   2
   2   9   5 676.966  23.214   1
 -11   9  -5 616.118  26.780   6
   9   2  -5 637.270  23.811   3
   9   2  -5 649.601  21.011   7
 -11   2   5 622.675  24.659   6
  -9  -2   5 644.246  23.283   2
  11  -2  -5 644.585  22.094   7
  -9  11  -5 647.420  24.205   6
  11  -9   5 646.589  26.647   1
  -2  11   5 637.556  24.087   1
  -9  11  -5 641.873  25.354   7
  11  -2  -5 631.769  24.652   3
   2  10  -5 78.2745 10.8065   7
 -12  10   5 79.8178 15.6155   2
 -12  10   5 44.8069 12.3533   1
  10   2   5 67.9922 11.3951   1
 -12   2  -5 57.7653 13.9754   6
  10   2   5 67.3002 12.8619   7
 -12  10   5 40.9856 13.2330   6
  10 -12  -5 83.1385 13.3851   7
 -10  -2  -5 58.8763 13.6621   6
  12  -2   5 75.4585 13.3355   7
 -10  12   5 47.3525 12.8097   6
  12  -2   5 71.8980 13.5138   1
  12 -10  -5 69.4323 12.3700   7
 -10  12   5 43.8728 12.0478   1
  -2  12  -5 69.5351 11.6255   7
 -12   7   5 527.940  26.646   2
   5   7  -5 510.517  18.878   7
 -12   5  -5 507.923  25.702   6
 -12   7   5 494.747  24.568   6
   7   5   5 510.704  22.477   7
   7 -12  -5 524.803  23.570   7
   7   5   5 465.441  20.573   1
  12  -7  -5 546.462  23.121   3
  -7  12   5 480.667  22.994   1
  -7  12   5 481.940  21.224   6
  -5  12  -5 469.849  21.534   7
  12  -7  -5 497.083  21.620   7
  12  -5   5 465.292  23.336   1
   4   8   5 278.101  16.096   1
 -12   4   5 287.691  19.553   6
 -12   8  -5 247.569  19.575   6
 -12   4   5 280.281  20.385   2
   8   4  -5 243.927  16.461   3
   8   4  -5 258.517  14.818   7
  -8  12  -5 242.002  17.860   7
  12  -8   5 235.407  18.707   1
  12  -4  -5 227.560  17.086   3
  12  -4  -5 243.631  16.062   7
  -4  12   5 262.818  17.355   1
 -12  11  -5 368.162  22.636   6
  11   1  -5 421.020  19.033   7
 -12   1   5 401.121  22.525   2
  11   1  -5 363.577  20.735   3
  12  -1  -5 427.828  22.016   3
 -11  12  -5 398.687  22.373   6
  12  -1  -5 400.803  19.506   7
  -1  12   5 408.657  20.555   1
  12 -11   5 424.364  23.445   1
   1  12  -5 171.631  16.395   7
 -13  12   5 208.137  21.825   2
 -13  12   5 203.028  19.662   1
 -13   1  -5 219.455  21.224   6
  12 -13  -5 240.222  20.938   7
 -13  12   5 183.515  20.168   6
 -12  13   5 232.904  20.851   6
  13 -12  -5 196.815  19.201   7
  13  -1   5 226.552  20.034   1
  -1  13  -5 222.775  17.527   7
 -12  13   5 214.663  19.625   1
   4   9  -5 52.4348 10.3709   7
 -13   9   5 30.2981 14.2193   2
   9 -13  -5 67.3634 13.7983   7
   9   4   5 58.8362 12.3342   7
 -13   9   5 70.5464 14.9050   6
 -13   4  -5 50.6160 14.2370   6
  -9  13   5 40.9900 12.2104   1
  13  -9  -5 73.8612 12.4342   7
  -4  13  -5 48.2152 11.2375   7
  -9  13   5 78.3903 12.9993   6
  13  -4   5 53.7307 12.6146   1
 -13   6   5 161.270  18.140   6
 -13   7  -5 125.233  17.151   6
   7   6  -5 141.302  12.448   7
 -13   6   5 132.538  18.253   2
   6   7   5 137.724  15.366   7
  13  -6  -5 129.797  14.028   7
  -6  13   5 150.052  16.416   1
  -7  13  -5 141.067  14.676   7
  13  -6  -5 139.808  15.560   3
  13  -7   5 142.589  16.409   1
 -13  10  -5 12.4581 12.1204   6
 -13   3   5 17.2579 12.4356   6
  10   3  -5 9.46504 8.18666   7
 -13   3   5  7.9389 11.5055   2
  10   3  -5 6.30847 9.23042   3
  13  -3  -5 8.64316 9.81449   3
  13  -3  -5 5.85850 8.71942   7
  13 -10   5  0.7574 10.3258   1
  -3  13   5 3.04364 9.93844   1
  13   0  -5 -6.4952  9.6294   3
  13 -13   5 -7.2717 11.1978   1
  13   0  -5 5.52321 9.16961   7
 -13  13  -5 -5.5166 11.4915   6
  14 -14  -5 -3.5428 11.7268   7
 -14  14   5 -5.6170 13.0323   6
   0  14  -5  2.4594 10.0783   7
 -14  11   5 337.460  25.259   2
 -14  11   5 286.190  24.212   6
  11   3   5 296.327  20.836   7
   3  11  -5 282.821  17.774   7
 -14   3  -5 297.496  24.444   6
  11 -14  -5 239.729  21.584   7
  -3  14  -5 286.819  20.238   7
  14  -3   5 312.542  21.628   1
 -11  14   5 255.404  20.769   1
  14 -11  -5 282.417  20.439   7
 -11  14   5 273.994  21.037   6
 -14   8   5 -9.0972 12.3743   2
   6   8  -5 15.0147  8.7002   7
   8   6   5 13.4785 10.5821   7
 -14   6  -5 20.3390 13.1560   6
 -14   8   5 34.8494 13.3511   6
  -8  14   5 31.7104 12.2392   1
  -6  14  -5 26.5430 11.6507   7
  14  -8  -5 36.9080 11.0309   7
  14  -6   5  9.6851 11.1913   1
   9   5  -5 74.7011 12.5550   3
   9   5  -5 76.6145 11.3152   7
 -14   5   5 77.5052 15.4378   6
 -14   9  -5 65.1902 15.0312   6
 -14   5   5 89.8503 16.4118   2
  14  -5  -5 52.6472 12.9018   3
  14  -9   5 106.519  16.405   1
  14  -5  -5 74.1599 12.5536   7
  -5  14   5 91.8527 14.3578   1
  -9  14  -5 69.5535 13.5232   7
 -14   2   5 707.761  30.977   2
  12   2  -5 785.240  30.321   3
 -14  12  -5 691.084  31.142   6
  12   2  -5 724.317  26.636   7
  14 -12   5 721.265  31.638   1
  14  -2  -5 701.034  26.946   7
  14  -2  -5 780.997  30.906   3
   2  13  -5 12.9018 11.0769   7
 -15  13   5 -5.8361 13.7281   6
 -15   2  -5 58.6114 16.4288   6
 -15  13   5 31.8890 15.6576   2
 -13  15   5  3.0507 13.0623   6
 -13  15   5 19.4879 12.6587   1
  15 -13  -5 33.1680 13.9480   7
  -2  15  -5  9.3843 10.6650   7
 -15  10   5 89.3759 17.7446   2
 -15   5  -5 56.5396 15.1215   6
   5  10  -5 26.6469 10.2624   7
 -15  10   5 53.9976 15.8038   6
  -5  15  -5 21.2553 11.9550   7
  15 -10  -5 40.1561 12.3665   7
  15  -5   5 55.1441 14.2757   1
 -10  15   5 30.2708 13.2315   1
 -15   7   5  7.8588 12.8766   6
   8   7  -5 24.8031  9.7745   7
 -15   7   5 27.2840 14.1373   2
 -15   8  -5 42.5577 14.1699   6
  -7  15   5 35.3925 13.0486   1
  15  -7  -5 12.4928 11.0899   7
  15  -8   5 -0.6526 11.7330   1
  -8  15  -5 21.8201 11.8415   7
  15  -7  -5 29.0934 11.9000   3
 -15  11  -5 293.923  23.051   6
 -15   4   5 316.580  24.301   2
  11   4  -5 254.469  17.199   7
  11   4  -5 249.184  19.302   3
  15 -11   5 277.386  21.882   1
  -4  15   5 279.880  20.786   1
  15  -4  -5 293.151  19.482   7
  15  -4  -5 328.318  22.306   3
 -16   7  -5 77.0248 16.8707   6
 -16   9   5 78.4075 17.8319   2
   7   9  -5 65.0474 12.1360   7
 -16   9   5 93.5441 17.6272   6
  16  -9  -5 59.3185 13.8086   7
  -7  16  -5 71.2593 14.7029   7
  16  -7   5 55.8695 14.8370   1
  -9  16   5 44.2884 15.1992   1
 -16  10  -5 113.659  18.115   6
  10   6  -5 139.656  16.542   3
 -16   6   5 119.338  18.607   6
 -16   6   5 87.3362 18.0406   2
  10   6  -5 103.987  13.285   7
  16  -6  -5 125.021  15.885   7
  16 -10   5 86.5712 16.1772   1
  -6  16   5 83.1169 15.4851   1
  16  -6  -5 86.5224 15.9033   3
   0   0  -6 9999.99  158.14   5
   0   0   6 9626.08  157.85   5
   0   0   6 9775.48  142.86   6
   0   0   6 9930.56  150.23   2
   0   0   6 9920.68  144.38   1
   0   0   6 9913.85  132.32   4
  -2   1   6 58.2315  6.8938   2
   1  -2   6 47.4703  5.6094   1
   1  -2   6 45.4530  5.9830   6
  -2   1   6 60.8999  5.6446   1
   1  -2   6 48.2154  6.0144   4
   1   1   6 40.6294  5.9691   5
  -2   1   6 46.7010  6.1730   6
   1  -2  -6 42.8391  5.0458   7
   1  -2   6 53.4350  7.0011   5
   1  -2  -6 48.9396  6.6305   5
   1   1   6 47.2158  6.1552   2
  -2   1  -6 41.5118  5.6555   7
   1   1   6 47.4022  6.4671   6
   1   1   6 50.7111  6.3472   1
   1  -2   6 44.8604  6.6314   2
  -1   2   6 54.4305  6.2491   1
  -1  -1   6 45.2710  5.9943   4
  -1   2  -6 42.7694  4.8153   7
   2  -1   6 48.3244  6.3428   1
  -1  -1   6 44.9778  6.3372   2
  -1  -1  -6 47.5858  6.1015   5
  -1   2   6 54.9585  6.2638   2
  -1   2   6 37.6339  6.2187   6
   2  -1   6 35.7346  5.2614   4
   2  -1  -6 44.3040  5.2434   3
  -1  -1   6 52.9204  5.8720   6
  -1  -1  -6 48.1931  5.8246   7
   2  -1   6 47.5517  6.7315   5
  -1  -1   6 45.6616  6.7827   5
   2  -1  -6 61.7794  7.3179   5
   0   3  -6 5797.05   86.74   7
   0  -3   6 5940.72   86.28   6
   3   0   6 6022.38   97.38   5
  -3   3   6 5946.96   90.54   1
   0  -3   6 5805.47   93.60   2
  -3   0  -6 5856.87   92.56   7
  -3   3   6 5973.76   90.35   6
   3  -3  -6 5857.18   85.59   3
   0  -3   6 5649.32   99.02   5
   3   0   6 5763.37   79.67   4
   3  -3  -6 5754.90   88.62   7
   3   0   6 5739.74   91.76   1
   0  -3   6 5908.66   83.80   4
  -3   3   6 5818.71   93.44   2
   0  -3  -6 3355.32   56.33   7
   0   3   6 3430.14   55.73   2
  -3   3  -6 3369.56   56.19   7
   3  -3   6 3392.82   52.02   4
   0   3   6 3347.60   55.77   6
   0   3   6 3280.67   56.68   1
  -3   0   6 3458.58   54.16   6
   0  -3  -6 3355.01   57.71   5
   3  -3   6 3372.19   62.70   5
  -3   0   6 3289.71   58.41   2
   3   0  -6 3402.91   53.41   3
   3  -3   6 3461.62   57.01   1
   2  -4   6 25.5204  5.5935   1
  -4   2   6 21.6185  5.9713   2
   2  -4   6 26.9295  6.6104   5
  -4   2   6 14.3311  4.7973   1
   2   2   6 20.0206  4.5163   5
   2   2   6 16.4361  5.6274   1
  -4   2  -6 27.5488  5.8328   7
   2   2   6 27.6079  6.3390   6
  -4   2   6 17.5647  5.4244   6
   2  -4  -6 27.2715  5.1770   7
   2  -4   6 19.7875  5.8880   4
  -2  -2   6 17.2744  5.5074   2
   4  -2   6 31.8814  6.3991   1
  -2   4   6 27.0799  5.9283   6
  -2  -2   6 22.2721  4.5013   6
  -2   4  -6 24.2252  4.8201   7
   4  -2  -6 14.7375  3.3806   7
   4  -2   6 21.1629  6.6830   5
  -2  -2   6 26.2265  5.5774   4
  -2   4   6 29.8646  5.8599   1
   4  -2  -6 12.9452  5.2162   3
  -2  -2  -6 24.4506  5.8511   7
   4  -2   6 12.5215  4.7479   4
  -2   4   6 27.0444  5.6282   2
   4  -5  -6 95.9017  7.8810   7
   1   4  -6 98.4568  5.8295   7
   1  -5   6 86.8869  9.2271   5
   4   1   6 87.8372  8.0072   5
   4   1   6 85.6454  8.7691   1
   1  -5   6 100.323   7.414   1
  -5   4   6 114.330   9.828   2
   1  -5   6 106.307   8.663   4
  -5   1  -6 86.5626  8.8638   7
  -5   4   6 99.6162  9.0531   6
   4   1   6 92.2172  5.2196   3
   1  -5   6 105.270   9.357   2
  -5   4   6 104.690   8.627   1
  -4  -1  -6 122.615   9.842   7
   5  -1   6 111.673   5.801   3
  -1  -4   6 93.6085  8.6045   2
   5  -4  -6 110.440   9.070   3
  -1  -4   6 99.2702  9.3715   5
   5  -1   6 100.761   9.522   1
   5  -4  -6 94.8637  7.5140   7
   5  -1   6 92.5744  6.0368   4
  -1   5  -6 103.197   7.514   7
  -1  -4   6 109.902   8.432   4
   5  -1   6 107.373  10.270   5
  -4   5   6 84.0444  8.5037   1
  -4   5   6 113.710   9.649   6
  -4   5   6 102.747   9.140   2
  -5   1   6 10.9431  5.5416   6
   4  -5   6 23.3552  7.1643   1
  -5   4  -6 41.1125  8.0733   6
   4   1  -6 16.2754  5.6144   3
   1  -5  -6 14.2284  4.8729   5
   1  -5  -6 15.8273  5.7372   7
  -5   1   6 14.5018  4.7831   1
   1   4   6 19.5925  6.0987   6
   1   4   6 21.9153  6.2526   1
   1   4   6 24.0375  5.0795   2
  -5   4  -6 11.6284  5.7517   7
  -5   1   6 12.8519  6.3615   2
   4  -5   6 13.3725  7.1753   5
  -4  -1   6 20.4671  6.3248   2
  -1   5   6 8.30851 5.51121   1
  -4  -1   6 10.9631  4.7401   6
  -4   5  -6 17.3587  6.5938   6
  -1   5   6 17.7290  6.0740   6
   5  -1  -6 14.3024  5.6479   3
   5  -4   6 19.9233  6.8043   1
   5  -1  -6 14.0344  3.1302   7
  -4   5  -6 19.3781  5.9617   7
  -1  -4  -6 8.68195 5.70979   7
  -1  -4  -6 6.81638 3.75913   5
  -1   5   6 19.5122  4.9448   2
   0   6  -6 1139.47   24.42   7
  -6   6   6 1147.49   28.17   1
  -6   6   6 1202.39   29.50   2
   0  -6   6 1180.49   27.32   2
  -6   6   6 1101.60   28.25   6
   0  -6   6 1188.44   29.48   5
  -6   0  -6 1200.35   28.66   7
   6   0   6 1122.93   28.70   1
   6  -6  -6 1124.52   26.35   7
   6   0   6 1205.02   28.99   7
   0  -6   6 1161.21   25.94   4
   3  -6   6 1488.85   36.30   5
   3   3   6 1534.17   33.23   1
  -6   3  -6 1525.75   33.16   7
  -6   3  -6 1544.03   34.59   6
  -6   3  -6 1555.25   33.67   7
   3  -6  -6 1517.80   32.01   7
   3  -6   6 1604.26   32.52   1
  -6   3   6 1600.09   31.25   1
   3   3   6 1522.39   28.36   5
  -6   3   6 1556.94   32.54   6
  -6   3   6 1562.13   35.14   2
   3   3  -6 1550.95   25.81   7
  -3   6  -6 1502.83   31.05   7
   6  -3  -6 1523.16   31.82   3
   6  -3  -6 1569.89   28.62   7
  -3   6   6 1596.83   32.66   6
  -3  -3   6 1514.10   32.26   2
  -3  -3  -6 1551.33   33.45   7
   6  -3   6 1539.84   34.56   1
  -3   6   6 1536.67   33.39   1
  -3  -3   6 1521.83   29.30   4
  -3   6   6 1563.52   30.86   2
  -3   6  -6 1523.41   30.17   6
  -6   6  -6 1295.62   30.77   7
  -6   6  -6 1267.78   31.15   6
   0   6   6 1305.39   28.59   6
   0   6   6 1293.91   30.29   1
   6  -6   6 1323.19   32.29   1
  -6   0   6 1320.39   27.40   6
   0  -6  -6 1291.57   30.25   7
   6   0  -6 1303.51   24.00   7
  -6   0   6 1305.65   31.24   2
   6   0  -6 1313.41   29.67   3
   2  -7   6 463.222  18.469   5
  -7   5   6 483.442  17.030   1
   5  -7  -6 429.361  16.312   7
  -7   5   6 471.208  19.086   2
  -7   5   6 452.080  17.753   6
  -7   2  -6 454.498  17.925   7
  -7   2  -6 465.920  18.969   6
   5   2   6 454.911  17.138   1
   2   5  -6 441.008  12.816   7
   5   2   6 458.730  17.147   7
   7  -5  -6 458.174  17.016   3
  -5   7   6 457.743  16.592   2
  -2  -5   6 477.035  15.890   2
  -5   7   6 448.801  17.219   6
   7  -5  -6 465.201  15.343   7
  -2  -5   6 470.025  15.110   4
  -5  -2  -6 463.665  17.654   7
   7  -2   6 460.199  18.031   1
  -5   7   6 423.771  16.975   1
  -2   7  -6 451.256  15.186   7
  -7   2   6 1213.38   28.52   6
  -7   2   6 1293.88   32.14   2
  -7   2   6 1305.46   26.71   1
   5   2  -6 1220.75   22.94   7
   2   5   6 1251.20   28.39   6
  -7   5  -6 1212.46   30.28   7
   2  -7  -6 1267.16   29.55   7
  -7   5  -6 1239.89   31.59   6
   5  -7   6 1268.59   30.76   1
   2   5   6 1168.26   29.12   1
   5  -7   6 1250.60   34.05   5
  -5   7  -6 1312.63   29.96   6
   7  -2  -6 1243.79   25.09   7
   7  -2  -6 1253.19   29.45   3
   7  -5   6 1267.49   32.19   1
  -2   7   6 1189.76   29.66   1
  -5  -2   6 1216.13   29.13   2
  -2   7   6 1252.89   28.48   6
  -2  -5  -6 1238.03   29.89   7
  -5   7  -6 1218.36   29.06   7
   7   1   6 326.570  16.412   1
   7  -8  -6 314.681  15.383   7
  -8   7   6 320.135  16.000   1
   7   1   6 318.079  16.776   7
   1  -8   6 335.180  15.182   4
  -8   7   6 313.050  17.518   2
   1  -8   6 327.964  16.393   5
   1   7  -6 341.331  13.070   7
  -8   7   6 347.917  17.555   6
  -8   1  -6 320.190  17.816   6
  -7   8   6 334.881  17.044   6
   8  -1   6 340.442  17.494   7
   8  -7  -6 314.202  15.226   7
  -7   8   6 317.077  16.740   2
  -1  -7   6 321.143  15.763   5
   8  -1   6 318.337  16.841   1
  -1   8  -6 310.862  13.880   7
  -1  -7   6 329.492  14.703   2
  -7   8   6 325.372  16.474   1
  -1  -7   6 369.834  15.123   4
  -8   4   6 23.4962  8.1430   6
   4   4  -6 14.6758  4.6750   7
  -8   4  -6 13.7110  7.0103   7
  -8   4  -6 18.9934  9.0282   6
   4  -8  -6 19.1743  7.3373   7
   4   4   6 15.6303  6.8563   1
  -8   4   6 10.3046  8.1822   2
  -8   4  -6 9.19451 7.04339   7
   4  -8   6 21.6993  8.4327   5
   4   4   6 13.2761  6.7880   7
  -8   4   6 8.44763 6.67770   1
   8  -4  -6 16.3160  7.2595   3
  -4   8   6 19.6961  7.3508   1
   8  -4   6 24.6440  8.5990   1
  -4   8  -6 17.2910  6.7073   7
   8  -4  -6 15.6847  6.1741   7
  -4  -4  -6 13.1635  7.1578   7
  -4  -4   6 23.9708  6.3014   4
  -4   8   6 14.5783  7.3965   6
  -4  -4   6 13.4976  6.5353   2
   7   1  -6 114.731   8.668   7
   7  -8   6 153.632  13.989   1
   1   7   6 142.625  12.355   1
   1  -8  -6 128.610  12.099   7
  -8   7  -6 141.700  14.212   6
   1   7   6 136.291  11.171   6
   7   1  -6 137.060  11.966   3
  -8   7  -6 123.167  12.279   7
  -8   1   6 132.012  11.412   6
  -8   1   6 136.652  12.991   2
  -7   8  -6 126.149  11.957   7
  -1   8   6 125.175  11.877   1
   8  -7   6 132.118  14.081   1
  -7  -1   6 150.210  12.793   2
   8  -1  -6 132.559  11.907   3
   8  -1  -6 147.532   9.709   7
  -1  -7  -6 139.600  12.561   7
  -1   8   6 139.709  11.496   6
  -7   8  -6 134.268  13.198   6
  -9   9   6 367.284  20.066   2
   9   0   6 360.256  18.964   1
   9  -9  -6 368.349  18.070   7
   0   9  -6 339.443  16.104   7
  -9   9   6 386.451  19.958   6
  -9   0  -6 375.404  20.467   6
  -9   9   6 346.654  18.389   1
   0  -9   6 347.166  16.311   4
   3   6  -6 22.5155  5.8609   7
  -9   3  -6 26.3197 10.1026   6
   6   3   6 21.0918  7.5750   1
  -9   6   6 15.3092  9.3964   6
   3  -9   6 20.3221  8.8307   5
   6   3   6 26.3780  8.2772   7
  -9   6   6 17.0904  9.5006   2
   6  -9  -6 25.9930  8.0210   7
  -9   6   6 22.3762  8.3585   1
  -3  -6   6 28.0070  7.1762   4
  -6   9   6 16.1205  7.7110   2
  -6   9   6 22.8421  8.3115   6
  -6   9   6 9.94255 7.68341   1
   9  -6  -6 28.8765  8.3659   3
  -3   9  -6 23.9573  7.1089   7
   9  -3   6 28.0718  8.9663   1
   9  -6  -6 24.3447  7.7462   7
  -9   6  -6 422.990  19.233   7
   3  -9  -6 417.099  18.488   7
   6   3  -6 400.382  13.415   7
   3   6   6 387.740  16.992   1
  -9   3   6 423.188  20.507   2
  -9   6  -6 391.639  20.769   6
  -9   3   6 426.360  18.543   6
  -6   9  -6 387.749  17.220   6
   9  -3  -6 375.882  15.153   7
   9  -3  -6 417.601  18.194   3
  -3   9   6 428.922  18.491   1
  -6   9  -6 416.509  17.520   7
  -6  -3   6 415.280  17.107   2
  -3   9   6 393.329  16.722   6
   9  -6   6 406.844  19.913   1
   0   9   6 182.508  14.889   1
   9  -9   6 162.097  15.673   1
   9   0  -6 171.097  11.588   7
  -9   9  -6 163.078  14.691   7
  -9   0   6 191.940  15.083   2
   9   0  -6 169.576  14.481   3
  -9   9  -6 169.775  15.926   6
   8   2   6 1435.56   37.41   7
   8 -10  -6 1390.31   36.12   7
 -10   8   6 1342.80   36.01   1
 -10   8   6 1336.13   37.62   6
   2 -10   6 1382.62   33.39   4
 -10   8   6 1312.85   38.72   2
 -10   2  -6 1362.11   38.38   6
   2   8  -6 1400.32   31.93   7
   8   2   6 1355.07   35.08   1
  -8  10   6 1373.43   37.00   1
  10  -2   6 1444.34   37.74   1
  -2  -8   6 1408.52   31.37   4
  -8  -2  -6 1385.19   36.01   6
  -8  10   6 1365.39   36.21   6
  -2  10  -6 1398.45   34.14   7
  10  -8  -6 1393.20   35.47   7
  -8  10   6 1460.72   36.70   2
 -10   5   6 2327.01   53.30   2
 -10   5  -6 2185.60   51.54   6
   5   5   6 2357.15   48.16   1
   5   5  -6 2235.68   42.63   7
   5 -10  -6 2290.98   49.11   7
 -10   5   6 2365.67   50.40   6
  10  -5  -6 2246.36   48.17   3
  10  -5   6 2253.21   51.20   1
  10  -5  -6 2290.74   46.33   7
  -5  10   6 2274.42   49.66   1
  -5  -5   6 2301.92   41.45   4
  -5  10  -6 2247.56   47.97   7
  -5  10   6 2244.44   46.87   6
   8   2  -6 1197.91   27.98   7
   8 -10   6 1203.30   35.20   1
 -10   8  -6 1293.97   35.64   7
   8   2  -6 1186.32   32.66   3
   2   8   6 1244.48   32.69   1
 -10   2   6 1284.82   36.68   2
 -10   2   6 1256.47   33.27   6
 -10   8  -6 1286.71   36.64   6
   2 -10  -6 1246.37   34.40   7
  -8  -2   6 1249.14   32.73   2
  -2  10   6 1236.12   30.69   6
  -2  10   6 1267.87   34.01   1
  10  -2  -6 1236.61   33.73   3
  -8  10  -6 1261.73   33.36   6
  10  -8   6 1288.48   36.95   1
  10  -2  -6 1261.09   30.02   7
  -8  10  -6 1272.66   34.30   7
 -11  10   6 312.821  21.048   6
 -11  10   6 348.635  22.442   2
   1 -11   6 349.595  18.066   4
  10   1   6 343.296  19.335   1
  10 -11  -6 350.293  20.239   7
   1  10  -6 340.335  17.618   7
 -11  10   6 309.923  20.061   1
 -11   1  -6 321.359  21.105   6
  11  -1   6 318.008  19.796   1
 -10  -1  -6 365.818  21.379   6
 -10  11   6 358.769  20.790   1
 -10  11   6 377.812  21.542   6
  -1  11  -6 337.811  18.067   7
 -10  11   6 364.871  21.613   2
  11 -10  -6 341.860  20.383   7
  -1 -10   6 354.999  17.851   4
   7   4   6 29.6679  9.1192   1
 -11   7   6 32.1413 12.0662   6
   4   7  -6 28.4867  7.5554   7
   7 -11  -6 42.6574 10.3044   7
 -11   4  -6 37.8580 12.1357   6
 -11   7   6 30.5817 12.1812   2
 -11   7   6 27.6849 10.1627   1
  11  -7  -6 42.8891  9.7067   7
  -4  11  -6 26.5414  8.9625   7
  11  -7  -6 25.2168  9.5538   3
  11  -4   6 32.2085 10.4055   1
  -7  11   6 41.0246 10.5663   1
  -7  11   6 25.3083  9.6332   6
   7   4  -6 75.9088  9.1049   7
   4   7   6 90.6488 11.4590   1
   4 -11  -6 69.5627 12.1172   7
 -11   4   6 82.7279 14.4153   2
 -11   7  -6 69.1001 13.9993   6
 -11   4   6 95.3799 13.4938   6
  11  -4  -6 89.4448 12.5964   3
  -4  11   6 82.3836 12.1130   1
  -7  11  -6 61.3968 10.6845   7
  11  -7   6 77.8078 13.1666   1
  -4  11   6 79.5293 11.4436   6
  11  -4  -6 70.8970  9.8092   7
  10 -11   6 221.492  19.101   1
  10   1  -6 213.813  14.362   7
  10   1  -6 177.295  16.111   3
 -11  10  -6 229.297  19.257   6
 -11   1   6 197.173  17.915   2
   1  10   6 223.923  15.724   1
 -10  11  -6 204.383  17.982   7
  11  -1  -6 203.577  14.114   7
  -1  11   6 204.737  16.139   1
  11  -1  -6 196.180  16.505   3
 -10  11  -6 204.056  17.903   6
 -10  -1   6 199.498  16.000   2
  11 -10   6 210.456  18.851   1
 -12  12   6 30.7240 13.0231   6
   0  12  -6 14.2989  9.2373   7
 -12  12   6  1.2060 12.4298   2
  12 -12  -6 11.7410 11.1316   7
 -12   0  -6 11.2826 12.1937   6
  12   0   6  4.9177 10.8998   1
 -12  12   6  8.2143 10.7373   1
   9   3   6 28.5605 10.3790   1
 -12   9   6  8.8950 11.2871   6
 -12   9   6 14.2153 10.3264   1
   9 -12  -6 3.04476 9.80361   7
   3   9  -6 11.0955  7.7208   7
 -12   9   6 10.7715 12.3369   2
 -12   3  -6 25.7348 12.2463   6
  12  -3   6  2.8555 10.0813   1
  12  -9  -6 28.7003 10.1102   7
  -3  12  -6 14.2012  8.5397   7
  -9  12   6 33.7073 10.9714   6
  -9  12   6 13.8870 10.1887   1
   6 -12  -6 4.36282 9.36685   7
   6   6   6 16.6088  9.0608   1
 -12   6   6 13.8261 11.4145   2
 -12   6   6 21.5994 11.8546   6
   6   6  -6 12.0113  6.9923   7
 -12   6  -6 13.6200 12.0093   6
  -6  12  -6 5.89463 8.75696   7
  -6  12   6 4.03234 9.03115   6
  12  -6  -6 25.8158  9.0893   7
  12  -6  -6 14.8783  9.8416   3
  12  -6   6 10.5910 10.1636   1
  -6  12   6 11.1723  9.6141   1
   3   9   6 19.9256  9.4717   1
 -12   3   6 14.7223 11.2796   6
 -12   9  -6 20.7338 12.8174   6
   9   3  -6 10.5667  7.8040   7
 -12   3   6 26.9763 12.1470   2
   9   3  -6 38.3166 10.6044   3
  -3  12   6 25.2768 10.4241   1
  12  -9   6 30.6048 12.1443   1
  12  -3  -6 17.7035  9.8429   3
  -9  12  -6 36.6028 10.8092   7
  12  -3  -6 24.9231  8.8447   7
  12   0  -6 85.5527 12.3062   7
   0  12   6 117.628  14.584   1
 -12  12  -6 99.3054 15.5444   6
  12 -12   6 73.5667 14.4056   1
  12   0  -6 115.450  14.826   3
 -12   0   6 86.2223 14.5718   2
  11 -13  -6 628.017  28.196   7
 -13  11   6 611.347  29.077   6
 -13   2  -6 577.049  28.645   6
 -13  11   6 549.556  26.786   1
 -13  11   6 635.205  30.910   2
   2  11  -6 607.948  23.978   7
  13  -2   6 591.165  27.366   1
 -11  13   6 595.993  27.984   1
 -11  13   6 631.417  28.469   6
  13 -11  -6 616.422  27.167   7
  -2  13  -6 620.914  25.866   7
 -13   5  -6 2897.04   66.25   6
   8 -13  -6 2989.82   64.44   7
 -13   8   6 2778.23   68.44   2
   5   8  -6 2839.22   56.40   7
 -13   8   6 2872.23   65.13   6
  -8  13   6 2809.24   63.93   1
  -8  13   6 2907.78   60.93   6
  13  -8  -6 2940.75   61.69   7
  -5  13  -6 2985.67   61.80   7
   8   5  -6 1758.16   39.95   7
 -13   8  -6 1726.94   48.65   6
 -13   5   6 1815.60   47.16   6
 -13   5   6 1837.48   51.32   2
  13  -8   6 1832.50   49.02   1
  -5  13   6 1778.81   45.91   1
  -8  13  -6 1845.95   46.00   7
  13  -5  -6 1716.75   45.07   3
  13  -5  -6 1825.56   43.17   7
  11 -13   6 1464.05   43.00   1
 -13   2   6 1348.21   42.20   2
  11   2  -6 1439.48   36.06   7
  11   2  -6 1433.14   40.65   3
 -13  11  -6 1466.47   43.39   6
  13 -11   6 1379.94   42.67   1
  -2  13   6 1427.09   39.99   1
  13  -2  -6 1432.64   37.02   7
  13  -2  -6 1369.15   40.30   3
 -14   1  -6 117.712  18.244   6
  13 -14  -6 149.599  18.598   7
 -14  13   6 154.600  20.913   2
   1  13  -6 163.676  16.612   7
 -14  13   6 164.286  20.222   6
 -13  14   6 122.153  18.513   6
  -1  14  -6 147.316  16.554   7
 -13  14   6 127.381  18.258   1
  14 -13  -6 167.770  18.981   7
 -14  10   6  1.9418 13.3789   2
 -14  10   6 12.2665 12.7810   6
   4  10  -6 -0.9906  8.1906   7
 -14   4  -6  9.1247 12.6056   6
  10 -14  -6 18.8608 12.0990   7
 -10  14   6 -1.0063 11.1969   6
 -10  14   6  1.3816 11.2442   1
  14  -4   6  9.3760 11.5295   1
  14 -10  -6 25.0659 11.1662   7
  -4  14  -6 25.9304 10.5996   7
   7   7  -6 13.1673  8.1656   7
 -14   7   6 13.1770 12.4005   6
 -14   7   6  9.0139 13.2681   2
 -14   7  -6 38.9766 13.8598   6
  14  -7  -6 25.0324 10.2413   7
  14  -7   6 34.2421 13.0215   1
  14  -7  -6 30.3493 11.6084   3
  -7  14   6 15.8555 11.1160   1
  -7  14  -6 27.9737 11.0012   7
  10   4  -6 1.49257 8.26452   7
  10   4  -6 4.34669 8.60674   3
 -14   4   6 -0.0566 12.0779   2
 -14  10  -6 -10.587  11.814   6
  14 -10   6 -7.1844 10.6310   1
  -4  14   6  5.3437 10.6203   1
  14  -4  -6 11.2723 10.3064   3
  14  -4  -6 5.89054 9.66359   7
  13 -14   6 38.4256 14.2012   1
  13   1  -6 63.6320 13.7848   3
  13   1  -6 53.6557 11.6039   7
 -14  13  -6 88.2115 16.8201   6
  14 -13   6 63.8338 15.1795   1
  14  -1  -6 37.1494 12.7533   3
  14  -1  -6 64.7591 12.3645   7
 -15  12   6 -14.359  12.518   6
 -15  12   6 -5.9660 13.4222   2
  12 -15  -6 -3.9327 12.4864   7
   3  12  -6 22.1959 10.4617   7
 -15   3  -6  5.9849 13.5259   6
 -12  15   6 18.5763 13.0845   1
 -12  15   6 29.4663 12.9427   6
  15 -12  -6 32.0923 12.8449   7
  15  -3   6  1.7738 12.2357   1
  -3  15  -6 34.9008 12.2258   7
 -15   9   6 52.6957 16.6328   2
 -15   9   6 48.2183 15.0966   6
 -15   6  -6 73.2430 16.2797   6
   6   9  -6 58.4945 11.0773   7
  -9  15   6 25.0761 13.1059   1
  -6  15  -6 46.7944 13.6551   7
  15  -9  -6 60.5323 12.8999   7
  15  -6   6 66.0721 14.1473   1
   9   6  -6 169.367  17.761   3
 -15   9  -6 162.401  19.574   6
 -15   6   6 187.967  20.895   6
   9   6  -6 180.703  14.873   7
 -15   6   6 132.360  19.283   2
  15  -6  -6 148.988  18.077   3
  -6  15   6 159.371  18.195   1
  15  -9   6 176.823  19.592   1
  -9  15  -6 159.816  18.283   7
  15  -6  -6 144.112  15.759   7
  12   3  -6 124.628  14.489   7
 -15   3   6 141.988  19.054   2
 -15  12  -6 141.973  19.135   6
  12   3  -6 155.814  17.915   3
  12 -15   6 104.133  17.198   1
  15  -3  -6 155.436  16.297   7
  15 -12   6 128.130  17.468   1
  15  -3  -6 136.294  17.775   3
 -16   8   6 1590.34   48.86   6
   8   8  -6 1597.87   40.40   7
 -16   8   6 1493.11   50.82   2
  -8  16   6 1559.44   47.66   1
  -8  16  -6 1576.21   46.36   7
   1   0   7 -1.7282  4.4691   4
   0  -1   7 1.95796 4.15972   1
  -1   0  -7 8.59369 4.31374   7
  -1   1   7 2.48671 5.11950   6
   1   0   7 2.44597 5.05010   5
   0  -1   7 4.75771 4.73094   4
  -1   1   7 4.00138 5.24061   2
   0  -1   7 0.86056 4.98669   2
   0   1  -7 7.97777 3.41630   7
   1   0   7 1.36394 4.61880   1
   1  -1  -7 -3.1725  3.3717   7
  -1   1   7 -0.8099  4.4067   1
   1   0   7 2.34573 5.05808   6
   0  -1   7 -4.1648  5.0959   5
   1  -1  -7 4.59917 3.42570   3
   1   0   7 1.69051 5.18277   2
   0  -1   7 -9.9360  4.4907   6
  -1   0  -7 -0.8768  4.9401   5
   0   2   7 -3.6328  4.3491   2
  -2   2  -7 -1.7333  3.9625   7
   2   0  -7 -2.1680  3.7978   3
   2  -2   7 -7.3591  5.2478   2
   2  -2   7 4.64103 4.79530   1
  -2   0   7 -0.9025  5.1335   2
   0   2   7 1.18970 5.02855   6
   2  -2   7 6.16021 4.57490   4
   0  -2  -7 -4.3088  4.4918   5
  -2   0   7 5.57168 4.81585   6
   2  -2   7 5.34248 5.64967   5
   0  -2  -7 -0.8100  4.1682   7
  -2   0   7 0.91949 3.70069   1
   0   2   7 -3.7853  4.3619   1
   2   1   7 78.8368  7.7841   1
  -3   1  -7 68.8702  7.2105   7
  -3   2   7 71.3028  7.6598   6
   2   1   7 81.2152  8.1169   6
  -3   2   7 82.2076  8.3626   2
   1  -3   7 78.8102  8.4625   5
   1  -3   7 67.3412  7.1381   4
   1  -3   7 67.4292  8.3521   2
   2   1   7 78.5785  7.5862   5
   2  -3  -7 72.1990  6.2704   7
  -3   2   7 77.5485  6.7483   1
  -3   1  -7 81.5724  7.4576   7
   1  -3   7 67.6726  6.3236   1
  -2   3   7 73.9174  7.8475   6
   3  -2  -7 66.9340  4.8005   7
  -1  -2   7 53.7235  7.4789   2
  -2   3   7 84.1864  7.6127   1
  -2   3   7 72.1116  7.5045   2
   3  -1   7 73.0802  8.0887   1
   3  -2  -7 72.4843  6.6145   3
  -1  -2   7 57.6318  7.6817   5
  -1  -2   7 74.5757  6.5934   6
  -2  -1  -7 82.8346  7.5058   7
   3  -1   7 66.4341  8.1399   5
  -1   3  -7 74.0826  5.6703   7
   3  -1   7 63.4916  5.9885   4
  -2  -1  -7 74.6495  7.3692   5
  -1  -2   7 53.3053  6.7280   4
   4  -4  -7 5.80329 5.05674   3
   0  -4   7 8.16095 6.20019   2
   4  -4  -7 4.69816 4.34660   7
  -4   4   7 7.33732 5.44055   1
   4   0   7 -4.3476  5.4206   5
  -4   0  -7 -2.2673  5.3422   7
   0   4  -7 -5.5172  3.2574   7
   0  -4   7 1.85973 5.24921   4
  -4   4   7 -2.7247  5.6823   2
   4   0   7 1.21014 5.52100   1
  -4   4   7 13.2457  6.0922   6
   4   0   7 -0.8949  3.8172   4
   0  -4   7 -3.4395  5.5238   5
  -4   1   7 1793.77   31.62   1
   1   3   7 1765.92   33.77   2
   1   3   7 1759.19   34.95   6
  -4   3  -7 1770.17   35.19   7
   3  -4   7 1779.46   33.17   4
   1  -4  -7 1726.58   34.16   7
  -4   1   7 1789.28   37.16   2
   3  -4   7 1774.01   35.05   1
   3  -4   7 1724.57   39.61   5
   1  -4  -7 1855.81   35.44   5
  -4   1   7 1814.48   34.02   6
   3   1  -7 1794.63   33.22   3
   1   3   7 1724.41   35.56   1
  -1   4   7 1782.70   35.24   6
  -1   4   7 1716.84   35.33   1
  -1   4   7 1782.35   33.94   2
  -1  -3  -7 1762.23   35.08   7
   4  -3   7 1751.59   39.71   5
  -1  -3  -7 1820.98   33.96   5
   4  -1  -7 1747.60   33.14   3
  -3  -1   7 1783.59   32.05   6
   4  -3   7 1767.87   36.23   1
  -3   4  -7 1784.92   33.87   7
   4  -3   7 1807.73   32.07   4
  -3  -1   7 1765.70   36.46   2
   2  -5   7 399.696  17.085   5
   2  -5   7 404.438  14.486   4
  -5   3   7 400.415  16.044   2
  -5   2  -7 384.147  15.140   7
   3   2   7 402.415  13.103   5
   2  -5   7 416.112  13.813   1
   3   2   7 401.276  15.468   1
  -5   2  -7 403.654  15.442   7
  -5   3   7 409.998  13.579   1
  -5   3   7 397.596  14.919   6
   2   3  -7 391.481   8.360   7
   3  -5  -7 373.124  13.541   7
  -2  -3   7 407.067  11.289   6
  -3   5   7 400.571  15.131   1
  -2  -3   7 396.487  13.744   4
  -3   5   7 375.326  15.181   6
   5  -2   7 394.859  12.008   4
  -3   5   7 415.279  14.479   2
  -2  -3   7 405.180  15.228   2
   5  -3  -7 393.546  11.370   7
  -3  -2  -7 400.036  15.323   7
   5  -2   7 411.370  17.017   5
  -2   5  -7 393.376  12.887   7
   5  -2   7 378.015  15.536   1
   5  -3  -7 427.858  14.539   3
  -5   0   7 -3.0511  5.9887   2
  -5   0   7 3.22444 5.20429   6
  -5   5  -7 -2.0413  5.6924   7
   0   5   7 -4.3247  4.3617   2
   0   5   7 -3.8109  5.2543   1
   5  -5   7 -7.2847  6.2736   1
   5  -5   7 -1.1228  7.0141   5
   0  -5  -7 -7.1770  5.1586   7
   5   0  -7 1.79266 5.16527   3
  -5   5  -7 -3.0616  6.6813   6
   0   5   7 4.28563 5.83048   6
   5   1   7 146.323  11.460   1
   5   1   7 178.334  10.564   5
   5  -6  -7 151.651  10.461   7
  -6   5   7 146.339  11.805   2
   1  -6   7 154.851  11.931   5
  -6   5   7 172.107  11.028   1
  -6   5   7 148.072  11.525   6
   1  -6   7 151.200  10.921   4
   1   5  -7 147.248   7.617   7
  -6   1  -7 173.295  12.107   7
   6  -5  -7 149.596  11.291   3
  -1  -5   7 163.100  11.240   2
  -1  -5   7 147.865  10.504   4
   6  -5  -7 169.826   9.755   7
  -5   6   7 174.992  11.527   1
  -1  -5   7 172.679  11.976   5
  -5   6   7 143.710  11.199   2
  -5   6   7 157.327  11.717   6
   6  -1   7 158.803  12.048   1
  -5  -1  -7 147.261  11.599   7
   6  -1   7 163.510  12.871   5
  -1   6  -7 146.728   9.221   7
  -6   2   7 2019.97   36.35   1
  -6   4  -7 1984.84   41.30   6
  -6   2   7 1882.02   41.42   2
   2   4   7 1874.46   39.61   1
  -6   4  -7 1904.85   40.03   7
   2  -6  -7 1941.07   39.25   7
   4  -6   7 1947.08   39.61   1
   2   4   7 1880.78   38.38   6
  -6   2   7 1933.58   38.13   6
   4  -6   7 1906.10   44.32   5
  -2   6   7 1993.30   36.68   2
   6  -4   7 1908.48   44.89   5
  -2   6   7 1950.77   38.92   6
   6  -2  -7 1938.59   38.17   3
  -4   6  -7 1931.13   38.12   6
  -2  -4  -7 1941.90   40.10   7
  -4  -2   7 1930.46   39.96   2
   6  -4   7 1925.06   41.44   1
  -4   6  -7 1876.97   38.11   7
  -4  -2   7 1968.20   33.99   6
  -2   6   7 1930.93   39.96   1
   6  -2  -7 1922.82   32.84   7
   0  -7   7 -8.7642  6.5791   5
  -7   7   7 10.0040  6.9772   1
  -7   0  -7 -2.0633  7.2942   7
  -7   7   7 9.30298 7.95153   6
  -7   7   7 3.52958 7.75595   2
   0  -7   7 7.93633 6.86590   4
   7  -7  -7 -0.7411  6.2536   7
   0   7  -7 4.62157 5.45625   7
   7   0   7 -1.6076  6.8198   1
   0  -7   7 3.35791 7.29347   2
  -7   4   7 275.460  13.459   1
  -7   3  -7 286.535  15.039   7
   4   3   7 314.468  15.084   1
   3   4  -7 291.495   9.364   7
   4  -7  -7 311.288  14.095   7
   3  -7   7 321.270  14.133   1
  -7   4   7 325.921  15.359   6
  -7   4   7 295.169  16.155   2
  -7   3  -7 282.562  16.011   6
   3  -7   7 289.372  16.305   5
  -4   7   7 313.685  15.027   6
   7  -3   7 302.744  12.111   4
  -4   7   7 285.275  14.999   1
   7  -3   7 313.234  16.161   1
  -4  -3  -7 283.134  14.962   7
  -3   7  -7 258.201  12.600   7
   7  -4  -7 286.033  14.255   3
  -3  -4   7 284.004  12.762   4
   7  -4  -7 284.073  11.781   7
  -3  -4   7 344.017  14.741   2
  -4   7   7 320.280  13.824   2
   1  -7  -7 1225.61   30.73   7
   6   1  -7 1265.93   23.54   7
  -7   6  -7 1243.62   31.46   7
  -7   1   7 1228.87   32.45   2
   1   6   7 1227.64   30.92   1
  -7   6  -7 1271.91   32.64   6
   6  -7   7 1280.36   32.92   1
   6   1  -7 1250.15   30.15   3
  -7   1   7 1286.47   29.01   6
   6  -7   7 1259.21   36.22   5
   1   6   7 1281.83   29.69   6
  -1   7   7 1253.09   29.80   6
  -6  -1   7 1293.81   31.90   2
   7  -6   7 1265.95   33.45   1
   7  -1  -7 1265.46   30.57   3
  -6   7  -7 1269.05   31.19   7
  -1  -6  -7 1285.61   31.40   7
  -6   7  -7 1258.25   31.47   6
  -1   7   7 1226.01   31.03   1
   7  -1  -7 1218.44   24.55   7
  -8   6   7 10.2086  8.5683   2
  -8   6   7 26.5546  8.0436   1
   6  -8  -7 14.1740  7.3821   7
   6   2   7 27.4273  8.0556   1
  -8   2  -7 14.6481  7.7801   7
   2  -8   7 22.1875  7.9539   4
   2   6  -7 18.1665  5.4061   7
  -8   6   7 11.2526  8.4408   6
   2  -8   7 25.4704  8.6970   5
  -8   2  -7 11.7009  8.9705   6
   8  -6  -7 20.0255  7.9186   3
   8  -2   7 8.92164 7.84771   1
  -2  -6   7 21.1815  6.8275   4
  -2   8  -7 16.9742  6.3934   7
  -6   8   7 6.05817 7.83947   6
  -6   8   7 20.6837  8.1901   1
  -6   8   7 12.5422  7.6731   2
   8  -6  -7 12.4968  6.5948   7
  -6  -2  -7 27.5190  8.3475   7
  -2  -6   7 19.1017  7.3872   2
  -8   3   7 185.452  13.199   6
   5   3  -7 162.636   8.137   7
  -8   3   7 172.695  14.918   2
   5  -8   7 143.882  12.897   1
   3  -8  -7 151.214  12.397   7
  -8   5  -7 153.643  14.303   6
   3   5   7 168.327  12.652   1
  -8   5  -7 148.482  13.013   7
  -3   8   7 174.813  12.955   1
   8  -3  -7 162.763  10.180   7
   8  -3  -7 154.441  12.923   3
   8  -5   7 157.811  14.320   1
  -5   8  -7 164.734  12.895   6
  -5   8  -7 192.328  12.953   7
  -5  -3   7 178.706  12.702   2
  -3  -5  -7 181.119  13.867   7
  -3   8   7 160.826  12.491   6
   8  -8   7 7.85755 9.39765   1
   8   0  -7 -2.5057  5.0797   7
   8   0  -7 0.64659 7.38528   3
   0   8   7 14.3396  8.0051   1
  -8   8  -7 -3.2138  7.2463   7
   0  -8  -7 -2.6740  7.1245   7
  -8   0   7 7.12607 8.09296   2
   0   8   7 2.10025 7.04650   6
  -8   8  -7 -10.596   8.651   6
   8  -9  -7 169.099  14.047   7
  -9   8   7 168.764  16.098   2
  -9   8   7 176.490  15.768   6
   1   8  -7 179.073  11.936   7
  -9   8   7 174.104  14.829   1
   8   1   7 194.033  14.670   1
  -9   1  -7 218.619  16.777   6
   1  -9   7 177.148  14.056   4
  -1   9  -7 166.682  12.342   7
  -8   9   7 204.498  15.529   6
  -1  -8   7 184.646  12.776   4
   9  -1   7 178.321  15.825   1
   9  -8  -7 173.099  14.127   7
  -8   9   7 156.117  14.719   1
  -8   9   7 184.392  15.207   2
  -9   5   7 445.977  22.016   2
  -9   5   7 492.450  19.001   1
   5  -9  -7 480.873  19.300   7
  -9   4  -7 494.585  20.472   7
  -9   5   7 465.567  20.018   6
  -9   4  -7 543.600  22.610   6
   4   5  -7 454.756  14.309   7
   5   4   7 475.550  19.570   1
  -4   9  -7 459.230  18.252   7
   9  -5  -7 485.698  17.622   7
   9  -5  -7 481.416  19.581   3
  -5   9   7 470.025  19.211   6
  -5   9   7 505.178  20.808   1
  -4  -5   7 496.706  17.008   4
   9  -4   7 518.696  22.134   1
  -4  -5   7 519.833  18.787   2
   2   7   7 892.684  24.989   6
  -9   2   7 852.802  28.744   2
   7   2  -7 840.074  25.776   3
   7  -9   7 845.903  27.946   1
   7   2  -7 832.880  20.220   7
  -9   7  -7 844.839  27.716   7
  -9   7  -7 857.470  28.695   6
  -9   2   7 831.726  25.246   6
   2  -9  -7 823.771  26.116   7
   2   7   7 849.866  26.071   1
   9  -2  -7 865.003  26.630   3
  -2  -7  -7 839.800  26.767   7
  -2   9   7 845.357  26.574   1
   9  -7   7 858.344  29.177   1
  -7   9  -7 888.301  26.835   7
  -2   9   7 847.841  24.964   6
  -7  -2   7 821.374  25.604   2
   9  -2  -7 858.985  22.212   7
  -7   9  -7 803.086  25.958   6
  10 -10  -7 -3.2486  8.1965   7
 -10   0  -7  5.7074 10.3569   6
 -10  10   7 0.64405 8.64301   1
 -10  10   7  8.1525 10.2400   6
  10   0   7 -0.6471  9.3304   1
 -10  10   7  5.9529 11.4356   2
   0  10  -7 -2.4825  7.5787   7
   0 -10   7 0.45105 8.53332   4
   7 -10  -7 250.239  16.747   7
 -10   7   7 260.912  19.291   2
 -10   3  -7 241.756  18.223   6
   3 -10   7 277.534  16.688   4
   7   3   7 270.104  16.686   1
 -10   7   7 235.808  17.076   6
   3   7  -7 277.710  13.152   7
 -10   7   7 300.886  17.154   1
  -7  10   7 254.915  16.873   6
  -3  -7   7 264.920  14.538   4
  -3  10  -7 278.606  15.212   7
  10  -3   7 260.700  17.533   1
  -7  10   7 270.257  17.275   1
  10  -7  -7 284.013  15.957   7
  10  -7  -7 245.292  16.292   3
   6 -10   7 1086.96   31.14   1
   4 -10  -7 1103.94   31.57   7
   4   6   7 1146.71   31.30   1
 -10   6  -7 1108.26   32.90   7
 -10   4   7 1133.49   31.80   6
 -10   6  -7 1089.90   32.51   7
 -10   6  -7 1108.26   34.69   6
   6   4  -7 1122.65   24.98   7
 -10   4   7 1100.88   34.94   2
  -6  10  -7 1068.31   30.32   7
  -6  -4   7 1052.03   29.31   2
  -4  10   7 1080.65   29.83   6
  -4  10   7 1114.85   32.16   1
  10  -6   7 1069.57   33.63   1
  10  -4  -7 1091.91   31.39   3
  10  -4  -7 1131.52   28.14   7
 -10   1   7 902.499  31.042   2
   9 -10   7 932.137  31.645   1
 -10   9  -7 928.355  31.275   6
   9   1  -7 914.627  29.155   3
   9   1  -7 968.718  24.326   7
   1   9   7 890.497  28.761   1
 -10   9  -7 947.002  30.851   7
  -9  10  -7 953.133  30.666   7
  -9  -1   7 908.122  29.229   2
  10  -1  -7 952.590  29.884   3
  -1  10   7 909.871  29.020   1
  10  -1  -7 905.302  24.767   7
  10  -9   7 907.502  31.747   1
  -9  10  -7 941.884  30.129   6
   2   9  -7 260.514  14.805   7
 -11   9   7 221.257  19.804   2
 -11   2  -7 239.939  19.914   6
   2 -11   7 249.154  16.598   4
 -11   9   7 222.289  17.398   1
 -11   9   7 260.793  19.929   6
   9   2   7 242.449  17.125   1
   9 -11  -7 233.874  17.173   7
  11  -2   7 225.942  19.275   1
  -9  -2  -7 242.643  18.450   6
  -2  -9   7 273.112  15.357   4
  -2  11  -7 207.590  15.462   7
  11  -9  -7 242.890  17.018   7
  -9  11   7 247.600  18.080   6
  -9  11   7 247.584  17.886   1
 -11   5  -7 22.2803 11.3269   6
   6 -11  -7 37.6272 10.4158   7
 -11   6   7 32.2752 12.0358   2
 -11   6   7 50.5085 12.1656   6
 -11   6   7 48.2929 10.8934   1
   5   6  -7 48.8800  7.8687   7
   6   5   7 30.4783  9.6843   1
  11  -5   7 29.4197 11.1795   1
  11  -6  -7 38.4869  9.6054   7
  -6  11   7 41.9014 10.6473   6
  11  -6  -7 48.3331 10.6109   3
  -6  11   7 50.6385 10.9762   1
  -5  11  -7 27.9997  9.2600   7
   8   3  -7 133.747  13.922   3
   3 -11  -7 115.864  14.368   7
   3   8   7 150.335  14.624   1
   8 -11   7 117.346  14.367   1
 -11   3   7 97.4614 13.5907   6
 -11   8  -7 99.5206 15.6196   6
 -11   3   7 129.340  16.287   2
   8   3  -7 119.370  10.355   7
  11  -3  -7 142.275  15.150   3
  11  -8   7 116.359  15.378   1
  -8  11  -7 110.996  13.692   7
  -8  -3   7 146.980  14.297   2
  11  -3  -7 116.181  11.866   7
  -3  11   7 119.171  14.340   1
   0  11   7 1.75903 8.90717   1
  11   0  -7 -0.0293  7.8695   7
  11   0  -7 5.07847 9.00453   3
  11 -11   7 -24.767   8.951   1
 -11   0   7 11.3983 10.6701   2
 -11  11  -7 -3.2536 10.7648   6
 -12  11   7 633.470  29.891   2
 -12   1  -7 573.448  27.850   6
 -12  11   7 616.999  28.873   6
   1  11  -7 619.230  23.929   7
 -12  11   7 584.592  27.405   1
  11   1   7 566.220  25.645   1
  11 -12  -7 604.671  26.931   7
 -11  -1  -7 667.249  28.882   6
  -1  12  -7 572.572  24.078   7
 -11  12   7 631.657  28.027   1
  12  -1   7 616.618  27.055   1
  12 -11  -7 635.437  26.837   7
 -11  12   7 578.356  27.726   6
 -12   4  -7 21.2819 11.8131   6
   4   8  -7 29.6984  8.1898   7
 -12   8   7  7.5286 12.0065   2
 -12   8   7 16.6308 11.7237   6
   8 -12  -7 15.8749  9.7626   7
   8   4   7 15.7691  9.8360   1
 -12   8   7 11.5188 10.3006   1
  -8  12   7 5.41862 9.43815   6
  -8  12   7 20.0465 10.4034   1
  12  -8  -7 33.6343  9.9883   7
  -4  12  -7 19.6667  9.4510   7
  12  -4   7  9.4252 10.4579   1
 -12   5   7 52.0199 13.0482   6
 -12   7  -7 55.4963 14.4942   6
   5 -12  -7 78.2171 13.0933   7
   5   7   7 98.6581 13.2247   1
 -12   5   7 62.3500 14.0636   2
   7   5  -7 54.6362  8.4262   7
  -5  12   7 74.5578 12.3220   6
  -7  12  -7 83.7897 12.0964   7
  -5  12   7 65.2374 12.7034   1
  12  -7   7 85.3205 14.3253   1
  12  -5  -7 69.0255 12.5408   3
  12  -5  -7 76.4504 10.8395   7
   2  10   7 652.931  26.224   1
  10 -12   7 717.468  29.157   1
 -12   2   7 681.172  28.965   2
 -12  10  -7 727.417  30.323   6
  10   2  -7 702.065  27.098   3
  10   2  -7 704.509  22.194   7
  12  -2  -7 683.117  23.769   7
  12  -2  -7 676.895  27.565   3
 -10  12  -7 671.008  28.132   7
  12 -10   7 685.267  29.546   1
  -2  12   7 695.331  26.963   1
   0  13  -7 -11.623   8.554   7
 -13  13   7 -1.2020 12.1175   6
 -13  13   7 15.3991 11.9491   1
  13   0   7 -17.344  10.151   1
 -13   0  -7  9.7389 13.2173   6
  13 -13  -7 17.9865 11.7795   7
  10 -13  -7 -5.3450 10.1368   7
   3  10  -7 8.17579 8.12804   7
 -13  10   7  3.2128 11.9105   6
  10   3   7  9.1626 10.2932   1
 -13  10   7 15.8464 10.8243   1
 -13  10   7 -13.725  12.182   2
 -13   3  -7 -7.5472 12.2866   6
  13  -3   7 -1.8303 10.2941   1
 -10  13   7 -14.339   9.715   1
  13 -10  -7  3.0582 10.1979   7
  -3  13  -7 0.59631 8.83060   7
 -10  13   7 -10.154  10.055   6
   6   7  -7 1.22382 7.01735   7
 -13   7   7  8.2201 12.2645   6
   7   6   7 -13.919   9.135   1
   7 -13  -7 -3.5027 10.1312   7
 -13   7   7 -13.279  10.705   2
 -13   6  -7 18.8841 12.4324   6
  13  -7  -7 2.61160 9.30425   7
  -7  13   7  7.9686 10.5317   1
  -7  13   7 -8.0308  9.9035   6
  13  -7  -7  9.4006 10.3240   3
  13  -6   7  1.3899 10.5655   1
  -6  13  -7 5.30657 9.50573   7
   9   4  -7 20.5436  9.9746   3
   9   4  -7 29.4689  8.5687   7
   9 -13   7  9.8800 11.2273   1
 -13   9  -7 32.1055 13.1965   6
   4   9   7 23.5922 10.3665   1
 -13   4   7 38.2578 13.7132   2
 -13   4   7 38.9460 13.5338   6
  13  -9   7  6.3989 11.1355   1
  13  -4  -7 -1.1788 10.0262   3
  -4  13   7 28.9449 11.1934   1
  13  -4  -7 20.4140  9.5917   7
  -9  13  -7 23.1380 10.7893   7
 -13   1   7  2.6933 11.5467   2
  12   1  -7 17.4820  8.7298   7
 -13  12  -7 25.7287 13.3771   6
  12 -13   7  6.2020 11.5914   1
  12   1  -7 -0.4940  9.9371   3
  13 -12   7  9.6714 11.6579   1
  13  -1  -7 -11.555   9.877   3
  13  -1  -7 8.61857 8.91806   7
  -1  13   7  9.2667 10.6824   1
 -14  12   7 638.901  32.771   2
   2  12  -7 670.698  26.289   7
 -14   2  -7 636.853  31.442   6
 -14  12   7 676.876  31.633   6
  12 -14  -7 622.256  30.000   7
 -12  14   7 664.317  30.883   1
 -12  14   7 664.412  30.672   6
  14  -2   7 651.883  30.090   1
  14 -12  -7 589.048  28.311   7
  -2  14  -7 647.443  27.773   7
 -14   9   7 190.245  20.542   6
   5   9  -7 182.827  15.024   7
 -14   9   7 196.416  21.795   2
   9 -14  -7 215.214  19.781   7
 -14   5  -7 174.823  20.674   6
  14  -9  -7 187.325  17.646   7
  -9  14   7 172.571  18.913   1
  14  -5   7 208.091  20.070   1
  -9  14   7 199.074  19.052   6
  -5  14  -7 212.633  18.651   7
 -14   6   7 13.6646 13.3244   6
 -14   8  -7 13.1736 12.3661   6
 -14   6   7 12.8173 13.1752   2
   8   6  -7 -5.2903  7.6689   7
  -8  14  -7 -3.9641  9.8792   7
  14  -6  -7 7.03165 9.25939   7
  -6  14   7 -17.966   9.648   1
  14  -6  -7 -5.8528 10.0528   3
  14  -8   7 -11.865  10.744   1
  11 -14   7 15.4563 12.5855   1
  11   3  -7 -0.6226  8.4149   7
 -14  11  -7 -13.961  12.093   6
 -14   3   7 26.0323 12.8604   2
  11   3  -7  6.3226 10.5715   3
  14  -3  -7 8.21991 9.33815   7
  14 -11   7  4.9535 11.6402   1
  14  -3  -7  7.4530 11.4431   3
  -3  14   7  2.8261 10.8399   1
 -15  11   7 413.133  28.560   2
 -15   4  -7 455.701  27.387   6
   4  11  -7 411.510  20.824   7
 -15  11   7 384.758  26.408   6
  11 -15  -7 432.880  27.165   7
  -4  15  -7 460.848  24.675   7
 -11  15   7 454.362  25.655   6
  15 -11  -7 435.999  24.656   7
  15  -4   7 431.235  26.077   1
 -11  15   7 455.590  27.064   1
 -15   7  -7 18.8273 13.8303   6
 -15   8   7  2.0850 13.8599   2
 -15   8   7 15.9367 13.1697   6
   7   8  -7 13.6938  8.8258   7
  -7  15  -7 21.6515 11.5246   7
  15  -7   7 19.0318 11.9874   1
  -8  15   7 23.4297 12.4871   1
  15  -8  -7 -1.0532  9.5378   7
  15  -8  -7  4.7288 10.3078   3
 -15   5   7 25.1914 14.3838   2
 -15  10  -7 12.7563 13.4874   6
  10   5  -7 25.8509  9.5675   7
  10   5  -7  4.2730 10.5546   3
  15  -5  -7 -3.3729  9.8056   7
 -10  15  -7  9.7262 12.0939   7
  15 -10   7 -5.0041 11.7556   1
  -5  15   7 -1.5045 10.9544   1
  15  -5  -7 16.0262 11.1146   3
   0   1   8 2251.54   42.75   2
   0  -1  -8 2222.78   38.82   7
   1  -1   8 2157.59   44.87   5
   1  -1   8 2236.97   40.32   1
   0   1   8 2249.30   44.79   5
   0   1   8 2274.78   41.24   6
   1  -1   8 2251.86   43.36   2
  -1   0   8 2297.79   43.67   2
   1  -1   8 2243.60   40.76   6
  -1   0   8 2220.47   38.94   1
   1   0  -8 2188.68   36.03   7
  -1   1  -8 2185.79   38.65   7
   0   1   8 2247.21   40.94   1
  -1   0   8 2273.38   40.53   6
   1   0  -8 2241.56   35.82   3
   1  -1   8 2226.40   37.88   4
   0  -2   8 3324.75   53.82   4
   2  -2  -8 3439.99   54.36   7
  -2   2   8 3402.82   56.78   1
   2   0   8 3405.40   58.50   1
   0  -2   8 3363.51   60.44   2
  -2   0  -8 3281.33   57.15   7
   2   0   8 3405.78   58.12   6
   2   0   8 3474.22   51.59   4
   2  -2  -8 3441.67   52.05   3
  -2   2   8 3399.42   57.65   6
  -2   2   8 3361.59   59.83   2
   0   2  -8 3339.76   52.73   7
   0  -2   8 3403.92   55.57   6
   2   0   8 3370.09   62.44   5
   0  -2   8 3452.76   54.72   1
   0  -2   8 3279.43   63.48   5
   2   0   8 3426.66   60.13   2
   1  -3  -8 854.312  20.518   7
   2  -3   8 912.372  21.467   1
   2  -3   8 881.318  23.936   2
   1   2   8 904.172  22.174   2
  -3   2  -8 868.741  21.463   7
   1   2   8 910.552  22.656   5
   1   2   8 874.573  22.534   1
   2   1  -8 935.439  20.177   3
   1   2   8 898.226  22.940   6
   2  -3   8 855.912  25.073   5
  -3   1   8 882.715  23.456   2
  -3   1   8 879.597  21.536   6
   2  -3   8 876.685  20.982   4
  -3   1   8 890.117  19.693   1
  -1   3   8 871.724  22.270   1
   3  -1  -8 892.378  19.995   3
  -1  -2  -8 899.938  21.924   7
   3  -2   8 897.626  24.925   5
  -2  -1   8 878.446  23.558   2
  -2  -1   8 869.877  20.278   6
  -2   3  -8 884.577  20.155   7
  -1   3   8 906.672  22.754   6
  -1   3   8 887.299  22.244   2
  -2  -1   8 921.416  18.302   1
   3  -2   8 895.171  20.329   4
   3  -2   8 901.517  22.812   1
   3  -1  -8 878.428  15.705   7
  -1  -2  -8 914.528  22.111   5
  -4   1  -8 54.4430  7.8705   7
  -4   3   8 54.8291  8.3256   2
   1  -4   8 50.5981  8.3427   5
  -4   3   8 64.5482  8.1242   6
   1   3  -8 59.0750  4.3618   7
  -4   3   8 62.3110  7.1708   1
   3   1   8 47.1725  7.1286   5
   3  -4  -8 62.3329  6.5150   7
   1  -4   8 45.3780  8.1633   2
   1  -4   8 52.4802  7.4773   4
   1  -4   8 75.9891  6.8978   1
   3   1   8 61.8040  8.2890   1
  -3   4   8 60.8916  8.0756   6
  -3  -1  -8 59.8969  7.8218   7
   4  -3  -8 70.1448  7.4446   3
   4  -1   8 62.7744  8.7334   5
  -1  -3   8 47.6547  7.9507   5
  -1  -3   8 39.3637  7.0027   4
  -1  -3   8 60.7230  6.4936   6
  -3   4   8 53.7804  7.9993   2
  -3   4   8 65.1889  7.8126   1
   4  -3  -8 62.1027  5.5105   7
   4  -1   8 48.1809  7.9459   1
   4  -1   8 59.1674  6.4009   4
  -1   4  -8 66.8461  6.2602   7
  -1  -3   8 53.9753  7.9095   2
  -4   0   8 461.072  14.793   6
   0   4   8 410.648  16.094   1
   4  -4   8 427.859  18.642   5
  -4   0   8 462.011  17.101   2
   4  -4   8 433.684  16.572   1
   0  -4  -8 397.985  15.383   7
  -4   4  -8 423.234  15.634   7
   4  -4   8 425.854  15.343   4
   0   4   8 436.280  14.628   2
   4   0  -8 434.858  14.781   3
   0   4   8 427.083  16.165   6
  -5   5   8 8536.49  136.05   2
   0  -5   8 8513.14  135.54   2
   5   0   8 8617.58  140.57   5
   0   5  -8 8559.87  127.22   7
   5  -5  -8 8486.48  129.95   7
   0  -5   8 8207.57  143.20   5
   0  -5   8 8223.98  121.02   4
  -5   5   8 8426.42  131.35   1
   5   0   8 8278.07  133.41   1
  -5   0  -8 8528.14  134.68   7
  -5   5   8 8475.45  131.02   6
   3  -5   8 3318.22   55.25   4
   3  -5   8 3237.30   65.06   5
  -5   2   8 3300.42   54.75   1
   3  -5   8 3297.22   57.44   1
  -5   2   8 3268.44   57.21   6
   2  -5  -8 3206.04   57.16   7
  -5   2   8 3239.49   61.27   2
   2   3   8 3224.33   58.11   6
   2   3   8 3266.18   59.24   1
  -5   3  -8 3233.32   59.04   7
   5  -3   8 3313.93   65.31   5
  -3  -2   8 3280.62   53.15   6
  -2   5   8 3327.05   57.53   2
  -3  -2   8 3173.95   59.71   2
   5  -3   8 3316.68   52.44   4
   5  -2  -8 3399.77   55.92   3
  -2  -3  -8 3233.39   59.07   7
  -3   5  -8 3205.36   56.51   7
   5  -2  -8 3346.85   51.02   7
  -2   5   8 3275.60   58.23   6
  -2   5   8 3339.26   59.33   1
   5  -3   8 3244.88   60.02   1
  -3  -2   8 3240.48   53.77   4
  -6   4   8 309.882  13.397   1
   2   4  -8 303.912   8.832   7
  -6   4   8 307.573  15.472   2
   2  -6   8 337.470  16.997   5
   2  -6   8 292.950  14.150   4
  -6   4   8 298.308  14.705   6
   4   2   8 306.980  15.036   1
   4  -6  -8 285.871  13.017   7
  -6   2  -8 273.922  14.446   7
  -4   6   8 322.823  14.915   1
   6  -2   8 313.527  16.480   5
  -4   6   8 312.624  15.205   6
  -4   6   8 321.147  14.479   2
  -2  -4   8 289.546  14.527   2
   6  -2   8 286.548  11.150   4
   6  -2   8 316.602  15.788   1
   6  -4  -8 301.300  11.477   7
  -2  -4   8 304.632  13.383   4
   6  -4  -8 315.248  14.039   3
  -4  -2  -8 299.896  15.158   7
  -2   6  -8 300.984  12.383   7
  -6   1   8 1804.01   40.89   2
  -6   5  -8 1802.81   39.72   6
   1   5   8 1868.85   38.54   6
   1  -6  -8 1747.52   38.28   7
   5  -6   8 1835.70   40.10   1
   1   5   8 1807.72   39.63   1
   5   1  -8 1854.14   37.56   3
  -6   5  -8 1772.49   39.17   7
   5  -6   8 1809.08   44.46   5
  -6   1   8 1857.77   36.97   6
  -5  -1   8 1819.00   34.47   6
   6  -1  -8 1840.61   30.12   7
   6  -5   8 1871.41   41.28   1
   6  -1  -8 1857.37   37.62   3
   6  -5   8 1825.58   36.17   4
  -1   6   8 1812.71   38.38   6
  -1  -5  -8 1812.83   39.30   7
  -5   6  -8 1829.05   38.78   6
  -1   6   8 1824.65   39.47   1
   6  -5   8 1810.82   44.60   5
  -5  -1   8 1838.68   40.47   2
  -5   6  -8 1776.85   38.23   7
   6  -7  -8 381.995  15.775   7
   6   1   8 362.915  17.401   1
  -7   6   8 344.720  16.962   6
   1  -7   8 372.170  16.197   4
   1  -7   8 349.688  18.151   5
   1   6  -8 371.359  12.801   7
  -7   6   8 375.629  16.360   1
  -7   6   8 374.556  18.249   2
  -7   1  -8 368.600  17.753   7
  -1  -6   8 384.827  16.596   2
  -1  -6   8 391.287  17.895   5
   7  -6  -8 354.452  14.676   7
  -6  -1  -8 382.363  17.878   7
   7  -1   8 388.558  18.299   5
  -1   7  -8 372.483  14.141   7
  -6   7   8 392.768  17.542   2
  -6   7   8 380.858  17.146   1
  -1  -6   8 378.299  15.442   4
   7  -1   8 366.590  17.959   1
  -6   7   8 340.459  16.950   6
   4  -7   8 205.672  13.481   1
  -7   3   8 183.228  12.766   6
  -7   3   8 185.210  11.222   1
   4  -7   8 206.159  13.567   4
   3   4   8 205.109  13.494   1
   4   3  -8 179.027   7.002   7
  -7   4  -8 183.958  13.303   7
   4  -7   8 176.179  14.770   5
  -7   4  -8 190.400  14.880   6
   3  -7  -8 185.782  12.493   7
  -7   4  -8 188.505  13.539   7
  -7   3   8 179.716  14.224   2
  -4  -3   8 188.851  12.721   2
  -4   7  -8 184.463  12.322   6
   7  -4   8 199.000  14.450   1
  -4   7  -8 203.432  12.213   7
   7  -4   8 187.704  16.432   5
   7  -3  -8 224.496   9.759   7
  -3   7   8 177.547  13.202   1
   7  -3  -8 205.382  12.997   3
  -3  -4  -8 182.855  13.410   7
   7  -4   8 208.339  12.369   4
  -3   7   8 194.515  13.514   6
  -7   7  -8 1544.42   37.21   7
  -7   7  -8 1570.63   37.80   6
   0   7   8 1493.38   34.68   6
  -7   0   8 1556.59   33.05   6
   7   0  -8 1520.56   35.60   3
   7   0  -8 1541.42   28.16   7
   0   7   8 1523.33   36.77   1
  -7   0   8 1534.35   38.06   2
   7  -7   8 1497.35   38.62   1
   0  -7  -8 1544.30   36.92   7
  -8   8   8 3948.80   75.25   2
   8   0   8 3900.93   73.85   1
  -8   8   8 3818.66   73.01   6
   0   8  -8 3905.12   67.92   7
  -8   8   8 3909.93   73.31   1
   8  -8  -8 3913.49   71.12   7
   0  -8   8 3943.30   66.91   4
   3   5  -8 4276.95   68.85   7
  -8   5   8 4317.73   76.90   6
  -8   3  -8 4241.56   78.45   6
  -8   5   8 4323.86   75.14   1
  -8   5   8 4347.32   81.51   2
   5   3   8 4246.35   77.47   1
   5  -8  -8 4243.09   76.51   7
  -8   3  -8 4413.46   79.15   7
   3  -8   8 4187.79   72.13   4
  -5   8   8 4301.62   76.30   6
  -3   8  -8 4259.82   74.57   7
  -3  -5   8 4337.56   69.54   4
   8  -5  -8 4432.84   75.13   3
  -5  -3  -8 4422.39   78.89   7
  -5   8   8 4479.27   76.46   2
  -5   8   8 4301.27   78.05   1
   8  -5  -8 4358.98   72.71   7
  -3  -5   8 4392.16   77.38   2
   8  -3   8 4294.46   79.77   1
   8  -3   8 4450.06   85.41   5
   6   2  -8 1526.44   27.93   7
   2   6   8 1541.23   37.30   1
  -8   6  -8 1575.63   38.29   7
   6   2  -8 1533.47   36.15   3
  -8   2   8 1582.23   39.66   2
   2  -8  -8 1538.42   36.90   7
  -8   6  -8 1531.08   38.78   6
   2   6   8 1527.48   35.54   6
   6  -8   8 1608.17   38.44   1
  -8   2   8 1589.86   35.81   6
   8  -2  -8 1535.99   30.38   7
  -2   8   8 1536.30   35.86   6
  -6  -2   8 1533.05   36.95   2
   8  -6   8 1570.21   40.13   1
  -6   8  -8 1607.62   36.98   6
  -2   8   8 1572.03   38.03   1
  -6   8  -8 1495.36   36.33   7
  -2  -6  -8 1600.38   37.55   7
   8  -2  -8 1616.08   36.89   3
  -9   7   8 21.5275  9.0569   1
   2   7  -8 42.9046  7.1670   7
   7  -9  -8 30.1227  9.1773   7
  -9   2  -8 21.8961 10.5652   6
  -9   7   8 31.5932 10.5751   6
  -9   2  -8 43.7075 10.2880   7
   7   2   8 28.7612  9.0590   1
   2  -9   8 29.0427  8.9219   4
  -9   7   8 36.2788 11.0469   2
  -7   9   8 58.0758 10.4862   1
   9  -7  -8 37.7302  8.6192   7
  -7   9   8 34.6741  9.6438   2
   9  -2   8 46.3628 10.8951   1
  -2  -7   8 34.5166  8.5440   4
  -7   9   8 44.2098 10.3886   6
  -2   9  -8 44.9527  8.2684   7
  -9   4   8 31.4207  9.7671   6
   4   5   8 36.9668  9.6152   1
  -9   4   8 41.2968 11.0812   2
  -9   5  -8 17.2638 10.2938   6
  -9   5  -8 64.7418 11.1397   7
   4  -9  -8 30.3112  8.5976   7
  -9   5  -8 36.1147 10.0456   7
   5   4  -8 54.2730  6.0677   7
  -5  -4   8 41.2171  9.1235   2
  -5   9  -8 37.8326  8.6769   7
  -4   9   8 34.6733  9.3574   1
   9  -4  -8 48.9532  8.1644   7
   9  -4  -8 41.7602  9.6827   3
   9  -5   8 39.7733 10.7654   1
  -4   9   8 51.5130 10.1987   6
  -4  -5  -8 42.0859  9.9285   7
  -9   8  -8 249.546  18.123   6
   8   1  -8 201.594  10.721   7
   1   8   8 236.466  14.861   6
   1   8   8 228.077  15.618   1
  -9   1   8 226.379  17.123   2
  -9   8  -8 208.194  16.761   7
   8  -9   8 198.340  17.255   1
   8   1  -8 204.579  14.985   3
   1  -9  -8 191.493  15.779   7
  -1  -8  -8 237.703  16.505   7
  -8   9  -8 234.901  16.820   7
  -1   9   8 197.162  14.226   6
  -8  -1   8 191.328  15.502   2
  -1   9   8 209.758  16.096   1
   9  -1  -8 212.307  11.991   7
   9  -1  -8 202.865  15.465   3
  -8   9  -8 223.865  16.858   6
   9  -8   8 215.649  18.197   1
   9 -10  -8 16.9333  8.9344   7
 -10   9   8 -2.5457  9.6867   6
   1   9  -8 5.67832 7.66952   7
   9   1   8 29.4710 10.3369   1
 -10   9   8 14.4013 10.9148   2
 -10   9   8 25.3939 10.0312   1
   1 -10   8 17.5231  9.1302   4
 -10   1  -8 19.2112 11.7601   6
  -9  10   8  8.9325 10.2298   2
  -1  -9   8 11.9296  8.8390   4
  10  -1   8 5.57622 9.83530   1
  10  -9  -8 6.68176 8.75453   7
  -9  10   8 16.7126  9.1104   1
  -9  -1  -8 19.2365 10.8806   6
  -9  10   8 13.1118 10.4400   6
  -1  10  -8 9.05014 7.89473   7
   6 -10  -8 319.734  18.064   7
   4 -10   8 356.090  18.778   4
 -10   4  -8 328.386  20.459   6
 -10   6   8 303.738  18.768   6
   6   4   8 332.199  18.379   1
 -10   6   8 352.821  17.991   1
 -10   6   8 310.808  20.383   2
   4   6  -8 311.715  13.225   7
  10  -4   8 328.755  19.625   1
  -4  -6   8 337.846  16.008   4
  10  -6  -8 321.372  18.385   3
  -6  10   8 346.034  19.127   1
  -4  10  -8 301.600  16.824   7
  10  -6  -8 326.317  16.161   7
  -6  10   8 345.806  18.467   6
 -10   7  -8 900.614  30.140   7
   7   3  -8 887.804  21.040   7
 -10   3   8 856.172  27.669   6
   7 -10   8 808.227  28.028   1
   3   7   8 865.901  28.070   1
   7   3  -8 872.740  27.887   3
 -10   7  -8 816.172  30.184   6
 -10   3   8 829.605  30.588   2
   3 -10  -8 856.611  28.126   7
  10  -3  -8 806.023  23.276   7
  -3  10   8 852.797  28.581   1
  10  -3  -8 835.172  27.785   3
  -3  10   8 858.690  26.893   6
  -7  -3   8 883.815  27.599   2
  -7  10  -8 831.471  27.842   7
  10  -7   8 850.662  30.919   1
  10   0  -8 2120.68   42.57   7
 -10   0   8 2105.66   51.10   2
 -10  10  -8 2154.18   50.96   6
  10   0  -8 2095.53   49.30   3
   0  10   8 2193.17   50.34   1
 -10  10  -8 2138.04   51.22   7
  10 -10   8 2162.19   52.84   1
 -11   0  -8 2222.35   53.71   6
   0  11  -8 2257.44   48.71   7
 -11  11   8 2117.35   54.94   2
 -11  11   8 2133.15   53.54   1
  11   0   8 2118.19   52.36   1
  11 -11  -8 2074.84   51.18   7
 -11  11   8 2150.92   54.01   6
 -11   3  -8 2717.36   62.32   6
 -11   8   8 2764.81   65.23   2
   3   8  -8 2953.41   54.21   7
   8   3   8 2838.96   60.40   1
 -11   8   8 2831.36   62.34   6
   8 -11  -8 2909.36   60.65   7
 -11   8   8 2898.48   60.32   1
  11  -3   8 2832.38   63.04   1
  -3  11  -8 2866.10   57.81   7
  -8  11   8 2868.26   62.41   1
  11  -8  -8 2849.28   58.38   7
  -3  -8   8 2903.98   53.51   4
  -8  11   8 2784.52   60.18   6
   5 -11  -8 1897.31   45.29   7
 -11   6  -8 1837.17   48.47   6
 -11   5   8 1872.94   49.80   2
   5   6   8 1931.86   45.31   1
   6   5  -8 1860.90   36.99   7
 -11   5   8 1761.74   45.06   6
  -5  11   8 1912.67   46.62   1
  11  -6   8 1881.58   48.42   1
  11  -5  -8 1860.26   41.50   7
  -6  11  -8 1896.56   44.33   7
  -5  11   8 1863.29   43.81   6
  11  -5  -8 1838.33   44.67   3
   9   2  -8 395.236  20.757   3
 -11   9  -8 371.337  22.297   6
   9   2  -8 402.168  15.651   7
   2   9   8 386.217  20.634   1
 -11   9  -8 447.846  23.297   7
 -11   2   8 422.904  23.538   2
   9 -11   8 413.020  22.425   1
  11  -2  -8 397.376  17.136   7
  11  -9   8 388.612  23.302   1
  -9  11  -8 362.925  21.154   7
  11  -2  -8 354.412  20.455   3
  -9  -2   8 371.021  20.149   2
  -2  11   8 356.574  20.313   1
 -12   2  -8 517.552  26.271   6
  10 -12  -8 533.020  24.675   7
   2  10  -8 524.356  21.186   7
 -12  10   8 526.866  27.902   2
  10   2   8 522.772  24.346   1
 -12  10   8 551.680  27.564   6
 -12  10   8 516.325  25.455   1
 -10  12   8 519.514  25.393   1
 -10  12   8 500.236  25.494   6
  12  -2   8 565.446  26.965   1
 -10  -2  -8 523.995  26.252   6
  12 -10  -8 544.917  24.371   7
  -2  12  -8 544.631  22.773   7
   7 -12  -8 507.936  24.312   7
   5   7  -8 545.578  18.756   7
   7   5   8 535.132  23.635   1
 -12   7   8 522.757  25.420   6
 -12   5  -8 545.374  26.323   6
 -12   7   8 507.044  27.374   2
  12  -7  -8 513.753  22.158   7
  12  -5   8 530.568  25.794   1
  -5  12  -8 503.763  22.353   7
  -7  12   8 560.765  25.375   1
  12  -7  -8 523.108  24.218   3
  -7  12   8 455.063  22.617   6
 -12   4   8 267.557  21.708   2
 -12   8  -8 276.980  22.107   6
   4 -12  -8 309.590  20.138   7
   8   4  -8 255.006  14.006   7
 -12   4   8 252.260  19.488   6
   8   4  -8 275.004  18.134   3
   4   8   8 288.067  18.460   1
  -8  12  -8 280.801  19.358   7
  12  -4  -8 282.457  16.269   7
  -4  12   8 281.441  19.268   1
  12  -4  -8 264.150  18.920   3
  12  -8   8 277.439  21.402   1
 -12   1   8 120.445  16.788   2
  11 -12   8 131.483  17.093   1
  11   1  -8 107.403  11.435   7
   1  11   8 136.396  15.782   1
  11   1  -8 119.722  15.439   3
 -12  11  -8 135.093  17.795   6
 -11  12  -8 119.046  16.111   7
  -1  12   8 120.431  15.427   1
  12  -1  -8 123.516  12.749   7
  12 -11   8 120.383  17.030   1
 -11  -1   8 128.183  16.532   2
  12  -1  -8 96.4240 15.0337   3
 -13  12   8 323.197  21.620   1
   1  12  -8 286.634  18.198   7
 -13  12   8 243.499  23.363   2
 -13   1  -8 303.026  23.579   6
 -13  12   8 265.114  23.816   6
  12 -13  -8 293.942  22.007   7
  12   1   8 350.233  22.389   1
  -1  13  -8 301.083  19.070   7
 -12  13   8 241.885  22.765   6
 -12  -1  -8 285.106  22.818   6
  13 -12  -8 251.740  21.063   7
  13  -1   8 294.666  22.011   1
 -12  13   8 278.111  21.508   1
   9   4   8 188.379  17.345   1
   9 -13  -8 157.659  17.275   7
 -13   9   8 143.336  16.916   1
 -13   9   8 157.217  19.800   2
   4   9  -8 177.027  13.796   7
 -13   9   8 168.099  19.365   6
 -13   4  -8 161.877  19.128   6
  13  -9  -8 159.663  16.169   7
  -9  13   8 150.277  17.146   1
  -9  13   8 161.190  17.792   6
  -4  13  -8 175.516  16.372   7
  13  -4   8 155.398  18.451   1
 -13   6   8 769.467  33.615   2
 -13   7  -8 768.405  32.674   6
   7   6  -8 752.033  23.026   7
 -13   6   8 785.243  31.544   6
   6 -13  -8 834.033  31.397   7
   6   7   8 871.536  29.885   1
  -6  13   8 789.412  28.898   6
  13  -6  -8 728.945  29.300   3
  13  -7   8 769.263  31.816   1
  -7  13  -8 776.507  28.898   7
  13  -6  -8 785.167  27.030   7
  -6  13   8 814.906  31.285   1
 -13  10  -8 2020.99   53.46   6
 -13   3   8 1991.77   54.41   2
  10   3  -8 1982.31   42.70   7
  10   3  -8 1959.22   49.83   3
   3  10   8 2031.16   49.80   1
  13 -10   8 1959.92   53.61   1
  -3  13   8 1936.95   50.51   1
 -10  13  -8 2084.51   51.74   7
  13  -3  -8 1990.26   50.66   3
  13  -3  -8 1975.70   45.07   7
   0  13   8 2344.75   57.32   1
  13   0  -8 2418.02   58.78   3
 -14  11   8 745.823  32.841   6
 -14  11   8 720.009  34.708   2
 -14   3  -8 689.991  32.146   6
  11 -14  -8 756.771  31.916   7
   3  11  -8 714.748  26.321   7
  -3  14  -8 714.890  28.364   7
  14  -3   8 743.682  32.257   1
 -11  14   8 750.905  32.513   1
  14 -11  -8 693.373  29.074   7
 -11  14   8 742.263  31.611   6
   6   8  -8 296.820  16.173   7
 -14   8   8 298.125  24.845   2
   8 -14  -8 287.366  21.718   7
 -14   6  -8 271.504  23.476   6
 -14   8   8 280.203  23.948   6
  14  -6   8 327.145  22.697   1
  14  -8  -8 318.540  20.160   7
  -8  14   8 321.905  21.872   6
  -6  14  -8 301.956  20.391   7
  -8  14   8 303.561  21.559   1
 -14   5   8 175.408  20.101   6
   9   5  -8 197.762  18.022   3
 -14   5   8 194.784  21.501   2
 -14   9  -8 212.544  21.575   6
   9   5  -8 181.838  13.935   7
  14  -9   8 224.439  21.675   1
  14  -5  -8 202.892  19.607   3
  -9  14  -8 198.489  19.402   7
  -5  14   8 200.889  19.303   1
  14  -5  -8 210.424  16.728   7
  12   2  -8 32.2454 12.3045   3
  12   2  -8 43.9902 10.4818   7
 -14  12  -8 17.4457 12.9634   6
  12 -14   8 52.6331 14.6321   1
 -14   2   8 27.0421 13.9942   2
  14  -2  -8 32.2559 10.7844   7
  -2  14   8 39.5356 12.8772   1
  14 -12   8 32.9128 14.2086   1
  14  -2  -8 38.7018 13.6475   3
   5  10  -8 507.239  21.453   7
 -15  10   8 510.276  30.886   2
  10 -15  -8 530.277  28.683   7
 -15   5  -8 498.443  28.743   6
 -15  10   8 494.486  28.799   6
 -10  15   8 480.481  27.665   1
  -5  15  -8 503.900  26.040   7
  15  -5   8 518.351  28.503   1
 -10  15   8 512.404  26.972   6
 -15   7   8 360.791  26.752   2
 -15   8  -8 348.878  25.248   6
   8   7  -8 361.330  17.728   7
 -15   7   8 343.858  25.348   6
  -8  15  -8 407.193  24.343   7
  -7  15   8 331.962  23.659   1
  15  -7  -8 319.406  20.515   7
  15  -7  -8 349.077  23.171   3
  15  -8   8 364.617  24.578   1
   0   0   9 9.31991 6.16849   2
   0   0   9 -4.5406  5.8399   5
   0   0   9 1.35411 4.76554   1
   0   0  -9 -1.2461  4.1139   7
   0   0   9 9.96831 6.02789   6
  -2   1   9 2114.68   38.62   1
   1  -2   9 2095.34   38.23   4
   1   1  -9 2086.15   35.36   3
   1   1   9 2127.41   41.94   2
  -2   1  -9 2090.10   39.29   7
  -2   1   9 2138.14   40.30   6
   1  -2   9 2170.67   39.15   1
  -2   1   9 2100.43   42.73   2
   1  -2   9 2092.60   39.68   6
   1   1   9 2097.90   41.08   1
   1  -2  -9 2098.39   38.06   7
   1  -2   9 2088.42   43.07   2
   1   1   9 2088.76   40.99   6
   1  -2   9 2086.96   45.11   5
  -2   1  -9 2065.43   39.11   7
   1   1  -9 2114.03   34.31   7
   1   1   9 2110.79   43.34   5
   2  -1   9 2133.65   37.04   4
  -1   2  -9 2112.81   37.41   7
  -1  -1   9 2123.49   39.22   6
   2  -1  -9 2118.89   35.30   7
  -1  -1   9 2036.55   42.67   2
   2  -1  -9 2196.80   35.97   3
  -1  -1  -9 2112.93   39.42   7
  -1  -1   9 2110.73   37.36   1
  -1   2   9 2087.19   40.27   1
  -1   2   9 2126.26   41.11   6
  -1  -1   9 2103.08   38.17   4
   2  -1   9 2158.67   43.29   2
  -1  -1   9 2077.91   45.65   5
   2  -1   9 2117.75   44.96   5
   2  -1   9 2122.39   40.83   1
  -1   2   9 2105.56   42.27   2
   3  -3  -9 -5.0374  4.6716   3
  -3   3   9 12.3010  6.7234   2
  -3   3   9 5.92843 6.23580   6
   0  -3   9 7.40837 6.15628   4
   0  -3   9 11.0551  6.8397   5
   0  -3   9 9.99180 6.53212   2
   0  -3   9 2.29285 4.45457   1
   3   0   9 -4.3882  4.6975   4
   3   0   9 2.07392 5.67190   1
  -3   3   9 4.37489 5.53752   1
   3  -3  -9 5.92210 4.48236   7
  -3   0  -9 -9.3347  5.1438   7
   3   0   9 6.04729 6.13633   5
   0  -3   9 12.2570  5.8240   6
   0   3  -9 2.27196 3.66160   7
   3  -3   9 5.08400 6.11472   1
   0   3   9 -2.4193  5.5147   2
   0   3   9 -0.6240  5.9488   6
   3   0  -9 -0.0577  4.6094   3
   0  -3  -9 9.00023 5.51180   7
   0   3   9 1.51027 5.61565   1
   3  -3   9 5.16236 5.68240   4
   3  -3   9 -4.0113  6.3867   5
  -3   3  -9 4.22208 5.30930   7
  -3   0   9 11.4860  5.9845   6
  -3   0   9 4.30749 4.31142   1
  -3   0   9 15.9488  6.7217   2
  -4   2  -9 627.652  19.367   7
  -4   2   9 631.530  17.241   1
   2  -4   9 609.760  17.779   1
  -4   2   9 622.655  19.209   6
   2   2   9 584.225  19.773   6
   2  -4   9 620.041  21.971   5
   2   2   9 624.338  18.794   5
  -4   2  -9 570.070  18.813   7
   2  -4   9 570.621  18.212   4
   2  -4  -9 602.907  17.294   7
   2   2   9 599.023  19.918   1
  -4   2   9 602.101  20.244   2
   4  -2  -9 594.467  13.581   7
   4  -2   9 629.594  21.413   5
  -2  -2   9 623.937  16.967   6
   4  -2   9 604.743  16.789   4
  -2  -2   9 624.028  20.698   2
  -2  -2   9 626.336  18.420   4
  -2   4   9 624.183  19.199   2
  -2   4   9 606.138  19.078   1
   4  -2   9 593.806  20.011   1
  -2   4  -9 618.646  16.954   7
  -2  -2  -9 598.932  19.083   7
  -2   4   9 620.856  20.058   6
   4  -2  -9 620.241  17.339   3
  -5   4   9 229.367  12.312   1
   4   1   9 212.359  13.736   1
  -5   1  -9 228.859  13.990   7
   1  -5   9 213.235  14.018   2
   1  -5   9 234.143  12.980   4
  -5   4   9 203.812  13.545   2
   4  -5  -9 220.413  11.329   7
   1  -5   9 219.448  14.518   5
   1   4  -9 210.872   8.262   7
  -5   4   9 216.339  13.321   6
   4   1   9 217.634  12.255   5
  -1  -4   9 202.754  13.937   5
  -4   5   9 212.323  13.354   2
  -4   5   9 195.031  13.457   6
  -4   5   9 206.959  12.463   1
  -1  -4   9 236.599  13.776   2
  -1  -4   9 220.409  12.628   4
   5  -1   9 197.948  13.404   1
   5  -1   9 266.872  14.734   5
   5  -1   9 219.256  10.129   4
  -4  -1  -9 233.951  13.765   7
  -1   5  -9 201.554   9.826   7
   5  -4  -9 212.987  11.997   3
   5  -4  -9 215.773  10.244   7
   4  -5   9 688.541  21.321   1
  -5   1   9 678.874  22.828   2
   4   1  -9 703.621  20.000   3
   1   4   9 700.770  22.028   1
   1  -5  -9 671.231  20.643   7
  -5   1   9 724.010  20.527   6
   4  -5   9 687.380  24.834   5
   1   4   9 685.496  19.711   2
  -5   4  -9 669.942  21.198   7
   4  -5   9 676.529  20.855   4
   1   4   9 677.012  21.753   6
  -4   5  -9 689.233  20.552   7
   5  -1  -9 721.724  20.176   3
  -1  -4  -9 691.198  21.322   7
  -4  -1   9 692.942  18.642   6
  -1   5   9 692.428  21.785   6
  -1   5   9 658.697  21.329   1
   5  -4   9 656.713  24.435   5
   5  -4   9 660.382  19.629   4
  -1   5   9 692.365  19.947   2
  -4  -1   9 692.737  22.484   2
   5  -4   9 698.749  22.419   1
   0   6  -9 1.71888 4.96694   7
  -6   0  -9 -1.4455  6.9186   7
  -6   6   9 1.30366 6.62641   1
   0  -6   9 8.96738 7.78982   2
   6  -6  -9 18.0305  6.5693   7
  -6   6   9 -7.4566  7.3455   6
   0  -6   9 6.87633 6.87066   4
  -6   6   9 -0.9430  7.7694   2
   6   0   9 -6.7396  6.7200   1
   3  -6  -9 87.3385  9.2794   7
  -6   3  -9 88.8879 10.5500   7
  -6   3   9 84.3213 10.0432   6
   3   3   9 82.8471 10.4807   1
  -6   3   9 80.1328  8.7038   1
  -6   3   9 81.0806 11.2204   2
   3  -6   9 90.2235 10.0735   1
   3  -6   9 88.5466 10.2782   4
  -6   3  -9 90.8861 10.5848   7
   6  -3  -9 82.3974  6.6301   7
   6  -3  -9 101.786  10.323   3
  -3  -3  -9 104.384  10.908   7
   6  -3   9 96.1091 12.3671   5
  -3  -3   9 68.9888  9.8655   2
  -3   6   9 86.4047  9.9152   2
  -3   6  -9 86.7903  8.7829   7
  -3   6   9 97.1857 11.0023   6
   6  -3   9 91.1812  8.7947   4
  -3  -3   9 87.6157  9.4872   4
  -3   6   9 93.1972 10.5267   1
   6  -3   9 73.9477 11.1436   1
  -6   6  -9 -11.519   6.370   7
  -6   6  -9 -6.7839  7.6607   6
  -6   0   9 -2.3377  7.3551   2
   6  -6   9 -3.6047  7.5007   1
   0   6   9 2.51660 6.70786   1
   6   0  -9 3.25505 6.79485   3
   0   6   9 10.1360  7.3611   6
   6  -6   9 -4.4862  7.5145   4
  -6   0   9 2.86238 6.88190   6
   0  -6  -9 -3.9830  6.6773   7
  -7   5   9 568.188  19.317   1
   5  -7  -9 557.338  18.899   7
   2   5  -9 544.360  14.100   7
   5   2   9 562.538  21.580   1
   2  -7   9 558.674  19.868   4
  -7   2  -9 558.386  21.638   7
  -7   5   9 546.780  20.766   6
  -7   5   9 522.357  21.719   2
   7  -2   9 555.257  21.902   1
  -2  -5   9 577.210  20.731   2
   7  -2   9 583.006  22.846   5
  -5   7   9 539.193  20.170   2
   7  -5  -9 547.862  16.942   7
  -2  -5   9 540.683  18.576   4
  -5  -2  -9 540.387  20.972   7
  -5   7   9 544.619  21.118   6
  -2   7  -9 557.512  17.730   7
   7  -5  -9 578.802  20.022   3
  -5   7   9 533.301  20.425   1
  -7   2   9 22.2886  8.1317   6
   5   2  -9 6.90258 6.72379   3
   2   5   9 7.17538 7.64523   6
   2  -7  -9 13.6041  7.5917   7
   5  -7   9 -3.7753  8.0926   1
  -7   5  -9 26.1112  9.9169   6
   2   5   9 11.3917  7.6318   1
  -7   2   9 18.0803  8.4682   2
   5  -7   9 17.8736  8.8600   4
  -7   5  -9 5.94531 7.39921   7
   7  -2  -9 32.0602  5.1130   7
  -5   7  -9 1.94439 8.24423   6
  -2  -5  -9 13.4146  7.6395   7
  -5   7  -9 7.14514 6.87662   7
  -2   7   9 15.7761  7.3468   1
  -5  -2   9 13.3837  7.9763   2
   7  -2  -9 32.9247  8.5607   3
   7  -5   9 25.0711  8.4242   4
   7  -5   9 14.2187  8.9440   1
  -2   7   9 17.3713  8.3278   6
   7   1   9 117.502  13.100   1
   7  -8  -9 102.566  11.247   7
  -8   7   9 94.1398 12.2789   6
  -8   1  -9 108.015  12.966   7
  -8   7   9 126.283  14.028   2
   1   7  -9 96.1468  9.0181   7
   1  -8   9 108.162  11.972   4
  -8   7   9 114.357  12.326   1
  -1  -7   9 140.336  13.606   2
   8  -7  -9 108.716  10.906   7
  -7  -1  -9 137.741  14.057   7
  -1   8  -9 99.4899  9.9427   7
   8  -1   9 98.8278 12.7283   1
  -7   8   9 115.938  12.765   1
  -7   8   9 116.057  13.327   6
  -7   8   9 117.250  13.069   2
  -1  -7   9 106.705  11.237   4
   4   4   9 179.034  14.262   1
   4  -8   9 164.613  14.105   4
  -8   4   9 189.453  15.682   2
  -8   4  -9 188.854  15.090   7
   4  -8  -9 206.823  14.119   7
   4   4  -9 180.578   7.927   7
  -8   4   9 204.897  14.372   6
  -8   4  -9 191.745  16.259   6
  -4  -4   9 188.797  13.954   2
  -4   8   9 179.125  14.765   1
   8  -4  -9 188.460  10.885   7
  -4  -4   9 204.451  13.069   4
  -4  -4  -9 202.249  14.982   7
  -4   8   9 182.508  14.229   6
   8  -4  -9 183.531  13.849   3
   8  -4   9 178.675  15.468   1
  -4   8  -9 189.728  13.071   7
   7   1  -9 8.76906 4.51355   7
  -8   7  -9 13.6053 10.7219   6
  -8   1   9 2.35870 8.72468   2
  -8   7  -9 6.75511 8.50044   7
   7   1  -9 16.5552  8.2018   3
   1   7   9 12.4606  8.6020   1
  -8   1   9 5.06260 7.79660   6
   7  -8   9 19.9009  9.7045   1
   1   7   9 5.95759 8.13292   6
   1  -8  -9 9.99644 8.12849   7
   8  -1  -9 23.1295  8.6673   3
  -1   8   9 13.0904  8.1693   1
   8  -1  -9 5.30704 5.24414   7
  -1  -7  -9 29.7524  9.0945   7
  -7   8  -9 17.7128  9.6721   6
  -1   8   9 10.4165  8.1528   6
  -7   8  -9 14.9119  8.4831   7
  -7  -1   9 13.8717  8.8391   2
   8  -7   9 18.7665 10.3532   1
   0   9  -9 -6.2952  6.6674   7
  -9   9   9 -8.5004  8.6985   6
   9   0   9 1.78717 9.18968   1
   0  -9   9 1.69584 8.18947   4
  -9   9   9 21.7189 11.1475   2
   9  -9  -9 18.8295  8.9081   7
  -9   0  -9 -11.724   9.679   6
  -9   9   9 4.35373 8.49211   1
  -9   6   9 421.653  20.022   6
   6   3   9 381.045  19.724   1
  -9   6   9 404.404  21.621   2
  -9   6   9 414.125  18.726   1
   3   6  -9 380.134  13.554   7
   6  -9  -9 392.547  18.679   7
  -9   3  -9 393.914  20.730   7
  -9   3  -9 376.226  21.023   6
   3  -9   9 390.648  18.909   4
   9  -6  -9 353.017  18.722   3
  -3   9  -9 403.759  17.357   7
  -6   9   9 395.855  19.517   1
  -3  -6   9 385.110  18.422   2
   9  -3   9 393.877  20.975   1
  -3  -6   9 382.668  17.003   4
   9  -6  -9 391.556  16.595   7
  -6   9   9 408.484  20.076   6
  -6  -3  -9 406.064  20.414   7
   6  -9   9 341.542  18.786   1
  -9   3   9 339.342  20.304   2
   6   3  -9 366.306  18.006   3
   6   3  -9 338.052  11.338   7
  -9   6  -9 312.761  19.111   7
   3  -9  -9 334.709  17.906   7
  -9   3   9 354.611  18.005   6
   3   6   9 358.148  18.656   1
  -9   6  -9 337.830  19.451   7
  -9   6  -9 336.722  20.270   6
  -6  -3   9 330.469  17.930   2
   9  -3  -9 326.335  13.907   7
  -3   9   9 333.917  18.273   1
   9  -3  -9 327.387  17.457   3
  -6   9  -9 301.406  17.314   7
  -3  -6  -9 356.659  19.173   7
  -3   9   9 316.813  17.640   6
   9  -6   9 348.218  20.842   1
   9  -9   9 -8.4798  9.7159   1
   0  -9  -9 -9.9087  8.2784   7
   9   0  -9 4.29584 9.00399   3
  -9   9  -9 12.4308 10.9448   6
   9   0  -9 0.11706 5.89234   7
  -9   0   9 -4.7729  8.8386   2
  -9   9  -9 13.5680  9.6751   7
   0   9   9 11.3299  9.0607   6
   0   9   9 1.59105 8.51301   1
 -10   2  -9 70.4832 13.6653   6
 -10   8   9 58.1366 12.7248   6
   2   8  -9 51.5883  8.4861   7
   8 -10  -9 81.1110 12.1895   7
   8   2   9 31.7148 11.1617   1
 -10   8   9 74.2966 13.9716   2
 -10   8   9 68.9424 12.1468   1
  -8  10   9 90.7294 13.1026   1
  -2  -8   9 62.3814 10.5417   4
  10  -8  -9 59.9315 10.3257   7
  -2  10  -9 63.8941 10.2462   7
  10  -2   9 64.2641 12.9167   1
  -8  10   9 83.5034 13.6342   6
   5 -10  -9 2.15219 8.43591   7
   5   5   9 -4.5637  8.5003   1
 -10   5   9 3.37085 9.68574   2
   5   5  -9 -1.8145  5.3392   7
 -10   5  -9 -7.9118  8.9044   7
   5 -10   9 -1.4822  9.1689   4
 -10   5  -9 24.1790 11.5163   6
 -10   5   9  9.9788 10.3359   6
  10  -5  -9 4.46730 7.64689   7
  -5  10   9 4.90392 8.99871   1
  -5  10  -9 5.08508 8.16372   7
  10  -5   9 3.67383 9.73891   1
  -5  -5   9 -1.9177  8.2509   2
  -5  10   9 -3.8826  8.7975   6
  10  -5  -9 -7.4981  8.4495   3
 -10   8  -9 48.3363 11.8162   7
   2   8   9 29.7080 10.1745   6
   2 -10  -9 16.7507  9.6629   7
   2   8   9 27.2862 10.2963   1
 -10   8  -9 -7.0189 10.4423   6
   8   2  -9 16.9031  9.1637   3
   8   2  -9 27.7193  6.0872   7
 -10   2   9  9.9785 10.7247   2
   8 -10   9 -4.8834 10.1463   1
  -8  10  -9 32.2247 10.3655   7
  10  -2  -9 8.13285 9.32842   3
  -2  10   9 23.8256  9.5720   6
  -8  -2   9 14.9735  9.7762   2
  -2  10   9 23.1358 10.3430   1
  10  -2  -9 31.2865  7.2761   7
  10  -8   9 28.3944 12.5639   1
  10 -11  -9 381.238  21.535   7
  10   1   9 370.434  21.838   1
 -11   1  -9 404.081  23.705   6
 -11  10   9 382.594  22.116   1
 -11  10   9 377.434  22.998   6
 -11  10   9 424.686  24.942   2
   1  10  -9 420.668  18.815   7
  11 -10  -9 392.338  20.705   7
 -10  -1  -9 424.263  23.953   6
  11  -1   9 386.613  22.897   1
 -10  11   9 406.925  23.527   6
  -1  11  -9 432.660  20.153   7
 -10  11   9 428.748  23.079   1
 -11   4  -9 132.176  16.698   6
 -11   7   9 163.642  17.106   6
   7 -11  -9 139.941  15.263   7
   4   7  -9 143.697  11.287   7
   7   4   9 138.945  15.326   1
 -11   7   9 118.249  16.432   2
  -4  11  -9 146.078  14.527   7
  11  -4   9 144.719  16.857   1
  -7  11   9 137.071  15.049   6
  -7  11   9 146.363  15.824   1
  11  -7  -9 147.346  15.082   3
  -4  -7   9 144.531  13.349   4
  11  -7  -9 141.721  13.803   7
   4   7   9 1071.93   33.11   1
   7   4  -9 1057.39   32.63   3
   4 -11  -9 1123.83   34.03   7
   7   4  -9 1056.72   24.66   7
 -11   4   9 1068.82   33.48   6
 -11   4   9 1041.53   36.74   2
 -11   7  -9 1049.88   35.98   6
 -11   7  -9 1129.45   35.89   7
 -11   7  -9 1132.15   35.74   7
  -4  11   9 1041.92   33.56   1
  -7  11  -9 1071.65   32.97   7
  -4  11   9 1073.38   32.38   6
  11  -4  -9 1079.86   28.41   7
  -7  -4   9 1127.06   32.67   2
  11  -7   9 1102.32   36.45   1
  11  -4  -9 983.438  32.091   3
  10   1  -9 53.1850  9.0141   7
   1  10   9 94.3229 14.0360   1
  10   1  -9 70.3994 13.1343   3
 -11  10  -9 91.6442 14.9580   6
  10 -11   9 54.5304 13.7422   1
 -11   1   9 83.8247 14.2305   2
 -11  10  -9 67.0948 14.1223   7
  11 -10   9 77.7790 14.7039   1
  11  -1  -9 63.1044  9.6603   7
  11  -1  -9 62.6774 12.9680   3
 -10  11  -9 59.8415 12.7743   7
 -10  -1   9 75.4956 13.5433   2
  -1  11   9 78.1740 12.9265   1
 -12   0  -9  1.4108 12.7334   6
 -12  12   9 -4.7974 10.7495   1
  12   0   9 14.5344 12.0103   1
 -12  12   9 25.2045 13.2146   6
   0  12  -9 3.21927 9.18799   7
  12 -12  -9 -4.9171 10.2430   7
 -12  12   9 26.2512 14.4768   2
   9 -12  -9 319.777  20.405   7
 -12   3  -9 339.253  23.075   6
   9   3   9 324.568  20.832   1
 -12   9   9 334.514  21.442   1
 -12   9   9 323.899  22.981   6
 -12   9   9 339.908  23.531   2
   3   9  -9 337.674  16.676   7
  -9  -3  -9 354.573  21.943   6
  -9  12   9 308.510  21.424   6
  -9  12   9 330.697  21.373   1
  12  -9  -9 287.926  19.064   7
  -3  12  -9 320.250  18.844   7
  12  -3   9 380.721  23.057   1
 -12   6   9 833.252  33.772   2
   6 -12  -9 795.932  29.826   7
   6   6   9 798.221  29.436   1
 -12   6   9 880.308  31.893   6
   6   6  -9 781.055  21.743   7
 -12   6  -9 749.259  31.679   6
  -6  12  -9 816.109  28.667   7
  12  -6   9 754.291  31.328   1
  -6  12   9 824.732  29.286   6
  12  -6  -9 793.083  26.542   7
  -6  12   9 807.778  30.653   1
  12  -6  -9 794.081  29.519   3
   9 -12   9 381.915  23.075   1
   9   3  -9 379.259  15.814   7
 -12   3   9 395.019  24.490   2
   3   9   9 360.788  21.288   1
   9   3  -9 377.366  21.233   3
 -12   9  -9 352.772  23.751   6
  -9  12  -9 399.210  22.446   7
  12  -3  -9 381.468  18.110   7
  12  -3  -9 357.362  21.588   3
  -3  12   9 431.711  22.861   1
  12  -9   9 380.053  24.613   1
  12   0  -9 1.54574 9.97657   3
  12 -12   9 25.0657 12.7149   1
   0  12   9  4.8267 10.2785   1
  12   0  -9 13.5069  8.6170   7
 -12   0   9  3.7616 11.4588   2
 -13  11   9 108.356  18.314   2
   2  11  -9 78.1775 12.0371   7
  11 -13  -9 60.1846 14.2510   7
  11   2   9 76.1086 15.4047   1
 -13  11   9 99.2483 15.6512   1
 -13  11   9 107.030  17.392   6
 -13   2  -9 103.671  17.086   6
  13  -2   9 90.0924 16.3729   1
  13 -11  -9 86.8275 14.4244   7
 -11  13   9 118.837  16.731   1
 -11  -2  -9 122.751  17.934   6
 -11  13   9 77.4583 15.7216   6
  -2  13  -9 101.027  13.918   7
 -13   5  -9 24.5373 12.8697   6
   5   8  -9 38.8997  9.0750   7
   8   5   9 38.9310 12.1037   1
   8 -13  -9 16.4798 11.3786   7
 -13   8   9 22.1581 13.8282   6
 -13   8   9 14.9340 13.3108   2
  -8  13   9 14.7956 12.0968   6
  13  -8  -9 29.2076 10.6234   7
  -5  13  -9 15.8989  9.9960   7
  -8  13   9 23.5770 11.6553   1
  13  -5   9 30.6556 12.6841   1
   8   5  -9 54.1125  9.0289   7
 -13   5   9 70.8057 15.9391   2
   5 -13  -9 58.4543 13.9938   7
 -13   5   9 55.1609 14.8523   6
   5   8   9 101.730  14.578   1
   8   5  -9 59.4875 12.7223   3
 -13   8  -9 58.4299 15.3506   6
  13  -8   9 33.2696 13.3004   1
  13  -5  -9 52.6827 10.9504   7
  13  -5  -9 53.6679 13.2156   3
  -5  13   9 45.3636 12.4548   1
  -8  13  -9 66.4680 12.8897   7
 -13  11  -9 118.110  18.261   6
  11   2  -9 86.6051 10.8973   7
  11 -13   9 58.5710 15.1082   1
   2  11   9 113.649  16.118   1
 -13   2   9 76.6759 16.0820   2
  11   2  -9 101.373  15.427   3
 -11  13  -9 81.0109 15.3269   7
  13  -2  -9 72.7242 14.5194   3
  13 -11   9 73.4787 15.9616   1
  13  -2  -9 94.2932 12.0614   7
  -2  13   9 80.7916 15.3672   1
 -14   4  -9 528.245  29.119   6
  10   4   9 591.056  27.549   1
  10 -14  -9 518.063  26.829   7
 -14  10   9 522.345  30.205   2
   4  10  -9 492.367  21.603   7
 -14  10   9 520.587  29.170   6
 -10  14   9 527.996  26.919   6
  14  -4   9 516.677  28.068   1
  14 -10  -9 544.175  25.376   7
  -4  14  -9 547.987  25.725   7
 -10  14   9 546.034  28.247   1
   7   7   9 858.841  31.902   1
 -14   7   9 807.832  36.514   2
   7 -14  -9 899.548  34.050   7
   7   7  -9 897.272  26.174   7
 -14   7   9 881.654  35.207   6
 -14   7  -9 809.539  34.821   6
  14  -7   9 826.733  34.540   1
  -7  14   9 873.082  33.801   1
  -7  14  -9 889.911  32.260   7
  14  -7  -9 834.549  29.430   7
  10   4  -9 378.412  17.010   7
  10   4  -9 343.665  22.430   3
   4  10   9 349.430  22.116   1
 -14  10  -9 367.766  25.404   6
 -14   4   9 354.517  26.199   2
  14  -4  -9 315.542  22.399   3
 -10  14  -9 323.780  22.598   7
  14  -4  -9 353.134  19.197   7
  -4  14   9 351.389  23.046   1
  14 -10   9 325.192  24.346   1
   1   0  10 44.6115  7.3675   1
   1   0  10 40.1408  8.0801   6
   0  -1  10 34.3710  7.4589   6
   0   1 -10 37.4939  5.4319   7
  -1   0 -10 43.6234  6.5831   7
   0  -1  10 19.5742  7.4650   2
   1   0  10 34.6907  7.6505   5
   0  -1  10 38.4695  8.1517   5
   1  -1 -10 41.5424  5.8345   7
  -1   1  10 35.6104  7.7803   2
   0  -1  10 38.7986  7.3297   4
   0  -1  10 25.5127  6.0271   1
   1   0  10 58.5640  9.2071   2
  -1   1  10 47.8242  7.2368   1
  -1   1  10 34.3193  7.6123   6
   2  -2  10 1820.44   40.88   2
   0   2  10 1853.70   38.66   1
   0   2  10 1901.27   39.69   2
  -2   0  10 1864.89   40.95   2
   2  -2  10 1886.17   38.08   1
   2  -2  10 1897.32   43.58   5
  -2   0  10 1921.54   37.65   6
  -2   0  10 1910.28   35.34   1
   2   0 -10 1825.03   31.16   7
   0   2  10 1894.48   39.22   6
   2   0 -10 1885.41   31.33   7
   2  -2  10 1958.20   36.16   4
  -2   2 -10 1852.63   36.30   7
   0  -2 -10 1775.78   36.58   7
   2   1  10 402.347  16.883   6
   1  -3  10 365.550  17.305   2
  -3   2  10 385.397  15.996   6
   1  -3  10 359.943  17.146   5
   2   1  10 386.053  16.123   1
   2  -3 -10 388.780  13.398   7
  -3   1 -10 379.947  15.009   7
   1   2 -10 373.819  10.224   7
   2   1  10 416.539  16.713   5
  -3   2  10 402.554  14.513   1
   1  -3  10 363.219  15.362   4
   2   1  10 377.718  16.549   2
   1  -3  10 385.573  13.657   1
  -3   2  10 384.280  16.744   2
  -1  -2  10 363.195  17.251   5
  -2  -1 -10 360.505  14.742   7
   3  -1  10 392.537  16.308   1
  -2   3  10 385.615  16.336   6
  -1  -2  10 368.797  16.976   2
   3  -1  10 377.029  13.805   4
   3  -1  10 356.454  16.790   5
  -1  -2  10 361.171  14.999   4
   3  -2 -10 376.970  11.488   7
  -1   3 -10 361.145  12.505   7
  -1  -2  10 389.472  14.609   6
  -2   3  10 358.193  14.855   1
  -2   3  10 379.532  16.315   2
   0  -4  10 29.1148  7.7950   4
  -4   4  10 33.6474  8.4442   6
   4   0  10 35.0591  8.2216   1
  -4   4  10 38.1500  7.7278   1
   0  -4  10 28.4490  8.4240   2
   4   0  10 26.6817  7.9390   5
  -4   4  10 29.2990  8.5876   2
   4  -4 -10 21.9612  5.7690   7
   0   4 -10 30.2863  5.2046   7
  -4   0 -10 22.7566  7.5909   7
  -4   3 -10 109.363  10.097   7
  -4   1  10 99.7121  9.9538   6
   3  -4  10 81.9448 11.1057   5
   1   3  10 90.1471 10.6062   6
   1   3  10 106.026  10.650   2
  -4   1  10 101.350  11.369   2
   3  -4  10 108.233  10.426   1
   3  -4  10 81.4889  9.6008   4
   3   1 -10 108.393   9.141   3
   1   3  10 109.984  10.772   1
   1  -4 -10 99.6692  9.7358   7
  -1   4  10 96.5042 10.1981   1
  -3  -1  10 96.5993 10.7386   2
   4  -1 -10 99.8643  9.1547   3
  -1   4  10 103.751  10.431   2
   4  -3  10 88.3472 10.4746   1
   4  -3  10 98.6191  9.5941   4
  -3  -1  10 92.9532  9.2104   6
  -1  -3 -10 98.0347  9.9824   7
  -3   4 -10 105.509   9.496   7
  -1   4  10 107.157  10.783   6
   4  -1 -10 91.6058  5.2932   7
   4  -3  10 99.4259 11.6947   5
  -5   3  10 1901.87   38.57   1
   2   3 -10 1932.77   31.00   7
   3   2  10 1943.86   42.88   1
  -5   2 -10 1952.87   41.75   7
   2  -5  10 1972.62   39.52   4
  -5   3  10 1932.08   43.77   2
  -5   3  10 1934.10   40.94   6
   3  -5 -10 1899.79   38.61   7
  -3   5  10 1969.24   42.11   6
   5  -2  10 1976.51   45.49   5
  -2  -3  10 1935.64   38.71   4
   5  -3 -10 2027.74   38.52   3
  -3   5  10 2009.70   41.64   2
   5  -2  10 1915.12   42.89   1
  -2  -3  10 1926.60   42.92   2
   5  -3 -10 1878.23   34.42   7
  -2   5 -10 1917.81   37.80   7
  -3  -2 -10 1966.80   41.50   7
   5  -2  10 1920.24   35.76   4
  -3   5  10 1944.12   41.21   1
   5  -5  10 3194.21   60.95   1
  -5   5 -10 3145.10   59.18   7
   5  -5  10 3230.77   55.80   4
   0   5  10 3039.24   60.24   1
   0   5  10 3150.68   59.56   6
   0  -5 -10 3130.47   59.44   7
  -5   0  10 3296.80   56.48   6
  -5   0  10 3088.27   62.06   2
   5   0 -10 3203.85   56.47   3
  -6   5  10 166.375  13.991   6
  -6   5  10 160.101  14.259   2
   5  -6 -10 187.339  11.829   7
  -6   1 -10 161.239  13.796   7
   1  -6  10 146.083  12.653   4
  -6   5  10 183.132  12.572   1
   1  -6  10 168.296  14.803   2
   1   5 -10 171.945   9.301   7
   5   1  10 157.497  13.845   1
  -5   6  10 183.212  14.117   2
  -1  -5  10 169.839  13.779   2
   6  -5 -10 167.274  12.070   3
  -5   6  10 160.526  13.959   6
  -5  -1 -10 184.955  14.333   7
  -1   6 -10 177.186  10.469   7
  -1  -5  10 165.875  13.176   4
  -5   6  10 206.184  13.865   1
   6  -5 -10 190.939  10.955   7
   6  -1  10 165.184  14.310   5
   6  -1  10 161.483  14.410   1
   2   4  10 15.9431  8.2156   6
   4  -6  10 21.3083  8.2134   4
  -6   2  10 1.87138 7.07950   6
  -6   4 -10 16.1326  8.1114   7
   4  -6  10 6.53112 7.67188   1
  -6   4 -10 19.1459  8.1452   7
   4   2 -10 20.0277  7.3329   3
   2   4  10 7.51026 7.24418   1
  -6   2  10 15.9427  8.7973   2
   2  -6 -10 21.5080  7.2116   7
  -2   6  10 4.76545 7.76008   6
   6  -4  10 6.71508 8.42329   1
  -2  -4 -10 10.9989  7.5387   7
  -4   6 -10 16.3578  7.0970   7
   6  -2 -10 16.3866  7.5973   3
  -2   6  10 22.2564  8.1309   1
   6  -2 -10 21.6634  4.6145   7
   6  -4  10 13.2306  7.1392   4
  -4  -2  10 18.2755  8.6290   2
   0   7 -10 168.067  11.021   7
  -7   7  10 123.745  13.651   2
  -7   0 -10 148.649  14.769   7
   7   0  10 118.231  13.662   1
   0  -7  10 152.611  14.457   2
   0  -7  10 140.724  12.841   4
   7  -7 -10 132.956  11.782   7
  -7   7  10 137.342  13.246   1
  -7   7  10 124.348  13.857   6
  -7   3 -10 119.572  12.774   7
   3   4 -10 103.185   6.282   7
  -7   4  10 97.2659 11.8492   6
   4  -7 -10 93.1374 10.4655   7
  -7   4  10 95.7381 12.5721   2
  -7   4  10 113.444  10.659   1
   4   3  10 109.828  12.195   1
   3  -7  10 98.6127 11.4910   4
   7  -3  10 103.672  12.924   1
  -4   7  10 79.6360 10.8902   1
  -4  -3 -10 113.941  12.282   7
  -3  -4  10 89.3285 11.6071   2
  -3   7 -10 96.2063  9.8923   7
  -4   7  10 75.5187 11.3504   6
   7  -4 -10 95.8696 10.9846   3
  -4   7  10 109.412  11.721   2
  -3  -4  10 91.8275 10.3093   4
   7  -4 -10 91.9522  8.1751   7
   1   6  10 136.138  13.537   1
   1   6  10 142.921  13.694   6
   6  -7  10 110.355  13.217   1
  -7   1  10 151.950  15.107   2
  -7   1  10 113.861  11.786   6
   6   1 -10 140.880  12.580   3
   6  -7  10 129.335  13.010   4
  -7   6 -10 114.951  13.706   6
   1  -7 -10 115.940  12.467   7
  -7   6 -10 115.314  12.999   7
  -1  -6 -10 151.309  13.916   7
   7  -1 -10 136.311  12.818   3
  -6   7 -10 104.422  12.949   6
  -6   7 -10 115.927  12.317   7
  -6  -1  10 128.967  13.559   2
   7  -6  10 130.984  12.564   4
   7  -1 -10 124.980   7.454   7
  -1   7  10 113.720  12.594   6
  -1   7  10 127.559  13.388   1
   7  -6  10 126.364  14.306   1
  -8   2 -10 1231.27   34.43   7
  -8   6  10 1119.12   34.67   2
  -8   6  10 1188.05   31.68   1
   2  -8  10 1178.08   31.99   4
   2   6 -10 1215.06   25.47   7
  -8   6  10 1138.24   33.09   6
   6  -8 -10 1191.60   31.42   7
   6   2  10 1178.20   34.24   1
   8  -6 -10 1228.80   29.07   7
  -6   8  10 1189.66   33.71   6
   8  -6 -10 1247.75   31.88   3
  -6  -2 -10 1184.75   33.82   7
  -6   8  10 1200.22   33.42   1
  -2   8 -10 1244.83   29.61   7
   8  -2  10 1172.86   34.96   1
  -2  -6  10 1192.18   30.43   4
  -2  -6  10 1179.21   33.01   2
  -6   8  10 1232.83   32.96   2
   5  -8  10 2046.94   44.27   4
   5   3 -10 2050.17   33.55   7
   5   3 -10 1994.98   43.87   3
   3   5  10 2025.68   46.87   1
  -8   5 -10 2049.13   47.09   7
  -8   3  10 2025.67   44.72   6
  -8   5 -10 2072.06   47.97   6
  -8   5 -10 2060.98   47.45   7
  -8   3  10 1954.40   48.74   2
   3  -8 -10 1993.77   44.86   7
  -3  -5 -10 2084.75   46.79   7
   8  -5  10 2113.56   49.11   1
   8  -3 -10 2125.66   38.20   7
  -5  -3  10 2007.03   46.39   2
  -3   8  10 2108.53   46.17   6
  -3   8  10 2084.50   46.97   1
   8  -3 -10 2039.64   44.26   3
  -5   8 -10 2063.13   44.45   7
   8  -8  10 4451.86   77.11   4
  -8   0  10 4305.14   85.10   2
   0   8  10 4335.40   82.99   1
   0   8  10 4381.23   80.11   6
  -8   8 -10 4516.64   83.30   7
   8  -8  10 4503.02   85.46   1
   8   0 -10 4308.23   79.33   3
   8   0 -10 4535.73   70.70   7
   0  -8 -10 4568.47   84.49   7
  -8   8 -10 4496.50   83.20   6
  -9   8  10 4.71310 9.33433   6
  -9   8  10 8.03457 8.67762   1
   8   1  10 7.36060 9.55030   1
  -9   8  10 5.76141 9.90659   2
   8  -9 -10 12.1994  8.9890   7
  -9   1 -10 13.0557 11.2852   6
   1   8 -10 13.9001  7.0442   7
   9  -1  10 18.1904 10.5625   1
  -8   9  10 9.68998 9.10489   1
  -1   9 -10 11.3551  7.4894   7
  -8   9  10 -6.1104  9.9727   6
  -8   9  10 18.9619 10.7452   2
   9  -8 -10 23.8185  8.8430   7
  -1  -8  10 -6.9624  8.0840   4
  -9   5  10 93.2617 14.1722   2
  -9   5  10 77.5934 12.6410   6
   5   4  10 88.0232 12.8596   1
   4   5 -10 103.941   8.055   7
   5  -9 -10 106.924  12.078   7
   4  -9  10 88.7400 12.3060   4
  -9   4 -10 97.4739 14.0427   6
  -9   4 -10 116.815  14.035   7
   9  -4  10 81.3041 13.6575   1
  -4   9 -10 97.6691 11.2132   7
  -4  -5  10 78.6718 10.6040   4
   9  -5 -10 110.458  10.609   7
  -5  -4 -10 121.587  14.227   7
  -4  -5  10 86.3436 12.2485   2
  -5   9  10 78.9980 12.6885   6
   9  -5 -10 98.3203 12.6543   3
  -5   9  10 73.2098 11.5742   1
  -9   7 -10 -1.3225 10.5692   6
   2   7  10 10.4375  9.0746   1
   7  -9  10 14.8930 10.7423   1
   2   7  10 18.3021  9.9948   6
  -9   2  10 24.0547 11.3349   2
   7   2 -10 5.74922 4.96765   7
   7  -9  10 15.1061  9.9460   4
  -9   7 -10 2.19832 9.01039   7
   7   2 -10 -2.2364  8.1335   3
  -9   2  10 3.18160 9.28504   6
   2  -9 -10 27.1880  9.6857   7
  -7  -2  10 16.6599  9.6748   2
  -2  -7 -10 7.96040 8.90324   7
   9  -2 -10 19.3441  6.6890   7
   9  -2 -10 13.1575  8.9791   3
  -2   9  10 24.7152 10.2880   1
  -7   9 -10 12.0284  9.6515   7
  -2   9  10 14.8574  9.2790   6
   9  -7  10 0.69987 9.98940   1
 -10  10  10 867.473  31.719   6
 -10  10  10 783.040  30.753   2
 -10  10  10 802.739  29.673   1
  10   0  10 793.921  30.951   1
   0  10 -10 784.832  25.370   7
 -10   0 -10 779.087  30.231   6
  10 -10 -10 807.333  28.406   7
 -10   7  10 778.738  29.509   6
 -10   3 -10 876.623  31.685   6
   3   7 -10 871.736  22.318   7
 -10   7  10 858.544  31.967   2
   7 -10 -10 835.860  28.115   7
 -10   7  10 865.350  28.314   1
   7   3  10 846.031  30.158   1
  -7  10  10 837.359  29.450   6
  10  -3  10 833.980  31.373   1
  -7  10  10 842.482  29.730   1
  10  -7 -10 851.793  25.856   7
  -3  10 -10 858.237  26.937   7
  -3  -7  10 863.055  26.229   4
 -10   6 -10 22.2255 10.9676   7
   4   6  10 11.6056  9.2744   1
   6   4 -10 22.5062  5.6312   7
   6   4 -10 11.8846  8.8970   3
 -10   4  10 16.7452 10.3666   6
 -10   4  10 19.2525 11.4814   2
   4 -10 -10 16.4185  9.5428   7
 -10   6 -10 38.9618 11.8892   7
 -10   6 -10 28.7290 11.8070   6
  10  -4 -10 19.2444  9.8864   3
  -4  10  10 28.0905 10.5881   6
  -6  10 -10 20.7356  9.4927   7
  10  -4 -10 23.3981  7.8763   7
  10  -6  10 18.8300 11.4270   1
  -4  10  10 39.8904 10.7152   1
  -6  -4  10 16.6524 10.0739   2
   9   1 -10 85.5125 13.2431   3
   9 -10  10 87.5232 14.7925   1
   1   9  10 92.2231 13.7654   1
   1 -10 -10 102.133  14.322   7
 -10   9 -10 95.8543 14.1772   7
   9   1 -10 108.678   9.151   7
 -10   1  10 94.9545 14.7527   2
 -10   9 -10 74.6765 14.9235   6
   1   9  10 99.8950 13.9286   6
  -9  -1  10 111.776  14.952   2
  -1  10  10 83.3846 12.9332   6
  -1  10  10 117.274  14.813   1
  10  -9  10 90.6071 15.2647   1
  -9  10 -10 90.0442 13.8308   7
  10  -1 -10 104.028  13.844   3
  10  -1 -10 94.4692  9.5808   7
   9 -11 -10 87.6903 13.4716   7
 -11   9  10 59.9869 13.6944   6
   2   9 -10 81.7812 10.8184   7
 -11   9  10 69.2869 13.2258   1
   9   2  10 64.9043 12.9026   1
 -11   9  10 90.8890 16.4006   2
 -11   2 -10 50.9495 13.9919   6
  11  -9 -10 72.9072 11.9406   7
  11  -2  10 64.0076 13.9068   1
  -2  11 -10 92.3451 12.2151   7
  -9  11  10 69.9078 13.2621   1
  -9  11  10 81.4536 14.4964   6
 -11   6  10 742.826  28.708   6
 -11   6  10 713.564  30.659   2
 -11   5 -10 725.331  30.386   6
   6 -11 -10 708.545  27.023   7
   5   6 -10 725.614  19.592   7
   6   5  10 752.233  28.425   1
  -6  11  10 723.751  28.622   1
  -6  11  10 708.733  27.453   6
  11  -5  10 708.391  30.164   1
  11  -6 -10 732.641  24.306   7
  11  -6 -10 721.514  27.521   3
  -5  11 -10 713.222  25.863   7
   3   8  10 1127.97   35.04   1
 -11   3  10 1098.93   38.15   2
 -11   8 -10 1130.50   37.63   6
 -11   8 -10 1190.83   37.31   7
   8   3 -10 1166.66   25.56   7
   8   3 -10 1078.10   34.07   3
 -11   8 -10 1086.90   36.53   7
   3 -11 -10 1138.17   35.26   7
  11  -3 -10 1138.95   28.53   7
  11  -3 -10 1142.68   35.04   3
  -8  11 -10 1141.96   34.99   7
  11  -8  10 1037.20   37.44   1
  -8  -3  10 1098.55   34.57   2
  -3  11  10 1096.81   33.92   6
  -3  11  10 1103.92   35.74   1
  11   0 -10 1006.50   34.32   3
 -11   0  10 995.069  35.581   2
  11 -11  10 997.903  36.608   1
  11   0 -10 1001.11   26.33   7
   0  11  10 1001.44   34.44   1
 -11  11 -10 996.894  35.762   7
   1  11 -10 4.57388 8.67992   7
 -12  11  10 24.5373 13.6651   6
  11   1  10 13.8722 11.7652   1
 -12   1 -10 16.1009 13.4247   6
 -12  11  10  1.4538 11.3527   1
  11 -12 -10  3.2455 10.6772   7
 -12  11  10 19.8326 13.7871   2
  12  -1  10  1.8241 11.1607   1
 -11  12  10 32.8039 13.4868   6
  12 -11 -10 22.5065 11.3943   7
  -1  12 -10 9.72765 9.22092   7
 -11  12  10  0.1922 11.3315   1
 -11  -1 -10  8.6199 12.8221   6
   8   4  10 16.3752 11.1634   1
   8 -12 -10 -16.894   9.374   7
 -12   8  10  9.3172 11.8695   6
 -12   4 -10  6.7453 12.3841   6
   4   8 -10 23.8353  7.8775   7
 -12   8  10 14.2034 12.8256   2
  -8  12  10 20.0901 10.8619   1
  12  -4  10 35.9971 13.2295   1
  -4  12 -10 14.5482  9.6124   7
  -8  12  10 20.6775 11.7116   6
  12  -8 -10 8.39108 9.70305   7
   7   5 -10 47.2938  7.4532   7
   7   5 -10 20.3345 10.4550   3
 -12   5  10 34.7521 12.9392   6
   5   7  10 35.5623 11.6679   1
 -12   5  10  3.8238 12.6201   2
   5 -12 -10 49.5092 12.1434   7
 -12   7 -10 26.3711 12.9463   6
  -5  12  10 51.3205 13.1414   6
  -5  12  10 38.5317 12.3280   1
  12  -7  10 13.1629 12.5260   1
  -7  12 -10 34.8660 11.5883   7
  12  -5 -10 23.5574 11.1317   3
  12  -5 -10 44.6426  9.8389   7
   2  10  10 10.2947 11.0776   1
  10 -12  10 21.9807 12.7867   1
 -12  10 -10 22.2426 13.7534   6
  10   2 -10 27.7177 11.7279   3
 -12   2  10 18.8082 12.9319   2
  10   2 -10 19.9450  7.6574   7
  12  -2 -10 17.6212 11.8006   3
  12 -10  10  0.5637 11.9978   1
 -10  12 -10 19.8434 11.5560   7
 -10  -2  10 26.6722 12.1732   2
  -2  12  10 18.8955 11.2635   1
  12  -2 -10 18.2966  8.9358   7
   3  10 -10 1264.04   33.78   7
  10 -13 -10 1257.46   39.64   7
 -13  10  10 1241.56   39.04   1
  10   3  10 1263.22   40.51   1
 -13  10  10 1259.02   42.76   6
 -13   3 -10 1192.69   41.78   6
 -13  10  10 1246.67   43.98   2
  -3  13 -10 1238.38   36.86   7
  13 -10 -10 1238.61   37.50   7
 -10  13  10 1250.36   40.61   6
 -10  -3 -10 1296.33   40.78   6
  13  -3  10 1269.43   41.98   1
 -10  13  10 1271.18   41.25   1
 -13   7  10 162.148  19.438   6
 -13   7  10 168.544  20.985   2
   7 -13 -10 199.684  19.188   7
   7   6  10 210.987  19.305   1
 -13   6 -10 146.973  18.516   6
   6   7 -10 152.394  12.366   7
  -6  13 -10 167.992  16.876   7
  -7  13  10 145.555  17.357   1
  13  -7 -10 158.006  15.517   7
  13  -6  10 189.411  20.324   1
  13  -7 -10 162.335  17.900   3
  -7  13  10 163.731  18.117   6
   4   9  10 25.9749 11.9314   1
   9   4 -10 33.4921  8.0071   7
   9   4 -10 26.8325 11.5781   3
 -13   9 -10 20.8148 14.2613   6
 -13   4  10 26.3405 14.3537   2
  -9  13 -10 41.3137 12.4191   7
  13  -9  10 31.8303 13.9231   1
  -4  13  10 41.5197 12.8731   1
  13  -4 -10 34.0714  9.9437   7
  13  -4 -10 32.7611 12.1344   3
  12   1 -10 11.9294  8.5055   7
  13  -1 -10 15.7277  9.1305   7
   9 -14 -10 -0.7280 11.0907   7
   5   9 -10 19.6463  8.4906   7
 -14   9  10 29.2021 14.8822   2
 -14   5 -10 20.7027 13.7765   6
 -14   9  10 11.1936 13.6423   6
   9   5  10  1.6272 11.6547   1
  -5  14 -10  1.7645 10.5533   7
  -9  14  10  2.2903 12.0152   6
  -9  14  10 17.8636 12.1347   1
  14  -5  10 12.0870 12.7029   1
  14  -9 -10 24.6657 11.2776   7
 -14   6  10 534.898  30.739   2
   6   8  10 586.047  27.356   1
   8   6 -10 522.722  26.324   3
 -14   6  10 574.716  29.725   6
 -14   8 -10 581.275  30.652   6
   8   6 -10 510.721  18.910   7
  -6  14  10 583.422  28.595   1
  14  -6 -10 538.632  23.179   7
  -8  14 -10 558.724  26.966   7
  -1   0  11 -10.222   6.360   6
   0   1  11 1.37280 7.06322   2
   1  -1  11 2.07363 6.69334   6
  -1   0  11 0.07993 7.15447   2
  -1   1 -11 2.11758 5.16331   7
   1   0 -11 0.05071 4.46828   7
   0   1  11 12.8648  7.3061   6
   1  -1  11 7.04924 7.54001   5
   0  -1 -11 -2.7795  4.9634   7
   0   1  11 5.83241 6.03417   1
  -1   1 -11 3.26966 5.16595   7
  -1   0  11 0.01730 5.44161   1
   1  -1  11 2.45103 6.43855   4
   1  -1  11 8.01774 7.70103   2
   1  -1  11 -1.1517  5.6393   1
   0  -2  11 -13.122   6.033   4
  -2   2  11 -10.347   6.573   2
  -2   0 -11 -2.7548  5.7769   7
   2   0  11 11.8325  8.3628   2
   2  -2 -11 6.63699 5.30041   7
   2   0  11 8.06792 7.57063   6
   0   2 -11 2.40515 4.67495   7
   0  -2  11 4.43703 7.07586   6
   2   0  11 9.27949 7.59705   5
   0  -2  11 -0.2094  5.2563   1
   0  -2  11 7.48836 7.72228   2
  -2   2  11 -7.8346  6.7076   6
   2   0  11 -6.2002  5.9537   1
  -2   2  11 1.51345 5.77076   1
   1   2  11 865.618  25.471   2
   1   2  11 804.559  24.936   6
   2   1 -11 857.234  16.952   7
  -3   1  11 858.688  23.969   6
   2  -3  11 847.239  23.809   4
  -3   1  11 877.477  26.676   2
  -3   1  11 863.449  21.865   1
   1  -3 -11 851.052  22.628   7
   1   2  11 891.517  25.352   1
   2  -3  11 874.545  27.163   2
  -3   2 -11 833.870  23.427   7
   2  -3  11 892.563  23.625   1
  -3   2 -11 838.188  23.488   7
  -1   3  11 855.339  24.360   1
  -2  -1  11 860.074  23.012   6
  -1   3  11 806.613  24.855   6
   3  -1 -11 838.911  18.022   7
  -1  -2 -11 852.592  23.532   7
   3  -2  11 829.506  24.497   1
  -1   3  11 879.308  25.474   2
   3  -2  11 874.958  22.618   4
  -2   3 -11 824.986  22.021   7
   3  -2  11 875.730  27.880   5
  -2  -1  11 836.732  26.227   2
   1   3 -11 183.247   8.183   7
   3  -4 -11 181.105  11.100   7
  -4   1 -11 197.249  13.595   7
  -4   3  11 184.046  14.149   2
   1  -4  11 199.080  14.666   2
   3   1  11 196.024  13.348   5
   1  -4  11 169.060  13.381   4
   3   1  11 203.322  13.829   1
  -4   3  11 202.119  13.969   6
  -4   3  11 184.380  11.851   1
   4  -1  11 160.414  13.111   1
  -1  -3  11 190.888  12.229   6
  -3   4  11 200.262  13.823   2
   4  -3 -11 192.183   9.769   7
  -3  -1 -11 189.425  13.196   7
   4  -1  11 204.646  11.603   4
  -1  -3  11 194.339  13.266   4
  -3   4  11 193.274  14.258   6
  -3   4  11 196.967  12.844   1
  -1   4 -11 189.578  10.541   7
  -1  -3  11 166.987  14.220   2
   4  -1  11 195.708  14.179   5
   4  -4  11 2.12730 6.79025   4
  -4   4 -11 0.49966 6.77613   7
   0   4  11 -2.4302  6.7806   1
   0   4  11 2.69625 7.54601   6
   4  -4  11 4.01976 7.58833   1
  -4   0  11 1.02313 7.37167   2
  -4   0  11 -0.0079  6.5893   6
   0   4  11 0.96823 6.75650   2
   0  -4 -11 7.24430 6.63068   7
   4   0 -11 2.62997 6.42952   3
   0   5 -11 0.57387 5.05936   7
   5   0  11 6.73633 7.42436   1
   0  -5  11 0.87056 8.50302   2
  -5   5  11 0.53454 6.82002   1
   5  -5 -11 1.83321 5.87564   7
  -5   5  11 -5.8241  7.7267   6
  -5   0 -11 -1.1848  7.3656   7
   0  -5  11 -9.3315  7.0269   4
  -5   5  11 20.4935  9.0733   2
   2  -5 -11 21.6516  7.1569   7
   3   2 -11 19.4970  6.7557   3
   3  -5  11 13.0351  7.5235   1
  -5   2  11 1.24264 7.75257   6
  -5   3 -11 17.3283  7.9657   7
   2   3  11 15.9039  8.6027   6
   2   3  11 24.1789  8.3477   1
  -5   2  11 20.3502  8.5389   2
   3  -5  11 30.3899  8.4559   4
  -5   3 -11 28.4328  8.1672   7
   5  -2 -11 23.3786  4.6467   7
  -2   5  11 6.35284 8.29319   6
  -2  -3 -11 16.7800  7.7065   7
   5  -3  11 19.0856  8.5153   1
   5  -2 -11 17.5863  7.4166   3
  -3  -2  11 5.72512 7.94642   2
  -2   5  11 7.51970 7.21445   1
   5  -3  11 22.1790  7.7156   4
  -3   5 -11 16.7550  6.9863   7
  -2   5  11 27.2439  8.2058   2
   4   2  11 1008.46   30.55   1
  -6   4  11 1062.30   27.41   1
  -6   2 -11 1037.94   30.50   7
   4  -6 -11 1070.98   27.51   7
   2   4 -11 1075.29   20.75   7
   2  -6  11 1022.83   28.73   4
  -6   4  11 1047.49   31.63   2
  -6   4  11 1049.07   29.67   6
  -4   6  11 1108.25   30.08   2
  -2  -4  11 1101.42   31.07   2
  -2   6 -11 1023.52   25.62   7
  -2  -4  11 1074.77   28.20   4
   6  -4 -11 1012.19   23.73   7
   6  -2  11 1050.62   31.08   1
  -4  -2 -11 1041.42   30.12   7
  -4   6  11 1060.40   29.79   1
  -4   6  11 1015.69   30.02   6
   6  -4 -11 1074.79   27.81   3
   5   1 -11 91.4929 10.4730   3
   5  -6  11 72.3369 10.9193   4
  -6   1  11 74.3036 11.6841   2
   1   5  11 87.9898 11.7914   1
  -6   5 -11 75.1098 11.3033   7
   1  -6 -11 76.4352 10.5944   7
   1   5  11 90.7589 12.0167   6
   5  -6  11 64.0707 11.1608   1
  -6   1  11 72.3595 10.0743   6
   6  -5  11 68.6099 11.7114   1
  -1  -5 -11 82.3034 11.2038   7
   6  -5  11 57.5428  9.9210   4
  -5  -1  11 60.6587 10.9608   2
  -1   6  11 65.1441 10.5399   1
   6  -1 -11 74.2338 10.0286   3
   6  -1 -11 72.5459  5.1067   7
  -1   6  11 81.1215 11.2335   6
  -5   6 -11 57.9999  9.9087   7
  -7   6  11 1252.52   35.31   2
  -7   6  11 1235.02   32.36   1
   1   6 -11 1238.60   26.36   7
   6   1  11 1146.05   34.43   1
  -7   1 -11 1199.98   34.27   7
  -7   6  11 1160.89   33.42   6
   6  -7 -11 1191.57   30.47   7
   1  -7  11 1178.77   31.81   4
  -6   7  11 1193.52   33.95   6
  -6   7  11 1227.76   33.24   1
  -1  -6  11 1260.72   31.90   4
  -6   7  11 1206.81   34.17   2
  -1   7 -11 1269.93   28.81   7
   7  -1  11 1215.27   35.31   1
  -6  -1 -11 1212.79   34.79   7
   7  -6 -11 1212.52   29.24   7
  -1  -6  11 1218.08   34.57   2
  -7   3  11 1049.39   32.72   2
   3  -7 -11 1046.09   29.25   7
  -7   4 -11 1099.22   31.47   7
   4   3 -11 1064.58   28.71   3
  -7   4 -11 1016.45   30.82   7
   4  -7  11 1006.79   29.91   4
   3   4  11 1082.45   31.69   1
  -7   3  11 1079.61   29.90   6
  -4  -3  11 1048.29   31.33   2
   7  -3 -11 1090.55   22.85   7
   7  -3 -11 1086.80   29.07   3
  -4   7 -11 1060.06   28.69   7
  -3   7  11 1096.17   31.40   6
  -3  -4 -11 1065.46   31.04   7
   7  -4  11 1060.61   32.83   1
  -3   7  11 1047.83   31.13   1
   7  -7  11 14.5367 10.1806   1
  -7   0  11 -6.9242  8.3830   2
  -7   7 -11 7.47929 8.83016   7
   0   7  11 7.30394 8.40684   1
   7  -7  11 -11.366   8.744   4
   0  -7 -11 -8.4114  7.6729   7
  -7   7 -11 -7.0660 10.1911   6
   7   0 -11 -2.5039  7.8458   3
   0   7  11 -7.2821  8.5962   6
   0   8 -11 2.70111 6.68988   7
  -8   8  11 -11.194   7.950   1
  -8   8  11 21.4278 11.0263   2
   8   0  11 3.85799 9.15020   1
  -8   8  11 1.75917 9.70208   6
  -8   0 -11  4.3517 10.0630   7
   8  -8 -11 -7.7020  7.6454   7
  -8   5  11 34.7441 10.6791   6
  -8   3 -11 22.8739 10.5413   7
   5   3  11 41.7751 10.5577   1
  -8   5  11 16.0830 10.6098   2
   5  -8 -11 12.2050  8.4932   7
   3   5 -11 34.1055  5.5492   7
   3  -8  11 23.3626  9.7156   4
   8  -5 -11 26.1559  9.6077   3
  -5   8  11 38.6413 11.0124   6
  -3  -5  11 24.7839  9.6410   2
  -3  -5  11 32.0859  9.2643   4
  -5   8  11 23.6681  9.7735   1
   8  -5 -11 38.3806  7.7455   7
   8  -3  11 54.0804 12.1342   1
  -5  -3 -11 24.6179 10.1557   7
  -3   8 -11 12.1177  7.5752   7
   6   2 -11 -6.5055  7.4212   3
  -8   2  11 -7.9195  8.6859   2
   2  -8 -11 5.44747 8.56028   7
   2   6  11 4.34769 8.58257   1
  -8   6 -11 -11.870   8.301   7
   2   6  11 -0.3713  8.8422   6
  -8   6 -11 14.1692 10.6930   6
  -8   2  11 2.35729 8.79654   6
   6  -8  11 -17.781   8.612   4
   6  -8  11 -9.6886  9.3611   1
  -6  -2  11 -21.478   7.681   2
   8  -2 -11 6.96934 5.45658   7
  -2  -6 -11 -2.1298  8.5630   7
  -2   8  11 2.13587 8.27224   1
  -2   8  11 5.96546 8.60721   6
   8  -2 -11 -1.9455  7.7305   3
   8  -6  11 -1.7519  9.8941   1
  -6   8 -11 7.57376 8.76933   7
  -9   2 -11 1141.61   36.22   6
   7  -9 -11 1179.09   32.99   7
  -9   2 -11 1249.43   36.42   7
  -9   7  11 1175.72   36.69   2
  -9   7  11 1139.49   35.21   6
   7   2  11 1155.60   35.42   1
   2   7 -11 1191.78   27.21   7
  -9   7  11 1236.55   34.01   1
  -2   9 -11 1155.80   30.83   7
  -7  -2 -11 1191.61   36.12   7
   9  -2  11 1156.90   36.40   1
  -7   9  11 1190.23   34.86   1
  -2  -7  11 1189.59   34.90   2
  -7   9  11 1101.63   34.72   6
   9  -7 -11 1126.90   30.13   7
  -9   5 -11 124.067  15.459   6
   4   5  11 111.428  14.008   1
   5   4 -11 133.310   7.425   7
  -9   4  11 138.014  14.517   6
  -9   4  11 127.327  15.551   2
   5   4 -11 113.163  12.891   3
  -9   5 -11 117.930  14.962   7
   4  -9 -11 141.234  14.429   7
   9  -4 -11 148.791  14.531   3
   9  -5  11 120.815  15.973   1
  -4  -5 -11 132.952  14.450   7
  -4   9  11 137.846  14.960   6
  -4   9  11 138.420  14.710   1
   9  -4 -11 150.533  10.867   7
  -5   9 -11 136.898  13.539   7
  -5  -4  11 118.380  13.757   2
  -9   8 -11 -3.5079 10.5499   6
  -9   8 -11 15.8398 10.3630   7
   1  -9 -11 4.13780 9.25318   7
   1   8  11 4.00678 9.67679   6
  -9   1  11 -10.787   9.510   2
   8  -9  11  9.8980 11.1641   1
   1   8  11 1.63837 9.41923   1
   8   1 -11 33.5947 10.6519   3
   9  -8  11 -4.1564 10.2506   1
   9  -1 -11 8.66484 9.45142   3
   9  -8  11  1.3428 10.0383   4
  -8  -1  11 12.3372 10.1026   2
  -1   9  11 6.32898 9.40636   1
   9  -1 -11 10.6899  6.3119   7
  -1  -8 -11 23.0948 10.3467   7
  -8   9 -11 -0.9669  8.9808   7
  -1   9  11 -0.1332  9.1008   6
 -10   9  11 357.514  22.268   6
   9 -10 -11 366.478  20.062   7
 -10   1 -11 395.723  23.448   6
   1   9 -11 393.291  17.599   7
 -10   9  11 370.906  21.220   1
 -10   9  11 391.199  23.709   2
   9   1  11 412.684  22.839   1
  -9  10  11 362.536  21.616   1
  -9  10  11 393.413  22.704   6
  10  -9 -11 387.555  20.120   7
  -1  10 -11 391.662  18.219   7
  -9  10  11 392.254  23.490   2
   4   6 -11 388.191  13.732   7
   6 -10 -11 380.978  20.282   7
 -10   4 -11 407.176  23.331   6
 -10   6  11 401.926  21.942   6
   6   4  11 429.549  22.780   1
 -10   4 -11 408.963  23.382   7
 -10   6  11 423.564  24.050   2
  -4  10 -11 415.382  19.498   7
  -6  10  11 381.353  21.502   1
  10  -6 -11 410.204  21.208   3
  10  -6 -11 357.224  17.346   7
  10  -4  11 420.202  23.735   1
  -4  -6  11 424.664  21.436   2
  -6  10  11 417.650  22.236   6
 -10   3  11 -6.9566 10.6033   2
   3 -10 -11 15.7091  9.8350   7
 -10   7 -11  1.8371 11.3558   6
   3   7  11  5.8631 10.1232   1
 -10   7 -11  8.5699 10.7876   7
   7   3 -11 17.3492  9.3800   3
   7   3 -11 -2.8343  5.1291   7
 -10   7 -11  1.1050 10.5610   7
 -10   3  11  2.6961 10.0211   6
  10  -3 -11 12.3880  7.1616   7
  -7  10 -11 7.56478 9.05903   7
  10  -7  11 14.0234 11.1108   1
  -3  -7 -11  9.9994 10.3971   7
  -3  10  11 -11.382   8.358   1
  -3  10  11 0.32522 9.84183   6
  10  -3 -11 2.59304 9.54674   3
  -7  -3  11 2.78217 9.83227   2
  10 -10  11  9.6688 11.6420   1
 -10  10 -11 14.2224 11.4892   7
   0  10  11 11.3711 10.7761   1
  10   0 -11 7.23319 6.51555   7
 -10   0  11 -11.375  10.297   2
  10   0 -11  8.9402 10.6709   3
   0  10  11 -15.624   9.663   6
   0  11 -11 5.89218 8.40580   7
 -11  11  11  7.2016 13.1883   2
  11 -11 -11 0.34343 9.87168   7
 -11   0 -11  2.2405 12.7383   6
  11   0  11 14.0090 11.7356   1
 -11  11  11 -4.5794 10.9062   1
 -11  11  11  7.4944 12.6397   6
 -11   8  11 11.8553 11.8785   6
   8 -11 -11 14.0394 10.0739   7
 -11   8  11  9.1861 12.6449   2
 -11   3 -11 -1.2118 11.5336   6
   8   3  11 -2.4301  9.7520   1
   3   8 -11 4.18319 7.59048   7
  11  -3  11 -3.8082 10.9363   1
  11  -8 -11 -7.0281  8.0900   7
  -3  11 -11 4.54945 8.95673   7
  -8  11  11 -6.8452 10.3069   6
  -8  11  11 11.1814 10.4162   1
   5 -11 -11 119.240  14.886   7
   6   5 -11 142.655  15.343   3
   6   5 -11 131.480   9.752   7
 -11   6 -11 145.284  17.778   6
 -11   6 -11 128.569  16.631   7
 -11   5  11 124.952  16.205   6
 -11   5  11 142.036  17.565   2
   5   6  11 138.876  16.061   1
  11  -5 -11 119.680  15.181   3
  11  -6  11 128.452  17.417   1
  -6  11 -11 109.322  14.195   7
  -5  11  11 106.789  15.212   1
  -5  11  11 139.949  16.341   6
  11  -5 -11 127.807  12.201   7
   9   2 -11 337.668  13.732   7
 -11   2  11 348.034  23.496   2
 -11   9 -11 366.516  24.266   6
   2 -11 -11 367.944  22.071   7
   9   2 -11 371.525  21.456   3
   2   9  11 365.461  21.889   1
 -11   9 -11 370.227  23.393   7
  11  -2 -11 374.778  21.742   3
  -9  -2  11 349.793  22.306   2
  -2  11  11 329.857  21.475   1
  -2  11  11 379.612  21.854   6
  -9  11 -11 341.552  21.487   7
  11  -2 -11 368.566  16.086   7
  11  -9  11 341.215  23.670   1
  10   2  11 228.715  20.887   1
   2  10 -11 224.143  15.321   7
  10 -12 -11 206.413  18.830   7
 -12  10  11 197.441  20.033   6
 -12  10  11 183.855  20.816   2
 -12   2 -11 247.105  22.392   6
 -12  10  11 220.992  20.236   1
 -10  12  11 163.892  18.709   6
 -10  -2 -11 233.345  21.664   6
  -2  12 -11 221.263  16.923   7
 -10  12  11 215.123  20.021   1
  12  -2  11 215.946  20.925   1
  12 -10 -11 220.373  18.208   7
   7 -12 -11 67.6615 13.5285   7
   5   7 -11 84.7904  9.5973   7
   7   5  11 88.3871 14.6916   1
 -12   7  11 56.5916 15.1391   2
 -12   7  11 83.6200 14.7846   6
 -12   5 -11 48.0326 14.3692   6
  -7  12  11 74.1327 14.4089   1
  12  -7 -11 74.3764 12.2578   7
  12  -5  11 78.8040 15.5606   1
  12  -7 -11 60.1720 13.2766   3
  -7  12  11 72.3456 14.0025   6
  -5  12 -11 62.6218 12.2425   7
   8   4 -11 15.7421  6.5965   7
 -12   8 -11 17.5212 13.0670   6
   4 -12 -11 22.5897 12.1023   7
 -12   4  11 10.9439 12.8984   2
   4   8  11 17.5330 10.8590   1
   8   4 -11 2.06767 9.57947   3
  12  -4 -11  5.4069 10.3767   3
  -8  12 -11  5.2639 10.2917   7
  12  -8  11 24.7677 13.4048   1
  -4  12  11 20.6219 11.9090   1
  -4  12  11 17.6698 10.8496   6
  12  -4 -11 14.5397  8.7504   7
 -12  11 -11 736.834  32.551   6
  11   1 -11 670.605  29.992   3
 -12   1  11 761.109  32.716   2
   1  11  11 734.104  31.016   1
  11 -12  11 691.333  32.155   1
 -12  11 -11 795.399  32.612   7
  12  -1 -11 730.884  22.893   7
 -11  12 -11 750.457  31.832   7
  12 -11  11 676.224  31.976   1
  -1  12  11 701.596  30.578   1
 -11  -1  11 730.681  31.264   2
  12  -1 -11 723.252  30.645   3
   4   9 -11 91.9400 11.5333   7
   9 -13 -11 89.2377 15.5498   7
 -13   9  11 96.6694 17.5491   2
 -13   4 -11 82.5301 16.2966   6
 -13   9  11 81.8505 16.3917   6
   9   4  11 110.471  16.610   1
  -9  13  11 88.1965 15.5367   6
  -9  13  11 62.8809 14.4080   1
  13  -9 -11 91.8509 13.7577   7
  -4  13 -11 93.6092 13.8601   7
  13  -4  11 84.5511 16.1471   1
 -13   7 -11 78.9598 15.8953   6
 -13   6  11 41.8754 14.3455   6
   6 -13 -11 36.0367 12.9619   7
   7   6 -11 62.9977 13.5484   3
   6   7  11 71.2230 14.5235   1
 -13   6  11 70.5699 16.3102   2
   7   6 -11 63.6232  8.9188   7
  13  -6 -11 64.6412 14.2653   3
  -6  13  11 38.7477 13.5849   6
  13  -7  11 53.3258 14.9074   1
  13  -6 -11 34.8017 10.4829   7
  -6  13  11 60.6226 14.4287   1
  -7  13 -11 69.0102 13.6416   7
  10   3 -11 68.8167 14.8687   3
  10   3 -11 58.7477  9.2028   7
   3  10  11 99.6207 15.7657   1
 -13   3  11 78.7273 17.1107   2
 -13  10 -11 74.9231 17.0633   6
  13  -3 -11 55.7013 14.4065   3
  -3  13  11 77.2031 15.5435   1
 -10  13 -11 46.2171 13.3942   7
  13 -10  11 56.5341 15.4352   1
  13  -3 -11 62.9029 10.5009   7
   0   0  12 3434.82   61.20   1
   0   0 -12 3389.76   58.77   7
   0   0  12 3395.36   66.34   2
   0   0  12 3387.63   62.27   6
   1   1  12 62.7201 10.3678   6
   1  -2 -12 46.1351  7.6911   7
   1  -2  12 48.2919 10.3826   2
   1   1 -12 45.9589  6.4498   7
  -2   1  12 43.5877  9.5866   2
  -2   1  12 69.0648  8.7518   1
  -2   1  12 46.2355  9.3342   6
   1  -2  12 61.1123  8.7656   1
   1  -2  12 49.8911  8.9610   4
   1   1  12 64.5818  9.5969   1
  -2   1 -12 57.6783  8.5488   7
   1   1  12 43.6033 10.3302   2
   1   1 -12 56.5146  6.4712   7
  -1   2  12 42.5614  9.6016   6
   2  -1  12 65.4507 11.2663   2
  -1  -1  12 66.7989  9.7897   6
  -1  -1 -12 53.5742  8.0212   7
  -1   2  12 62.8979 10.3420   2
   2  -1 -12 67.5300  6.9150   7
  -1   2  12 55.5221  8.9092   1
  -1   2 -12 57.7639  7.6620   7
  -1  -1  12 36.0314  9.6453   2
   2  -1  12 34.4697  8.2537   1
  -3   3  12 5284.17   94.36   2
   3   0  12 5423.27   92.57   1
   0  -3  12 5252.23   84.61   4
  -3   3  12 5230.56   88.92   1
   0  -3  12 5263.78   95.26   2
  -3   0 -12 5189.95   90.62   7
  -3   3  12 5347.27   90.78   6
   0   3 -12 5379.26   84.51   7
   3  -3 -12 5308.79   85.90   7
   3   0  12 5422.18   98.17   5
  -3   3 -12 4401.55   76.53   7
  -3   0  12 4407.15   75.86   6
   0   3  12 4429.55   79.04   1
   3  -3  12 4342.28   71.99   4
   0   3  12 4542.63   80.19   2
   3  -3  12 4566.10   78.12   1
  -3   0  12 4200.47   81.68   2
   3   0 -12 4468.79   68.36   7
   0  -3 -12 4392.93   76.82   7
   0   3  12 4437.75   78.90   6
  -4   2  12 649.349  23.956   2
   2  -4  12 664.370  22.553   4
  -4   2  12 647.673  22.383   6
   2   2  12 657.973  23.320   1
   2   2 -12 630.916  14.544   7
   2   2  12 617.062  23.160   6
   2  -4 -12 664.109  20.372   7
  -4   2 -12 612.487  21.482   7
  -2   4  12 646.151  23.191   6
   4  -2  12 615.684  22.580   1
  -2   4 -12 639.144  19.653   7
  -2  -2  12 616.219  23.773   2
  -2  -2  12 611.716  20.161   6
   4  -2  12 643.528  19.958   4
   4  -2 -12 622.531  15.948   7
  -2   4  12 621.790  21.567   1
  -2   4  12 664.407  23.259   2
  -2  -2 -12 664.516  22.143   7
   1  -5  12 201.936  14.683   4
   4  -5 -12 207.081  12.622   7
  -5   4  12 224.947  13.960   1
   4   1  12 206.049  15.389   1
  -5   4  12 190.568  14.855   6
   1   4 -12 197.429   9.607   7
  -5   1 -12 180.420  14.891   7
  -5   4  12 193.761  16.005   2
   1  -5  12 230.457  17.030   2
  -1   5 -12 209.216  12.176   7
   5  -1  12 214.981  15.671   1
  -4   5  12 200.276  15.858   6
   5  -4 -12 198.894  11.004   7
  -1  -4  12 175.069  14.035   4
  -1  -4  12 241.078  16.693   2
  -4   5  12 219.773  15.586   2
  -4   5  12 230.075  14.623   1
  -4  -1 -12 188.308  14.902   7
   1   4  12 117.715  13.506   6
  -5   1  12 109.395  13.110   2
   4  -5  12 148.233  13.180   4
   1   4  12 133.243  13.591   1
  -5   1  12 132.046  12.638   6
   1  -5 -12 128.472  11.830   7
  -5   4 -12 128.701  12.810   7
  -5   4 -12 126.892  12.571   7
   4  -5  12 135.353  12.993   1
  -1   5  12 133.652  13.490   6
   5  -4  12 142.521  12.802   4
  -4   5 -12 152.444  12.809   7
  -1   5  12 121.359  12.669   1
  -4  -1  12 131.016  14.240   2
  -1   5  12 146.016  12.994   2
   5  -4  12 130.745  13.621   1
  -1  -4 -12 149.875  13.056   7
   5  -1 -12 135.402   6.896   7
  -6   6  12 477.292  21.180   6
   0  -6  12 447.256  22.224   2
  -6   0 -12 436.877  21.125   7
   6  -6 -12 432.378  17.634   7
  -6   6  12 449.388  21.252   2
  -6   6  12 460.469  19.911   1
   0   6 -12 456.115  15.635   7
   0  -6  12 426.668  19.624   4
   6   0  12 454.015  21.974   1
  -6   3 -12 1975.63   45.50   7
   3   3  12 1931.47   46.08   1
  -6   3  12 1964.66   47.37   2
   3  -6  12 1937.45   42.80   4
   3  -6 -12 1973.14   42.60   7
  -6   3  12 1980.28   44.09   6
  -3   6  12 2049.16   45.01   2
  -3   6  12 2004.11   45.04   1
  -3   6  12 2001.54   45.81   6
   6  -3 -12 1999.07   36.20   7
  -3   6 -12 1962.92   41.52   7
  -3  -3  12 1906.95   46.21   2
  -3  -3 -12 1901.38   44.65   7
   6  -3  12 2038.95   47.04   1
   6  -6  12 527.288  21.307   4
   0   6  12 468.897  21.469   6
  -6   0  12 507.275  22.943   2
   6   0 -12 506.972  20.042   3
   6  -6  12 486.150  22.432   1
   0   6  12 495.337  21.995   1
  -6   6 -12 502.946  21.869   7
   0  -6 -12 452.054  20.727   7
   2   5 -12 702.186  17.416   7
  -7   5  12 705.337  23.697   1
  -7   5  12 625.178  26.403   2
  -7   2 -12 672.126  26.088   7
   5   2  12 711.653  26.833   1
   2  -7  12 677.919  24.532   4
  -7   5  12 703.315  25.879   6
   5  -7 -12 703.379  23.188   7
  -5  -2 -12 754.201  26.602   7
   7  -2  12 703.220  27.175   1
  -2  -5  12 676.745  23.862   4
  -2  -5  12 709.155  26.500   2
  -5   7  12 683.274  26.088   6
  -5   7  12 726.800  25.733   2
  -5   7  12 668.982  24.792   1
   7  -5 -12 703.863  20.674   7
  -2   7 -12 727.453  21.992   7
   2   5  12 959.503  30.668   6
  -7   2  12 942.148  32.084   2
   2   5  12 958.424  31.010   1
   2  -7 -12 966.914  29.450   7
   5  -7  12 999.169  29.869   4
  -7   2  12 999.734  28.979   6
  -7   5 -12 1023.45   31.01   7
  -7   5 -12 970.834  30.752   7
   5   2 -12 1019.85   28.51   3
   7  -2 -12 971.753  20.580   7
  -2   7  12 965.441  30.288   1
  -5  -2  12 953.604  31.249   2
   7  -5  12 975.210  32.154   1
  -2  -5 -12 986.279  30.533   7
  -5   7 -12 989.658  29.220   7
   7  -2 -12 987.326  28.304   3
  -2   7  12 970.724  30.610   6
  -8   1 -12 546.279  24.924   7
   7   1  12 479.099  24.159   1
   1   7 -12 548.727  17.649   7
  -8   7  12 555.111  24.870   6
  -8   7  12 527.573  24.715   2
   7  -8 -12 562.062  21.561   7
  -8   7  12 556.184  22.702   1
  -7   8  12 525.649  23.627   6
   8  -7 -12 499.873  19.958   7
  -7   8  12 472.851  22.425   1
   8  -1  12 531.146  24.911   1
  -1  -7  12 581.418  25.011   2
  -1   8 -12 527.732  19.221   7
  -7   8  12 546.051  24.242   2
  -7  -1 -12 523.120  24.804   7
  -8   4  12 373.614  21.698   2
  -8   4 -12 333.404  20.275   7
   4  -8 -12 349.279  18.265   7
   4   4  12 330.217  20.203   1
   4   4 -12 350.264  18.162   3
  -8   4  12 358.987  19.691   6
  -4   8 -12 327.239  17.676   7
  -4   8  12 334.956  19.302   1
  -4  -4 -12 374.130  20.328   7
   8  -4 -12 349.196  18.416   3
   8  -4 -12 334.743  13.870   7
  -4   8  12 332.260  19.910   6
  -4  -4  12 319.943  19.088   2
   8  -4  12 332.334  20.964   1
  -8   7 -12 388.685  22.516   6
   1   7  12 442.547  21.807   1
   7  -8  12 437.478  23.032   1
   1   7  12 412.701  21.499   6
  -8   1  12 395.024  22.476   2
   7   1 -12 415.106  20.114   3
   1  -8 -12 406.883  20.915   7
  -8   7 -12 415.182  22.086   7
  -7  -1  12 392.365  21.597   2
  -7   8 -12 436.014  21.348   7
  -1   8  12 423.683  21.499   6
   8  -7  12 408.902  23.042   1
  -1   8  12 414.215  21.743   1
   8  -1 -12 392.032  19.886   3
   8  -7  12 396.827  20.119   4
  -1  -7 -12 434.491  21.695   7
  -9   9  12 639.201  27.776   6
  -9   9  12 693.359  29.202   2
   9  -9 -12 658.681  24.996   7
   0   9 -12 683.671  22.353   7
  -9   9  12 703.324  27.512   1
   9   0  12 599.443  27.934   1
   6   3  12 282.658  19.223   1
  -9   6  12 304.944  21.445   2
   3   6 -12 308.275  12.475   7
   6  -9 -12 295.134  18.068   7
  -9   3 -12 301.625  21.411   6
  -9   3 -12 301.310  20.494   7
  -9   6  12 314.614  20.224   6
  -6  -3 -12 309.951  20.236   7
   9  -3  12 347.314  21.888   1
  -3   9 -12 317.408  17.019   7
   9  -6 -12 313.466  15.997   7
  -6   9  12 311.966  19.390   1
  -3  -6  12 282.921  19.326   2
  -6   9  12 307.524  20.010   6
  -9   6 -12 739.359  28.311   7
   3   6  12 657.061  26.908   1
   3  -9 -12 678.797  26.213   7
   6   3 -12 684.513  25.138   3
  -9   3  12 708.091  29.518   2
  -9   6 -12 647.259  28.557   6
  -9   6 -12 694.893  28.184   7
  -9   3  12 693.947  26.016   6
  -3  -6 -12 718.875  28.065   7
   9  -6  12 656.704  29.096   1
   9  -3 -12 672.468  25.809   3
  -3   9  12 704.206  27.487   1
  -6   9 -12 719.964  26.314   7
   9  -3 -12 697.778  19.430   7
  -3   9  12 681.053  26.947   6
  -6  -3  12 669.226  27.229   2
   9  -9  12 211.229  20.256   1
   0  -9 -12 210.617  18.601   7
  -9   0  12 187.970  18.741   2
   0   9  12 169.354  17.281   1
   0   9  12 212.352  18.172   6
  -9   9 -12 193.344  18.485   7
   9   0 -12 213.622  17.876   3
  -9   9 -12 235.134  20.619   6
 -10   8  12 1728.22   49.30   2
 -10   8  12 1766.87   44.78   1
 -10   8  12 1748.35   47.51   6
 -10   2 -12 1715.26   47.58   6
   8 -10 -12 1816.38   44.64   7
   2   8 -12 1876.16   38.34   7
   8   2  12 1811.41   48.08   1
  -8  10  12 1766.33   47.00   6
  -8  10  12 1727.15   46.22   1
  10  -8 -12 1753.42   41.72   7
  -2  10 -12 1768.63   41.37   7
  10  -2  12 1773.04   48.75   1
 -10   5 -12 2375.50   55.85   7
   5   5 -12 2195.35   39.39   7
 -10   5 -12 2171.50   55.37   6
   5   5 -12 2240.99   50.75   3
 -10   5  12 2172.73   52.54   6
 -10   5  12 2244.65   57.33   2
   5 -10 -12 2197.44   51.37   7
   5   5  12 2233.93   54.12   1
  -5  -5  12 2259.14   53.03   2
  -5  10  12 2186.29   53.47   1
  -5  -5 -12 2317.13   53.95   7
  10  -5 -12 2248.66   51.47   3
  -5  10  12 2183.07   52.64   6
  -5  10 -12 2190.23   50.20   7
  10  -5  12 2183.13   56.06   1
   2   8  12 1629.96   45.33   1
   8   2 -12 1624.20   43.26   3
 -10   8 -12 1704.59   47.68   6
 -10   8 -12 1676.08   46.33   7
 -10   2  12 1657.43   48.11   2
 -10   8 -12 1677.57   46.54   7
   2 -10 -12 1732.93   45.85   7
  -8  -2  12 1669.98   45.56   2
  10  -8  12 1735.54   48.63   1
  -2  -8 -12 1721.96   46.43   7
  -2  10  12 1735.36   44.55   6
  -8  10 -12 1695.83   45.04   7
  -2  10  12 1625.74   45.50   1
  10  -2 -12 1710.85   44.15   3
 -11  10  12 408.078  23.671   1
 -11  10  12 518.849  27.943   2
   1  10 -12 443.098  19.397   7
 -11  10  12 429.882  25.801   6
 -11   1 -12 435.483  26.117   6
  10   1  12 420.741  25.240   1
  10 -11 -12 415.517  22.343   7
 -10  -1 -12 437.541  25.621   6
  11 -10 -12 416.653  21.633   7
  -1  11 -12 435.173  20.126   7
 -10  11  12 424.063  25.514   6
 -10  11  12 381.563  23.561   1
 -11   7  12 25.2455 13.4435   2
   7 -11 -12 35.6408 11.2424   7
   7   4  12 28.8179 12.1017   1
 -11   4 -12 38.6445 13.8477   6
 -11   7  12 26.8396 13.1223   6
   4   7 -12 35.8885  7.9404   7
  11  -7 -12 22.9629  9.8369   7
  -7  11  12 14.0089 11.2999   1
  11  -4  12 19.1486 12.0285   1
  -7  11  12 26.9639 12.4352   6
  -4  11 -12 35.4169 10.5182   7
   4 -11 -12 103.592  14.977   7
 -11   4  12 50.8495 14.2927   2
   7   4 -12 80.6415 13.1324   3
 -11   4  12 117.260  16.029   6
   4   7  12 82.8126 14.7400   1
 -11   7 -12 75.4347 15.1196   7
 -11   7 -12 72.4803 15.8881   6
  11  -4 -12 74.6954 10.3218   7
  -7  11 -12 83.2431 13.3451   7
  -4  11  12 102.006  15.046   1
  -4  11  12 92.4761 14.7444   6
  -7  -4  12 72.6858 14.3127   2
  11  -4 -12 82.0880 13.3135   3
  11  -7  12 69.1555 15.3031   1
   1  10  12 321.629  21.782   1
  10 -11  12 372.923  24.453   1
 -11  10 -12 421.424  25.605   6
 -11   1  12 356.227  24.102   2
 -11  10 -12 365.916  23.674   7
  10   1 -12 347.972  22.403   3
 -10  -1  12 375.945  23.979   2
  11  -1 -12 358.408  15.777   7
  11  -1 -12 325.035  22.079   3
  11 -10  12 368.170  25.265   1
 -10  11 -12 365.537  23.417   7
  -1  11  12 317.892  22.038   1
 -12   3 -12  8.1761 12.9654   6
   9   3  12 32.8862 12.1545   1
 -12   9  12 -1.8222 12.7988   2
   3   9 -12 21.8868  8.7912   7
 -12   9  12 12.2238 12.6676   6
   9 -12 -12 31.8174 11.9832   7
  -9  12  12 21.9889 13.1325   6
  12  -3  12 31.2738 13.2461   1
  12  -9 -12 20.4501 10.3956   7
  -3  12 -12 19.5266 10.6255   7
  -9  12  12 24.8946 12.8022   1
   6   6  12 21.9298 11.7438   1
   6 -12 -12 21.3639 11.3499   7
   6   6 -12 15.8699 10.3529   3
 -12   6 -12  1.6024 12.3752   6
 -12   6  12  5.1838 12.1938   2
   6   6 -12 13.9043  6.6697   7
 -12   6  12  4.7837 12.7102   6
  -6  12 -12 16.1157 10.7113   7
  12  -6  12  6.7592 12.5114   1
  12  -6 -12  0.8852 10.8170   3
  -6  12  12  9.2819 11.5107   1
  12  -6 -12 2.53619 9.27729   7
  -6  12  12 24.8016 12.8210   6
 -12   9 -12 75.2240 16.9601   6
   9   3 -12 62.0121 14.0990   3
   3 -12 -12 73.4379 15.3636   7
 -12   9 -12 57.2379 14.9135   7
 -12   9 -12 49.0242 15.0156   7
   3   9  12 44.0531 12.6183   1
 -12   3  12 26.1453 14.2334   2
  12  -9  12 52.5684 15.2675   1
  -3  12  12 78.0903 14.6167   1
  -9  12 -12 53.8813 13.3195   7
  -9  -3  12 38.2608 13.2549   2
  12  -3 -12 60.0585 10.3202   7
  -3  12  12 60.2807 14.0622   6
  12  -3 -12 74.4448 14.2603   3
   8 -13 -12 2372.00   58.39   7
 -13   8  12 2230.78   62.64   2
   8   5  12 2385.61   59.10   1
   5   8 -12 2301.74   46.68   7
  -8  13  12 2322.40   59.53   1
  -5  13 -12 2327.91   55.18   7
  -8  13  12 2313.21   58.21   6
   8   5 -12 1826.12   37.47   7
   5 -13 -12 2014.75   52.38   7
   5   8  12 1940.40   52.06   1
 -13   8 -12 1898.51   54.76   6
 -13   5  12 1837.99   56.50   2
   8   5 -12 2012.45   51.03   3
  13  -8  12 1867.45   55.09   1
  -8  13 -12 1868.70   50.13   7
  -5  13  12 1912.22   50.84   6
  13  -5 -12 1989.04   44.01   7
  -5  13  12 1836.84   51.75   1
   1   0  13 -3.3834  8.2455   6
  -1   1  13 9.68211 7.02688   1
   0   1 -13 4.87753 5.87419   7
  -1   0 -13 4.81609 6.22297   7
  -1   1  13 -5.9714  7.7100   6
   1   0  13 1.82064 8.76600   2
   1  -1 -13 4.89001 6.08798   7
   0  -1  13 1.28294 8.00687   6
   0  -1  13 0.57967 8.53445   2
   1   0  13 -11.663   6.400   1
  -1   1  13 -3.0639  8.0138   2
   0  -1  13 8.63770 6.88728   1
   2  -2  13 5.75818 7.82635   4
   0   2  13 11.7803  8.9502   6
   0   2  13 4.31786 7.33410   1
  -2   0  13 0.20799 8.31934   2
   0  -2 -13 6.43979 7.06548   7
   2   0 -13 0.61403 5.04030   7
  -2   2 -13 -2.2155  6.7346   7
   0   2  13 -0.9787  8.2354   2
   2  -2  13 4.76347 7.21805   1
  -2   0  13 5.53897 8.01125   6
   1  -3  13 305.944  16.641   4
  -3   2  13 329.394  18.850   2
   2   1  13 326.145  17.316   1
   1   2 -13 307.388  12.217   7
  -3   2  13 332.590  15.348   1
  -3   2  13 328.377  17.424   6
   2  -3 -13 318.357  14.474   7
   1  -3  13 314.156  19.087   2
   2   1  13 332.125  18.533   6
  -3   1 -13 294.983  16.042   7
  -1  -2  13 311.063  16.107   6
  -2  -1 -13 303.085  15.860   7
   3  -1  13 329.489  17.768   1
  -1  -2  13 304.914  18.234   2
  -2   3  13 322.060  18.125   2
  -2   3  13 349.368  18.473   6
  -1   3 -13 336.233  14.312   7
  -2   3  13 322.573  16.213   1
   3  -2 -13 300.173  12.685   7
  -4   4  13 -4.0642  8.8949   6
   0   4 -13 0.66102 6.03280   7
  -4   0 -13 2.76325 7.82466   7
   0  -4  13 -4.1945  8.2834   4
  -4   4  13 14.3931  9.2856   2
   4  -4 -13 8.22521 6.38512   7
   0  -4  13 -8.4646  9.1422   2
   4   0  13 4.54399 8.34195   1
  -4   4  13 5.18191 7.68145   1
  -4   3 -13 312.562  16.729   7
  -4   1  13 326.293  17.241   6
   3  -4  13 335.999  17.563   4
   3  -4  13 313.284  16.653   1
  -4   1  13 319.858  18.932   2
   1   3  13 346.745  18.883   6
  -4   3 -13 320.268  16.905   7
   3   1 -13 296.868   9.929   7
   3   1 -13 321.484  10.225   7
   1   3  13 320.324  18.002   2
   1   3  13 319.359  17.655   1
   1  -4 -13 349.168  16.636   7
  -1  -3 -13 322.096  16.614   7
  -3   4 -13 309.949  16.051   7
  -3  -1  13 298.127  18.427   2
  -1   4  13 318.705  18.386   6
  -3  -1  13 369.464  17.175   6
   4  -3  13 333.392  16.468   4
  -1   4  13 331.145  17.561   1
   4  -1 -13 312.871  10.857   7
  -1   4  13 330.002  18.012   2
   4  -3  13 329.544  17.827   1
   2   3 -13 30.7037  5.6340   7
   2  -5  13 27.9963 10.0166   4
   3   2  13 49.5733 10.6942   1
   3  -5 -13 29.0087  8.0547   7
  -5   2 -13 23.6980  9.5099   7
  -5   3  13 30.6057 10.2215   6
  -5   3  13 39.8147 11.0342   2
   5  -3 -13 42.5617  6.9326   7
  -3   5  13 37.5439 10.3618   2
  -3   5  13 32.7181  9.0654   1
  -3  -2 -13 32.7474  9.7613   7
  -2  -3  13 39.0431 10.9026   2
   5  -2  13 17.0928  9.3059   1
  -2   5 -13 39.8792  8.3930   7
  -3   5  13 37.2683 10.6699   6
   5  -5  13 1.05246 8.95309   4
   0   5  13 -2.1698  9.1315   6
   0   5  13 -0.4659  8.1495   1
   5  -5  13 -4.1095  8.7843   1
   0  -5 -13 -1.6109  8.0670   7
  -5   0  13 -7.5854  9.1200   2
  -5   5 -13 -5.4781  7.5018   7
  -6   5  13 11.1837  8.7686   1
  -6   5  13 25.9480 10.4526   6
  -6   1 -13 27.6901  9.9209   7
   1   5 -13 19.3580  6.4095   7
   5  -6 -13 20.9137  8.0486   7
   5   1  13 24.6179 10.1846   1
  -6   5  13 12.1169 10.2984   2
  -1  -5  13 20.8990 11.0239   2
   6  -5 -13 12.4222  7.2727   7
  -5  -1 -13 32.8725 10.6097   7
  -5   6  13 17.7005  9.8224   2
  -5   6  13 10.8244  8.8750   1
  -5   6  13 -1.7510  9.5818   6
   6  -1  13 4.03247 9.53063   1
  -1   6 -13 29.6291  8.1807   7
  -6   2  13 1189.75   32.75   6
   4  -6  13 1188.39   32.85   4
  -6   4 -13 1188.13   34.23   7
   2   4  13 1232.63   35.21   6
  -6   2  13 1199.54   35.95   2
   2  -6 -13 1183.65   31.92   7
   2   4  13 1163.71   34.65   1
  -2  -4 -13 1210.05   33.79   7
  -2   6  13 1203.89   34.27   1
  -2   6  13 1219.44   34.78   6
   6  -4  13 1260.54   35.98   1
  -4   6 -13 1182.47   31.84   7
   6  -2 -13 1181.32   23.91   7
  -4  -2  13 1137.03   35.01   2
   0   7 -13 -0.1938  7.0270   7
  -7   7  13 -4.8477 10.1711   6
  -7   7  13  2.2197 10.2204   2
   7   0  13 11.5075  9.5306   1
   7  -7 -13 13.0747  8.5152   7
  -7   0 -13 11.7997 10.1805   7
  -7   7  13 -5.9855  8.5430   1
   4  -7 -13 657.171  23.188   7
  -7   3 -13 642.222  26.309   7
   4   3  13 611.681  25.766   1
  -7   4  13 638.122  26.728   2
  -7   4  13 603.324  24.792   6
  -4   7  13 631.705  24.891   1
  -3  -4  13 653.663  26.204   2
  -4   7  13 635.304  25.591   6
   7  -4 -13 667.434  18.944   7
   7  -3  13 676.111  27.027   1
  -4  -3 -13 627.355  24.851   7
  -3   7 -13 645.692  22.526   7
   1  -7 -13 680.080  25.753   7
   1   6  13 637.801  25.900   6
  -7   6 -13 671.851  26.187   7
   1   6  13 653.007  26.398   1
  -7   1  13 591.663  26.551   2
  -7   6 -13 688.935  27.514   6
  -1   7  13 624.813  26.042   1
  -1   7  13 672.690  26.544   6
  -1  -6 -13 611.315  25.437   7
  -6  -1  13 622.503  26.788   2
  -6   7 -13 675.456  25.722   7
   7  -6  13 657.265  27.110   1
   2   6 -13 4.17053 6.09580   7
   6   2  13 -2.7499  9.5000   1
  -8   2 -13 32.9822 11.0186   7
  -8   6  13  3.7251 10.3649   2
  -8   6  13  2.1398 10.3788   6
   6  -8 -13 -0.6390  8.0660   7
  -2  -6  13  2.5652 10.4495   2
  -6  -2 -13 -1.8296  9.7554   7
   8  -2  13  1.8452 10.1025   1
  -6   8  13 19.3933 10.8594   6
  -2   8 -13 5.33897 7.81252   7
  -6   8  13 -2.2250  9.0171   1
   8  -6 -13 10.8458  7.8853   7
  -8   3  13 10.2822 10.0983   6
  -8   5 -13 -0.9323 10.7771   6
   3  -8 -13 13.7867  9.3281   7
   3   5  13 12.9379  9.7455   1
  -8   3  13 12.2408 10.6078   2
  -8   5 -13 18.8827 10.7315   7
  -5  -3  13 15.3067 10.1689   2
   8  -5  13 20.4931 11.8333   1
  -3  -5 -13 19.6230 10.3844   7
  -5   8 -13 18.5183  9.5874   7
   8  -3 -13 10.7440  6.4369   7
  -3   8  13 10.4437  9.7915   1
  -3   8  13 12.4222  9.8215   6
   8   0 -13 0.93868 9.13945   3
   0   8  13 -4.9478  9.6679   1
  -8   8 -13 10.3776 11.9047   6
   0  -8 -13 3.71791 9.80107   7
  -8   0  13 14.2185 11.2631   2
   0   8  13  9.8191 10.6467   6
   8  -8  13 -3.4191 11.6525   1
  -8   8 -13 11.5143 10.4982   7
  -9   8  13 42.9355 13.2470   2
   8  -9 -13 33.6395 10.3317   7
  -9   8  13 39.9850 12.6306   6
   8   1  13 18.8047 11.0782   1
  -9   1 -13 45.5413 13.6269   7
   1   8 -13 37.9504  8.7751   7
  -9   8  13 33.9635 11.3857   1
  -1   9 -13 45.8863  9.5764   7
   9  -1  13 37.5304 12.2295   1
   9  -8 -13 36.0519 10.1945   7
  -8   9  13 31.7615 11.6010   1
  -8   9  13 51.3306 13.4047   2
  -8   9  13 28.1572 11.9981   6
  -8  -1 -13 66.8232 14.2178   7
  -9   5  13 193.491  18.101   6
  -9   5  13 166.331  18.453   2
  -9   4 -13 151.182  17.860   6
  -9   4 -13 169.213  17.964   7
   5   4  13 181.249  17.742   1
   5  -9 -13 195.344  16.062   7
   9  -4  13 149.358  17.479   1
  -4  -5  13 182.828  17.506   2
  -5  -4 -13 216.676  18.743   7
  -4   9 -13 187.351  15.660   7
  -5   9  13 154.397  17.388   6
  -5   9  13 171.216  17.044   1
   9  -5 -13 176.961  12.414   7
  -9   7 -13 757.918  30.215   7
   2  -9 -13 792.927  29.189   7
  -9   7 -13 765.667  30.210   7
   2   7  13 736.599  29.534   1
  -9   7 -13 800.237  31.785   6
  -9   2  13 815.797  32.359   2
   7   2 -13 792.678  28.348   3
   9  -7  13 803.382  32.513   1
   9  -2 -13 796.542  28.437   3
   9  -2 -13 802.219  20.168   7
  -7  -2  13 743.583  30.161   2
  -2   9  13 758.019  29.539   1
  -2  -7 -13 803.663  30.272   7
  -2   9  13 756.990  28.990   6
  -7   9 -13 803.924  29.088   7
  10 -10 -13 -3.1341  9.5564   7
   0  10 -13 -5.9649  8.1595   7
  10   0  13 -10.503  10.680   1
 -10  10  13 -1.6678 12.6142   2
 -10   0 -13 23.7514 13.4384   6
 -10  10  13 15.8406 11.4240   1
 -10  10  13 -8.0076 11.3559   6
 -10   7  13 -12.992  10.986   2
   7   3  13  1.3667 10.5871   1
   7 -10 -13 3.55444 9.38817   7
 -10   3 -13 -10.417  11.038   6
   3   7 -13 2.10707 6.77181   7
 -10   7  13  2.9528 11.6087   6
 -10   3 -13 20.7315 11.5733   7
  -3  -7  13  4.4153 11.5596   2
  -3  10 -13 12.8388  9.3341   7
  10  -3  13 10.0060 11.5357   1
  10  -7 -13 14.4473  8.7359   7
  -7  10  13 14.9701 10.7277   1
  -7  10  13  5.4336 12.1717   6
 -10   6 -13 631.066  28.382   7
   6   4 -13 566.983  24.733   3
 -10   6 -13 588.755  28.822   6
 -10   4  13 610.153  26.707   6
   4   6  13 586.313  27.124   1
 -10   4  13 600.095  29.218   2
   4 -10 -13 585.025  25.543   7
  -6  -4  13 644.887  27.615   2
  -4  10  13 582.180  26.613   1
  -6  10 -13 601.731  25.661   7
  10  -6  13 635.738  29.920   1
  10  -4 -13 599.483  19.911   7
  -4  10  13 566.943  26.500   6
  -4  -6 -13 614.208  28.004   7
 -10   9 -13 389.606  24.998   6
   1 -10 -13 369.826  23.067   7
   9   1 -13 390.686  22.659   3
 -10   1  13 371.578  24.632   2
 -10   9 -13 401.282  23.925   7
   1   9  13 376.741  22.819   1
   1   9  13 331.325  22.142   6
  10  -1 -13 394.363  22.230   3
  -9  10 -13 339.930  22.857   7
  -1  -9 -13 414.780  24.486   7
  10  -9  13 357.354  24.529   1
  -9  -1  13 367.355  22.853   2
  -1  10  13 380.625  22.762   6
  -1  10  13 343.077  22.553   1
   9   2  13 166.059  19.097   1
 -11   9  13 245.773  22.767   2
 -11   9  13 150.911  19.056   6
 -11   2 -13 149.959  19.073   6
   9 -11 -13 174.175  17.554   7
   2   9 -13 197.575  13.957   7
  -9  11  13 179.044  18.610   1
  11  -9 -13 174.548  15.482   7
  -2  11 -13 203.692  16.283   7
  -9  11  13 211.877  20.421   6
  11  -2  13 138.218  18.148   1
 -11   5 -13 78.9114 16.4040   6
 -11   5 -13 125.910  17.891   7
 -11   6  13 103.346  15.895   6
 -11   6  13 80.3676 16.6581   2
   6   5  13 107.348  16.986   1
   5   6 -13 102.435  14.807   3
   6 -11 -13 123.291  15.540   7
  -5  11 -13 108.347  14.114   7
  11  -6 -13 120.929  13.034   7
  -6  11  13 98.4035 15.8905   6
  11  -5  13 93.1035 16.6856   1
  -6  11  13 121.935  16.554   1
 -11   8 -13 25.0465 13.3659   7
 -11   3  13 36.0566 13.9085   2
 -11   8 -13 31.5536 13.9870   7
   3   8  13 29.2333 12.3496   1
   8   3 -13 38.8882 12.4180   3
 -11   8 -13 28.2353 13.8605   6
   3 -11 -13 41.5915 12.9742   7
  -8  11 -13 35.4230 11.7773   7
  11  -3 -13 35.8247  8.9244   7
  -8  -3  13 36.3775 13.5852   2
  -3  11  13 50.1703 12.8048   1
  -3  11  13 15.4609 12.1593   6
  11  -8  13 11.2975 14.3439   1
  11  -3 -13 36.3173 13.0503   3
 -12   8  13  6.8898 13.2032   6
   8   4  13  2.9315 11.9919   1
 -12   4 -13 -2.0926 12.5288   6
   4   8 -13 -3.6981  7.3627   7
   8 -12 -13 12.7667 11.2534   7
 -12   8  13 -9.4797 12.9503   2
  -8  12  13 14.8065 11.3477   1
  12  -4  13 -6.5104 11.5554   1
  -4  12 -13 11.5581  9.7383   7
  -8  12  13  5.2008 12.7031   6
  12  -8 -13 -12.850   8.460   7
   5 -12 -13 14.8423 11.2575   7
   7   5 -13  0.6206 10.3261   3
 -12   5  13  4.2142 12.6791   2
   5   7  13  0.8038 11.3134   1
 -12   7 -13 25.9053 14.4457   6
  -7  12 -13 14.3173 11.3330   7
  -5  12  13 -10.311  10.518   1
  12  -5 -13 11.9378 11.8514   3
  12  -7  13 14.0831 13.6955   1
  12  -5 -13 7.20798 8.96329   7
  -5  12  13 -17.697  10.467   6
   1  -1  14 271.015  15.875   1
   0  -1 -14 244.259  14.438   7
   0   1  14 286.167  16.069   1
   1  -1  14 295.716  18.883   2
   0   1  14 285.921  18.442   2
  -1   0  14 318.460  17.423   6
  -1   1 -14 287.983  14.873   7
   0   1  14 286.260  17.539   6
   1   0 -14 283.953  13.320   7
  -1   0  14 325.157  19.187   2
  -2   2  14 1230.43   31.43   1
  -2   2  14 1188.40   35.07   2
   2   0  14 1147.32   32.71   1
   0   2 -14 1238.53   27.75   7
  -2   2  14 1167.46   32.96   6
   0  -2  14 1176.50   32.19   6
   0  -2  14 1174.48   35.55   2
  -2   0 -14 1162.24   30.43   7
   0   2 -14 1198.20   27.53   7
   2  -2 -14 1151.32   27.88   7
   1  -3 -14 119.286  11.434   7
   1   2  14 125.804  14.439   2
   2   1 -14 108.384   8.260   7
   1   2  14 76.8684 12.6802   6
   1   2  14 105.717  12.624   1
  -3   2 -14 106.087  11.811   7
  -3   1  14 128.478  14.311   2
   2  -3  14 105.258  12.544   4
  -3   1  14 118.497  13.128   6
  -2   3 -14 104.877  10.628   7
  -1   3  14 102.426  13.504   6
  -1   3  14 113.988  12.483   1
   3  -2  14 90.3001 12.2159   1
  -2   3 -14 105.455  10.909   7
  -2  -1  14 93.7621 13.3549   2
  -1   3  14 112.444  13.660   2
   3  -2  14 93.3670 11.9975   4
   3  -1 -14 101.399   8.753   7
  -2  -1  14 104.430  12.348   6
  -1  -2 -14 104.074  11.857   7
  -4   3  14 23.6767  9.9351   6
   1  -4  14 13.2607  9.9794   2
   3   1  14 2.35494 8.53297   1
   3  -4 -14 15.4047  7.5070   7
  -4   1 -14 3.03612 8.38944   7
   1   3 -14 17.6894  6.3192   7
  -4   3  14 14.2402 10.2557   2
  -1   4 -14 9.30488 7.04445   7
   4  -3 -14 8.97339 6.44979   7
  -3   4  14 21.7460  8.5872   1
   4  -1  14 9.30209 9.72001   1
  -1  -3  14 2.07049 9.51895   2
  -3   4  14 20.7052 10.0275   6
  -3   4  14 4.54567 9.39176   2
  -3  -1 -14 11.8477  8.6362   7
   0   4  14 23.9961 10.4917   6
   4   0 -14 11.1807  5.1411   7
  -4   4 -14 18.5441  8.7535   7
   0  -4 -14 19.3451  8.7797   7
   4  -4  14 9.53729 9.25103   4
  -4   4 -14 8.38284 8.44551   7
   0   4  14 14.2003  9.1789   1
  -4   0  14 1.81546 9.21537   2
   0   4  14 19.5015 10.3064   2
  -4   0  14 15.1704  9.2508   6
   4  -4  14 12.4960  8.9145   1
  -5   5  14 3052.54   63.86   6
   0   5 -14 3040.85   55.27   7
  -5   5  14 3073.87   65.89   2
   5  -5 -14 3127.29   57.78   7
  -5   0 -14 3149.95   64.52   7
  -5   5  14 3116.58   61.82   1
   0  -5  14 3016.66   66.67   2
   5   0  14 3061.82   65.46   1
   2  -5 -14 993.944  28.852   7
   2   3  14 1020.18   32.49   1
  -5   2  14 1001.38   33.31   2
  -5   2  14 1042.54   30.99   6
   2   3  14 1010.59   32.37   6
  -5   3 -14 1046.77   31.47   7
  -3   5 -14 1034.24   28.89   7
   5  -2 -14 1018.04   22.48   7
  -2   5  14 1018.94   31.56   2
  -2   5  14 997.549  31.204   1
  -2  -3 -14 1073.85   31.21   7
  -2   5  14 974.094  31.531   6
   5  -3  14 1052.31   32.52   1
  -3  -2  14 957.140  32.829   2
  -6   4  14  2.5444 10.0637   2
  -6   2 -14 24.7106 10.4443   7
   2   4 -14 9.75579 5.72906   7
   4  -6 -14 6.80009 8.03589   7
   4   2  14 15.7593 10.2419   1
  -6   4  14  7.4085 10.3198   6
  -4  -2 -14 -6.5585  8.9774   7
  -2   6 -14 8.95385 8.24489   7
  -4   6  14 3.86824 8.77255   1
  -4   6  14 25.4248 10.5916   2
   6  -2  14 -2.7871  9.5034   1
  -2  -4  14 20.4060 11.3113   2
   6  -4 -14 -8.5117  6.1417   7
  -4   6  14 23.0890 11.1264   6
  -6   5 -14 401.657  21.114   7
   1   5  14 399.594  21.405   1
   1  -6 -14 408.610  19.653   7
   1   5  14 376.503  21.750   6
  -6   1  14 425.269  22.664   2
  -6   5 -14 409.096  21.151   7
  -5   6 -14 398.640  20.305   7
  -1  -5 -14 373.386  19.829   7
  -1   6  14 422.613  21.078   1
  -1   6  14 425.253  21.975   6
   6  -5  14 403.990  21.987   1
  -5  -1  14 375.516  21.540   2
   1   6 -14 13.4331  6.8320   7
  -7   1 -14 14.3191 10.4949   7
  -7   6  14  2.4855 10.2357   6
   6  -7 -14 10.1999  8.5340   7
   6   1  14  8.2219 10.3444   1
  -7   6  14  1.6742 10.7208   2
  -1   7 -14 6.15214 8.04853   7
  -6   7  14 8.14536 9.52583   1
  -6  -1 -14  3.3635 10.1016   7
  -6   7  14  5.0250 10.1634   6
   7  -6 -14 4.35072 7.76338   7
  -1  -6  14  7.6405 10.9395   2
  -6   7  14 17.7626 10.6542   2
   7  -1  14 23.1568 11.1750   1
  -7   3  14 45.6415 11.6062   6
   3  -7 -14 41.4915 10.4799   7
   3   4  14 18.7290 10.3770   1
  -7   4 -14 28.4644 11.3577   7
  -7   3  14 44.1057 12.5633   2
   7  -4  14 39.1241 12.0276   1
  -3   7  14 23.8690 10.5992   1
   7  -3 -14 39.5039  6.9986   7
  -4   7 -14 52.9011 10.7150   7
  -3   7  14 36.5698 11.4607   6
  -4  -3  14 31.7075 11.6514   2
  -3  -4 -14 37.9969 10.8079   7
  -7   7 -14 197.814  17.911   7
   0   7  14 262.992  18.983   1
  -7   7 -14 268.454  20.219   6
  -7   0  14 237.352  19.473   2
   0  -7 -14 276.382  18.908   7
   0   7  14 224.712  19.440   6
   7  -7  14 227.002  20.054   1
  -8   8  14 2509.07   59.96   6
  -8   8  14 2584.24   58.03   1
  -8   8  14 2536.27   61.10   2
  -8   0 -14 2709.80   61.93   7
   0   8 -14 2665.78   51.30   7
   8   0  14 2567.64   62.33   1
   8  -8 -14 2563.25   54.12   7
  -8   3 -14 1171.35   37.08   7
  -8   5  14 1204.54   36.62   6
   5  -8 -14 1194.75   33.81   7
  -8   5  14 1187.26   38.37   2
   5   3  14 1156.93   37.26   1
  -3  -5  14 1125.94   37.03   2
  -5  -3 -14 1182.31   36.84   7
  -5   8  14 1167.08   36.95   6
   8  -3  14 1152.57   38.04   1
  -5   8  14 1091.86   35.12   1
  -3   8 -14 1200.22   32.48   7
   8  -5 -14 1167.70   28.52   7
  -8   6 -14 767.105  29.475   7
  -8   2  14 751.652  30.865   2
  -8   6 -14 748.014  29.738   7
   2  -8 -14 775.008  28.969   7
   2   6  14 760.317  29.712   1
  -8   6 -14 806.219  31.256   6
  -2   8  14 738.855  29.071   1
  -2  -6 -14 789.454  29.582   7
  -2   8  14 748.712  29.377   6
  -6   8 -14 737.765  28.009   7
   8  -6  14 750.129  30.992   1
  -6  -2  14 747.011  30.247   2
   2   7 -14 30.9673  8.2551   7
   7  -9 -14 30.3003 10.7473   7
  -9   2 -14 28.5389 12.4110   7
   7   2  14 17.5810 10.9831   1
  -9   7  14 33.1463 13.3136   2
  -9   7  14 47.6938 13.4455   6
  -7  -2 -14 30.1918 12.9376   7
  -2  -7  14 45.3304 13.5754   2
  -7   9  14 57.7448 13.9882   6
  -7   9  14 17.7839 11.3950   1
   9  -2  14 56.0980 13.4362   1
  -2   9 -14 38.2978  9.9826   7
   9  -7 -14 51.6251 10.6032   7
  -9   4  14 10.3577 11.4353   6
   4   5  14 -5.0669 10.1267   1
  -9   5 -14 30.6842 12.1970   7
   4  -9 -14 22.0599 10.5915   7
  -9   4  14 10.9693 11.9985   2
  -9   5 -14 10.5141 12.4345   6
  -5   9 -14 18.5393 10.0887   7
  -4   9  14 -5.7527 10.2001   6
  -4  -5 -14 27.6865 11.5335   7
  -5  -4  14 13.1692 11.6874   2
   9  -5  14 27.1139 13.1532   1
  -4   9  14 21.7308 11.0311   1
   9  -4 -14 13.1269  7.1678   7
   1   8  14 47.9996 12.8275   1
  -9   1  14 33.3609 12.4393   2
  -9   8 -14 34.7302 12.9793   7
   1   8  14 24.2445 12.6620   6
   1  -9 -14 15.8730 11.3906   7
  -9   8 -14 34.9603 14.5405   6
  -9   8 -14 41.5791 12.8958   7
  -8   9 -14 35.0624 12.1231   7
  -8  -1  14 17.8094 12.2441   2
  -1   9  14 38.3674 11.8913   1
   9  -8  14 28.2381 13.4033   1
  -1  -8 -14 37.6983 12.0405   7
  -1   9  14 16.3781 11.7247   6
   1   9 -14 6.34634 8.59563   7
   9   1  14  3.4344 11.2844   1
 -10   9  14  9.1914 12.6451   2
 -10   1 -14 21.9195 12.9231   6
   9 -10 -14 4.97963 9.93998   7
 -10   9  14 18.7046 12.6956   6
  -9  10  14 16.8384 12.1983   1
  10  -1  14 30.6882 12.5298   1
  10  -9 -14 -3.4128  8.8872   7
  -1  10 -14 17.8994  9.5374   7
  -9  10  14 28.3458 13.4564   6
 -10   6  14 -2.9310 11.3964   6
 -10   6  14 13.1299 12.9355   2
   6   4  14 12.5571 11.6373   1
 -10   4 -14 19.2120 13.5384   6
 -10   4 -14  1.2068 11.3261   7
   6 -10 -14 11.5222 10.2021   7
  -4  10 -14 23.5814 10.4293   7
  -6  10  14 15.7738 10.9925   1
  10  -6 -14 14.2033  8.3427   7
  -4  -6  14 12.3073 12.0284   2
  -6  10  14  1.9746 11.4640   6
  10  -4  14 -13.194  11.231   1
  -6  -4 -14 13.8209 12.1546   7
 -10   7 -14 553.560  27.306   7
   3   7  14 487.824  25.693   1
 -10   7 -14 498.130  27.443   6
   3 -10 -14 524.699  25.674   7
 -10   3  14 479.941  27.248   2
  -3  -7 -14 518.929  26.390   7
  -7  -3  14 491.802  25.858   2
  10  -3 -14 526.905  18.032   7
  10  -7  14 546.433  28.877   1
  -7  10 -14 461.412  23.728   7
  -3  10  14 482.035  25.180   1
   0  10  14 433.025  25.980   1
   0 -10 -14 549.359  27.905   7
   0  10  14 573.182  27.752   6
 -10   0  14 463.616  27.021   2
   3   8 -14 881.837  24.591   7
   8   3  14 867.270  35.036   1
 -11   8  14 867.485  34.816   6
 -11   8  14 935.662  37.290   2
 -11   3 -14 847.714  35.533   6
   8 -11 -14 920.962  32.330   7
  -8  11  14 908.165  35.305   6
  -8  11  14 900.128  34.261   1
  11  -8 -14 860.774  28.428   7
  -3  11 -14 912.496  30.417   7
  11  -3  14 899.507  36.347   1
 -11   5  14 707.105  33.071   2
 -11   6 -14 769.062  33.529   6
 -11   6 -14 758.031  33.495   7
   5 -11 -14 723.040  29.836   7
   5   6  14 691.841  30.817   1
 -11   5  14 800.442  31.983   6
  11  -6  14 767.173  34.135   1
  -5  11  14 730.133  31.296   1
  -6  -5  14 787.624  31.622   2
  -6  11 -14 670.616  28.317   7
  -5  11  14 741.911  31.410   6
   0   0  15 10.0881 10.0292   2
   0   0 -15 6.41949 6.95854   7
   0   0  15 3.10974 9.78671   6
   1   1  15 1260.48   34.82   1
  -2   1 -15 1249.62   32.29   7
  -2   1  15 1191.24   36.70   2
   1   1  15 1243.29   37.04   2
   1   1 -15 1245.44   28.40   7
   1  -2  15 1181.20   37.48   2
  -2   1  15 1239.62   34.72   6
   1  -2 -15 1289.96   31.17   7
   1   1  15 1205.72   35.74   6
  -1  -1  15 1261.79   34.57   6
   2  -1  15 1261.22   34.45   1
   2  -1 -15 1204.60   28.57   7
  -1   2  15 1233.63   33.49   1
  -1   2  15 1260.13   36.99   2
  -1  -1 -15 1247.59   32.41   7
  -1  -1  15 1181.12   36.78   2
  -1   2 -15 1211.20   30.23   7
  -1   2  15 1246.60   35.49   6
   0   3 -15 -5.0005  6.4232   7
  -3   3  15 -19.708   8.710   6
   3   0  15 2.92931 9.19402   1
   0  -3  15 11.3035 10.9188   2
  -3   3  15 3.43484 8.18365   1
   3  -3 -15 2.07268 7.14505   7
  -3   3  15 2.16809 9.22667   2
  -3   0 -15 3.27920 8.35485   7
  -3   3 -15 9.34249 8.39725   7
   0   3  15 -5.4922  9.5035   6
   0   3  15 -9.7406  8.3688   1
   3   0 -15 -2.1725  5.9220   7
   0  -3 -15 -6.2819  7.6305   7
   0   3  15  2.6382 10.1688   2
   3  -3  15 2.51308 9.23543   4
  -3   0  15 10.1733  9.7746   2
  -3   0  15 -5.2055  8.8493   6
  -4   2  15 73.7624 12.9563   2
   2   2 -15 101.136   8.430   7
   2   2  15 83.9459 12.8629   1
  -4   2  15 97.5556 13.4001   6
   2  -4 -15 97.9229 11.1045   7
  -4   2 -15 64.4512 11.8732   7
  -2  -2  15 99.3621 14.1091   2
   4  -2  15 74.7913 12.5955   1
  -2   4  15 75.2151 12.2374   1
  -2   4  15 76.9655 13.0450   2
   4  -2 -15 83.3311  8.8141   7
  -2  -2 -15 76.5350 11.7093   7
  -2   4  15 70.4366 13.3344   6
  -2   4 -15 100.060  11.290   7
  -5   1 -15 313.109  19.322   7
  -5   4  15 298.959  20.658   2
   4   1  15 316.721  20.487   1
  -5   4  15 285.716  19.805   6
   1   4 -15 300.069  13.613   7
   4  -5 -15 296.675  16.171   7
  -1   5 -15 301.055  15.626   7
  -4   5  15 329.843  19.080   1
  -1  -4  15 331.105  21.718   2
  -4  -1 -15 287.892  18.864   7
   5  -4 -15 335.180  15.177   7
  -4   5  15 273.028  19.067   6
   5  -1  15 305.191  20.382   1
  -4   5  15 327.040  20.747   2
   1   4  15 258.306  18.934   6
  -5   1  15 271.393  18.067   6
  -5   4 -15 265.419  17.943   7
   1   4  15 292.498  19.166   1
  -5   1  15 274.401  19.739   2
   1  -5 -15 240.879  16.746   7
  -4   5 -15 265.144  17.326   7
   5  -1 -15 261.870  10.821   7
  -4  -1  15 264.969  19.177   2
  -1   5  15 279.118  18.356   1
  -1   5  15 236.635  18.698   6
  -1  -4 -15 279.122  17.902   7
   5  -4  15 235.967  18.287   1
  -6   6  15 10.0441 10.1390   1
   0  -6  15 -1.9762 11.0876   2
  -6   0 -15 -3.4937 10.1742   7
   6  -6 -15 -9.0052  7.8649   7
  -6   6  15  0.1655 10.9012   2
  -6   6  15 -16.926  10.138   6
   0   6 -15 1.85137 7.54385   7
   6   0  15  4.1380 10.4894   1
  -6   3 -15 41.1003 11.4812   7
   3  -6 -15 36.3123 10.0232   7
  -6   3  15 29.9234 12.7002   2
  -6   3  15 59.4038 12.9204   6
   3   3  15 35.6716 11.9541   1
  -3   6  15 13.6350 10.0576   6
  -3  -3 -15 40.8846 11.3189   7
   6  -3  15 17.7704 11.2226   1
  -3   6 -15 29.8321  9.9460   7
  -3   6  15 56.8751 11.8790   1
   6  -3 -15 40.8821  7.5294   7
  -3  -3  15 33.6258 11.7900   2
  -6   6 -15 2.65076 9.32643   7
   0   6  15 -0.9359  9.4506   1
  -6   6 -15 -20.779   8.333   7
  -6   0  15 -1.5123 10.6458   2
   0  -6 -15 -5.2118  8.6790   7
   0   6  15  9.0541 10.6080   6
   5   2  15 136.958  16.954   1
  -7   2 -15 136.994  16.350   7
   5  -7 -15 146.309  14.215   7
  -7   5  15 155.012  17.047   6
  -7   5  15 129.294  16.674   2
   2   5 -15 164.784  10.894   7
   7  -2  15 139.627  17.183   1
  -5   7  15 144.110  17.068   6
  -5  -2 -15 148.569  16.232   7
  -2  -5  15 167.018  18.252   2
   7  -5 -15 158.807  12.263   7
  -2   7 -15 145.036  14.260   7
  -5   7  15 154.614  16.172   1
   2  -7 -15 195.504  16.998   7
  -7   5 -15 201.932  18.322   7
   2   5  15 185.757  18.120   1
  -7   2  15 210.056  19.425   2
  -2   7  15 195.000  19.085   6
  -2  -5 -15 195.032  17.509   7
  -2   7  15 179.226  17.179   1
  -5   7 -15 215.102  17.622   7
  -5  -2  15 199.859  19.004   2
   7  -5  15 212.344  19.866   1
   7   1  15 38.6480 12.3560   1
   7  -8 -15 6.35114 9.42736   7
  -8   1 -15 35.5241 12.9150   7
  -8   7  15  5.4532 11.9401   6
   1   7 -15 21.0937  8.4122   7
  -8   7  15 15.4945 12.6386   2
   8  -1  15  1.7319 11.5337   1
  -7  -1 -15 12.3245 11.9289   7
  -7   8  15 -2.5250  9.9441   1
   8  -7 -15 14.8322  9.3293   7
  -1   8 -15 8.40317 8.54907   7
  -1  -7  15 14.7391 12.8785   2
  -7   8  15  5.5202 11.9256   6
  -8   4 -15 258.290  20.032   7
   4   4  15 258.764  20.111   1
  -8   4  15 248.051  21.905   2
  -8   4  15 243.209  19.364   6
   4  -8 -15 256.329  17.679   7
  -4   8 -15 253.317  18.038   7
  -4   8  15 249.061  18.787   1
  -4  -4  15 230.356  20.505   2
   8  -4  15 217.983  20.409   1
  -4  -4 -15 238.293  19.183   7
   8  -4 -15 253.826  13.607   7
  -4   8  15 205.173  19.226   6
  -8   7 -15 43.3478 13.2034   7
   1   7  15 19.1797 12.3731   6
  -8   1  15 25.8935 12.2428   2
   1   7  15 11.4057 10.6473   1
  -8   7 -15 12.6558 12.8218   6
   1  -8 -15 15.0024 11.1258   7
  -8   7 -15 21.8310 12.2891   7
  -7  -1  15 25.5154 13.0226   2
  -1  -7 -15  3.2459 10.0529   7
   8  -7  15 20.4256 12.6573   1
  -1   8  15 29.2405 11.0652   1
  -7   8 -15 21.9866 11.2926   7
  -1   8  15  3.9207 11.1931   6
   0   9 -15 -12.895   7.999   7
  -9   9  15 -18.852  11.519   6
  -9   9  15 12.5213 14.1596   2
  -9   0 -15 -1.7634 12.4358   7
   9  -9 -15 2.72910 9.51250   7
   9   0  15  8.9289 12.0460   1
  -9   3 -15 187.886  19.430   7
  -9   6  15 206.074  20.945   2
   6   3  15 228.727  20.679   1
  -9   6  15 200.769  19.522   6
   6  -9 -15 200.304  16.609   7
  -6  -3 -15 190.941  19.461   7
  -3   9 -15 188.001  16.286   7
  -3  -6  15 213.370  20.198   2
   9  -6 -15 186.330  14.529   7
  -6   9  15 196.848  18.433   1
   9  -3  15 161.101  19.002   1
  -6   9  15 207.122  19.355   6
  -9   6 -15 206.396  19.986   7
  -9   6 -15 215.169  21.527   6
   3  -9 -15 203.594  18.203   7
  -9   3  15 213.227  20.978   2
   3   6  15 176.365  18.296   1
  -3  -6 -15 233.613  20.431   7
  -6   9 -15 169.264  16.870   7
   9  -6  15 241.184  22.522   1
  -3   9  15 241.073  21.133   6
  -6  -3  15 240.620  20.053   2
  -3   9  15 219.732  19.792   1
  -9   0  15 -13.753  11.704   2
  -9   9 -15 16.4824 12.1273   7
   0   9  15  0.1677 10.0380   1
   0   9  15  3.8609 12.2071   6
   0  -9 -15 -23.268  10.044   7
   2   8 -15 77.1929 10.3544   7
   8 -10 -15 59.6504 12.5162   7
 -10   2 -15 55.5410 15.7647   7
 -10   8  15 50.2718 14.5700   6
  10  -8 -15 55.6512 11.6926   7
  -2  10 -15 70.2002 12.3710   7
 -10   5  15  4.4050 12.3259   6
   5 -10 -15 -9.8874  9.8905   7
 -10   5  15  6.7360 12.3971   2
 -10   5 -15 14.6818 12.2063   7
   5   5  15 -3.4619 11.2851   1
 -10   5 -15 -0.6424 12.9760   6
  -5  10  15 10.8226 10.8333   1
  10  -5  15 -1.0309 11.9364   1
  10  -5 -15 -3.4664  7.7412   7
  -5  -5 -15 -1.6121 12.0602   7
  -5  10 -15 29.5204 11.0310   7
  -5  -5  15 -2.5845 11.2781   2
  -5  10  15 19.0498 12.0283   6
 -10   8 -15 59.2149 14.8596   7
 -10   8 -15 81.8018 16.3132   7
   2 -10 -15 50.0065 13.4992   7
  -2  10  15 49.1824 15.1306   6
  -8  10 -15 69.5751 14.3959   7
  -2  10  15 52.6097 13.7159   1
  -2  -8 -15 105.441  16.539   7
   0  -1  16 729.061  27.354   6
  -1   1  16 695.188  28.979   2
   1   0  16 727.924  29.843   2
   1   0  16 729.521  26.609   1
   0   1 -16 778.667  22.861   7
   1  -1 -16 739.741  23.146   7
  -1   1  16 728.676  27.657   6
   0  -1  16 674.455  29.472   2
  -1   0 -16 739.778  24.342   7
   2   0 -16 1569.84   33.33   7
   0  -2 -16 1538.04   37.58   7
   0   2  16 1557.31   43.38   2
  -2   2 -16 1454.61   37.10   7
   0   2  16 1533.19   42.15   6
  -2   0  16 1467.18   43.10   2
   0   2  16 1549.89   40.32   1
  -2   0  16 1537.00   40.09   6
   1   2 -16 278.406  13.973   7
   2   1  16 298.841  19.482   1
   2  -3 -16 295.399  16.334   7
  -3   1 -16 271.134  17.468   7
  -3   2  16 283.599  20.055   2
  -3   2  16 289.858  19.418   6
  -2   3  16 315.015  20.667   2
  -1   3 -16 305.781  16.147   7
   3  -2 -16 315.288  14.557   7
  -2   3  16 310.962  19.811   6
  -2   3  16 297.637  18.723   1
  -2  -1 -16 303.371  17.959   7
  -1  -2  16 293.227  20.504   2
   3  -1  16 303.133  19.272   1
   0  -4  16 44.0233 13.7711   2
   4   0  16 80.9116 14.1612   1
   4  -4 -16 71.2665 10.4359   7
   0   4 -16 69.0734  9.5160   7
  -4   4  16 55.8193 13.1486   6
  -4   0 -16 79.9846 13.2130   7
  -4   4  16 44.2293 12.7642   2
   3   1 -16 95.6994  8.4986   7
   1   3  16 66.3423 13.8892   6
  -4   1  16 76.4090 13.3843   6
  -4   3 -16 76.6426 12.8090   7
   1  -4 -16 81.3048 11.9865   7
  -4   1  16 73.2273 13.1967   2
   1   3  16 100.218  14.181   1
  -3   4 -16 70.1917 11.8856   7
  -1   4  16 72.3900 13.0189   1
  -3  -1  16 82.3033 14.2478   2
  -1  -3 -16 90.3306 12.2403   7
  -1   4  16 93.2448 15.1054   2
  -3   4 -16 106.850  13.082   7
   4  -3  16 86.2545 13.4696   1
   4  -1 -16 73.9687  8.3316   7
  -1   4  16 85.1680 14.4197   6
  -5   3  16 1364.93   41.63   2
  -5   2 -16 1331.49   38.26   7
   3   2  16 1256.41   39.31   1
  -5   3  16 1410.11   39.15   6
   2   3 -16 1366.51   28.55   7
   2   3 -16 1372.30   28.63   7
   3  -5 -16 1343.19   34.92   7
  -2  -3  16 1295.14   40.94   2
  -3  -2 -16 1344.04   37.70   7
  -3   5  16 1308.37   39.67   2
  -3   5  16 1358.69   38.23   1
   5  -2  16 1277.48   39.49   1
  -3   5  16 1312.21   39.39   6
   5  -3 -16 1344.55   30.52   7
  -2   5 -16 1352.51   34.31   7
  -5   5 -16 3411.22   69.32   7
  -5   0  16 3242.43   73.82   2
   0  -5 -16 3428.84   69.29   7
   0   5  16 3284.52   70.91   1
  -5   5 -16 3419.91   69.48   7
   0   5  16 3484.29   72.73   6
   5  -6 -16 796.135  26.084   7
  -6   5  16 775.299  30.845   6
  -6   5  16 774.034  31.959   2
  -6   1 -16 770.251  30.364   7
   5   1  16 786.820  31.586   1
   1   5 -16 852.841  23.173   7
  -5   6  16 775.388  30.840   6
  -1   6 -16 780.910  24.942   7
   6  -1  16 771.459  31.445   1
  -5   6  16 822.695  29.679   1
   6  -5 -16 811.627  24.543   7
  -1  -5  16 754.508  31.955   2
  -5   6  16 848.090  32.116   2
  -5  -1 -16 792.537  30.347   7
  -6   2  16 116.445  16.054   2
  -6   2  16 111.714  14.952   6
  -6   4 -16 99.8878 14.5334   7
   2  -6 -16 114.123  13.586   7
   2   4  16 99.7814 14.7420   1
   6  -2 -16 113.695   9.365   7
  -4   6 -16 114.209  14.146   7
   6  -4  16 113.391  15.865   1
  -4  -2  16 101.212  15.486   2
  -2   6  16 134.228  16.602   6
  -2  -4 -16 96.1729 14.2785   7
  -2   6  16 114.886  14.826   1
  -7   0 -16 537.595  27.072   7
  -7   7  16 520.278  27.117   6
   7   0  16 502.184  27.349   1
  -7   7  16 602.433  28.758   2
   0   7 -16 596.774  21.427   7
   7  -7 -16 502.393  21.688   7
  -7   4  16 180.090  19.593   2
   4   3  16 152.645  17.510   1
  -7   3 -16 154.958  17.134   7
  -7   4  16 148.490  17.353   6
   4  -7 -16 140.814  14.514   7
  -4   7  16 129.135  15.643   1
  -3  -4  16 143.386  17.662   2
  -4  -3 -16 123.820  15.596   7
   7  -4 -16 135.759  11.258   7
  -3   7 -16 136.904  14.477   7
   7  -3  16 127.243  17.290   1
  -4   7  16 107.068  15.580   6
  -7   6 -16 88.6310 16.8789   6
  -7   6 -16 92.8258 15.3326   7
   1   6  16 99.1739 16.0626   6
  -7   1  16 76.1576 15.5192   2
   1   6  16 109.929  15.780   1
   1  -7 -16 108.938  14.594   7
  -6   7 -16 61.3877 12.5117   7
  -1   7  16 96.3704 15.0266   1
  -1  -6 -16 77.1585 13.9986   7
  -6  -1  16 75.4952 15.0642   2
  -1   7  16 109.337  16.284   6
   6   2  16 974.452  36.288   1
  -8   6  16 995.003  36.839   2
  -8   6  16 1006.11   35.69   6
   6  -8 -16 959.462  30.878   7
  -8   2 -16 1012.42   36.32   7
  -2  -6  16 994.742  36.817   2
   8  -2  16 1016.05   37.58   1
  -6  -2 -16 1056.30   36.52   7
  -2   8 -16 982.348  30.654   7
  -6   8  16 970.977  34.048   1
  -6   8  16 952.869  35.301   6
   8  -6 -16 980.289  28.145   7
  -8   5 -16 1538.57   44.97   7
   3  -8 -16 1494.52   41.57   7
  -8   3  16 1472.28   46.37   2
  -8   5 -16 1555.23   46.73   6
   3   5  16 1568.45   45.52   1
  -3  -5 -16 1595.81   43.97   7
   8  -5  16 1537.71   46.72   1
  -5  -3  16 1460.78   44.96   2
  -5   8 -16 1501.17   41.64   7
  -3   8  16 1530.44   44.50   1
  -3   8  16 1487.59   44.41   6
   0  -8 -16 2585.39   61.24   7
   0   8  16 2544.56   62.50   1
   0   8  16 2537.56   62.10   6
  -8   0  16 2507.76   64.44   2
   5  -9 -16 76.8796 13.1895   7
  -9   5  16 79.9611 16.1287   2
  -9   4 -16 81.3099 17.2566   6
  -9   4 -16 77.9274 15.2931   7
  -9   5  16 75.4722 15.8770   6
   5   4  16 73.9997 15.4728   1
  -5  -4 -16 62.1367 14.5000   7
   9  -4  16 100.574  16.730   1
  -5   9  16 51.3080 14.3245   6
  -4   9 -16 85.3437 13.3991   7
   9  -5 -16 83.1028 10.7025   7
  -4  -5  16 59.1625 15.0968   2
  -5   9  16 83.4394 14.8067   1
  -1   0  17 14.6350 11.4301   2
   0   1  17 -0.5433 11.4225   2
  -1   0  17 -13.254   9.749   6
  -1   1 -17 -3.4212  7.9986   7
   1   0 -17 14.8715  8.3005   7
   0   1  17  1.3381 10.8427   6
   0  -1 -17 9.24338 9.13177   7
   0   2 -17 0.68198 7.54118   7
  -2   2  17  1.5510 10.7145   6
  -2   2  17  9.3058 11.7069   2
   2  -2 -17 7.40144 8.37746   7
   0  -2  17 -15.134  10.500   2
  -2   0 -17 -5.9255  8.4688   7
   2   0  17 -2.0967 10.1373   1
   1   2  17 127.637  15.598   1
   2   1 -17 135.222  10.755   7
  -3   1  17 111.776  16.136   2
  -3   1  17 136.331  16.289   6
  -3   2 -17 137.249  14.538   7
   1  -3 -17 121.024  13.163   7
  -2   3 -17 111.981  12.622   7
  -1   3  17 134.707  17.309   2
  -1   3  17 122.445  15.094   1
  -1   3  17 97.0081 15.3159   6
  -2  -1  17 126.403  17.108   2
  -1  -2 -17 128.685  14.235   7
   3  -1 -17 122.993  10.996   7
  -4   1 -17 290.772  18.640   7
  -4   3  17 294.473  21.868   2
   3   1  17 302.449  21.089   1
   1   3 -17 266.549  14.396   7
   3  -4 -17 290.765  16.723   7
  -4   3  17 285.719  20.874   6
  -1  -3  17 250.760  22.689   2
   4  -1  17 288.378  20.692   1
  -1   4 -17 294.048  16.608   7
   4  -3 -17 277.932  15.247   7
  -3   4  17 294.131  21.399   2
  -1   4 -17 249.224  16.132   7
  -3  -1 -17 263.051  18.895   7
  -3   4  17 272.210  20.628   6
   0   4  17 10.2933 10.6141   1
  -4   0  17 -9.6981 10.0891   2
  -4   4 -17  2.8244 10.0347   7
   0  -4 -17 -0.6765  9.1673   7
   0   4  17 -9.2537 10.9170   6
  -5   5  17 -12.948  10.151   6
  -5   5  17  9.9992 11.7417   2
   0   5 -17 6.09613 8.49300   7
   5   0  17 -5.3041 10.5913   1
   5  -5 -17 -17.187   7.992   7
  -5   0 -17 -1.1242 10.8341   7
   2   3  17 50.2865 13.1193   1
  -5   3 -17 31.1955 11.4688   7
  -5   2  17 38.7292 12.6731   6
   2  -5 -17 40.2836 10.9259   7
  -5   2  17 38.9794 12.8610   2
  -3  -2  17 30.5709 12.8020   2
  -2   5  17 38.3416 11.4104   1
   5  -3  17 41.8646 12.9280   1
  -3   5 -17 51.0085 11.6548   7
  -3   5 -17 45.0939 11.7328   7
  -2   5  17 39.3887 12.9608   6
  -2  -3 -17 40.4258 11.1214   7
   5  -2 -17 55.4796  8.6062   7
   4  -6 -17 697.511  26.344   7
  -6   4  17 783.056  32.681   2
  -6   2 -17 727.651  29.558   7
   4   2  17 762.084  31.883   1
  -6   4  17 781.127  30.653   6
  -4   6  17 809.473  30.201   1
  -2  -4  17 751.700  32.776   2
  -2   6 -17 778.551  26.569   7
   6  -4 -17 790.324  23.453   7
  -4   6  17 738.755  31.048   6
  -4  -2 -17 757.950  29.822   7
   6  -2  17 795.043  32.472   1
  -6   1  17 -5.1595 11.3381   2
   1   5  17  1.4392 11.4320   1
  -6   5 -17 12.8228 11.1508   7
   1  -6 -17 12.3408 10.4746   7
   1   5  17 19.6064 13.0628   6
  -5   6 -17 30.7228 11.5319   7
  -1  -5 -17 15.0625 10.7834   7
  -5  -1  17 13.1179 11.8450   2
  -1   6  17  7.3648 10.7119   1
  -5   6 -17 17.5257 11.0663   7
  -1   6  17  4.3041 11.3632   6
  -7   6  17 452.520  25.886   6
   6  -7 -17 412.493  20.783   7
  -7   6  17 416.890  25.957   2
   1   6 -17 383.529  17.805   7
   6   1  17 410.284  25.269   1
  -7   1 -17 409.270  24.901   7
  -6   7  17 375.398  24.131   6
  -1   7 -17 441.801  20.236   7
   7  -1  17 378.142  24.692   1
  -6  -1 -17 403.336  24.744   7
   7  -6 -17 407.435  18.879   7
  -7   3  17 317.712  23.136   2
   3  -7 -17 299.398  20.122   7
  -7   4 -17 337.171  22.550   7
   3   4  17 355.077  23.196   1
  -7   3  17 349.126  22.441   6
  -3  -4 -17 359.813  22.491   7
  -3   7  17 322.254  22.460   6
  -3   7  17 332.832  21.992   1
  -4  -3  17 328.990  23.932   2
   7  -4  17 380.241  24.490   1
  -4   7 -17 361.917  20.984   7
   0   0  18 1147.04   40.18   2
   0   0 -18 1230.55   32.73   7
   1   1 -18 24.6210  8.7454   7
   1  -2 -18 11.7054  9.1904   7
  -2   1  18 22.0985 12.6359   6
  -2   1  18 11.0401 12.4761   2
  -2   1 -18 29.1536 10.2890   7
   2  -1 -18 2.61757 8.33318   7
  -1  -1 -18 17.6239  9.9341   7
  -1   2  18 17.8934 12.4339   6
  -1   2  18 29.9294 14.1148   2
  -1  -1  18 29.2270 14.1109   2
  -1   2 -18 13.5771  9.4557   7
   0  -3  18 1247.64   43.08   2
  -3   0 -18 1345.72   38.68   7
   3   0  18 1392.21   41.86   1
   3  -3 -18 1339.49   34.21   7
  -3   3  18 1321.45   40.82   6
  -3   3  18 1354.29   43.23   2
   0   3 -18 1347.45   33.56   7
   0   3  18 1840.85   48.61   1
   0  -3 -18 1805.90   44.94   7
   3   0 -18 1893.06   38.55   7
  -3   0  18 1838.34   52.51   2
   0   3  18 1906.34   51.82   2
   0   3  18 1859.45   50.53   6
  -3   3 -18 1828.97   45.51   7
   2   2 -18 88.7061  9.6708   7
   2  -4 -18 78.7893 12.4670   7
  -4   2 -18 68.8830 12.9626   7
  -4   2  18 63.4276 14.1225   6
   2   2  18 94.5574 15.5317   1
  -4   2  18 61.6478 14.5742   2
  -2   4 -18 78.1002 12.5782   7
  -2   4  18 77.8201 16.0129   2
   4  -2 -18 68.4501 10.1760   7
  -2  -2 -18 77.3737 13.1936   7
  -2  -2  18 66.3224 15.1100   2
  -2   4  18 93.4353 15.8046   6
   4   1  18 16.1964 12.4376   1
   1   4 -18 3.49069 8.38610   7
   4  -5 -18 5.07257 9.14035   7
  -5   1 -18 -9.7933 10.1423   7
  -5   4  18  6.1864 12.2693   6
  -5   4  18 -1.2738 11.8747   2
  -1   5 -18 29.6347 10.5725   7
  -1   5 -18 12.6471 10.1317   7
  -4   5  18 -5.6309 11.4405   6
  -1  -4  18 13.2640 13.0984   2
  -4  -1 -18  1.9359 11.1343   7
   5  -4 -18 13.1528  8.5914   7
  -4   5  18 26.4699 13.3822   2
   5  -1  18 11.4647 12.2168   1
  -5   1  18  5.2176 11.6324   2
  -5   4 -18 12.2685 11.1329   7
   1  -5 -18  4.5570 10.0261   7
   1   4  18 25.9336 12.7633   1
  -4  -1  18 21.3713 12.4861   2
  -4   5 -18 46.1615 12.0780   7
  -1   5  18  8.0012 11.6209   1
  -1  -4 -18 23.2701 10.8818   7
  -1   5  18 26.3892 13.6402   6
  -6   3 -18 576.318  27.165   7
   3  -6 -18 612.119  25.396   7
  -3  -3 -18 533.492  25.614   7
   6  -3 -18 592.758  19.887   7
  -3   6 -18 603.591  25.368   7
   1  -1 -19 -0.0226  8.9932   7
  -1   1  19  1.2305 12.1137   6
   0   1 -19 -2.9208  8.8812   7
  -1   1  19 -4.0837 12.8209   2
  -1   0 -19 -16.705   8.908   7
  -2   0  19 -11.518  11.857   2
   2   0 -19 0.55904 7.74547   7
  -2   2 -19 -8.1239  8.9199   7
   0  -2 -19 -4.0575  8.9828   7
   0   0   0    0.00    0.00   0
;
_shelx_hkl_checksum              37740
#END Tags that were not found in dictionaries
loop_
_space_group_symop_operation_xyz
'x, y, z'
'-y, x-y, z'
'-x+y, -x, z'
'y, x, -z+1/2'
'x-y, -y, -z+1/2'
'-x, -x+y, -z+1/2'
'x+2/3, y+1/3, z+1/3'
'-y+2/3, x-y+1/3, z+1/3'
'-x+y+2/3, -x+1/3, z+1/3'
'y+2/3, x+1/3, -z+5/6'
'x-y+2/3, -y+1/3, -z+5/6'
'-x+2/3, -x+y+1/3, -z+5/6'
'x+1/3, y+2/3, z+2/3'
'-y+1/3, x-y+2/3, z+2/3'
'-x+y+1/3, -x+2/3, z+2/3'
'y+1/3, x+2/3, -z+7/6'
'x-y+1/3, -y+2/3, -z+7/6'
'-x+1/3, -x+y+2/3, -z+7/6'
'-x, -y, -z'
'y, -x+y, -z'
'x-y, x, -z'
'-y, -x, z-1/2'
'-x+y, y, z-1/2'
'x, x-y, z-1/2'
'-x+2/3, -y+1/3, -z+1/3'
'y+2/3, -x+y+1/3, -z+1/3'
'x-y+2/3, x+1/3, -z+1/3'
'-y+2/3, -x+1/3, z-1/6'
'-x+y+2/3, y+1/3, z-1/6'
'x+2/3, x-y+1/3, z-1/6'
'-x+1/3, -y+2/3, -z+2/3'
'y+1/3, -x+y+2/3, -z+2/3'
'x-y+1/3, x+2/3, -z+2/3'
'-y+1/3, -x+2/3, z+1/6'
'-x+y+1/3, y+2/3, z+1/6'
'x+1/3, x-y+2/3, z+1/6'
loop_
_atom_site_label
_atom_site_type_symbol
_atom_site_fract_x
_atom_site_fract_y
_atom_site_fract_z
_atom_site_U_iso_or_equiv
_atom_site_adp_type
_atom_site_occupancy
_atom_site_site_symmetry_order
_atom_site_calc_flag
_atom_site_refinement_flags_posn
_atom_site_refinement_flags_adp
_atom_site_refinement_flags_occupancy
U1 U 0.0000 0.0000 0.2500 0.00588(7) Uani 1 6 d S T P
Mn1 Mn 0.0000 0.0000 0.0000 0.00528(18) Uani 1 6 d S T P
Ba1 Ba 0.04764(2) 0.3333 0.0833 0.00632(6) Uani 1 2 d S T P
S1 S 0.18193(6) 0.15562(6) 0.11827(4) 0.00745(12) Uani 1 1 d . . .
loop_
_atom_site_aniso_label
_atom_site_aniso_U_11
_atom_site_aniso_U_22
_atom_site_aniso_U_33
_atom_site_aniso_U_23
_atom_site_aniso_U_13
_atom_site_aniso_U_12
U1 0.00585(8) 0.00585(8) 0.00592(11) 0.000 0.000 0.00293(4)
Mn1 0.0055(3) 0.0055(3) 0.0048(4) 0.000 0.000 0.00276(14)
Ba1 0.00595(8) 0.00630(11) 0.00683(9) -0.00041(7) -0.00020(4) 0.00315(6)
S1 0.0064(3) 0.0073(3) 0.0079(3) -0.0003(2) 0.0000(2) 0.0028(3)
loop_
_atom_type_symbol
_atom_type_description
_atom_type_scat_dispersion_real
_atom_type_scat_dispersion_imag
_atom_type_scat_source
S S 0.1246 0.1234 'International Tables Vol C Tables 4.2.6.8 and 6.1.1.4'
Mn Mn 0.3368 0.7283 'International Tables Vol C Tables 4.2.6.8 and 6.1.1.4'
Ba Ba -0.3244 2.2819 'International Tables Vol C Tables 4.2.6.8 and 6.1.1.4'
U U -9.6767 9.6646 'International Tables Vol C Tables 4.2.6.8 and 6.1.1.4'
loop_
_geom_angle_atom_site_label_1
_geom_angle_atom_site_label_2
_geom_angle_atom_site_label_3
_geom_angle
_geom_angle_site_symmetry_1
_geom_angle_site_symmetry_3
S1 U1 S1 83.71(3) . 4
S1 U1 S1 81.219(19) . 3
S1 U1 S1 146.84(3) 4 3
S1 U1 S1 81.219(19) . 2
S1 U1 S1 125.29(3) 4 2
S1 U1 S1 81.218(19) 3 2
S1 U1 S1 125.29(3) . 5
S1 U1 S1 81.218(19) 4 5
S1 U1 S1 83.71(3) 3 5
S1 U1 S1 146.84(3) 2 5
S1 U1 S1 146.84(3) . 6
S1 U1 S1 81.218(19) 4 6
S1 U1 S1 125.29(3) 3 6
S1 U1 S1 83.71(3) 2 6
S1 U1 S1 81.218(19) 5 6
S1 U1 Mn1 48.729(13) . .
S1 U1 Mn1 131.272(13) 4 .
S1 U1 Mn1 48.728(13) 3 .
S1 U1 Mn1 48.728(13) 2 .
S1 U1 Mn1 131.272(13) 5 .
S1 U1 Mn1 131.272(13) 6 .
S1 U1 Mn1 131.271(13) . 4
S1 U1 Mn1 48.728(13) 4 4
S1 U1 Mn1 131.272(13) 3 4
S1 U1 Mn1 131.272(13) 2 4
S1 U1 Mn1 48.728(13) 5 4
S1 U1 Mn1 48.728(13) 6 4
Mn1 U1 Mn1 180.0 . 4
S1 U1 Ba1 48.387(14) . 3
S1 U1 Ba1 100.276(14) 4 3
S1 U1 Ba1 48.532(14) 3 3
S1 U1 Ba1 107.527(13) 2 3
S1 U1 Ba1 83.391(13) 5 3
S1 U1 Ba1 164.125(14) 6 3
Mn1 U1 Ba1 58.799(1) . 3
Mn1 U1 Ba1 121.201(1) 4 3
S1 U1 Ba1 83.391(13) . 8
S1 U1 Ba1 48.530(14) 4 8
S1 U1 Ba1 100.278(14) 3 8
S1 U1 Ba1 164.125(14) 2 8
S1 U1 Ba1 48.387(14) 5 8
S1 U1 Ba1 107.526(13) 6 8
Mn1 U1 Ba1 121.202(1) . 8
Mn1 U1 Ba1 58.798(1) 4 8
Ba1 U1 Ba1 64.043(4) 3 8
S1 U1 Ba1 107.529(13) . 2
S1 U1 Ba1 164.124(14) 4 2
S1 U1 Ba1 48.388(14) 3 2
S1 U1 Ba1 48.531(14) 2 2
S1 U1 Ba1 100.276(14) 5 2
S1 U1 Ba1 83.390(13) 6 2
Mn1 U1 Ba1 58.800(1) . 2
Mn1 U1 Ba1 121.200(1) 4 2
Ba1 U1 Ba1 95.594(2) 3 2
Ba1 U1 Ba1 141.943(5) 8 2
S1 U1 Ba1 48.531(14) . .
S1 U1 Ba1 83.391(13) 4 .
S1 U1 Ba1 107.527(13) 3 .
S1 U1 Ba1 48.387(14) 2 .
S1 U1 Ba1 164.125(14) 5 .
S1 U1 Ba1 100.276(14) 6 .
Mn1 U1 Ba1 58.799(1) . .
Mn1 U1 Ba1 121.201(1) 4 .
Ba1 U1 Ba1 95.593(2) 3 .
Ba1 U1 Ba1 117.093(4) 8 .
Ba1 U1 Ba1 95.592(2) 2 .
S1 Mn1 S1 85.722(19) 19 20
S1 Mn1 S1 94.278(19) 19 2
S1 Mn1 S1 180.00(3) 20 2
S1 Mn1 S1 85.722(19) 19 21
S1 Mn1 S1 85.722(19) 20 21
S1 Mn1 S1 94.278(19) 2 21
S1 Mn1 S1 94.278(19) 19 3
S1 Mn1 S1 94.278(19) 20 3
S1 Mn1 S1 85.722(19) 2 3
S1 Mn1 S1 180.00(3) 21 3
S1 Mn1 S1 180.0 19 .
S1 Mn1 S1 94.279(19) 20 .
S1 Mn1 S1 85.721(19) 2 .
S1 Mn1 S1 94.279(19) 21 .
S1 Mn1 S1 85.721(19) 3 .
S1 Mn1 U1 51.762(13) 19 19
S1 Mn1 U1 51.762(13) 20 19
S1 Mn1 U1 128.238(13) 2 19
S1 Mn1 U1 51.762(13) 21 19
S1 Mn1 U1 128.238(13) 3 19
S1 Mn1 U1 128.238(13) . 19
S1 Mn1 U1 128.238(13) 19 .
S1 Mn1 U1 128.238(13) 20 .
S1 Mn1 U1 51.762(13) 2 .
S1 Mn1 U1 128.238(13) 21 .
S1 Mn1 U1 51.762(13) 3 .
S1 Mn1 U1 51.762(13) . .
U1 Mn1 U1 180.0 19 .
S1 Mn1 Ba1 123.804(15) 19 3
S1 Mn1 Ba1 55.086(13) 20 3
S1 Mn1 Ba1 124.914(13) 2 3
S1 Mn1 Ba1 123.652(15) 21 3
S1 Mn1 Ba1 56.348(15) 3 3
S1 Mn1 Ba1 56.196(15) . 3
U1 Mn1 Ba1 106.848(1) 19 3
U1 Mn1 Ba1 73.152(1) . 3
S1 Mn1 Ba1 56.196(15) 19 21
S1 Mn1 Ba1 124.914(13) 20 21
S1 Mn1 Ba1 55.086(13) 2 21
S1 Mn1 Ba1 56.348(15) 21 21
S1 Mn1 Ba1 123.652(15) 3 21
S1 Mn1 Ba1 123.804(15) . 21
U1 Mn1 Ba1 73.152(1) 19 21
U1 Mn1 Ba1 106.848(1) . 21
Ba1 Mn1 Ba1 180.0 3 21
S1 Mn1 Ba1 123.652(15) 19 .
S1 Mn1 Ba1 123.804(14) 20 .
S1 Mn1 Ba1 56.196(14) 2 .
S1 Mn1 Ba1 55.085(13) 21 .
S1 Mn1 Ba1 124.915(13) 3 .
S1 Mn1 Ba1 56.348(15) . .
U1 Mn1 Ba1 106.847(1) 19 .
U1 Mn1 Ba1 73.153(1) . .
Ba1 Mn1 Ba1 111.962(1) 3 .
Ba1 Mn1 Ba1 68.038(1) 21 .
S1 Mn1 Ba1 124.914(13) 19 20
S1 Mn1 Ba1 56.347(15) 20 20
S1 Mn1 Ba1 123.653(15) 2 20
S1 Mn1 Ba1 56.197(14) 21 20
S1 Mn1 Ba1 123.803(14) 3 20
S1 Mn1 Ba1 55.086(13) . 20
U1 Mn1 Ba1 73.152(1) 19 20
U1 Mn1 Ba1 106.848(1) . 20
Ba1 Mn1 Ba1 68.037(1) 3 20
Ba1 Mn1 Ba1 111.963(1) 21 20
Ba1 Mn1 Ba1 68.038(1) . 20
S1 Ba1 S1 70.94(2) 30_455 26_455
S1 Ba1 S1 127.541(9) 30_455 34
S1 Ba1 S1 73.72(2) 26_455 34
S1 Ba1 S1 73.72(2) 30_455 21
S1 Ba1 S1 127.542(9) 26_455 21
S1 Ba1 S1 156.69(2) 34 21
S1 Ba1 S1 71.552(19) 30_455 18_554
S1 Ba1 S1 91.149(14) 26_455 18_554
S1 Ba1 S1 71.72(2) 34 18_554
S1 Ba1 S1 112.781(18) 21 18_554
S1 Ba1 S1 91.149(14) 30_455 2
S1 Ba1 S1 71.553(19) 26_455 2
S1 Ba1 S1 112.781(18) 34 2
S1 Ba1 S1 71.72(2) 21 2
S1 Ba1 S1 159.03(2) 18_554 2
S1 Ba1 S1 142.705(17) 30_455 .
S1 Ba1 S1 122.088(7) 26_455 .
S1 Ba1 S1 89.204(16) 34 .
S1 Ba1 S1 71.63(2) 21 .
S1 Ba1 S1 135.688(6) 18_554 .
S1 Ba1 S1 65.22(2) 2 .
S1 Ba1 S1 122.089(7) 30_455 17_554
S1 Ba1 S1 142.703(17) 26_455 17_554
S1 Ba1 S1 71.63(2) 34 17_554
S1 Ba1 S1 89.205(16) 21 17_554
S1 Ba1 S1 65.22(2) 18_554 17_554
S1 Ba1 S1 135.689(6) 2 17_554
S1 Ba1 S1 70.92(2) . 17_554
S1 Ba1 Mn1 112.705(12) 30_455 16_554
S1 Ba1 Mn1 102.020(12) 26_455 16_554
S1 Ba1 Mn1 41.333(11) 34 16_554
S1 Ba1 Mn1 127.122(12) 21 16_554
S1 Ba1 Mn1 41.226(11) 18_554 16_554
S1 Ba1 Mn1 152.239(10) 2 16_554
S1 Ba1 Mn1 99.088(12) . 16_554
S1 Ba1 Mn1 41.210(11) 17_554 16_554
S1 Ba1 Mn1 102.021(12) 30_455 .
S1 Ba1 Mn1 112.706(12) 26_455 .
S1 Ba1 Mn1 127.122(12) 34 .
S1 Ba1 Mn1 41.332(11) 21 .
S1 Ba1 Mn1 152.238(10) 18_554 .
S1 Ba1 Mn1 41.225(11) 2 .
S1 Ba1 Mn1 41.210(11) . .
S1 Ba1 Mn1 99.089(11) 17_554 .
Mn1 Ba1 Mn1 137.205(6) 16_554 .
S1 Ba1 Ba1 48.482(12) 30_455 21
S1 Ba1 Ba1 79.220(12) 26_455 21
S1 Ba1 Ba1 151.125(11) 34 21
S1 Ba1 Ba1 48.326(12) 21 21
S1 Ba1 Ba1 119.281(12) 18_554 21
S1 Ba1 Ba1 47.235(10) 2 21
S1 Ba1 Ba1 96.848(11) . 21
S1 Ba1 Ba1 136.954(10) 17_554 21
Mn1 Ba1 Ba1 160.086(4) 16_554 21
Mn1 Ba1 Ba1 55.981(1) . 21
S1 Ba1 Ba1 79.217(12) 30_455 26_455
S1 Ba1 Ba1 48.481(12) 26_455 26_455
S1 Ba1 Ba1 48.328(12) 34 26_455
S1 Ba1 Ba1 151.124(11) 21 26_455
S1 Ba1 Ba1 47.236(10) 18_554 26_455
S1 Ba1 Ba1 119.281(12) 2 26_455
S1 Ba1 Ba1 136.954(10) . 26_455
S1 Ba1 Ba1 96.849(11) 17_554 26_455
Mn1 Ba1 Ba1 55.982(1) 16_554 26_455
Mn1 Ba1 Ba1 160.085(4) . 26_455
Ba1 Ba1 Ba1 117.094(4) 21 26_455
Mn1 S1 U1 79.509(17) . .
Mn1 S1 Ba1 168.46(3) . 27
U1 S1 Ba1 102.675(18) . 27
Mn1 S1 Ba1 83.581(16) . 20
U1 S1 Ba1 163.09(2) . 20
Ba1 S1 Ba1 93.882(16) 27 20
Mn1 S1 Ba1 82.578(17) . 3
U1 S1 Ba1 93.320(18) . 3
Ba1 S1 Ba1 108.448(18) 27 3
Ba1 S1 Ba1 84.559(14) 20 3
Mn1 S1 Ba1 82.442(17) . .
U1 S1 Ba1 93.170(17) . .
Ba1 S1 Ba1 86.113(16) 27 .
Ba1 S1 Ba1 84.450(15) 20 .
Ba1 S1 Ba1 162.30(2) 3 .
loop_
_geom_bond_atom_site_label_1
_geom_bond_atom_site_label_2
_geom_bond_distance
_geom_bond_site_symmetry_2
U1 S1 2.7241(6) .
U1 S1 2.7241(6) 4
U1 S1 2.7241(6) 3
U1 S1 2.7241(6) 2
U1 S1 2.7241(6) 5
U1 S1 2.7241(6) 6
U1 Mn1 3.41025(15) .
U1 Mn1 3.41025(15) 4
U1 Ba1 4.38861(16) 3
U1 Ba1 4.38863(16) 8
U1 Ba1 4.38866(16) 2
U1 Ba1 4.38867(16) .
Mn1 S1 2.6067(6) 19
Mn1 S1 2.6067(6) 20
Mn1 S1 2.6067(6) 2
Mn1 S1 2.6067(6) 21
Mn1 S1 2.6067(6) 3
Mn1 S1 2.6067(6) .
Mn1 U1 3.41025(15) 19
Mn1 Ba1 3.92219(17) 3
Mn1 Ba1 3.92219(17) 21
Mn1 Ba1 3.92222(17) .
Mn1 Ba1 3.92224(17) 20
Ba1 S1 3.1324(6) 30_455
Ba1 S1 3.1324(6) 26_455
Ba1 S1 3.2365(6) 34
Ba1 S1 3.2365(6) 21
Ba1 S1 3.2867(7) 18_554
Ba1 S1 3.2867(7) 2
Ba1 S1 3.2935(7) .
Ba1 S1 3.2936(7) 17_554
Ba1 Mn1 3.92221(17) 16_554
Ba1 Ba1 4.38868(17) 21
Ba1 Ba1 4.38866(16) 26_455
S1 Ba1 3.1324(6) 27
S1 Ba1 3.2366(6) 20
S1 Ba1 3.2867(7) 3
