#------------------------------------------------------------------------------
#$Date: 2016-03-24 00:14:39 +0200 (Thu, 24 Mar 2016) $
#$Revision: 179528 $
#$URL: svn://www.crystallography.net/cod/cif/4/34/25/4342580.cif $
#------------------------------------------------------------------------------
#
# This file is available in the Crystallography Open Database (COD),
# http://www.crystallography.net/
#
# All data on this site have been placed in the public domain by the
# contributors.
#
data_4342580
loop_
_publ_author_name
'Oliynyk, Anton O.'
'Stoyko, Stanislav S.'
'Mar, Arthur'
_publ_section_title
;
 Many Metals Make the Cut: Quaternary Rare-Earth Germanides RE4M2InGe4 (M
 = Fe, Co, Ni, Ru, Rh, Ir) and RE4RhInGe4 Derived from Excision of Slabs
 in RE2InGe2.
;
_journal_issue                   6
_journal_name_full               'Inorganic chemistry'
_journal_page_first              2780
_journal_page_last               2792
_journal_paper_doi               10.1021/ic502955h
_journal_volume                  54
_journal_year                    2015
_chemical_formula_structural     'Tb4 Rh In Ge4'
_chemical_formula_sum            'Ge4 In Rh Tb4'
_chemical_formula_weight         1143.77
_chemical_name_common            'terbium rhodium indium germanide (4/1/1/4)'
_chemical_name_systematic        'terbium rhodium indium germanide (4/1/1/4)'
_space_group_crystal_system      monoclinic
_space_group_IT_number           12
_space_group_name_Hall           '-C 2y'
_space_group_name_H-M_alt        'C 1 2/m 1'
_symmetry_space_group_name_Hall  '-C 2y'
_symmetry_space_group_name_H-M   'C 1 2/m 1'
_atom_sites_solution_primary     direct
_atom_sites_solution_secondary   difmap
_audit_creation_method           SHELXL-2013
_cell_angle_alpha                90
_cell_angle_beta                 104.9984(9)
_cell_angle_gamma                90
_cell_formula_units_Z            4
_cell_length_a                   20.2575(12)
_cell_length_b                   4.2641(3)
_cell_length_c                   10.2434(6)
_cell_measurement_reflns_used    3819
_cell_measurement_temperature    173(2)
_cell_measurement_theta_max      32.52
_cell_measurement_theta_min      4.89
_cell_volume                     854.68(9)
_computing_cell_refinement       'Bruker SAINT 8.27B (Bruker, 2011)'
_computing_data_collection       'Bruker APEX 2 (Bruker, 2008)'
_computing_data_reduction        'Bruker SAINT 8.27B'
_computing_molecular_graphics    'ATOMS 5.1 (Dowty, 1999)'
_computing_publication_material  'Bruker SHELXTL'
_computing_structure_refinement  'Bruker SHELXTL'
_computing_structure_solution    'Bruker SHELXTL'
_diffrn_ambient_temperature      173(2)
_diffrn_measured_fraction_theta_full 1.000
_diffrn_measured_fraction_theta_max 0.992
_diffrn_measurement_device_type  'Bruker PLATFORM/SMART APEX II CCD'
_diffrn_measurement_method       '\w and \f scans'
_diffrn_radiation_type           MoK\a
_diffrn_radiation_wavelength     0.71073
_diffrn_reflns_av_R_equivalents  0.0346
_diffrn_reflns_av_unetI/netI     0.0303
_diffrn_reflns_Laue_measured_fraction_full 1.000
_diffrn_reflns_Laue_measured_fraction_max 0.992
_diffrn_reflns_limit_h_max       30
_diffrn_reflns_limit_h_min       -30
_diffrn_reflns_limit_k_max       6
_diffrn_reflns_limit_k_min       -6
_diffrn_reflns_limit_l_max       15
_diffrn_reflns_limit_l_min       -15
_diffrn_reflns_number            6268
_diffrn_reflns_point_group_measured_fraction_full 1.000
_diffrn_reflns_point_group_measured_fraction_max 0.992
_diffrn_reflns_theta_full        25.242
_diffrn_reflns_theta_max         33.116
_diffrn_reflns_theta_min         2.058
_diffrn_source                   'fine-focus sealed tube'
_exptl_absorpt_coefficient_mu    50.891
_exptl_absorpt_correction_T_max  0.2616
_exptl_absorpt_correction_T_min  0.1148
_exptl_absorpt_correction_type   numerical
_exptl_absorpt_process_details   'Bruker SHELXTL (Sheldrick, 2013)'
_exptl_crystal_colour            grey
_exptl_crystal_density_diffrn    8.889
_exptl_crystal_density_method    'not measured'
_exptl_crystal_description       irregular
_exptl_crystal_F_000             1928
_exptl_crystal_size_max          0.075
_exptl_crystal_size_mid          0.055
_exptl_crystal_size_min          0.036
_refine_diff_density_max         3.029
_refine_diff_density_min         -1.811
_refine_diff_density_rms         0.450
_refine_ls_extinction_coef       0.00025(2)
_refine_ls_extinction_expression Fc^*^=kFc[1+0.001xFc^2^\l^3^/sin(2\q)]^-1/4^
_refine_ls_extinction_method     SHELXL
_refine_ls_goodness_of_fit_ref   1.044
_refine_ls_hydrogen_treatment    undef
_refine_ls_matrix_type           full
_refine_ls_number_parameters     64
_refine_ls_number_reflns         1802
_refine_ls_number_restraints     0
_refine_ls_restrained_S_all      1.044
_refine_ls_R_factor_all          0.0307
_refine_ls_R_factor_gt           0.0244
_refine_ls_shift/su_max          0.001
_refine_ls_shift/su_mean         0.000
_refine_ls_structure_factor_coef Fsqd
_refine_ls_weighting_details
'w=1/[\s^2^(Fo^2^)+(0.0276P)^2^+1.9080P] where P=(Fo^2^+2Fc^2^)/3'
_refine_ls_weighting_scheme      calc
_refine_ls_wR_factor_gt          0.0553
_refine_ls_wR_factor_ref         0.0576
_reflns_Friedel_coverage         0.000
_reflns_number_gt                1539
_reflns_number_total             1802
_reflns_threshold_expression     'I > 2\s(I)'
_cod_data_source_file            ic502955h_si_006.cif
_cod_data_source_block           Tb4RhInGe4
_cod_depositor_comments
'Adding full bibliography for 4342570--4342590.cif.'
_cod_database_code               4342580
#BEGIN Tags that were not found in dictionaries:
_shelx_space_group_comment
;
The symmetry employed for this shelxl refinement is uniquely defined
by the following loop, which should always be used as a source of
symmetry information in preference to the above space-group names.
They are only intended as comments.
;
_shelx_estimated_absorpt_t_min   0.115
_shelx_estimated_absorpt_t_max   0.262
_shelxl_version_number           2013-4
_shelx_res_file
;
TITL Tb4RhInGe4 C2/m lsf final refinement
CELL 0.71073  20.25750   4.26410  10.24340  90.0000 104.9984  90.0000
ZERR    4.00   0.00120   0.00030   0.00060   0.0000   0.0009   0.0000
LATT  7
SYMM -X, Y, -Z
SFAC GE RH IN TB
UNIT 16 4 4 16
TEMP -100
SIZE 0.036 0.055 0.075

L.S. 4
ACTA

WGHT    0.027600    1.908000
EXTI    0.000247
FVAR       0.02478
TB1   4    0.278300    0.000000    0.655914    10.50000    0.00660    0.00965 =
         0.00744    0.00000    0.00195    0.00000
TB2   4    0.371321    0.000000    0.006946    10.50000    0.00809    0.00765 =
         0.00578    0.00000    0.00255    0.00000
TB3   4    0.372792    0.000000    0.359466    10.50000    0.00981    0.00883 =
         0.00711    0.00000    0.00307    0.00000
TB4   4    0.541202    0.000000    0.272059    10.50000    0.00623    0.00927 =
         0.01102    0.00000    0.00224    0.00000
RH    2    0.240583    0.000000    0.106802    10.50000    0.00695    0.00868 =
         0.00824    0.00000    0.00243    0.00000
IN1   3    0.000000    0.000000    0.500000    10.25000    0.00843    0.01615 =
         0.00856    0.00000    0.00099    0.00000
IN2   3    0.000000    0.000000    0.000000    10.25000    0.00871    0.01823 =
         0.01098    0.00000    0.00285    0.00000
GE1   1    0.063202    0.000000    0.785190    10.50000    0.00737    0.00878 =
         0.01256    0.00000    0.00046    0.00000
GE2   1    0.132068    0.000000    0.189529    10.50000    0.01356    0.00781 =
         0.00855    0.00000    0.00575    0.00000
GE3   1    0.143024    0.000000    0.449978    10.50000    0.01134    0.00821 =
         0.00738    0.00000    0.00358    0.00000
GE4   1    0.804144    0.000000    0.149070    10.50000    0.00796    0.00780 =
         0.00765    0.00000    0.00214    0.00000
HKLF 4

REM  Tb4RhInGe4 C2/m lsf final refinement
REM R1 =  0.0244 for    1539 Fo > 4sig(Fo)  and  0.0307 for all    1802 data
REM     64 parameters refined using      0 restraints

END

WGHT      0.0276      1.9133

REM Highest difference peak  3.029,  deepest hole -1.811,  1-sigma level  0.450
Q1    1   0.4106  0.0000  0.0318  10.50000  0.05    3.03
Q2    1   0.3736  0.1762  0.0132  11.00000  0.05    2.49
Q3    1   0.2808  0.1670  0.6668  11.00000  0.05    2.38
Q4    1   0.3772  0.1740  0.3660  11.00000  0.05    2.38
Q5    1   0.3335  0.0000  0.3248  10.50000  0.05    2.33
Q6    1   0.2455  0.0000  0.6247  10.50000  0.05    2.31
Q7    1   0.3386  0.0000 -0.0239  10.50000  0.05    2.31
Q8    1   0.3157  0.0000  0.6891  10.50000  0.05    2.26
Q9    1   0.4110  0.0000  0.3844  10.50000  0.05    2.25
Q10   1   0.5342 -0.1729  0.2820  11.00000  0.05    2.15
Q11   1   0.5032  0.0000  0.2418  10.50000  0.05    2.08
Q12   1   0.8434  0.0000  0.1785  10.50000  0.05    2.01
Q13   1   0.1997  0.0000  0.0936  10.50000  0.05    1.98
Q14   1   0.0317  0.0000  0.5257  10.50000  0.05    1.95
Q15   1   0.5809  0.0000  0.3041  10.50000  0.05    1.93
Q16   1   0.0677  0.1245  0.1203  11.00000  0.05    1.80
Q17   1   0.0990  0.0000  0.1509  10.50000  0.05    1.73
Q18   1   0.2015  0.0000  0.5988  10.50000  0.05    1.71
Q19   1   0.1827  0.0000  0.4980  10.50000  0.05    1.65
Q20   1   0.0204  0.0000  0.7090  10.50000  0.05    1.62
;
_shelx_res_checksum              51811
_shelx_hkl_file
;
   1  -1 -15   15.21    2.09
   3  -1 -15    2.47    0.94
   5  -1 -15   23.80    2.53
   7  -1 -15    0.31    0.53
   9  -1 -15   -0.14    0.52
  11  -1 -15   15.09    2.01
   0   0 -15    4.34    0.86
   2   0 -15    7.97    1.08
   4   0 -15    0.39    0.43
   6   0 -15   29.16    1.70
   8   0 -15    7.41    0.97
  10   0 -15    2.77    0.97
  12   0 -15    5.03    1.22
   1   1 -15   18.29    2.41
   3   1 -15    3.40    0.75
   5   1 -15   28.63    1.82
   7   1 -15    0.60    0.47
   9   1 -15    0.21    0.39
  11   1 -15   18.14    1.53
   7  -3 -14    2.24    0.96
  -2  -2 -14   24.52    2.83
   0  -2 -14   33.88    1.92
   2  -2 -14    0.12    0.54
   4  -2 -14    3.37    0.99
   6  -2 -14   -0.62    0.47
   8  -2 -14    6.12    1.24
  10  -2 -14    6.01    0.90
  12  -2 -14    9.84    1.16
  14  -2 -14   29.53    1.80
  16  -2 -14   27.01    1.73
  -5  -1 -14    2.02    0.90
  -3  -1 -14   12.94    1.49
  -1  -1 -14   26.34    1.94
   1  -1 -14    2.13    0.61
   3  -1 -14   27.49    1.59
   5  -1 -14   24.13    1.50
   7  -1 -14    6.16    1.22
   9  -1 -14    0.09    0.45
  11  -1 -14   86.56    4.45
  13  -1 -14    0.57    0.52
  15  -1 -14    0.77    0.43
  17  -1 -14   13.78    1.42
  19  -1 -14   36.14    2.30
  -6   0 -14   14.29    1.81
  -4   0 -14    5.90    0.97
  -2   0 -14   31.56    1.90
   0   0 -14   37.81    2.01
   2   0 -14    1.75    0.56
   4   0 -14    4.33    0.75
   6   0 -14   -0.20    0.30
   8   0 -14    7.60    0.93
  10   0 -14    7.65    1.31
  12   0 -14    9.87    1.52
  14   0 -14   34.39    2.52
  16   0 -14   29.89    2.44
  18   0 -14    0.61    0.49
  20   0 -14    1.36    1.14
  -5   1 -14    6.77    2.12
  -3   1 -14   13.06    2.27
  -1   1 -14   23.82    1.90
   1   1 -14    1.85    0.63
   3   1 -14   29.52    1.86
   5   1 -14   22.27    1.53
   7   1 -14    5.73    0.89
   9   1 -14    0.37    0.37
  11   1 -14   87.37    3.19
  13   1 -14    1.11    0.45
  15   1 -14    1.27    0.70
  17   1 -14   11.75    1.83
   0   2 -14   37.36    3.13
   2   2 -14    1.63    0.82
   4   2 -14    4.78    1.22
   6   2 -14   -0.14    0.41
   8   2 -14    5.66    0.90
  10   2 -14    6.28    0.92
  12   2 -14   11.37    1.20
  14   2 -14   27.74    1.81
  16   2 -14   17.10    2.07
   1  -3 -13    3.91    1.15
   3  -3 -13    0.36    0.56
   5  -3 -13   29.82    1.81
   7  -3 -13    9.60    1.10
   9  -3 -13    1.64    0.52
  11  -3 -13    6.35    0.87
  13  -3 -13    0.14    0.37
  15  -3 -13   11.65    1.24
  -6  -2 -13    2.09    0.71
  -4  -2 -13    9.48    1.28
  -2  -2 -13   -0.10    0.40
   0  -2 -13   11.21    1.21
   2  -2 -13    3.72    0.67
   4  -2 -13   16.77    1.97
   6  -2 -13    8.97    1.41
   8  -2 -13    6.43    0.87
  10  -2 -13   11.11    1.15
  12  -2 -13    0.50    0.36
  14  -2 -13    0.21    0.32
  16  -2 -13    6.14    0.85
  18  -2 -13   -0.13    0.38
  20  -2 -13    2.68    0.81
  -9  -1 -13   -0.33    0.63
  -7  -1 -13   18.17    1.55
  -5  -1 -13    0.77    0.53
  -3  -1 -13    1.10    0.49
  -1  -1 -13    2.05    0.61
   1  -1 -13    4.00    0.71
   3  -1 -13    0.14    0.29
   5  -1 -13   44.64    1.93
   7  -1 -13   13.35    1.73
   9  -1 -13    2.41    0.77
  11  -1 -13   10.15    1.10
  13  -1 -13    0.20    0.33
  15  -1 -13   15.66    1.41
  17  -1 -13    3.62    0.69
  19  -1 -13    7.50    1.04
  21  -1 -13    0.75    0.46
  -8   0 -13    0.60    0.76
  -6   0 -13    3.82    0.81
  -4   0 -13   14.20    1.32
  -2   0 -13   -0.19    0.35
   0   0 -13   15.96    1.43
   2   0 -13    3.12    0.63
   4   0 -13   21.12    1.40
   6   0 -13   11.45    1.11
   8   0 -13   10.32    1.01
  10   0 -13    9.72    0.98
  12   0 -13    0.74    0.55
  14   0 -13   -0.01    0.38
  16   0 -13    6.15    0.96
  18   0 -13   -0.25    0.35
  20   0 -13    4.47    0.86
  22   0 -13    7.10    1.12
  -9   1 -13    0.51    1.43
  -7   1 -13   11.25    1.70
  -5   1 -13    1.16    0.72
  -3   1 -13    1.43    0.65
  -1   1 -13    2.36    0.55
   1   1 -13    3.32    0.66
   3   1 -13    0.25    0.34
   5   1 -13   45.56    2.02
   7   1 -13   10.72    1.07
   9   1 -13    1.92    0.46
  11   1 -13    8.08    0.94
  13   1 -13    0.16    0.33
  15   1 -13   14.88    2.02
  17   1 -13    3.14    0.98
  19   1 -13    8.09    1.18
  21   1 -13    1.05    0.57
  23   1 -13    2.11    1.18
  -6   2 -13    5.17    1.77
  -4   2 -13   12.22    1.57
  -2   2 -13    0.20    0.53
   0   2 -13   10.96    1.87
   2   2 -13    2.06    0.89
   4   2 -13   15.84    1.40
   6   2 -13    9.53    1.11
   8   2 -13    8.14    1.03
  10   2 -13   10.68    1.15
  12   2 -13    1.07    0.47
  14   2 -13    0.67    0.41
  16   2 -13    4.80    0.80
  18   2 -13    1.23    0.81
  -3   3 -13    1.11    1.01
   1   3 -13    1.81    0.96
   3   3 -13   -0.45    0.56
   5   3 -13   25.92    2.83
   7   3 -13   11.89    1.90
   9   3 -13    0.58    0.61
  11   3 -13    5.85    0.96
  13   3 -13    0.22    0.42
  15   3 -13   12.96    1.39
   0  -4 -12    4.71    1.23
   2  -4 -12    0.25    0.42
   4  -4 -12    0.84    0.50
   6  -4 -12   49.00    2.22
   8  -4 -12    2.59    0.63
  -7  -3 -12   25.29    3.09
  -5  -3 -12   27.85    2.15
  -3  -3 -12    2.86    0.69
  -1  -3 -12   20.08    2.31
   1  -3 -12    6.79    0.95
   3  -3 -12   25.82    1.49
   5  -3 -12   14.13    1.26
   7  -3 -12    8.84    0.97
   9  -3 -12    4.97    0.74
  11  -3 -12   23.40    1.49
  13  -3 -12    7.19    0.89
  15  -3 -12    5.55    0.81
  17  -3 -12   82.50    4.40
 -10  -2 -12    3.28    1.24
  -8  -2 -12    7.08    1.15
  -6  -2 -12   24.78    1.99
  -4  -2 -12    4.52    0.88
  -2  -2 -12    2.22    0.57
   0  -2 -12    4.72    0.75
   2  -2 -12    0.11    0.31
   4  -2 -12    2.46    0.52
   6  -2 -12   81.93    2.86
   8  -2 -12    4.28    0.67
  10  -2 -12   17.59    1.36
  12  -2 -12    7.45    0.90
  14  -2 -12   18.78    1.29
  16  -2 -12    3.39    0.64
  18  -2 -12    0.68    0.41
  20  -2 -12   14.00    1.33
  22  -2 -12   25.06    3.25
 -11  -1 -12   18.41    1.92
  -9  -1 -12    5.20    0.99
  -7  -1 -12   30.56    2.07
  -5  -1 -12   49.75    2.42
  -3  -1 -12    5.13    0.85
  -1  -1 -12   21.42    1.46
   1  -1 -12   11.83    1.10
   3  -1 -12   33.86    1.61
   5  -1 -12   17.56    1.16
   7  -1 -12   10.12    0.79
   9  -1 -12    7.32    0.86
  11  -1 -12   35.80    1.69
  13  -1 -12   12.22    1.15
  15  -1 -12    7.56    0.90
  17  -1 -12  112.03    3.77
  19  -1 -12    7.52    0.97
  21  -1 -12    5.91    0.89
  23  -1 -12    1.02    0.49
  25  -1 -12   34.93    2.25
 -12   0 -12    2.19    0.95
 -10   0 -12    4.89    1.19
  -8   0 -12    8.99    1.08
  -6   0 -12   33.82    1.81
  -4   0 -12    4.95    0.74
  -2   0 -12    2.21    0.48
   0   0 -12    6.92    0.77
   2   0 -12    0.09    0.22
   4   0 -12    2.84    0.55
   6   0 -12   92.54    3.18
   8   0 -12    5.28    0.69
  10   0 -12   22.45    1.19
  12   0 -12    8.02    0.96
  14   0 -12   24.20    1.56
  16   0 -12    3.28    0.71
  18   0 -12    0.80    0.41
  20   0 -12   14.87    1.44
  22   0 -12   33.68    2.06
  24   0 -12    1.51    0.59
 -11   1 -12   21.79    2.58
  -9   1 -12    3.93    1.06
  -7   1 -12   31.86    2.56
  -5   1 -12   48.00    2.72
  -3   1 -12    4.90    0.72
  -1   1 -12   24.97    1.39
   1   1 -12   12.79    1.00
   3   1 -12   34.98    1.69
   5   1 -12   17.10    1.30
   7   1 -12    9.04    0.96
   9   1 -12    8.75    0.89
  11   1 -12   33.63    1.61
  13   1 -12   12.98    1.12
  15   1 -12    9.10    0.83
  17   1 -12  109.81    4.01
  19   1 -12    7.59    1.06
  21   1 -12    5.58    0.94
  23   1 -12    0.73    0.58
 -10   2 -12    2.04    1.15
  -8   2 -12    7.59    1.47
  -6   2 -12   29.84    2.57
  -4   2 -12    4.76    0.99
  -2   2 -12    1.95    0.63
   0   2 -12    4.40    0.78
   2   2 -12    0.08    0.31
   4   2 -12    2.98    0.62
   6   2 -12   78.64    2.95
   8   2 -12    3.15    0.61
  10   2 -12   19.34    1.33
  12   2 -12    8.94    1.02
  14   2 -12   22.06    1.43
  16   2 -12    3.75    0.70
  18   2 -12    0.92    0.47
  20   2 -12   11.54    1.51
  22   2 -12   24.74    3.40
  -5   3 -12   32.02    2.57
  -3   3 -12    4.18    0.89
  -1   3 -12   14.56    1.48
   1   3 -12    8.53    1.10
   3   3 -12   23.51    2.52
   5   3 -12   16.42    2.01
   7   3 -12    7.94    1.42
   9   3 -12    4.16    0.74
  11   3 -12   23.69    1.64
  13   3 -12    5.78    0.87
  15   3 -12    6.25    0.92
  17   3 -12   74.78    3.09
  19   3 -12    4.63    1.10
   0   4 -12    2.98    1.14
  -4  -4 -11    7.79    1.59
  -2  -4 -11    0.32    0.44
   0  -4 -11   51.93    2.33
   2  -4 -11    0.21    0.37
   4  -4 -11   17.46    1.44
   6  -4 -11    0.59    0.40
   8  -4 -11   47.45    2.09
  10  -4 -11   27.24    2.23
  12  -4 -11   11.44    1.70
  14  -4 -11   -0.45    0.39
  -9  -3 -11    2.00    0.74
  -7  -3 -11    1.56    0.65
  -5  -3 -11    0.40    0.47
  -3  -3 -11   21.22    1.37
  -1  -3 -11   81.29    2.43
   1  -3 -11    0.12    0.29
   3  -3 -11    8.83    0.96
   5  -3 -11    6.31    0.81
   7  -3 -11    4.38    0.66
   9  -3 -11    0.37    0.29
  11  -3 -11   30.93    1.54
  13  -3 -11   17.51    1.20
  15  -3 -11    2.43    0.55
  17  -3 -11    3.86    1.08
  19  -3 -11    3.86    1.08
  21  -3 -11    0.39    1.23
 -12  -2 -11   59.94    2.96
 -10  -2 -11    6.26    1.10
  -8  -2 -11   19.34    1.80
  -6  -2 -11    4.34    0.84
  -4  -2 -11   13.95    1.34
  -2  -2 -11    1.27    0.44
   0  -2 -11   82.42    2.37
   2  -2 -11    0.49    0.24
   4  -2 -11   26.73    1.08
   6  -2 -11    0.58    0.32
   8  -2 -11   76.41    2.65
  10  -2 -11   42.85    1.82
  12  -2 -11   21.87    1.24
  14  -2 -11    0.80    0.35
  16  -2 -11    5.13    0.74
  18  -2 -11    1.91    0.45
  20  -2 -11   38.93    1.69
  22  -2 -11   61.63    3.06
  24  -2 -11    5.87    1.97
 -13  -1 -11   33.33    2.55
 -11  -1 -11    3.85    0.89
  -9  -1 -11    3.60    0.80
  -7  -1 -11    2.75    0.70
  -5  -1 -11   -0.15    0.35
  -3  -1 -11   22.36    1.50
  -1  -1 -11  116.65    3.77
   1  -1 -11    0.06    0.24
   3  -1 -11   15.54    1.18
   5  -1 -11    9.09    0.68
   7  -1 -11    5.40    0.54
   9  -1 -11    0.35    0.28
  11  -1 -11   46.97    1.90
  13  -1 -11   24.73    1.33
  15  -1 -11    2.22    0.47
  17  -1 -11    7.16    0.77
  19  -1 -11    5.13    0.69
  21  -1 -11    0.65    0.37
  23  -1 -11   20.21    1.45
  25  -1 -11    5.58    0.84
 -14   0 -11    0.41    0.65
 -12   0 -11   79.84    5.24
 -10   0 -11    6.11    0.88
  -8   0 -11   27.23    1.81
  -6   0 -11    3.06    0.61
  -4   0 -11   19.56    1.39
  -2   0 -11    1.65    0.40
   0   0 -11   93.69    2.78
   2   0 -11    0.57    0.25
   4   0 -11   32.24    1.47
   6   0 -11    0.44    0.26
   8   0 -11   98.85    2.60
  10   0 -11   54.01    1.71
  12   0 -11   28.00    1.12
  14   0 -11    0.17    0.28
  16   0 -11    8.46    0.84
  18   0 -11    2.47    0.54
  20   0 -11   44.88    1.91
  22   0 -11   70.86    2.59
  24   0 -11    3.88    0.72
  26   0 -11    9.43    1.11
 -13   1 -11   25.52    2.67
 -11   1 -11    3.26    1.04
  -9   1 -11    2.93    0.97
  -7   1 -11    2.22    0.69
  -5   1 -11    0.34    0.32
  -3   1 -11   23.00    1.24
  -1   1 -11  113.38    3.19
   1   1 -11    0.06    0.21
   3   1 -11   12.82    0.92
   5   1 -11    8.48    0.84
   7   1 -11    5.75    0.72
   9   1 -11    0.40    0.26
  11   1 -11   43.31    1.69
  13   1 -11   25.29    1.21
  15   1 -11    3.25    0.49
  17   1 -11    6.17    0.95
  19   1 -11    6.33    0.96
  21   1 -11    0.68    0.44
  23   1 -11   21.06    1.82
  25   1 -11    5.71    1.03
 -12   2 -11   50.71    3.65
 -10   2 -11    5.17    1.26
  -8   2 -11   23.10    2.32
  -6   2 -11    2.77    0.83
  -4   2 -11   18.61    1.75
  -2   2 -11    1.23    0.49
   0   2 -11   83.44    3.19
   2   2 -11    0.70    0.29
   4   2 -11   25.21    1.39
   6   2 -11    0.61    0.34
   8   2 -11   72.83    2.70
  10   2 -11   42.95    1.89
  12   2 -11   22.89    1.39
  14   2 -11    0.22    0.28
  16   2 -11    5.00    0.71
  18   2 -11    1.89    0.46
  20   2 -11   40.89    1.83
  22   2 -11   62.50    2.95
  24   2 -11    4.97    1.52
  -9   3 -11    1.99    0.73
  -7   3 -11    2.09    0.67
  -5   3 -11   -0.09    0.43
  -3   3 -11   15.74    1.57
  -1   3 -11   81.51    3.23
   1   3 -11    0.22    0.41
   3   3 -11   10.16    1.12
   5   3 -11    5.56    1.15
   7   3 -11    3.86    0.69
   9   3 -11   -0.05    0.30
  11   3 -11   30.97    1.68
  13   3 -11   16.01    1.41
  15   3 -11    2.11    0.57
  17   3 -11    4.24    0.81
  19   3 -11    4.34    0.80
  21   3 -11   -0.10    0.57
  -4   4 -11    8.80    1.30
  -2   4 -11    0.66    0.54
   0   4 -11   50.37    2.54
   2   4 -11   -0.12    0.40
   4   4 -11   16.01    2.18
   6   4 -11    0.31    0.56
   8   4 -11   44.96    3.20
  10   4 -11   30.17    2.55
  12   4 -11   12.17    1.95
  14   4 -11   -0.17    0.47
  16   4 -11    3.89    1.44
  -8  -4 -10   26.02    2.08
  -6  -4 -10    1.91    0.55
  -4  -4 -10   10.26    1.18
  -2  -4 -10   15.99    1.44
   0  -4 -10   -0.02    0.34
   2  -4 -10    0.89    0.39
   4  -4 -10    5.41    0.76
   6  -4 -10    2.31    0.54
   8  -4 -10   -0.11    0.26
  10  -4 -10   -0.65    0.38
  12  -4 -10   10.28    1.55
  14  -4 -10    2.06    0.81
  16  -4 -10   24.38    2.49
 -11  -3 -10    3.01    0.79
  -9  -3 -10    2.80    0.75
  -7  -3 -10   10.43    1.30
  -5  -3 -10   -0.05    0.29
  -3  -3 -10    1.47    0.39
  -1  -3 -10    7.83    0.75
   1  -3 -10    2.87    0.45
   3  -3 -10    6.04    0.71
   5  -3 -10   23.13    1.26
   7  -3 -10    0.41    0.25
   9  -3 -10   38.33    1.68
  11  -3 -10    4.93    0.73
  13  -3 -10   37.38    1.64
  15  -3 -10   12.27    1.10
  17  -3 -10    6.17    1.01
  19  -3 -10   10.62    1.40
  21  -3 -10    0.93    0.58
  23  -3 -10    2.85    1.60
 -16  -2 -10   16.54    2.67
 -14  -2 -10    7.24    1.18
 -12  -2 -10   19.47    1.88
 -10  -2 -10    1.95    0.67
  -8  -2 -10   43.45    2.24
  -6  -2 -10    1.59    0.58
  -4  -2 -10   18.43    1.54
  -2  -2 -10   30.05    1.23
   0  -2 -10    0.37    0.22
   2  -2 -10    4.08    0.48
   4  -2 -10    9.56    0.69
   6  -2 -10    2.81    0.46
   8  -2 -10    0.34    0.25
  10  -2 -10    0.49    0.27
  12  -2 -10   21.15    1.23
  14  -2 -10    6.35    0.66
  16  -2 -10   43.40    1.63
  18  -2 -10    3.22    0.49
  20  -2 -10   11.57    0.99
  22  -2 -10    0.20    0.45
  24  -2 -10    5.40    1.03
 -15  -1 -10    0.49    0.56
 -13  -1 -10    1.95    0.71
 -11  -1 -10    2.53    0.70
  -9  -1 -10    3.67    0.80
  -7  -1 -10   15.48    1.44
  -5  -1 -10    0.79    0.41
  -3  -1 -10    3.28    0.59
  -1  -1 -10   13.66    1.13
   1  -1 -10    3.95    0.45
   3  -1 -10   10.73    0.73
   5  -1 -10   36.72    1.23
   7  -1 -10    0.53    0.20
   9  -1 -10   59.18    1.66
  11  -1 -10    6.49    0.72
  13  -1 -10   54.58    1.79
  15  -1 -10   17.74    1.05
  17  -1 -10   10.13    0.92
  19  -1 -10   11.56    0.98
  21  -1 -10    0.86    0.39
  23  -1 -10    3.94    0.66
  25  -1 -10    0.81    0.45
  27  -1 -10   13.30    2.68
 -16   0 -10   19.40    2.12
 -14   0 -10    7.65    1.41
 -12   0 -10   16.58    1.87
 -10   0 -10    2.11    0.56
  -8   0 -10   49.18    2.05
  -6   0 -10    3.23    0.59
  -4   0 -10   20.01    1.22
  -2   0 -10   38.97    1.56
   0   0 -10    0.20    0.22
   2   0 -10    5.49    0.58
   4   0 -10   13.52    0.80
   6   0 -10    3.44    0.41
   8   0 -10   -0.04    0.16
  10   0 -10    0.32    0.19
  12   0 -10   25.60    0.92
  14   0 -10    7.06    0.72
  16   0 -10   52.04    1.85
  18   0 -10    4.27    0.59
  20   0 -10   12.63    1.12
  22   0 -10    0.19    0.34
  24   0 -10   11.03    1.13
  26   0 -10    2.25    0.62
  28   0 -10    0.07    0.61
 -17   1 -10   21.50    3.20
 -15   1 -10   -0.11    0.75
 -13   1 -10    3.67    1.22
 -11   1 -10    2.11    0.83
  -9   1 -10    2.40    0.81
  -7   1 -10   15.52    1.74
  -5   1 -10    0.25    0.29
  -3   1 -10    3.59    0.53
  -1   1 -10   12.46    0.91
   1   1 -10    3.94    0.48
   3   1 -10   11.08    0.80
   5   1 -10   35.25    1.27
   7   1 -10    0.40    0.27
   9   1 -10   55.83    1.82
  11   1 -10    8.17    0.69
  13   1 -10   53.45    1.74
  15   1 -10   15.36    0.94
  17   1 -10    7.52    0.73
  19   1 -10   11.94    1.24
  21   1 -10    0.97    0.44
  23   1 -10    3.05    0.71
  25   1 -10    0.52    0.48
  27   1 -10    8.82    1.61
 -16   2 -10    9.21    2.40
 -14   2 -10    4.70    1.42
 -12   2 -10   10.71    1.80
 -10   2 -10    2.21    0.84
  -8   2 -10   40.60    2.63
  -6   2 -10    2.99    0.75
  -4   2 -10   18.19    1.62
  -2   2 -10   29.57    1.68
   0   2 -10    0.48    0.24
   2   2 -10    3.85    0.50
   4   2 -10    9.66    0.78
   6   2 -10    2.13    0.48
   8   2 -10    0.09    0.21
  10   2 -10    0.17    0.23
  12   2 -10   17.56    1.10
  14   2 -10    5.83    0.69
  16   2 -10   37.22    1.64
  18   2 -10    4.92    0.68
  20   2 -10   11.12    1.00
  22   2 -10    0.27    0.46
  24   2 -10    6.67    1.15
 -13   3 -10    2.40    1.18
 -11   3 -10    2.85    0.84
  -9   3 -10    3.26    0.79
  -7   3 -10   14.37    1.41
  -5   3 -10    0.16    0.36
  -3   3 -10    2.72    0.60
  -1   3 -10    8.99    1.07
   1   3 -10    2.26    0.57
   3   3 -10    6.51    0.85
   5   3 -10   23.70    1.18
   7   3 -10    0.15    0.30
   9   3 -10   36.60    1.79
  11   3 -10    3.28    0.64
  13   3 -10   31.90    1.72
  15   3 -10   10.92    1.13
  17   3 -10    4.65    0.73
  19   3 -10    6.48    0.86
  21   3 -10    0.61    0.47
  23   3 -10    1.67    0.72
  -8   4 -10   21.56    2.89
  -6   4 -10    0.89    0.65
  -4   4 -10   10.15    1.29
  -2   4 -10   16.87    1.61
   0   4 -10   -0.21    0.40
   2   4 -10    1.07    0.49
   4   4 -10    6.38    0.94
   6   4 -10    1.94    0.85
   8   4 -10   -0.02    0.58
  10   4 -10    0.36    0.57
  12   4 -10    9.59    1.18
  14   4 -10    2.64    0.70
  16   4 -10   22.97    1.96
  18   4 -10    0.91    0.56
   3   5 -10    2.03    0.98
  -3  -5  -9    0.29    0.63
  -1  -5  -9    1.10    0.51
   1  -5  -9   -0.41    0.36
   3  -5  -9   42.05    2.97
   5  -5  -9    6.74    1.38
   7  -5  -9    5.30    1.22
   9  -5  -9    6.20    1.28
 -10  -4  -9    1.08    0.54
  -8  -4  -9   24.85    1.63
  -6  -4  -9   45.32    1.91
  -4  -4  -9    6.21    0.76
  -2  -4  -9    0.51    0.36
   0  -4  -9   19.84    1.50
   2  -4  -9   61.87    2.36
   4  -4  -9   -0.05    0.26
   6  -4  -9    9.21    0.91
   8  -4  -9   18.90    1.22
  10  -4  -9   14.38    1.77
  12  -4  -9    0.91    0.56
  14  -4  -9   78.63    3.26
  16  -4  -9    0.16    0.44
  18  -4  -9   12.15    1.47
  20  -4  -9    0.99    1.29
 -13  -3  -9    1.61    0.71
 -11  -3  -9   -0.43    0.42
  -9  -3  -9   49.08    1.88
  -7  -3  -9    1.00    0.37
  -5  -3  -9   11.96    0.96
  -3  -3  -9    0.49    0.28
  -1  -3  -9    4.03    0.53
   1  -3  -9    0.24    0.22
   3  -3  -9   82.39    2.72
   5  -3  -9   16.66    1.07
   7  -3  -9   12.77    1.02
   9  -3  -9   14.11    1.05
  11  -3  -9    0.18    0.21
  13  -3  -9    1.28    0.34
  15  -3  -9   29.06    1.85
  17  -3  -9    6.08    1.03
  19  -3  -9    8.64    1.20
  21  -3  -9   13.11    1.52
  23  -3  -9   23.12    2.11
 -18  -2  -9   17.60    2.34
 -16  -2  -9   20.46    1.93
 -14  -2  -9   -0.17    0.42
 -12  -2  -9    2.22    0.72
 -10  -2  -9    0.46    0.42
  -8  -2  -9   39.09    2.03
  -6  -2  -9   72.76    2.21
  -4  -2  -9   10.38    0.82
  -2  -2  -9    0.83    0.27
   0  -2  -9   36.35    1.27
   2  -2  -9  105.54    2.58
   4  -2  -9    0.16    0.16
   6  -2  -9   15.73    0.74
   8  -2  -9   31.08    1.35
  10  -2  -9   27.61    1.17
  12  -2  -9    1.21    0.30
  14  -2  -9  139.44    3.54
  16  -2  -9    0.06    0.22
  18  -2  -9   18.66    1.10
  20  -2  -9    2.47    0.61
  22  -2  -9    3.00    0.75
  24  -2  -9    2.91    0.80
  26  -2  -9   69.10    3.28
 -17  -1  -9   12.18    1.43
 -15  -1  -9    3.64    0.86
 -13  -1  -9    1.23    0.51
 -11  -1  -9   -0.08    0.35
  -9  -1  -9   66.70    2.78
  -7  -1  -9    1.40    0.44
  -5  -1  -9   16.28    1.31
  -3  -1  -9    0.39    0.32
  -1  -1  -9    6.54    0.56
   1  -1  -9    0.57    0.19
   3  -1  -9  128.22    3.02
   5  -1  -9   23.66    0.89
   7  -1  -9   19.26    0.76
   9  -1  -9   22.56    0.80
  11  -1  -9    0.54    0.24
  13  -1  -9    1.23    0.30
  15  -1  -9   40.53    1.50
  17  -1  -9   12.00    0.91
  19  -1  -9   15.52    1.11
  21  -1  -9   19.98    1.20
  23  -1  -9   32.86    1.64
  25  -1  -9   31.03    2.55
  27  -1  -9    1.00    0.64
 -18   0  -9   20.14    2.11
 -16   0  -9   17.73    1.95
 -14   0  -9    0.34    0.55
 -12   0  -9    2.99    0.63
 -10   0  -9    1.98    0.51
  -8   0  -9   44.01    2.06
  -6   0  -9   91.66    3.14
  -4   0  -9   14.69    1.18
  -2   0  -9    1.49    0.38
   0   0  -9   44.92    1.75
   2   0  -9  131.39    2.76
   4   0  -9   -0.05    0.13
   6   0  -9   22.18    0.75
   8   0  -9   37.60    1.22
  10   0  -9   37.48    1.08
  12   0  -9    2.25    0.29
  14   0  -9  165.48    3.41
  16   0  -9    0.14    0.24
  18   0  -9   18.64    1.15
  20   0  -9    3.59    0.61
  22   0  -9    2.96    0.55
  24   0  -9    3.36    0.63
  26   0  -9   78.97    2.87
  28   0  -9    5.06    0.83
 -19   1  -9    0.54    1.02
 -17   1  -9   11.97    1.82
 -15   1  -9    2.31    0.99
 -13   1  -9    2.14    0.85
 -11   1  -9    0.00    0.54
  -9   1  -9   58.42    3.17
  -7   1  -9    1.20    0.41
  -5   1  -9   16.40    1.02
  -3   1  -9    0.65    0.28
  -1   1  -9    6.16    0.60
   1   1  -9    0.33    0.19
   3   1  -9  128.30    3.19
   5   1  -9   24.13    0.99
   7   1  -9   16.19    0.86
   9   1  -9   22.59    1.01
  11   1  -9    0.46    0.22
  13   1  -9    1.26    0.30
  15   1  -9   38.49    1.39
  17   1  -9   10.08    0.80
  19   1  -9   16.80    1.44
  21   1  -9   20.80    1.62
  23   1  -9   31.67    1.79
  25   1  -9   28.51    1.91
  27   1  -9    1.25    0.61
 -16   2  -9   14.89    2.21
 -14   2  -9   -0.10    0.75
 -12   2  -9    0.34    0.78
 -10   2  -9    0.81    0.67
  -8   2  -9   36.12    2.32
  -6   2  -9   72.99    3.10
  -4   2  -9   12.60    1.27
  -2   2  -9    1.01    0.29
   0   2  -9   34.69    1.30
   2   2  -9   98.59    2.68
   4   2  -9    0.41    0.20
   6   2  -9   16.48    0.88
   8   2  -9   28.62    1.36
  10   2  -9   24.52    1.16
  12   2  -9    1.25    0.32
  14   2  -9  129.24    3.52
  16   2  -9    0.23    0.28
  18   2  -9   18.09    1.21
  20   2  -9    2.33    0.46
  22   2  -9    3.27    0.80
  24   2  -9    1.46    0.66
  26   2  -9   66.84    3.06
 -15   3  -9    5.36    1.98
 -13   3  -9    0.55    0.70
 -11   3  -9    0.03    0.57
  -9   3  -9   44.26    2.31
  -7   3  -9    0.88    0.44
  -5   3  -9   11.95    1.14
  -3   3  -9    0.56    0.35
  -1   3  -9    3.68    0.55
   1   3  -9   -0.03    0.27
   3   3  -9   82.10    2.97
   5   3  -9   13.92    0.89
   7   3  -9   10.60    0.82
   9   3  -9   13.00    1.12
  11   3  -9   -0.05    0.26
  13   3  -9    1.14    0.43
  15   3  -9   27.31    1.41
  17   3  -9    6.47    0.83
  19   3  -9    9.42    1.00
  21   3  -9   14.66    1.30
  23   3  -9   21.59    1.58
 -10   4  -9    0.60    0.81
  -8   4  -9   20.60    1.68
  -6   4  -9   43.48    2.42
  -4   4  -9    6.02    0.98
  -2   4  -9    0.59    0.43
   0   4  -9   20.33    1.67
   2   4  -9   58.57    2.55
   4   4  -9    0.14    0.34
   6   4  -9   10.00    1.10
   8   4  -9   14.93    1.94
  10   4  -9   13.95    1.40
  12   4  -9    0.71    0.52
  14   4  -9   80.68    3.18
  16   4  -9    0.01    0.40
  18   4  -9   11.37    1.31
  20   4  -9    1.20    0.63
  -3   5  -9    1.34    0.84
  -1   5  -9    1.82    0.70
   1   5  -9    0.17    0.48
   3   5  -9   41.63    2.27
   5   5  -9    8.71    1.17
   7   5  -9    5.11    1.32
   9   5  -9    5.87    1.44
  -7  -5  -8    3.58    1.17
  -5  -5  -8   12.22    1.36
  -3  -5  -8   28.27    1.76
  -1  -5  -8    4.41    0.80
   1  -5  -8   16.49    1.41
   3  -5  -8    5.93    1.31
   5  -5  -8   20.91    2.25
   7  -5  -8   22.49    2.32
   9  -5  -8    8.15    1.45
  11  -5  -8   28.15    2.28
  13  -5  -8    3.67    0.82
  15  -5  -8    0.49    1.06
 -14  -4  -8    2.26    1.04
 -12  -4  -8   10.12    1.05
 -10  -4  -8    4.08    0.84
  -8  -4  -8   -0.22    0.32
  -6  -4  -8    0.97    0.41
  -4  -4  -8   28.24    1.56
  -2  -4  -8    0.50    0.31
   0  -4  -8   33.94    1.63
   2  -4  -8    2.00    0.47
   4  -4  -8   44.02    1.83
   6  -4  -8    0.34    0.26
   8  -4  -8   72.73    3.80
  10  -4  -8    0.97    0.44
  12  -4  -8    0.06    0.31
  14  -4  -8   15.94    1.50
  16  -4  -8    5.02    0.87
  18  -4  -8    0.00    0.38
  20  -4  -8   -0.05    0.45
 -17  -3  -8    5.41    1.46
 -15  -3  -8   41.22    2.31
 -13  -3  -8   27.61    2.20
 -11  -3  -8   64.37    2.19
  -9  -3  -8   12.10    1.01
  -7  -3  -8    5.19    0.64
  -5  -3  -8   22.75    1.21
  -3  -3  -8   60.70    1.91
  -1  -3  -8    8.68    0.73
   1  -3  -8   31.78    1.19
   3  -3  -8   12.81    0.84
   5  -3  -8   51.53    1.93
   7  -3  -8   43.33    1.46
   9  -3  -8   15.25    0.86
  11  -3  -8   58.24    1.79
  13  -3  -8   12.90    0.81
  15  -3  -8    0.73    0.41
  17  -3  -8    3.54    0.73
  19  -3  -8  124.37    4.62
  21  -3  -8    5.43    1.02
  23  -3  -8    4.43    0.94
  25  -3  -8   -0.17    0.47
 -20  -2  -8   -0.74    0.65
 -18  -2  -8    1.63    0.65
 -16  -2  -8   28.79    2.18
 -14  -2  -8    9.98    1.22
 -12  -2  -8   17.23    1.61
 -10  -2  -8    8.40    1.09
  -8  -2  -8    0.07    0.23
  -6  -2  -8    3.58    0.51
  -4  -2  -8   41.18    1.43
  -2  -2  -8    2.02    0.34
   0  -2  -8   60.18    1.71
   2  -2  -8    3.42    0.38
   4  -2  -8   93.00    2.26
   6  -2  -8    0.13    0.13
   8  -2  -8  138.63    3.42
  10  -2  -8    1.34    0.28
  12  -2  -8    0.31    0.21
  14  -2  -8   27.48    1.18
  16  -2  -8   15.92    0.96
  18  -2  -8    0.19    0.23
  20  -2  -8    1.26    0.54
  22  -2  -8    0.31    0.45
  24  -2  -8   24.63    2.09
  26  -2  -8   11.64    1.40
 -19  -1  -8    1.53    0.95
 -17  -1  -8   13.11    1.48
 -15  -1  -8   58.00    2.63
 -13  -1  -8   38.35    2.07
 -11  -1  -8   90.46    3.38
  -9  -1  -8   18.65    1.57
  -7  -1  -8    6.64    0.84
  -5  -1  -8   35.28    1.24
  -3  -1  -8   92.83    2.34
  -1  -1  -8   12.38    0.69
   1  -1  -8   50.25    1.43
   3  -1  -8   24.97    0.87
   5  -1  -8   92.93    2.00
   7  -1  -8   65.30    1.52
   9  -1  -8   19.73    0.71
  11  -1  -8   95.82    2.52
  13  -1  -8   18.67    0.91
  15  -1  -8    2.63    0.41
  17  -1  -8    2.04    0.37
  19  -1  -8  203.35    4.80
  21  -1  -8   10.14    0.90
  23  -1  -8    6.41    0.80
  25  -1  -8    0.43    0.56
  27  -1  -8   -0.17    0.50
 -20   0  -8   -0.03    0.55
 -18   0  -8    2.45    0.83
 -16   0  -8   38.30    2.47
 -14   0  -8    9.95    1.05
 -12   0  -8   16.38    1.49
 -10   0  -8   10.94    1.15
  -8   0  -8    0.12    0.26
  -6   0  -8    4.09    0.64
  -4   0  -8   47.00    1.88
  -2   0  -8    2.18    0.39
   0   0  -8   80.17    2.01
   2   0  -8    5.12    0.44
   4   0  -8  128.60    2.62
   6   0  -8    0.26    0.12
   8   0  -8  184.92    3.60
  10   0  -8    1.67    0.24
  12   0  -8    0.05    0.13
  14   0  -8   35.62    1.08
  16   0  -8   18.24    1.03
  18   0  -8    0.22    0.22
  20   0  -8    0.87    0.34
  22   0  -8    0.34    0.31
  24   0  -8   34.87    1.62
  26   0  -8   15.91    1.29
  28   0  -8    4.53    0.74
 -19   1  -8    3.41    1.09
 -17   1  -8   11.59    1.72
 -15   1  -8   53.46    3.19
 -13   1  -8   40.68    2.78
 -11   1  -8   83.62    3.98
  -9   1  -8   15.18    1.64
  -7   1  -8    7.43    0.76
  -5   1  -8   37.42    1.42
  -3   1  -8   90.89    2.52
  -1   1  -8   12.74    0.75
   1   1  -8   49.86    1.53
   3   1  -8   24.66    0.89
   5   1  -8   94.46    2.11
   7   1  -8   63.66    1.56
   9   1  -8   19.57    0.89
  11   1  -8   91.49    2.55
  13   1  -8   17.65    0.85
  15   1  -8    2.97    0.41
  17   1  -8    2.86    0.43
  19   1  -8  194.58    4.56
  21   1  -8    7.25    0.95
  23   1  -8    7.72    1.03
  25   1  -8    0.27    0.38
  27   1  -8   -0.25    0.39
  29   1  -8    1.73    1.06
 -18   2  -8    1.92    1.74
 -16   2  -8   20.97    2.55
 -14   2  -8    8.01    1.50
 -12   2  -8    9.15    1.45
 -10   2  -8    9.07    1.32
  -8   2  -8    0.09    0.44
  -6   2  -8    4.24    0.73
  -4   2  -8   38.44    1.90
  -2   2  -8    1.68    0.32
   0   2  -8   60.13    1.77
   2   2  -8    3.48    0.41
   4   2  -8   90.05    2.38
   6   2  -8    0.16    0.16
   8   2  -8  136.68    2.95
  10   2  -8    1.62    0.36
  12   2  -8   -0.02    0.19
  14   2  -8   26.88    1.22
  16   2  -8   16.89    1.15
  18   2  -8    0.39    0.28
  20   2  -8    1.03    0.35
  22   2  -8   -0.09    0.27
  24   2  -8   33.11    2.37
  26   2  -8   14.26    1.53
 -15   3  -8   36.00    3.29
 -13   3  -8   22.09    1.91
 -11   3  -8   49.40    2.58
  -9   3  -8   15.17    1.49
  -7   3  -8    5.33    0.78
  -5   3  -8   23.95    1.30
  -3   3  -8   58.38    2.02
  -1   3  -8   10.74    0.87
   1   3  -8   35.32    1.64
   3   3  -8   13.68    0.92
   5   3  -8   55.19    1.88
   7   3  -8   41.34    1.44
   9   3  -8   13.77    0.85
  11   3  -8   54.13    1.89
  13   3  -8   10.02    0.91
  15   3  -8    0.25    0.29
  17   3  -8    1.53    0.46
  19   3  -8  127.06    3.68
  21   3  -8    5.79    0.81
  23   3  -8    4.59    0.76
  25   3  -8    0.24    0.54
 -12   4  -8    6.61    1.43
 -10   4  -8    3.33    0.99
  -8   4  -8   -0.19    0.40
  -6   4  -8    2.08    0.57
  -4   4  -8   27.07    1.66
  -2   4  -8    0.78    0.41
   0   4  -8   31.99    1.74
   2   4  -8    1.63    0.50
   4   4  -8   42.72    2.02
   6   4  -8    0.02    0.31
   8   4  -8   78.05    2.92
  10   4  -8    1.96    0.56
  12   4  -8    0.11    0.37
  14   4  -8   16.45    1.56
  16   4  -8    9.53    1.22
  18   4  -8    0.34    0.44
  20   4  -8    1.11    0.56
  -5   5  -8   10.14    2.02
  -3   5  -8   24.67    2.04
  -1   5  -8    6.35    1.02
   1   5  -8   17.44    1.61
   3   5  -8    6.64    1.00
   5   5  -8   23.13    1.80
   7   5  -8   21.60    1.78
   9   5  -8    9.41    1.74
  11   5  -8   22.96    2.58
  13   5  -8    5.59    1.36
  -9  -5  -7    0.89    0.57
  -7  -5  -7    6.51    1.02
  -5  -5  -7   19.52    1.59
  -3  -5  -7   50.23    2.29
  -1  -5  -7    0.96    0.43
   1  -5  -7    4.25    1.03
   3  -5  -7    1.18    0.57
   5  -5  -7   -0.21    0.41
   7  -5  -7    0.83    0.44
   9  -5  -7   29.79    1.87
  11  -5  -7    2.36    0.66
  13  -5  -7   -0.09    0.38
  15  -5  -7    0.10    0.42
  17  -5  -7   -0.56    0.40
 -16  -4  -7    3.59    1.11
 -14  -4  -7   11.21    1.32
 -12  -4  -7   -0.17    0.41
 -10  -4  -7    0.66    0.47
  -8  -4  -7   -0.27    0.28
  -6  -4  -7   22.42    1.61
  -4  -4  -7    1.67    0.47
  -2  -4  -7    1.75    0.42
   0  -4  -7    0.13    0.23
   2  -4  -7    7.67    0.82
   4  -4  -7    6.79    0.65
   6  -4  -7    0.10    0.21
   8  -4  -7    4.44    0.67
  10  -4  -7    0.53    0.33
  12  -4  -7    6.35    0.88
  14  -4  -7    8.68    1.07
  16  -4  -7    8.67    1.11
  18  -4  -7   15.76    1.21
  20  -4  -7   30.00    1.59
  22  -4  -7    0.74    0.42
 -17  -3  -7    1.13    0.63
 -15  -3  -7    0.14    0.42
 -13  -3  -7   16.08    1.42
 -11  -3  -7    0.04    0.31
  -9  -3  -7    4.49    0.71
  -7  -3  -7   12.26    1.11
  -5  -3  -7   39.33    1.71
  -3  -3  -7  110.97    3.46
  -1  -3  -7    1.95    0.41
   1  -3  -7   13.53    0.82
   3  -3  -7    2.27    0.30
   5  -3  -7    0.57    0.20
   7  -3  -7    1.70    0.32
   9  -3  -7   63.86    1.87
  11  -3  -7    4.80    0.50
  13  -3  -7    0.15    0.25
  15  -3  -7    0.46    0.26
  17  -3  -7    0.12    0.28
  19  -3  -7    4.20    0.60
  21  -3  -7    7.12    0.87
  23  -3  -7    0.86    0.42
  25  -3  -7    0.47    0.53
 -20  -2  -7    2.70    0.74
 -18  -2  -7   14.44    1.51
 -16  -2  -7    7.66    1.09
 -14  -2  -7   19.61    1.70
 -12  -2  -7    0.13    0.25
 -10  -2  -7    2.26    0.45
  -8  -2  -7    0.49    0.23
  -6  -2  -7   38.35    1.37
  -4  -2  -7    3.85    0.44
  -2  -2  -7    2.26    0.34
   0  -2  -7    0.15    0.15
   2  -2  -7   16.15    0.62
   4  -2  -7   12.23    0.54
   6  -2  -7    0.60    0.15
   8  -2  -7    9.54    0.65
  10  -2  -7    0.12    0.14
  12  -2  -7   15.28    0.84
  14  -2  -7   17.70    0.89
  16  -2  -7   12.82    0.80
  18  -2  -7   28.71    1.22
  20  -2  -7   55.52    2.59
  22  -2  -7    0.40    0.40
  24  -2  -7   39.94    2.20
  26  -2  -7    1.31    0.63
  28  -2  -7    0.63    0.61
 -21  -1  -7    0.36    0.85
 -19  -1  -7    5.40    0.91
 -17  -1  -7    1.87    0.61
 -15  -1  -7    1.04    0.47
 -13  -1  -7   28.20    1.61
 -11  -1  -7    0.30    0.33
  -9  -1  -7    6.28    0.82
  -7  -1  -7   19.73    0.89
  -5  -1  -7   64.92    1.80
  -3  -1  -7  178.52    3.98
  -1  -1  -7    3.15    0.34
   1  -1  -7   24.13    0.82
   3  -1  -7    3.26    0.29
   5  -1  -7    1.60    0.22
   7  -1  -7    3.52    0.31
   9  -1  -7  105.69    2.21
  11  -1  -7    7.91    0.62
  13  -1  -7    0.45    0.19
  15  -1  -7    0.26    0.20
  17  -1  -7    0.01    0.19
  19  -1  -7    8.15    0.74
  21  -1  -7   11.23    0.92
  23  -1  -7    1.56    0.46
  25  -1  -7    0.55    0.50
  27  -1  -7    1.83    0.69
  29  -1  -7    5.88    1.11
 -22   0  -7    2.96    0.95
 -20   0  -7    3.13    0.89
 -18   0  -7   15.88    1.70
 -16   0  -7    9.38    1.38
 -14   0  -7   21.68    1.74
 -12   0  -7    0.37    0.33
 -10   0  -7    3.33    0.62
  -8   0  -7   -0.02    0.22
  -6   0  -7   45.64    1.81
  -4   0  -7    5.65    0.64
  -2   0  -7    2.51    0.29
   0   0  -7    0.05    0.11
   2   0  -7   21.45    0.75
   4   0  -7   15.68    0.55
   6   0  -7    1.07    0.15
   8   0  -7   13.97    0.46
  10   0  -7    0.23    0.13
  12   0  -7   19.50    0.71
  14   0  -7   22.93    0.81
  16   0  -7   15.34    0.92
  18   0  -7   33.17    1.39
  20   0  -7   66.64    2.26
  22   0  -7    0.59    0.30
  24   0  -7   46.47    1.96
  26   0  -7    2.58    0.58
  28   0  -7    2.57    0.56
 -21   1  -7    0.00    0.99
 -19   1  -7    5.71    1.24
 -17   1  -7    3.31    1.06
 -15   1  -7    1.02    0.72
 -13   1  -7   21.28    2.17
 -11   1  -7    0.33    0.48
  -9   1  -7    7.40    0.75
  -7   1  -7   20.19    1.02
  -5   1  -7   63.75    1.97
  -3   1  -7  179.09    4.24
  -1   1  -7    3.36    0.39
   1   1  -7   21.99    0.90
   3   1  -7    2.84    0.31
   5   1  -7    0.94    0.18
   7   1  -7    2.62    0.28
   9   1  -7  106.16    2.23
  11   1  -7    6.89    0.55
  13   1  -7    0.21    0.16
  15   1  -7    0.24    0.19
  17   1  -7    0.13    0.17
  19   1  -7    7.11    0.66
  21   1  -7   12.07    1.17
  23   1  -7    1.40    0.52
  25   1  -7    0.01    0.37
  27   1  -7    1.05    0.54
  29   1  -7    5.80    1.03
 -20   2  -7    3.92    1.08
 -18   2  -7   14.71    1.87
 -16   2  -7    4.51    1.21
 -14   2  -7   11.89    1.72
 -12   2  -7   -0.27    0.48
 -10   2  -7    3.13    0.80
  -8   2  -7    0.30    0.40
  -6   2  -7   35.99    1.81
  -4   2  -7    2.81    0.40
  -2   2  -7    1.99    0.31
   0   2  -7    0.12    0.15
   2   2  -7   15.70    0.78
   4   2  -7   11.44    0.57
   6   2  -7    0.72    0.17
   8   2  -7    8.39    0.51
  10   2  -7    0.13    0.12
  12   2  -7   15.18    0.89
  14   2  -7   18.21    0.95
  16   2  -7   12.54    0.93
  18   2  -7   26.75    1.25
  20   2  -7   53.77    1.90
  22   2  -7    0.01    0.25
  24   2  -7   36.59    2.06
  26   2  -7    2.28    0.69
  28   2  -7    0.96    0.92
 -17   3  -7    1.33    0.94
 -15   3  -7   -0.06    0.65
 -13   3  -7   18.09    1.67
 -11   3  -7   -0.05    0.41
  -9   3  -7    6.12    0.85
  -7   3  -7   13.80    1.11
  -5   3  -7   40.15    1.58
  -3   3  -7  112.70    3.06
  -1   3  -7    1.93    0.37
   1   3  -7   15.43    0.83
   3   3  -7    2.45    0.37
   5   3  -7    0.24    0.20
   7   3  -7    0.80    0.25
   9   3  -7   65.97    1.69
  11   3  -7    4.97    0.48
  13   3  -7    0.73    0.32
  15   3  -7    0.07    0.22
  17   3  -7    0.12    0.30
  19   3  -7    5.87    0.86
  21   3  -7    7.76    0.91
  23   3  -7    0.86    0.44
  25   3  -7    0.55    0.42
 -14   4  -7    9.23    1.70
 -12   4  -7    0.11    0.71
 -10   4  -7    1.52    0.78
  -8   4  -7    0.04    0.35
  -6   4  -7   19.37    1.33
  -4   4  -7    2.57    0.49
  -2   4  -7    1.02    0.41
   0   4  -7   -0.01    0.27
   2   4  -7    8.28    0.92
   4   4  -7    5.09    0.75
   6   4  -7    0.60    0.34
   8   4  -7    5.93    0.68
  10   4  -7    0.44    0.24
  12   4  -7    7.03    0.98
  14   4  -7   10.01    1.17
  16   4  -7    8.62    1.09
  18   4  -7   12.65    1.37
  20   4  -7   35.09    2.01
  22   4  -7   -0.18    0.44
  -9   5  -7    2.41    1.22
  -7   5  -7    5.33    1.51
  -5   5  -7   21.22    2.78
  -3   5  -7   57.58    2.63
  -1   5  -7    0.91    0.53
   1   5  -7    6.28    0.96
   3   5  -7    2.17    0.63
   5   5  -7    0.11    0.37
   7   5  -7    0.95    0.42
   9   5  -7   28.31    1.73
  11   5  -7    2.07    0.91
  13   5  -7    1.13    0.81
  15   5  -7    0.48    0.56
  17   5  -7   -0.48    0.93
   6  -6  -6    5.10    1.43
 -11  -5  -6   -0.23    0.45
  -9  -5  -6   21.86    1.80
  -7  -5  -6    0.90    0.48
  -5  -5  -6   20.95    1.60
  -3  -5  -6    2.55    0.59
  -1  -5  -6    0.27    0.34
   1  -5  -6    0.36    0.48
   3  -5  -6   80.88    3.00
   5  -5  -6    0.04    0.31
   7  -5  -6    0.91    0.44
   9  -5  -6    3.16    0.63
  11  -5  -6   85.26    3.27
  13  -5  -6   11.64    1.24
  15  -5  -6   10.61    1.25
  17  -5  -6    0.23    0.42
 -16  -4  -6    2.48    0.76
 -14  -4  -6    7.64    1.10
 -12  -4  -6   25.69    1.90
 -10  -4  -6   37.96    1.93
  -8  -4  -6   63.24    3.82
  -6  -4  -6    0.30    0.32
  -4  -4  -6    0.39    0.26
  -2  -4  -6    3.65    0.58
   0  -4  -6   45.68    1.53
   2  -4  -6   46.48    1.52
   4  -4  -6   43.44    1.43
   6  -4  -6   14.30    0.83
   8  -4  -6    7.38    0.83
  10  -4  -6    3.77    0.62
  12  -4  -6    1.66    0.49
  14  -4  -6   75.68    2.88
  16  -4  -6   27.65    1.38
  18  -4  -6    0.28    0.30
  20  -4  -6    2.91    0.59
  22  -4  -6   11.05    1.11
 -19  -3  -6   29.05    3.10
 -17  -3  -6    7.90    1.04
 -15  -3  -6    8.18    1.01
 -13  -3  -6    0.38    0.34
 -11  -3  -6    1.24    0.42
  -9  -3  -6   40.27    1.82
  -7  -3  -6    0.16    0.27
  -5  -3  -6   51.03    2.00
  -3  -3  -6    5.40    0.62
  -1  -3  -6    0.13    0.15
   1  -3  -6    1.47    0.27
   3  -3  -6  162.26    3.65
   5  -3  -6    0.06    0.14
   7  -3  -6    4.86    0.45
   9  -3  -6    6.36    0.45
  11  -3  -6  180.48    3.50
  13  -3  -6   21.63    1.04
  15  -3  -6   20.67    1.12
  17  -3  -6    0.20    0.27
  19  -3  -6    8.99    0.89
  21  -3  -6   -0.14    0.26
  23  -3  -6   12.67    1.18
  25  -3  -6   50.39    2.31
  27  -3  -6   37.88    3.04
 -22  -2  -6    7.83    1.17
 -20  -2  -6   42.61    2.29
 -18  -2  -6   14.92    1.49
 -16  -2  -6    5.20    0.88
 -14  -2  -6   17.32    1.36
 -12  -2  -6   46.39    1.90
 -10  -2  -6   69.18    2.44
  -8  -2  -6  123.71    3.66
  -6  -2  -6    1.70    0.36
  -4  -2  -6    1.25    0.37
  -2  -2  -6    7.87    0.66
   0  -2  -6   88.90    1.89
   2  -2  -6   84.79    1.81
   4  -2  -6   79.20    1.68
   6  -2  -6   33.46    0.88
   8  -2  -6   13.87    0.66
  10  -2  -6   10.23    0.57
  12  -2  -6    1.43    0.24
  14  -2  -6  139.44    2.88
  16  -2  -6   53.32    1.46
  18  -2  -6    0.02    0.20
  20  -2  -6    5.34    0.70
  22  -2  -6   21.35    1.47
  24  -2  -6   12.32    1.15
  26  -2  -6   14.40    1.61
  28  -2  -6    1.09    0.62
 -23  -1  -6    1.37    0.90
 -21  -1  -6   69.88    4.41
 -19  -1  -6   43.27    2.14
 -17  -1  -6   12.18    1.30
 -15  -1  -6   13.92    1.34
 -13  -1  -6   -0.27    0.25
 -11  -1  -6    3.62    0.50
  -9  -1  -6   60.86    1.77
  -7  -1  -6    0.21    0.16
  -5  -1  -6   81.80    2.12
  -3  -1  -6   11.63    0.56
  -1  -1  -6    0.80    0.19
   1  -1  -6    2.16    0.23
   3  -1  -6  278.17    5.09
   5  -1  -6    0.18    0.11
   7  -1  -6   10.40    0.43
   9  -1  -6    8.20    0.58
  11  -1  -6  298.13    6.43
  13  -1  -6   33.71    1.19
  15  -1  -6   29.49    1.12
  17  -1  -6    0.29    0.21
  19  -1  -6   15.07    0.93
  21  -1  -6    0.22    0.25
  23  -1  -6   21.61    1.42
  25  -1  -6   73.83    3.19
  27  -1  -6   54.30    2.72
  29  -1  -6    1.10    0.69
 -24   0  -6    2.05    1.19
 -22   0  -6   10.10    1.45
 -20   0  -6   50.43    2.68
 -18   0  -6   18.89    1.86
 -16   0  -6    9.24    1.08
 -14   0  -6   19.20    1.36
 -12   0  -6   57.24    2.36
 -10   0  -6   88.48    3.11
  -8   0  -6  155.04    4.66
  -6   0  -6    3.80    0.34
  -4   0  -6    2.32    0.25
  -2   0  -6   13.18    0.54
   0   0  -6  120.94    2.68
   2   0  -6  115.49    2.55
   4   0  -6  103.49    2.05
   6   0  -6   50.58    1.08
   8   0  -6   20.13    0.53
  10   0  -6   15.50    0.58
  12   0  -6    2.07    0.25
  14   0  -6  168.80    3.39
  16   0  -6   69.18    1.68
  18   0  -6    0.37    0.25
  20   0  -6    7.68    0.75
  22   0  -6   25.33    1.36
  24   0  -6   13.47    1.11
  26   0  -6   17.96    1.34
  28   0  -6    0.95    0.56
  30   0  -6    0.56    0.52
 -23   1  -6    3.66    1.44
 -21   1  -6   81.99    5.83
 -19   1  -6   41.03    2.62
 -17   1  -6   11.91    1.60
 -15   1  -6   13.64    1.76
 -13   1  -6    0.68    0.59
 -11   1  -6    1.45    0.63
  -9   1  -6   57.05    2.01
  -7   1  -6    0.43    0.23
  -5   1  -6   84.14    2.28
  -3   1  -6   11.59    0.61
  -1   1  -6    0.24    0.12
   1   1  -6    1.88    0.23
   3   1  -6  279.44    5.19
   5   1  -6    0.46    0.13
   7   1  -6    9.61    0.43
   9   1  -6    7.91    0.38
  11   1  -6  298.96    6.29
  13   1  -6   33.40    1.14
  15   1  -6   27.13    0.98
  17   1  -6    0.28    0.20
  19   1  -6   15.96    0.86
  21   1  -6    0.02    0.25
  23   1  -6   18.17    1.51
  25   1  -6   64.76    2.79
  27   1  -6   48.96    2.92
  29   1  -6    2.11    0.69
 -22   2  -6    7.22    1.30
 -20   2  -6   43.62    2.93
 -18   2  -6   11.77    1.69
 -16   2  -6    4.15    1.09
 -14   2  -6   15.32    1.83
 -12   2  -6   43.18    2.53
 -10   2  -6   70.23    2.98
  -8   2  -6  121.80    4.20
  -6   2  -6    3.53    0.60
  -4   2  -6    0.98    0.24
  -2   2  -6    8.61    0.58
   0   2  -6   89.21    2.24
   2   2  -6   81.85    1.76
   4   2  -6   76.45    1.68
   6   2  -6   32.65    0.78
   8   2  -6   12.42    0.57
  10   2  -6    9.00    0.52
  12   2  -6    1.55    0.25
  14   2  -6  133.28    3.40
  16   2  -6   52.50    1.74
  18   2  -6    0.22    0.24
  20   2  -6    5.97    0.67
  22   2  -6   20.76    1.23
  24   2  -6   10.89    0.99
  26   2  -6   17.32    1.66
  28   2  -6    0.64    0.48
 -19   3  -6   25.09    2.68
 -17   3  -6    6.43    1.46
 -15   3  -6    6.15    1.30
 -13   3  -6   -0.19    0.57
 -11   3  -6    1.13    0.45
  -9   3  -6   41.78    1.72
  -7   3  -6    1.37    0.39
  -5   3  -6   55.14    1.81
  -3   3  -6    6.04    0.60
  -1   3  -6   -0.03    0.16
   1   3  -6    0.45    0.17
   3   3  -6  159.51    3.81
   5   3  -6    0.25    0.17
   7   3  -6    4.39    0.47
   9   3  -6    5.14    0.46
  11   3  -6  173.70    3.69
  13   3  -6   23.01    1.16
  15   3  -6   18.81    1.27
  17   3  -6    0.35    0.31
  19   3  -6   11.26    1.02
  21   3  -6   -0.03    0.33
  23   3  -6   13.53    1.21
  25   3  -6   43.70    1.98
 -16   4  -6    2.48    1.09
 -14   4  -6    9.03    1.55
 -12   4  -6   27.70    2.43
 -10   4  -6   37.78    2.49
  -8   4  -6   70.58    2.36
  -6   4  -6    0.53    0.31
  -4   4  -6    0.10    0.25
  -2   4  -6    4.30    0.51
   0   4  -6   42.95    1.95
   2   4  -6   46.01    2.00
   4   4  -6   42.32    1.88
   6   4  -6   14.95    1.19
   8   4  -6    6.79    0.70
  10   4  -6    3.82    0.55
  12   4  -6    1.58    0.40
  14   4  -6   72.42    2.93
  16   4  -6   25.90    1.74
  18   4  -6    0.70    0.43
  20   4  -6    2.50    0.72
  22   4  -6   14.43    1.60
 -11   5  -6    1.42    0.76
  -9   5  -6   25.79    2.14
  -7   5  -6    0.63    0.51
  -5   5  -6   26.29    3.01
  -3   5  -6    1.67    0.61
  -1   5  -6    0.15    0.38
   1   5  -6    0.07    0.33
   3   5  -6   77.71    3.11
   5   5  -6    0.23    0.37
   7   5  -6    1.10    0.49
   9   5  -6    2.96    0.67
  11   5  -6   87.68    3.34
  13   5  -6   11.10    1.76
  15   5  -6    9.45    1.34
  17   5  -6    0.33    0.56
   2   6  -6   20.22    2.51
   4   6  -6   24.29    2.83
   0  -6  -5    1.79    0.81
   2  -6  -5   11.85    1.29
   4  -6  -5   19.95    1.69
   6  -6  -5   -0.17    0.38
   8  -6  -5   32.37    2.00
 -13  -5  -5   -0.25    0.47
 -11  -5  -5   -0.14    0.44
  -9  -5  -5    0.46    0.42
  -7  -5  -5    5.04    0.83
  -5  -5  -5    3.59    0.69
  -3  -5  -5   55.34    2.23
  -1  -5  -5    0.41    0.26
   1  -5  -5    5.72    0.82
   3  -5  -5    3.26    0.63
   5  -5  -5    0.71    0.39
   7  -5  -5    8.74    0.99
   9  -5  -5   46.18    2.06
  11  -5  -5    0.71    0.40
  13  -5  -5    0.38    0.34
  15  -5  -5   11.08    1.21
  17  -5  -5    7.92    1.10
 -18  -4  -5    0.73    0.49
 -16  -4  -5    9.02    1.16
 -14  -4  -5   58.49    2.64
 -12  -4  -5   26.57    1.91
 -10  -4  -5   -0.08    0.30
  -8  -4  -5    4.39    0.73
  -6  -4  -5   12.78    1.16
  -4  -4  -5   76.62    2.70
  -2  -4  -5    5.86    0.58
   0  -4  -5    4.12    0.47
   2  -4  -5   21.66    0.93
   4  -4  -5   45.68    1.46
   6  -4  -5    0.44    0.27
   8  -4  -5   66.58    2.47
  10  -4  -5    0.43    0.25
  12  -4  -5    0.74    0.30
  14  -4  -5    0.27    0.25
  16  -4  -5   35.10    1.50
  18  -4  -5    4.56    0.65
  20  -4  -5   54.54    2.09
  22  -4  -5    0.55    0.40
 -21  -3  -5    1.00    0.68
 -19  -3  -5    8.05    1.04
 -17  -3  -5    0.31    0.42
 -15  -3  -5   41.97    2.01
 -13  -3  -5   -0.19    0.27
 -11  -3  -5   -0.02    0.24
  -9  -3  -5    0.21    0.24
  -7  -3  -5    8.82    0.86
  -5  -3  -5    6.05    0.52
  -3  -3  -5  118.19    2.83
  -1  -3  -5    1.54    0.25
   1  -3  -5   14.60    0.66
   3  -3  -5   10.06    0.57
   5  -3  -5    1.17    0.19
   7  -3  -5   15.82    0.61
   9  -3  -5   83.42    1.86
  11  -3  -5    0.17    0.19
  13  -3  -5    1.21    0.32
  15  -3  -5   22.44    1.12
  17  -3  -5   13.87    1.02
  19  -3  -5   26.34    1.33
  21  -3  -5    2.74    0.53
  23  -3  -5   13.46    1.21
  25  -3  -5   24.58    1.68
 -24  -2  -5    4.05    0.91
 -22  -2  -5    0.03    0.47
 -20  -2  -5   -0.52    0.43
 -18  -2  -5    0.11    0.53
 -16  -2  -5   15.07    1.24
 -14  -2  -5  105.02    3.40
 -12  -2  -5   47.54    1.93
 -10  -2  -5   -0.08    0.20
  -8  -2  -5    8.69    0.78
  -6  -2  -5   26.40    1.15
  -4  -2  -5  144.88    3.19
  -2  -2  -5    9.94    0.48
   0  -2  -5    8.72    0.48
   2  -2  -5   47.23    1.25
   4  -2  -5   92.22    1.88
   6  -2  -5    1.31    0.18
   8  -2  -5  131.08    2.54
  10  -2  -5    2.82    0.28
  12  -2  -5    0.97    0.20
  14  -2  -5    0.67    0.19
  16  -2  -5   70.09    1.74
  18  -2  -5    7.81    0.79
  20  -2  -5   92.87    2.87
  22  -2  -5    0.60    0.35
  24  -2  -5    3.39    0.64
  26  -2  -5   -0.08    0.35
  28  -2  -5   11.57    1.16
 -25  -1  -5    0.87    0.82
 -23  -1  -5   13.37    2.16
 -21  -1  -5    0.98    0.50
 -19  -1  -5   11.15    1.23
 -17  -1  -5    0.58    0.38
 -15  -1  -5   63.26    2.51
 -13  -1  -5    0.15    0.20
 -11  -1  -5    0.23    0.19
  -9  -1  -5    0.51    0.20
  -7  -1  -5   15.64    0.72
  -5  -1  -5   10.77    0.57
  -3  -1  -5  199.88    4.21
  -1  -1  -5    2.89    0.24
   1  -1  -5   27.11    0.72
   3  -1  -5   16.83    0.53
   5  -1  -5    1.79    0.19
   7  -1  -5   30.01    0.95
   9  -1  -5  147.06    3.36
  11  -1  -5    0.98    0.21
  13  -1  -5    2.21    0.28
  15  -1  -5   37.62    1.14
  17  -1  -5   21.25    0.89
  19  -1  -5   39.65    1.27
  21  -1  -5    3.89    0.53
  23  -1  -5   21.92    1.80
  25  -1  -5   30.48    2.05
  27  -1  -5   13.02    1.46
  29  -1  -5    1.23    0.63
 -24   0  -5    7.63    1.84
 -22   0  -5   -0.34    0.44
 -20   0  -5    0.14    0.41
 -18   0  -5    0.22    0.69
 -16   0  -5   20.21    1.41
 -14   0  -5  133.47    4.29
 -12   0  -5   60.21    2.41
 -10   0  -5    0.23    0.27
  -8   0  -5   12.83    0.57
  -6   0  -5   33.51    0.98
  -4   0  -5  198.08    4.07
  -2   0  -5   13.93    0.50
   0   0  -5   11.21    0.44
   2   0  -5   66.99    1.56
   4   0  -5  133.41    2.53
   6   0  -5    1.70    0.16
   8   0  -5  182.42    3.40
  10   0  -5    3.81    0.30
  12   0  -5    1.45    0.21
  14   0  -5    0.82    0.19
  16   0  -5   90.07    2.05
  18   0  -5   10.48    0.83
  20   0  -5  118.73    3.23
  22   0  -5    0.09    0.26
  24   0  -5    4.07    0.63
  26   0  -5    0.12    0.32
  28   0  -5    9.39    1.26
  30   0  -5   19.76    1.86
 -25   1  -5   -0.30    0.49
 -23   1  -5    8.25    1.18
 -21   1  -5    2.27    1.37
 -19   1  -5   13.39    1.73
 -17   1  -5    0.60    0.65
 -15   1  -5   55.11    3.01
 -13   1  -5    0.21    0.47
 -11   1  -5    0.12    0.21
  -9   1  -5    0.30    0.22
  -7   1  -5   15.96    0.76
  -5   1  -5   10.49    0.60
  -3   1  -5  199.14    4.41
  -1   1  -5    2.98    0.22
   1   1  -5   27.20    0.74
   3   1  -5   16.10    0.54
   5   1  -5    1.27    0.16
   7   1  -5   27.88    0.77
   9   1  -5  146.10    2.86
  11   1  -5    0.96    0.16
  13   1  -5    1.65    0.26
  15   1  -5   37.60    1.18
  17   1  -5   20.26    0.91
  19   1  -5   37.16    1.31
  21   1  -5    2.96    0.42
  23   1  -5   22.12    1.48
  25   1  -5   36.49    1.89
  27   1  -5   12.60    1.32
  29   1  -5    0.61    0.51
 -24   2  -5    6.83    2.08
 -22   2  -5    0.00    0.51
 -20   2  -5   -0.18    0.45
 -18   2  -5    0.33    0.50
 -16   2  -5   14.11    1.37
 -14   2  -5   97.48    4.14
 -12   2  -5   48.23    2.38
 -10   2  -5    0.52    0.37
  -8   2  -5    9.87    0.99
  -6   2  -5   25.84    1.28
  -4   2  -5  142.96    3.31
  -2   2  -5    8.78    0.52
   0   2  -5    8.70    0.51
   2   2  -5   43.34    1.26
   4   2  -5   91.28    1.67
   6   2  -5    1.05    0.13
   8   2  -5  126.53    2.65
  10   2  -5    2.55    0.29
  12   2  -5    0.82    0.19
  14   2  -5    0.61    0.24
  16   2  -5   68.88    2.09
  18   2  -5    8.19    0.75
  20   2  -5   99.51    2.78
  22   2  -5    0.31    0.29
  24   2  -5    2.03    0.47
  26   2  -5    0.28    0.40
  28   2  -5   10.90    1.37
 -21   3  -5    1.32    0.84
 -19   3  -5    4.52    1.17
 -17   3  -5    0.20    0.64
 -15   3  -5   36.43    2.99
 -13   3  -5    0.28    0.50
 -11   3  -5    0.19    0.29
  -9   3  -5    0.22    0.25
  -7   3  -5    8.95    0.77
  -5   3  -5    6.05    0.60
  -3   3  -5  117.77    2.97
  -1   3  -5    0.96    0.23
   1   3  -5   14.31    0.60
   3   3  -5    8.61    0.47
   5   3  -5    0.96    0.24
   7   3  -5   18.52    0.82
   9   3  -5   82.77    2.29
  11   3  -5    0.76    0.24
  13   3  -5    1.09    0.26
  15   3  -5   22.81    1.30
  17   3  -5   14.46    1.11
  19   3  -5   27.08    1.48
  21   3  -5    1.58    0.45
  23   3  -5   14.28    1.24
  25   3  -5   20.11    1.51
  27   3  -5    6.82    1.72
 -18   4  -5    0.27    0.77
 -16   4  -5    7.49    1.45
 -14   4  -5   59.95    3.26
 -12   4  -5   26.98    2.31
 -10   4  -5    0.06    0.36
  -8   4  -5    5.38    0.67
  -6   4  -5   12.99    0.94
  -4   4  -5   81.10    2.29
  -2   4  -5    5.40    0.56
   0   4  -5    3.97    0.47
   2   4  -5   21.16    1.25
   4   4  -5   48.05    1.97
   6   4  -5    0.75    0.29
   8   4  -5   65.44    2.12
  10   4  -5    0.87    0.31
  12   4  -5    0.73    0.30
  14   4  -5    0.36    0.29
  16   4  -5   39.33    1.99
  18   4  -5    4.70    0.92
  20   4  -5   55.80    2.63
  22   4  -5    0.23    0.50
 -13   5  -5   -0.02    0.63
 -11   5  -5    0.09    0.50
  -9   5  -5    0.55    0.48
  -7   5  -5    4.45    0.84
  -5   5  -5    2.58    0.58
  -3   5  -5   54.37    2.44
  -1   5  -5    1.61    0.53
   1   5  -5    4.13    0.75
   3   5  -5    4.02    0.71
   5   5  -5    0.32    0.33
   7   5  -5    8.02    0.98
   9   5  -5   41.55    2.06
  11   5  -5    0.29    0.38
  13   5  -5    0.47    0.37
  15   5  -5   10.52    1.39
  17   5  -5    8.93    1.32
  19   5  -5   13.80    2.26
   0   6  -5    1.13    0.87
   2   6  -5    6.27    1.05
   4   6  -5   20.88    1.84
   6   6  -5    0.25    0.49
   8   6  -5   28.49    2.06
  10   6  -5    1.10    0.89
  -4  -6  -4    1.39    0.76
  -2  -6  -4   43.73    2.22
   0  -6  -4    0.22    0.43
   2  -6  -4   21.71    1.75
   4  -6  -4    0.33    0.40
   6  -6  -4   62.25    2.72
   8  -6  -4    5.96    0.93
  10  -6  -4    3.96    1.06
 -13  -5  -4    6.80    1.05
 -11  -5  -4    4.18    0.82
  -9  -5  -4   21.79    1.77
  -7  -5  -4    2.18    0.54
  -5  -5  -4    0.38    0.30
  -3  -5  -4    0.05    0.23
  -1  -5  -4    0.86    0.39
   1  -5  -4    0.87    0.39
   3  -5  -4    0.30    0.33
   5  -5  -4   -0.13    0.26
   7  -5  -4    0.36    0.32
   9  -5  -4    0.85    0.41
  11  -5  -4    0.46    0.34
  13  -5  -4   33.68    1.77
  15  -5  -4    0.12    0.35
  17  -5  -4   22.48    3.06
  19  -5  -4    9.14    1.78
 -20  -4  -4    0.85    0.83
 -18  -4  -4    4.55    0.90
 -16  -4  -4   18.36    1.66
 -14  -4  -4    1.37    0.54
 -12  -4  -4   -0.02    0.28
 -10  -4  -4    0.24    0.30
  -8  -4  -4    4.73    0.72
  -6  -4  -4   24.31    1.05
  -4  -4  -4    4.36    0.50
  -2  -4  -4   99.22    2.62
   0  -4  -4    0.85    0.25
   2  -4  -4   54.63    1.61
   4  -4  -4    0.03    0.16
   6  -4  -4  153.23    4.50
   8  -4  -4   11.66    0.99
  10  -4  -4    8.50    0.79
  12  -4  -4    0.65    0.25
  14  -4  -4    5.90    0.66
  16  -4  -4    5.63    0.65
  18  -4  -4    1.08    0.40
  20  -4  -4   11.97    1.07
  22  -4  -4   11.49    1.48
 -21  -3  -4   28.57    2.04
 -19  -3  -4    4.23    0.79
 -17  -3  -4    2.94    0.64
 -15  -3  -4   37.70    1.87
 -13  -3  -4   13.47    1.23
 -11  -3  -4   11.89    1.07
  -9  -3  -4   46.85    1.54
  -7  -3  -4    6.75    0.56
  -5  -3  -4    0.71    0.22
  -3  -3  -4    0.09    0.13
  -1  -3  -4    5.09    0.47
   1  -3  -4    1.95    0.27
   3  -3  -4    0.23    0.12
   5  -3  -4    1.17    0.19
   7  -3  -4    0.17    0.12
   9  -3  -4    1.99    0.24
  11  -3  -4    0.94    0.24
  13  -3  -4   74.20    2.16
  15  -3  -4    0.23    0.22
  17  -3  -4   47.27    1.71
  19  -3  -4   20.48    1.19
  21  -3  -4    0.20    0.32
  23  -3  -4    0.03    0.33
  25  -3  -4   11.37    1.46
 -24  -2  -4   17.06    2.27
 -22  -2  -4    3.70    1.12
 -20  -2  -4    1.38    0.48
 -18  -2  -4    8.17    0.95
 -16  -2  -4   32.84    1.64
 -14  -2  -4    2.70    0.52
 -12  -2  -4    0.07    0.21
 -10  -2  -4    0.96    0.30
  -8  -2  -4   12.17    0.63
  -6  -2  -4   43.45    1.24
  -4  -2  -4    6.40    0.42
  -2  -2  -4  220.27    4.52
   0  -2  -4    2.78    0.27
   2  -2  -4  125.36    2.31
   4  -2  -4    0.10    0.10
   6  -2  -4  337.16    5.83
   8  -2  -4   22.90    0.69
  10  -2  -4   14.20    0.54
  12  -2  -4    0.79    0.16
  14  -2  -4   12.09    0.59
  16  -2  -4    8.55    0.75
  18  -2  -4    1.89    0.40
  20  -2  -4   24.15    1.35
  22  -2  -4   17.22    1.27
  24  -2  -4    3.89    0.67
  26  -2  -4    0.37    0.40
  28  -2  -4   28.79    1.82
 -25  -1  -4   17.29    2.34
 -23  -1  -4   14.76    2.32
 -21  -1  -4   40.93    2.04
 -19  -1  -4    5.54    0.84
 -17  -1  -4    4.68    0.66
 -15  -1  -4   61.27    2.23
 -13  -1  -4   26.95    1.26
 -11  -1  -4   20.04    1.00
  -9  -1  -4   81.96    1.98
  -7  -1  -4   12.44    0.50
  -5  -1  -4    1.89    0.18
  -3  -1  -4    0.59    0.11
  -1  -1  -4    9.71    0.37
   1  -1  -4    2.36    0.20
   3  -1  -4    1.49    0.16
   5  -1  -4    3.64    0.24
   7  -1  -4    0.96    0.15
   9  -1  -4    4.05    0.31
  11  -1  -4    3.14    0.30
  13  -1  -4  125.80    2.64
  15  -1  -4    0.16    0.14
  17  -1  -4   75.47    1.86
  19  -1  -4   33.84    1.16
  21  -1  -4    0.48    0.23
  23  -1  -4   -0.09    0.27
  25  -1  -4   20.41    1.43
  27  -1  -4   16.43    1.62
  29  -1  -4   31.47    2.08
 -26   0  -4    7.97    1.53
 -24   0  -4   21.87    2.95
 -22   0  -4    5.20    0.97
 -20   0  -4    3.46    0.81
 -18   0  -4    9.98    1.01
 -16   0  -4   43.20    1.92
 -14   0  -4    4.35    0.67
 -12   0  -4    0.19    0.16
 -10   0  -4    0.68    0.19
  -8   0  -4   16.38    0.65
  -6   0  -4   58.21    1.63
  -4   0  -4    8.00    0.35
  -2   0  -4  325.41    6.49
   0   0  -4    5.00    0.29
   2   0  -4  200.02    3.52
   4   0  -4    0.04    0.08
   6   0  -4  489.40    8.62
   8   0  -4   31.61    0.82
  10   0  -4   17.88    0.59
  12   0  -4    0.45    0.13
  14   0  -4   17.44    0.67
  16   0  -4   11.37    0.61
  18   0  -4    1.28    0.27
  20   0  -4   30.11    1.29
  22   0  -4   20.00    1.18
  24   0  -4    4.12    0.61
  26   0  -4    0.11    0.28
  28   0  -4   34.70    2.08
  30   0  -4    9.12    1.23
 -25   1  -4   19.21    1.84
 -23   1  -4   15.44    1.65
 -21   1  -4   46.81    4.13
 -19   1  -4    7.77    1.28
 -17   1  -4    4.32    0.98
 -15   1  -4   56.02    2.98
 -13   1  -4   27.36    1.93
 -11   1  -4   18.01    1.00
  -9   1  -4   78.74    2.23
  -7   1  -4   12.24    0.61
  -5   1  -4    2.32    0.27
  -3   1  -4    0.92    0.16
  -1   1  -4    9.76    0.42
   1   1  -4    2.32    0.20
   3   1  -4    1.47    0.16
   5   1  -4    3.03    0.23
   7   1  -4    0.91    0.13
   9   1  -4    3.72    0.25
  11   1  -4    3.60    0.27
  13   1  -4  129.30    2.44
  15   1  -4    0.42    0.17
  17   1  -4   76.12    2.02
  19   1  -4   36.37    1.23
  21   1  -4    0.51    0.26
  23   1  -4    0.19    0.28
  25   1  -4   22.51    1.70
  27   1  -4   17.18    1.53
  29   1  -4   30.10    1.96
 -24   2  -4   17.75    1.97
 -22   2  -4    3.25    0.97
 -20   2  -4    1.15    0.69
 -18   2  -4    5.70    1.13
 -16   2  -4   29.50    2.52
 -14   2  -4    2.52    0.55
 -12   2  -4    0.59    0.31
 -10   2  -4    0.56    0.31
  -8   2  -4   12.10    1.02
  -6   2  -4   39.65    1.64
  -4   2  -4    6.74    0.41
  -2   2  -4  211.78    4.01
   0   2  -4    2.63    0.24
   2   2  -4  123.80    2.40
   4   2  -4   -0.10    0.06
   6   2  -4  331.47    5.29
   8   2  -4   23.58    0.74
  10   2  -4   13.15    0.57
  12   2  -4    0.37    0.15
  14   2  -4   12.71    0.69
  16   2  -4    7.41    0.67
  18   2  -4    1.12    0.34
  20   2  -4   26.60    1.36
  22   2  -4   18.92    1.27
  24   2  -4    5.45    0.75
  26   2  -4   -0.28    0.36
  28   2  -4   33.74    1.95
 -23   3  -4   11.84    2.87
 -21   3  -4   25.35    2.49
 -19   3  -4    3.69    1.06
 -17   3  -4    4.34    1.02
 -15   3  -4   37.45    2.58
 -13   3  -4   16.89    1.69
 -11   3  -4   11.66    0.95
  -9   3  -4   46.13    1.64
  -7   3  -4    6.48    0.62
  -5   3  -4    0.91    0.24
  -3   3  -4    0.19    0.16
  -1   3  -4    4.80    0.44
   1   3  -4    1.87    0.24
   3   3  -4    0.70    0.16
   5   3  -4    0.89    0.16
   7   3  -4    0.35    0.18
   9   3  -4    1.60    0.30
  11   3  -4    1.81    0.34
  13   3  -4   75.56    1.95
  15   3  -4    0.10    0.20
  17   3  -4   45.00    1.75
  19   3  -4   21.25    1.40
  21   3  -4   -0.21    0.29
  23   3  -4   -0.28    0.30
  25   3  -4   15.87    1.64
  27   3  -4   10.27    2.09
 -20   4  -4    1.85    1.53
 -18   4  -4    3.90    1.10
 -16   4  -4   16.01    1.89
 -14   4  -4    1.91    0.66
 -12   4  -4   -0.02    0.37
 -10   4  -4    0.47    0.36
  -8   4  -4    6.14    0.84
  -6   4  -4   21.96    1.03
  -4   4  -4    4.41    0.51
  -2   4  -4  103.24    2.68
   0   4  -4    1.23    0.27
   2   4  -4   54.33    2.13
   4   4  -4   -0.13    0.19
   6   4  -4  148.34    3.85
   8   4  -4   11.71    0.90
  10   4  -4    8.35    0.95
  12   4  -4    0.59    0.30
  14   4  -4    5.41    0.67
  16   4  -4    5.71    0.73
  18   4  -4    0.97    0.49
  20   4  -4    9.98    1.25
  22   4  -4    7.81    1.20
  24   4  -4    1.90    1.20
 -15   5  -4   15.29    2.01
 -13   5  -4    5.78    1.12
 -11   5  -4    4.62    0.95
  -9   5  -4   23.10    1.86
  -7   5  -4    3.88    0.76
  -5   5  -4    1.81    0.48
  -3   5  -4    0.35    0.52
  -1   5  -4    0.50    0.36
   1   5  -4    1.14    0.45
   3   5  -4    0.02    0.32
   5   5  -4    0.19    0.35
   7   5  -4   -0.23    0.27
   9   5  -4    0.65    0.39
  11   5  -4    0.34    0.39
  13   5  -4   33.38    1.67
  15   5  -4   -0.35    0.36
  17   5  -4   23.45    2.07
  19   5  -4   10.56    2.10
  -4   6  -4    0.45    0.67
  -2   6  -4   43.57    3.52
   0   6  -4    1.08    0.82
   2   6  -4   19.81    2.60
   4   6  -4   -0.04    0.42
   6   6  -4   63.79    2.96
   8   6  -4    6.49    1.05
  10   6  -4    3.31    0.86
  -6  -6  -3    0.53    0.47
  -4  -6  -3   -0.29    0.37
  -2  -6  -3    1.05    0.52
   0  -6  -3   14.26    1.38
   2  -6  -3    1.58    0.56
   4  -6  -3    5.84    0.90
   6  -6  -3    0.14    0.42
   8  -6  -3    1.78    0.59
  10  -6  -3    2.04    1.08
 -15  -5  -3    1.95    0.72
 -13  -5  -3    5.13    0.87
 -11  -5  -3   66.97    2.89
  -9  -5  -3   68.66    2.26
  -7  -5  -3    1.34    0.39
  -5  -5  -3    2.17    0.42
  -3  -5  -3   11.87    0.89
  -1  -5  -3   93.58    3.21
   1  -5  -3   18.40    1.36
   3  -5  -3   80.07    2.88
   5  -5  -3    9.07    0.97
   7  -5  -3    0.43    0.30
   9  -5  -3    0.02    0.27
  11  -5  -3   45.61    2.06
  13  -5  -3    0.20    0.30
  15  -5  -3   42.87    2.35
  17  -5  -3    2.12    0.79
  19  -5  -3    3.43    1.24
 -20  -4  -3   52.87    2.55
 -18  -4  -3    0.10    0.43
 -16  -4  -3    0.80    0.46
 -14  -4  -3    7.82    1.02
 -12  -4  -3    7.77    0.99
 -10  -4  -3    2.72    0.48
  -8  -4  -3   56.34    1.86
  -6  -4  -3    1.42    0.33
  -4  -4  -3   -0.14    0.15
  -2  -4  -3    1.61    0.30
   0  -4  -3   24.51    0.96
   2  -4  -3    5.55    0.49
   4  -4  -3   16.19    0.96
   6  -4  -3    0.56    0.24
   8  -4  -3    3.96    0.48
  10  -4  -3    5.27    0.58
  12  -4  -3   87.79    2.72
  14  -4  -3   28.11    1.30
  16  -4  -3   -0.05    0.22
  18  -4  -3   21.21    1.22
  20  -4  -3   18.36    1.78
  22  -4  -3   55.44    2.87
 -23  -3  -3   14.65    1.44
 -21  -3  -3    2.55    0.65
 -19  -3  -3   44.92    2.17
 -17  -3  -3    5.21    0.81
 -15  -3  -3    1.94    0.51
 -13  -3  -3   10.02    0.83
 -11  -3  -3  146.67    3.60
  -9  -3  -3  130.02    3.20
  -7  -3  -3    3.45    0.41
  -5  -3  -3    6.91    0.53
  -3  -3  -3   24.38    0.89
  -1  -3  -3  207.93    4.49
   1  -3  -3   35.29    0.94
   3  -3  -3  183.63    3.39
   5  -3  -3   18.65    0.63
   7  -3  -3    1.21    0.18
   9  -3  -3    0.03    0.14
  11  -3  -3   92.02    2.44
  13  -3  -3    0.20    0.17
  15  -3  -3   79.50    2.35
  17  -3  -3    4.64    0.58
  19  -3  -3    6.55    0.72
  21  -3  -3    0.69    0.35
  23  -3  -3   40.48    2.45
  25  -3  -3    1.53    0.68
 -26  -2  -3    2.92    1.04
 -24  -2  -3   24.07    2.74
 -22  -2  -3    1.36    0.56
 -20  -2  -3   82.44    3.04
 -18  -2  -3    0.09    0.30
 -16  -2  -3    4.25    0.69
 -14  -2  -3   14.32    0.87
 -12  -2  -3   13.91    0.79
 -10  -2  -3    6.97    0.56
  -8  -2  -3  106.50    2.55
  -6  -2  -3    2.72    0.30
  -4  -2  -3    0.24    0.12
  -2  -2  -3    4.04    0.32
   0  -2  -3   46.76    1.00
   2  -2  -3   10.56    0.38
   4  -2  -3   31.28    0.78
   6  -2  -3    1.07    0.15
   8  -2  -3    7.13    0.37
  10  -2  -3   12.79    0.50
  12  -2  -3  172.36    3.65
  14  -2  -3   49.84    1.29
  16  -2  -3    0.04    0.16
  18  -2  -3   41.22    1.57
  20  -2  -3   31.79    1.46
  22  -2  -3   91.71    2.84
  24  -2  -3   15.14    1.22
  26  -2  -3   12.80    1.49
  28  -2  -3   14.93    1.64
 -25  -1  -3    0.78    0.72
 -23  -1  -3   19.34    1.61
 -21  -1  -3    2.91    0.84
 -19  -1  -3   65.74    2.42
 -17  -1  -3    9.39    0.91
 -15  -1  -3    3.99    0.47
 -13  -1  -3   17.89    0.79
 -11  -1  -3  237.90    5.03
  -9  -1  -3  216.44    4.54
  -7  -1  -3    6.60    0.38
  -5  -1  -3   13.71    0.48
  -3  -1  -3   49.08    1.13
  -1  -1  -3  409.35    7.81
   1  -1  -3   72.56    1.58
   3  -1  -3  359.79    5.48
   5  -1  -3   39.09    0.86
   7  -1  -3    2.16    0.20
   9  -1  -3   -0.09    0.07
  11  -1  -3  155.79    3.03
  13  -1  -3    0.45    0.13
  15  -1  -3  131.02    2.76
  17  -1  -3    7.68    0.57
  19  -1  -3   12.86    0.79
  21  -1  -3    0.53    0.32
  23  -1  -3   49.22    1.89
  25  -1  -3    0.83    0.34
  27  -1  -3    9.39    0.96
  29  -1  -3    5.71    1.02
 -24   0  -3   32.59    3.04
 -22   0  -3    0.06    0.43
 -20   0  -3  105.16    3.95
 -18   0  -3    0.51    0.34
 -16   0  -3    4.74    0.52
 -14   0  -3   19.16    0.89
 -12   0  -3   19.52    0.81
 -10   0  -3    9.15    0.55
  -8   0  -3  143.98    3.19
  -6   0  -3    3.14    0.27
  -4   0  -3   -0.02    0.07
  -2   0  -3    5.46    0.24
   0   0  -3   69.69    1.52
   2   0  -3   17.00    0.43
   4   0  -3   49.80    0.93
   6   0  -3    1.27    0.14
   8   0  -3    9.76    0.37
  10   0  -3   17.84    0.57
  12   0  -3  227.30    4.10
  14   0  -3   63.82    1.39
  16   0  -3    0.39    0.15
  18   0  -3   49.76    1.28
  20   0  -3   35.36    1.39
  22   0  -3  112.94    3.09
  24   0  -3   18.57    1.22
  26   0  -3   13.69    1.40
  28   0  -3   17.10    1.62
  30   0  -3    0.14    0.43
 -27   1  -3    0.76    0.72
 -25   1  -3    1.02    0.70
 -23   1  -3   19.15    1.79
 -21   1  -3    2.61    0.70
 -19   1  -3   69.00    5.13
 -17   1  -3    7.78    1.19
 -15   1  -3    3.90    0.87
 -13   1  -3   16.46    0.95
 -11   1  -3  227.69    5.52
  -9   1  -3  211.91    4.80
  -7   1  -3    7.49    0.43
  -5   1  -3   14.00    0.53
  -3   1  -3   46.47    1.20
  -1   1  -3  396.55    8.13
   1   1  -3   70.33    1.39
   3   1  -3  354.27    6.31
   5   1  -3   37.15    0.88
   7   1  -3    2.56    0.22
   9   1  -3    0.17    0.08
  11   1  -3  157.35    2.82
  13   1  -3    0.19    0.13
  15   1  -3  132.68    2.75
  17   1  -3    6.20    0.55
  19   1  -3   13.38    0.84
  21   1  -3    0.27    0.25
  23   1  -3   49.66    1.68
  25   1  -3    0.56    0.36
  27   1  -3    7.83    1.04
  29   1  -3    4.26    0.81
 -26   2  -3    3.01    1.06
 -24   2  -3   29.34    2.47
 -22   2  -3   -0.01    0.53
 -20   2  -3   77.54    3.68
 -18   2  -3    0.79    0.52
 -16   2  -3    2.34    0.69
 -14   2  -3   13.97    1.12
 -12   2  -3   13.00    0.96
 -10   2  -3    7.59    0.67
  -8   2  -3  106.29    2.76
  -6   2  -3    1.90    0.29
  -4   2  -3    0.03    0.08
  -2   2  -3    3.86    0.27
   0   2  -3   47.68    1.06
   2   2  -3   10.93    0.39
   4   2  -3   30.99    0.75
   6   2  -3    1.11    0.11
   8   2  -3    6.97    0.45
  10   2  -3   12.58    0.58
  12   2  -3  166.26    3.44
  14   2  -3   49.81    1.39
  16   2  -3    0.00    0.17
  18   2  -3   40.21    1.52
  20   2  -3   30.07    1.33
  22   2  -3   91.42    2.73
  24   2  -3   13.41    1.12
  26   2  -3   11.31    1.08
  28   2  -3   15.89    1.52
 -23   3  -3   13.93    1.86
 -21   3  -3    2.42    0.86
 -19   3  -3   44.37    2.67
 -17   3  -3    5.86    1.09
 -15   3  -3    1.52    0.61
 -13   3  -3    8.95    1.13
 -11   3  -3  144.04    4.79
  -9   3  -3  132.84    3.30
  -7   3  -3    4.51    0.47
  -5   3  -3    6.69    0.55
  -3   3  -3   24.28    0.90
  -1   3  -3  214.89    3.96
   1   3  -3   35.88    0.97
   3   3  -3  179.40    3.48
   5   3  -3   19.75    0.63
   7   3  -3    1.21    0.27
   9   3  -3    0.00    0.15
  11   3  -3   95.21    2.53
  13   3  -3    0.23    0.21
  15   3  -3   81.60    2.41
  17   3  -3    3.65    0.52
  19   3  -3    8.78    1.05
  21   3  -3    0.27    0.39
  23   3  -3   37.38    2.09
  25   3  -3    0.85    0.56
  27   3  -3    5.07    1.49
 -20   4  -3   45.12    3.23
 -18   4  -3    0.08    0.55
 -16   4  -3    1.26    0.65
 -14   4  -3    6.67    1.04
 -12   4  -3    8.73    1.12
 -10   4  -3    2.63    0.61
  -8   4  -3   57.85    2.38
  -6   4  -3    1.06    0.30
  -4   4  -3    0.08    0.18
  -2   4  -3    2.50    0.34
   0   4  -3   24.05    0.95
   2   4  -3    5.86    0.51
   4   4  -3   16.26    0.89
   6   4  -3    0.24    0.21
   8   4  -3    3.84    0.53
  10   4  -3    5.81    0.65
  12   4  -3   89.77    2.68
  14   4  -3   27.15    1.36
  16   4  -3   -0.04    0.28
  18   4  -3   19.95    1.75
  20   4  -3   19.39    1.72
  22   4  -3   54.78    2.74
  24   4  -3   10.91    2.43
 -15   5  -3    1.33    0.74
 -13   5  -3    5.42    1.02
 -11   5  -3   73.08    3.09
  -9   5  -3   68.33    2.86
  -7   5  -3    1.68    0.50
  -5   5  -3    3.68    0.67
  -3   5  -3   11.18    1.08
  -1   5  -3   91.75    3.38
   1   5  -3   12.55    1.21
   3   5  -3   76.51    3.01
   5   5  -3    9.19    1.03
   7   5  -3    0.86    0.41
   9   5  -3    0.13    0.32
  11   5  -3   47.42    1.91
  13   5  -3   -0.17    0.31
  15   5  -3   42.95    1.90
  17   5  -3    1.87    0.76
  19   5  -3    4.33    1.31
  -8   6  -3   31.54    2.53
  -6   6  -3   -0.25    0.60
  -4   6  -3    0.80    0.74
  -2   6  -3    0.74    0.69
   0   6  -3   11.39    2.03
   2   6  -3    1.75    0.90
   4   6  -3    7.78    1.12
   6   6  -3    0.40    0.51
   8   6  -3    1.49    0.61
  10   6  -3    2.55    0.76
 -10  -6  -2    0.88    0.98
  -8  -6  -2   10.51    1.25
  -6  -6  -2   42.81    2.19
  -4  -6  -2    8.16    1.08
  -2  -6  -2    1.44    0.49
   0  -6  -2    0.19    0.38
   2  -6  -2    0.52    0.41
   4  -6  -2    1.62    0.54
   6  -6  -2    7.56    1.03
   8  -6  -2   26.18    2.96
  10  -6  -2    9.70    1.90
 -17  -5  -2    8.80    1.91
 -15  -5  -2   26.40    2.09
 -13  -5  -2    0.08    0.38
 -11  -5  -2    1.35    0.42
  -9  -5  -2    1.15    0.38
  -7  -5  -2    0.42    0.28
  -5  -5  -2    0.00    0.24
  -3  -5  -2   63.39    2.52
  -1  -5  -2    0.06    0.24
   1  -5  -2    8.50    0.90
   3  -5  -2    0.11    0.26
   5  -5  -2   87.71    3.02
   7  -5  -2    3.78    0.63
   9  -5  -2    1.94    0.47
  11  -5  -2    1.36    0.37
  13  -5  -2    8.55    1.18
  15  -5  -2    4.96    0.95
  17  -5  -2   22.46    1.99
  19  -5  -2   20.12    2.70
 -20  -4  -2    4.59    0.87
 -18  -4  -2   26.25    2.00
 -16  -4  -2   15.87    1.52
 -14  -4  -2   17.65    1.22
 -12  -4  -2    7.46    0.76
 -10  -4  -2    0.86    0.29
  -8  -4  -2   25.28    1.11
  -6  -4  -2  107.11    2.77
  -4  -4  -2   16.40    0.89
  -2  -4  -2    1.98    0.32
   0  -4  -2    0.96    0.23
   2  -4  -2    0.09    0.15
   4  -4  -2    1.52    0.30
   6  -4  -2   15.23    0.85
   8  -4  -2   75.50    2.16
  10  -4  -2   19.48    0.97
  12  -4  -2   15.64    0.94
  14  -4  -2    2.66    0.45
  16  -4  -2   11.27    1.29
  18  -4  -2   12.58    1.40
  20  -4  -2    2.65    0.75
  22  -4  -2   -0.22    0.47
 -25  -3  -2    7.53    1.58
 -23  -3  -2    0.96    0.54
 -21  -3  -2   32.18    2.00
 -19  -3  -2   10.60    1.21
 -17  -3  -2   15.03    1.37
 -15  -3  -2   48.03    1.73
 -13  -3  -2   -0.03    0.19
 -11  -3  -2    3.02    0.42
  -9  -3  -2    2.02    0.34
  -7  -3  -2    2.81    0.37
  -5  -3  -2    0.15    0.13
  -3  -3  -2  148.01    3.35
  -1  -3  -2    0.29    0.13
   1  -3  -2   18.51    0.60
   3  -3  -2   -0.11    0.09
   5  -3  -2  201.08    3.70
   7  -3  -2    6.65    0.36
   9  -3  -2    5.78    0.52
  11  -3  -2    3.03    0.41
  13  -3  -2   16.66    0.92
  15  -3  -2    8.48    0.72
  17  -3  -2   39.81    1.51
  19  -3  -2   27.51    1.41
  21  -3  -2    6.12    1.00
  23  -3  -2   13.76    1.55
  25  -3  -2    3.60    0.91
  27  -3  -2   24.76    3.92
 -26  -2  -2   34.41    2.82
 -24  -2  -2    5.27    0.88
 -22  -2  -2    1.31    0.48
 -20  -2  -2    8.78    0.99
 -18  -2  -2   40.05    1.90
 -16  -2  -2   28.20    1.45
 -14  -2  -2   35.03    1.56
 -12  -2  -2   17.65    1.09
 -10  -2  -2    3.21    0.45
  -8  -2  -2   56.86    1.37
  -6  -2  -2  226.11    4.81
  -4  -2  -2   31.93    0.95
  -2  -2  -2    3.11    0.22
   0  -2  -2    1.17    0.14
   2  -2  -2    0.12    0.08
   4  -2  -2    2.97    0.23
   6  -2  -2   26.64    0.71
   8  -2  -2  161.73    3.01
  10  -2  -2   44.34    1.17
  12  -2  -2   38.76    0.99
  14  -2  -2    7.64    0.64
  16  -2  -2   21.09    1.06
  18  -2  -2   24.88    1.18
  20  -2  -2    4.17    0.59
  22  -2  -2   -0.15    0.26
  24  -2  -2   -0.05    0.35
  26  -2  -2   15.86    1.63
  28  -2  -2   21.10    1.89
 -23  -1  -2    2.47    0.85
 -21  -1  -2   48.05    2.01
 -19  -1  -2   14.38    0.98
 -17  -1  -2   22.66    1.28
 -15  -1  -2   69.81    2.51
 -13  -1  -2   -0.05    0.17
 -11  -1  -2    6.39    0.63
  -9  -1  -2    2.65    0.36
  -7  -1  -2    6.71    0.45
  -5  -1  -2    0.13    0.07
  -3  -1  -2  306.98    5.95
  -1  -1  -2    1.46    0.16
   1  -1  -2   45.19    0.87
   3  -1  -2   -0.11    0.08
   5  -1  -2  405.22    6.96
   7  -1  -2   10.53    0.41
   9  -1  -2   13.85    0.52
  11  -1  -2    4.03    0.31
  13  -1  -2   32.28    0.94
  15  -1  -2   12.89    0.62
  17  -1  -2   65.75    1.66
  19  -1  -2   46.87    1.40
  21  -1  -2    9.03    0.86
  23  -1  -2   19.94    1.29
  25  -1  -2    6.10    0.76
  27  -1  -2   38.04    2.10
  29  -1  -2   19.54    1.78
 -24   0  -2    6.41    1.27
 -22   0  -2    2.88    0.77
 -20   0  -2   11.13    0.97
 -18   0  -2   50.76    2.04
 -16   0  -2   39.74    2.22
 -14   0  -2   44.63    2.44
 -12   0  -2   25.91    1.61
 -10   0  -2    5.62    0.76
  -8   0  -2   79.39    3.35
  -6   0  -2  334.93    7.81
  -4   0  -2   44.70    1.03
  -2   0  -2    3.43    0.17
   0   0  -2    1.69    0.12
   2   0  -2    0.26    0.06
   4   0  -2    2.12    0.15
   6   0  -2   40.41    0.82
   8   0  -2  234.77    3.90
  10   0  -2   62.98    1.16
  12   0  -2   54.23    1.14
  14   0  -2   10.34    0.48
  16   0  -2   26.84    0.75
  18   0  -2   33.42    0.89
  20   0  -2    4.48    0.51
  22   0  -2    0.12    0.20
  24   0  -2    0.11    0.24
  26   0  -2   25.74    1.69
  28   0  -2   30.42    1.94
  30   0  -2    9.95    1.92
 -27   1  -2   49.48    2.38
 -25   1  -2   11.68    1.82
 -23   1  -2    2.20    0.62
 -21   1  -2   43.65    2.34
 -19   1  -2   12.49    1.39
 -17   1  -2   22.81    1.39
 -15   1  -2   62.55    2.95
 -13   1  -2    0.09    0.21
 -11   1  -2    6.11    0.52
  -9   1  -2    2.64    0.29
  -7   1  -2    7.76    0.38
  -5   1  -2   -0.01    0.07
  -3   1  -2  298.14    6.13
  -1   1  -2    1.27    0.15
   1   1  -2   44.25    0.90
   3   1  -2   -0.23    0.07
   5   1  -2  406.77    7.18
   7   1  -2    9.70    0.38
   9   1  -2   13.71    0.39
  11   1  -2    4.94    0.28
  13   1  -2   31.93    0.79
  15   1  -2   13.90    0.70
  17   1  -2   60.72    1.57
  19   1  -2   46.79    1.47
  21   1  -2    8.69    0.74
  23   1  -2   21.59    1.18
  25   1  -2    6.48    0.88
  27   1  -2   34.69    1.84
  29   1  -2   20.46    2.40
 -26   2  -2   34.48    2.18
 -24   2  -2    6.21    1.38
 -22   2  -2    0.88    0.54
 -20   2  -2    6.59    1.12
 -18   2  -2   37.36    2.22
 -16   2  -2   25.19    2.01
 -14   2  -2   36.88    1.50
 -12   2  -2   17.91    0.91
 -10   2  -2    3.97    0.43
  -8   2  -2   56.62    1.60
  -6   2  -2  232.05    4.97
  -4   2  -2   32.36    0.97
  -2   2  -2    2.66    0.22
   0   2  -2    1.03    0.14
   2   2  -2    0.27    0.09
   4   2  -2    2.01    0.17
   6   2  -2   27.71    0.70
   8   2  -2  161.20    2.75
  10   2  -2   43.57    0.99
  12   2  -2   38.02    1.13
  14   2  -2    6.12    0.52
  16   2  -2   20.05    0.90
  18   2  -2   22.02    1.09
  20   2  -2    3.75    0.54
  22   2  -2   -0.31    0.21
  24   2  -2    0.46    0.34
  26   2  -2   20.61    1.42
  28   2  -2   22.17    1.80
 -23   3  -2    0.95    1.00
 -21   3  -2   35.91    2.74
 -19   3  -2    8.17    1.27
 -17   3  -2   15.44    1.63
 -15   3  -2   46.74    2.34
 -13   3  -2    0.05    0.29
 -11   3  -2    1.65    0.48
  -9   3  -2    2.07    0.34
  -7   3  -2    2.86    0.36
  -5   3  -2    0.21    0.15
  -3   3  -2  151.75    3.41
  -1   3  -2    0.36    0.14
   1   3  -2   18.23    0.61
   3   3  -2    0.02    0.10
   5   3  -2  200.13    3.81
   7   3  -2    5.76    0.35
   9   3  -2    6.20    0.57
  11   3  -2    3.33    0.45
  13   3  -2   17.91    0.95
  15   3  -2    9.21    0.81
  17   3  -2   41.55    1.63
  19   3  -2   28.42    1.51
  21   3  -2    7.30    1.01
  23   3  -2   13.73    1.48
  25   3  -2    4.12    0.85
  27   3  -2   22.45    3.11
 -20   4  -2    3.99    0.79
 -18   4  -2   24.50    2.25
 -16   4  -2   16.59    1.67
 -14   4  -2   20.26    1.73
 -12   4  -2   10.02    1.14
 -10   4  -2    1.34    0.44
  -8   4  -2   26.36    1.42
  -6   4  -2  105.79    3.48
  -4   4  -2   17.46    0.82
  -2   4  -2    1.50    0.27
   0   4  -2    0.71    0.21
   2   4  -2    0.24    0.17
   4   4  -2    1.47    0.24
   6   4  -2   14.36    0.97
   8   4  -2   75.66    2.30
  10   4  -2   19.22    1.06
  12   4  -2   16.67    1.16
  14   4  -2    3.41    0.54
  16   4  -2   12.58    1.09
  18   4  -2   15.66    1.26
  20   4  -2    2.67    0.75
  22   4  -2   -0.45    0.46
 -17   5  -2    6.81    1.26
 -15   5  -2   25.80    1.84
 -13   5  -2    0.42    0.41
 -11   5  -2    1.19    0.46
  -9   5  -2    1.36    0.51
  -7   5  -2    0.27    0.30
  -5   5  -2    0.23    0.30
  -3   5  -2   66.56    2.55
  -1   5  -2    0.09    0.23
   1   5  -2    6.94    0.87
   3   5  -2    0.46    0.35
   5   5  -2   81.19    3.19
   7   5  -2    3.79    0.72
   9   5  -2    1.45    0.44
  11   5  -2    2.01    0.51
  13   5  -2    7.04    0.86
  15   5  -2    6.05    0.85
  17   5  -2   19.67    1.57
  19   5  -2   11.73    2.07
 -10   6  -2   -0.01    0.57
  -8   6  -2   10.98    1.28
  -6   6  -2   42.68    2.28
  -4   6  -2    8.49    1.81
  -2   6  -2    0.86    0.77
   0   6  -2   -0.27    0.54
   2   6  -2    0.05    0.56
   4   6  -2    2.31    0.71
   6   6  -2    9.05    1.23
   8   6  -2   26.71    1.99
  10   6  -2    8.23    1.23
 -10  -6  -1    9.65    1.89
  -8  -6  -1    0.33    0.42
  -6  -6  -1   12.65    1.35
  -4  -6  -1    0.60    0.41
  -2  -6  -1    0.49    0.42
   0  -6  -1    0.22    0.39
   2  -6  -1    0.16    0.36
   4  -6  -1    0.91    0.80
   6  -6  -1    7.53    1.63
   8  -6  -1    0.41    0.63
  10  -6  -1    6.54    1.53
 -17  -5  -1   14.53    1.60
 -15  -5  -1    0.82    0.44
 -13  -5  -1    0.14    0.34
 -11  -5  -1    0.29    0.32
  -9  -5  -1    2.77    0.50
  -7  -5  -1    1.85    0.41
  -5  -5  -1   79.13    2.34
  -3  -5  -1   -0.18    0.22
  -1  -5  -1   -0.22    0.22
   1  -5  -1    0.13    0.23
   3  -5  -1    1.00    0.30
   5  -5  -1   14.60    1.16
   7  -5  -1   86.87    2.53
   9  -5  -1   21.85    1.20
  11  -5  -1    0.95    0.50
  13  -5  -1    2.10    0.65
  15  -5  -1    7.92    1.19
  17  -5  -1   42.09    2.42
  19  -5  -1    0.87    0.88
 -22  -4  -1    0.06    0.44
 -20  -4  -1   10.52    1.28
 -18  -4  -1    1.33    0.44
 -16  -4  -1   56.63    2.08
 -14  -4  -1   28.70    1.64
 -12  -4  -1    9.35    1.03
 -10  -4  -1   20.16    1.14
  -8  -4  -1   -0.13    0.17
  -6  -4  -1   29.00    1.16
  -4  -4  -1    0.36    0.20
  -2  -4  -1    0.67    0.22
   2  -4  -1    0.87    0.24
   4  -4  -1    0.13    0.16
   6  -4  -1   14.07    0.79
   8  -4  -1    2.10    0.35
  10  -4  -1   19.03    0.93
  12  -4  -1    3.12    0.43
  14  -4  -1    3.80    0.73
  16  -4  -1    0.08    0.37
  18  -4  -1   31.67    1.96
  20  -4  -1    5.77    1.03
  22  -4  -1    4.99    1.00
 -25  -3  -1    3.07    0.81
 -23  -3  -1    0.41    0.43
 -21  -3  -1    0.13    0.50
 -19  -3  -1    0.17    0.32
 -17  -3  -1   23.10    1.56
 -15  -3  -1    1.65    0.46
 -13  -3  -1    0.07    0.24
 -11  -3  -1   -0.07    0.18
  -9  -3  -1    4.88    0.58
  -7  -3  -1    2.99    0.44
  -5  -3  -1  177.74    3.81
  -3  -3  -1    0.33    0.13
  -1  -3  -1    0.86    0.15
   1  -3  -1    0.39    0.12
   3  -3  -1    2.23    0.22
   5  -3  -1   34.25    0.86
   7  -3  -1  194.11    4.32
   9  -3  -1   48.46    1.24
  11  -3  -1    2.78    0.32
  13  -3  -1    3.42    0.38
  15  -3  -1   15.78    0.84
  17  -3  -1   80.51    2.37
  19  -3  -1    0.81    0.46
  21  -3  -1    0.05    0.43
  23  -3  -1    3.44    0.86
  25  -3  -1   16.42    1.76
 -28  -2  -1   34.19    2.87
 -26  -2  -1    0.73    0.54
 -24  -2  -1    0.10    0.51
 -22  -2  -1   -0.01    0.47
 -20  -2  -1   17.61    1.45
 -18  -2  -1    2.57    0.55
 -16  -2  -1   97.99    3.33
 -14  -2  -1   51.94    2.11
 -12  -2  -1   21.16    0.81
 -10  -2  -1   40.40    1.17
  -8  -2  -1    0.42    0.12
  -6  -2  -1   62.98    1.44
  -4  -2  -1    0.67    0.11
  -2  -2  -1    1.22    0.15
   0  -2  -1    1.81    0.17
   2  -2  -1    0.85    0.12
   4  -2  -1    0.12    0.07
   6  -2  -1   27.28    0.62
   8  -2  -1    5.19    0.23
  10  -2  -1   41.79    0.89
  12  -2  -1    6.85    0.47
  14  -2  -1    6.42    0.49
  16  -2  -1    0.33    0.20
  18  -2  -1   58.68    1.66
  20  -2  -1   10.49    0.78
  22  -2  -1   14.41    1.49
  24  -2  -1   11.95    1.38
  26  -2  -1    4.84    0.92
  28  -2  -1    1.15    0.60
 -25  -1  -1    3.94    0.70
 -23  -1  -1   -0.10    0.38
 -21  -1  -1    0.35    0.34
 -19  -1  -1    0.51    0.27
 -17  -1  -1   41.17    1.46
 -15  -1  -1    2.92    0.53
 -13  -1  -1    0.89    0.32
 -11  -1  -1   -0.07    0.13
  -9  -1  -1   11.09    0.53
  -7  -1  -1    6.58    0.37
  -5  -1  -1  342.52    6.69
  -3  -1  -1    1.11    0.11
  -1  -1  -1    1.74    0.11
   1  -1  -1    0.82    0.09
   3  -1  -1    4.02    0.19
   5  -1  -1   70.26    1.20
   7  -1  -1  362.83    5.57
   9  -1  -1   88.80    1.60
  11  -1  -1    4.51    0.31
  13  -1  -1    5.30    0.36
  15  -1  -1   22.74    0.73
  17  -1  -1  129.89    2.44
  19  -1  -1    0.77    0.27
  21  -1  -1    0.49    0.25
  23  -1  -1    7.29    0.75
  25  -1  -1   21.34    1.75
  27  -1  -1    0.15    0.41
  29  -1  -1   13.94    1.47
 -24   0  -1    0.11    0.31
 -22   0  -1    0.22    0.34
 -20   0  -1   24.48    2.84
  -2   0  -1    2.39    0.14
   0   0  -1    3.96    0.17
   2   0  -1    1.88    0.09
   4   0  -1   -0.04    0.06
   6   0  -1   37.36    0.72
   8   0  -1    7.21    0.25
  10   0  -1   59.22    0.96
  12   0  -1   11.34    0.39
  14   0  -1    8.67    0.39
  16   0  -1    0.85    0.16
  18   0  -1   78.16    1.43
  20   0  -1   14.89    0.70
  22   0  -1   15.36    0.88
  24   0  -1   15.90    1.12
  26   0  -1    8.04    1.04
  28   0  -1    0.88    0.77
  30   0  -1   38.49    3.36
 -29   1  -1    4.64    1.20
 -27   1  -1    2.09    0.64
 -25   1  -1    4.80    0.81
 -23   1  -1    0.74    0.60
 -21   1  -1    0.01    0.37
 -19   1  -1   -0.21    0.32
 -17   1  -1   36.45    1.60
 -15   1  -1    2.69    0.49
 -13   1  -1    0.93    0.29
 -11   1  -1    0.36    0.25
  -9   1  -1   12.62    0.51
  -7   1  -1    7.03    0.32
  -5   1  -1  345.11    7.07
  -3   1  -1    0.99    0.15
  -1   1  -1    1.74    0.12
   1   1  -1    0.96    0.09
   3   1  -1    4.04    0.16
   5   1  -1   68.47    1.37
   7   1  -1  364.88    6.43
   9   1  -1   89.03    1.66
  11   1  -1    5.29    0.34
  13   1  -1    5.47    0.40
  15   1  -1   23.18    0.74
  17   1  -1  125.54    2.32
  19   1  -1    0.64    0.22
  21   1  -1    0.00    0.17
  23   1  -1    4.85    0.63
  25   1  -1   21.84    1.61
  27   1  -1    0.22    0.37
  29   1  -1   14.60    1.96
 -28   2  -1   22.14    2.79
 -26   2  -1    0.56    0.48
 -24   2  -1    0.11    0.35
 -22   2  -1   -0.07    0.51
 -20   2  -1   16.82    1.62
 -18   2  -1    2.22    0.61
 -16   2  -1   99.28    3.63
 -14   2  -1   55.46    2.32
 -12   2  -1   19.84    0.83
 -10   2  -1   41.98    1.27
  -8   2  -1    0.11    0.11
  -6   2  -1   59.68    1.53
  -4   2  -1    0.55    0.14
  -2   2  -1    0.93    0.13
   0   2  -1    1.66    0.17
   2   2  -1    1.17    0.14
   4   2  -1    0.14    0.08
   6   2  -1   27.79    0.72
   8   2  -1    4.76    0.32
  10   2  -1   42.12    1.07
  12   2  -1    7.52    0.45
  14   2  -1    6.22    0.55
  16   2  -1    0.45    0.24
  18   2  -1   58.94    1.78
  20   2  -1    9.76    0.83
  22   2  -1   12.22    1.01
  24   2  -1   11.44    1.01
  26   2  -1    5.94    1.00
  28   2  -1    0.25    0.61
 -25   3  -1    3.97    0.87
 -23   3  -1   -0.06    0.42
 -21   3  -1   -0.23    0.44
 -19   3  -1   -0.49    0.36
 -17   3  -1   22.31    1.85
 -15   3  -1    1.54    0.52
 -13   3  -1    0.45    0.29
 -11   3  -1   -0.07    0.21
  -9   3  -1    6.97    0.73
  -7   3  -1    3.74    0.38
  -5   3  -1  181.97    4.01
  -3   3  -1    0.73    0.19
  -1   3  -1    0.56    0.14
   1   3  -1    0.33    0.12
   3   3  -1    2.31    0.19
   5   3  -1   35.55    0.95
   7   3  -1  197.09    3.80
   9   3  -1   47.60    1.23
  11   3  -1    2.65    0.41
  13   3  -1    2.83    0.45
  15   3  -1   15.20    1.06
  17   3  -1   80.40    2.57
  19   3  -1    0.45    0.38
  21   3  -1    0.12    0.37
  23   3  -1    2.86    0.72
  25   3  -1   15.70    1.65
  27   3  -1    0.09    0.79
 -22   4  -1    0.24    0.51
 -20   4  -1    7.89    1.00
 -18   4  -1    1.81    0.52
 -16   4  -1   53.38    2.12
 -14   4  -1   26.96    1.80
 -12   4  -1    9.38    1.06
 -10   4  -1   19.00    1.33
  -8   4  -1    0.34    0.26
  -6   4  -1   29.68    1.42
  -4   4  -1    0.59    0.22
  -2   4  -1    0.21    0.18
   0   4  -1    0.46    0.18
   2   4  -1    0.50    0.17
   4   4  -1    0.07    0.13
   6   4  -1   14.10    0.97
   8   4  -1    2.13    0.41
  10   4  -1   19.97    1.09
  12   4  -1    3.97    0.59
  14   4  -1    3.85    0.60
  16   4  -1    0.05    0.30
  18   4  -1   33.09    1.64
  20   4  -1    4.34    0.79
  22   4  -1    5.39    1.00
 -17   5  -1   13.57    1.34
 -15   5  -1    1.45    0.53
 -13   5  -1    0.30    0.35
 -11   5  -1   -0.12    0.28
  -9   5  -1    2.13    0.54
  -7   5  -1    1.82    0.51
  -5   5  -1   83.95    2.97
  -3   5  -1    0.52    0.33
  -1   5  -1    0.34    0.26
   1   5  -1    0.17    0.21
   3   5  -1    0.89    0.41
   5   5  -1   13.31    1.25
   7   5  -1   84.08    3.28
   9   5  -1   20.96    1.43
  11   5  -1    1.34    0.44
  13   5  -1    1.55    0.51
  15   5  -1    5.74    0.85
  17   5  -1   44.77    2.06
  19   5  -1    0.95    0.67
 -10   6  -1    9.88    1.28
  -8   6  -1    0.50    0.45
  -6   6  -1   14.61    1.47
  -4   6  -1    0.98    0.72
  -2   6  -1    0.07    0.64
   0   6  -1    0.59    0.62
   2   6  -1    0.44    0.62
   4   6  -1   -0.13    0.50
   6   6  -1    8.21    1.20
   8   6  -1    2.07    0.74
  10   6  -1    8.30    1.24
 -10  -6   0    7.53    1.10
  -8  -6   0   25.28    1.97
  -6  -6   0    0.13    0.37
  -4  -6   0    0.45    0.43
  -2  -6   0    0.47    0.40
   0  -6   0  210.32    6.18
   2  -6   0   -0.57    0.45
   4  -6   0    0.13    0.65
   6  -6   0    0.39    0.66
   8  -6   0   26.99    3.00
 -19  -5   0    1.62    1.07
 -17  -5   0    0.24    0.44
 -15  -5   0    3.62    0.70
 -13  -5   0   22.01    1.53
 -11  -5   0   46.88    1.88
  -9  -5   0    4.77    0.64
  -7  -5   0    0.27    0.25
  -5  -5   0    5.89    0.78
  -3  -5   0    3.65    0.61
  -1  -5   0    4.12    0.63
   1  -5   0    4.23    0.66
   3  -5   0    4.50    0.64
   5  -5   0    5.47    0.61
   7  -5   0    0.04    0.32
   9  -5   0    5.10    0.85
  11  -5   0   47.87    2.37
  13  -5   0   25.50    2.00
  15  -5   0    3.87    0.84
  17  -5   0    1.12    0.61
 -22  -4   0   36.77    3.65
 -20  -4   0    5.53    1.01
 -18  -4   0    0.06    0.38
 -16  -4   0   32.41    1.85
 -14  -4   0   13.91    1.34
 -12  -4   0   72.41    2.76
 -10  -4   0   13.33    1.16
  -8  -4   0   56.70    2.23
  -6  -4   0    0.10    0.22
  -4  -4   0    1.88    0.39
  -2  -4   0    0.97    0.21
   0  -4   0  476.91    8.36
   2  -4   0    1.27    0.26
   4  -4   0    1.31    0.27
   6  -4   0    0.06    0.14
   8  -4   0   61.00    1.54
  10  -4   0   15.74    0.76
  12  -4   0   69.16    2.22
  14  -4   0   18.67    1.25
  16  -4   0   31.30    2.01
  18  -4   0    0.11    0.42
  20  -4   0    6.08    1.11
  22  -4   0   34.63    2.33
 -25  -3   0    0.62    0.67
 -23  -3   0   80.87    3.36
 -21  -3   0   33.30    1.89
 -19  -3   0    4.23    0.79
 -17  -3   0    0.49    0.35
 -15  -3   0   11.50    1.09
 -13  -3   0   49.72    2.08
 -11  -3   0   95.49    3.21
  -9  -3   0    9.50    0.84
  -7  -3   0    0.22    0.13
  -5  -3   0   14.08    0.57
  -3  -3   0    8.87    0.49
  -1  -3   0    6.40    0.44
   1  -3   0    7.03    0.40
   3  -3   0   10.04    0.36
   5  -3   0   12.20    0.51
   7  -3   0    0.10    0.10
   9  -3   0    8.62    0.53
  11  -3   0  100.47    2.18
  13  -3   0   49.06    1.37
  15  -3   0   12.80    0.98
  17  -3   0    0.28    0.26
  19  -3   0    5.59    0.75
  21  -3   0   30.75    1.57
  23  -3   0   86.46    3.66
  25  -3   0   -0.49    0.49
 -28  -2   0    0.29    0.74
 -26  -2   0    1.24    0.70
 -24  -2   0   27.38    1.81
 -22  -2   0   53.46    2.41
 -20  -2   0    8.17    1.00
 -18  -2   0    0.53    0.33
 -16  -2   0   56.18    2.33
 -14  -2   0   31.27    1.18
 -12  -2   0  133.32    3.09
 -10  -2   0   28.55    0.93
  -8  -2   0  126.73    2.80
  -6  -2   0    0.32    0.11
  -4  -2   0    1.29    0.17
  -2  -2   0    1.86    0.19
   0  -2   0  966.63   16.08
   2  -2   0    1.65    0.14
   4  -2   0    1.34    0.12
   6  -2   0    0.18    0.10
   8  -2   0  124.87    2.46
  10  -2   0   28.71    0.84
  12  -2   0  130.65    2.68
  14  -2   0   32.28    1.03
  16  -2   0   54.61    1.53
  18  -2   0    0.04    0.19
  20  -2   0    9.50    0.92
  22  -2   0   53.30    2.01
  24  -2   0   27.08    1.42
  26  -2   0    0.65    0.49
  28  -2   0    0.44    0.55
 -27  -1   0   -0.10    0.48
 -25  -1   0    0.04    0.39
 -23  -1   0  126.33    6.20
 -21  -1   0   53.45    2.33
 -19  -1   0    9.12    0.79
 -17  -1   0    1.16    0.28
 -15  -1   0   20.87    1.26
 -13  -1   0   83.81    2.82
 -11  -1   0  174.47    4.86
  -9  -1   0   12.70    0.70
  -7  -1   0    0.52    0.16
  -5  -1   0   30.57    0.81
  -3  -1   0   21.94    0.67
  -1  -1   0    9.82    0.27
   1  -1   0    9.29    0.26
   3  -1   0   20.61    0.50
   5  -1   0   31.69    0.73
   7  -1   0    1.04    0.12
   9  -1   0   14.18    0.43
  11  -1   0  179.89    2.97
  13  -1   0   86.39    1.72
  15  -1   0   23.93    0.74
  17  -1   0    1.06    0.21
  19  -1   0    9.40    0.67
  21  -1   0   49.48    1.49
  23  -1   0  117.02    3.23
  25  -1   0    0.65    0.44
  27  -1   0    0.17    0.46
  29  -1   0   28.12    2.80
 -26   0   0    0.43    0.63
 -24   0   0   31.21    2.31
 -22   0   0   66.27    2.46
 -20   0   0    8.72    0.78
 -18   0   0    0.71    0.41
   2   0   0    2.71    0.10
   4   0   0    0.97    0.10
   6   0   0    0.75    0.11
   8   0   0  189.86    2.51
  10   0   0   39.63    0.74
  12   0   0  177.84    2.45
  14   0   0   47.99    0.94
  16   0   0   79.30    1.33
  18   0   0    0.27    0.13
  20   0   0   10.60    0.49
  22   0   0   65.84    1.56
  24   0   0   36.05    1.46
  26   0   0    1.33    0.51
 -29   1   0   30.55    3.03
 -27   1   0    0.42    0.61
 -25   1   0   -0.13    0.35
 -23   1   0  108.60    3.84
 -21   1   0   45.89    3.00
 -19   1   0   10.08    1.17
 -17   1   0    1.25    0.46
 -15   1   0   20.19    1.05
 -13   1   0   82.30    2.29
 -11   1   0  174.25    3.99
  -9   1   0   13.51    0.55
  -7   1   0    0.88    0.22
  -5   1   0   32.47    1.06
  -3   1   0   21.40    0.65
  -1   1   0    9.20    0.25
   1   1   0    9.17    0.27
   3   1   0   22.00    0.52
   5   1   0   31.35    0.57
   7   1   0    0.74    0.11
   9   1   0   13.45    0.41
  11   1   0  173.83    2.77
  13   1   0   84.86    1.54
  15   1   0   23.32    0.68
  17   1   0    0.76    0.17
  19   1   0   10.24    0.53
  21   1   0   51.42    1.56
  23   1   0  118.99    3.13
  25   1   0    0.35    0.33
  27   1   0    0.35    0.38
 -28   2   0    0.31    0.51
 -26   2   0    0.86    0.50
 -24   2   0   24.82    1.99
 -22   2   0   47.80    2.30
 -20   2   0    9.02    1.17
 -18   2   0   -0.06    0.29
 -16   2   0   56.62    2.35
 -14   2   0   35.36    1.60
 -12   2   0  129.58    3.97
 -10   2   0   28.20    1.23
  -8   2   0  126.16    3.64
  -6   2   0    0.48    0.13
  -4   2   0    1.22    0.17
  -2   2   0    2.03    0.21
   0   2   0  986.17   16.73
   2   2   0    2.04    0.14
   4   2   0    1.15    0.16
   6   2   0    0.35    0.12
   8   2   0  127.86    2.54
  10   2   0   28.09    0.87
  12   2   0  129.34    2.78
  14   2   0   35.09    1.12
  16   2   0   58.78    2.01
  18   2   0   -0.06    0.26
  20   2   0    6.64    0.79
  22   2   0   50.29    2.05
  24   2   0   28.58    1.82
  26   2   0    1.00    0.52
  28   2   0   -0.31    0.54
 -25   3   0    0.03    0.45
 -23   3   0   77.42    3.32
 -21   3   0   24.70    1.98
 -19   3   0    5.62    0.74
 -17   3   0    0.97    0.34
 -15   3   0   11.37    1.12
 -13   3   0   49.53    2.06
 -11   3   0   97.20    3.21
  -9   3   0    9.69    0.83
  -7   3   0    0.36    0.15
  -5   3   0   13.32    0.58
  -3   3   0    9.78    0.47
  -1   3   0    6.52    0.35
   1   3   0    6.44    0.30
   3   3   0    9.67    0.48
   5   3   0   13.85    0.55
   7   3   0    0.15    0.12
   9   3   0    8.75    0.50
  11   3   0   97.95    2.25
  13   3   0   50.37    1.78
  15   3   0   12.26    1.02
  17   3   0    0.27    0.26
  19   3   0    6.07    0.81
  21   3   0   32.25    1.71
  23   3   0   80.18    3.30
  25   3   0    0.37    0.48
 -22   4   0   31.38    2.80
 -20   4   0    4.23    0.85
 -18   4   0    0.57    0.41
 -16   4   0   28.64    1.60
 -14   4   0   14.63    1.12
 -12   4   0   72.96    2.25
 -10   4   0   15.82    1.03
  -8   4   0   60.02    1.83
  -6   4   0   -0.02    0.15
  -4   4   0    0.87    0.20
  -2   4   0    1.26    0.27
   0   4   0  484.01   10.11
   2   4   0    0.92    0.21
   4   4   0    1.38    0.24
   6   4   0    0.05    0.14
   8   4   0   60.23    1.99
  10   4   0   17.01    1.09
  12   4   0   70.44    2.36
  14   4   0   15.91    1.24
  16   4   0   29.94    1.59
  18   4   0    0.08    0.37
  20   4   0    6.09    0.92
  22   4   0   33.13    2.49
 -19   5   0    3.93    1.37
 -17   5   0    0.10    0.44
 -15   5   0    3.54    0.66
 -13   5   0   24.26    1.47
 -11   5   0   48.78    1.83
  -9   5   0    4.90    0.75
  -7   5   0   -0.11    0.24
  -5   5   0    6.34    0.82
  -3   5   0    3.27    0.57
  -1   5   0    5.32    0.70
   1   5   0    4.40    0.54
   3   5   0    2.39    0.60
   5   5   0    5.84    0.85
   7   5   0    0.04    0.31
   9   5   0    4.65    0.71
  11   5   0   50.37    2.03
  13   5   0   25.82    1.80
  15   5   0    3.14    0.66
  17   5   0   -0.07    0.43
  19   5   0    1.45    1.24
 -10   6   0    8.38    1.17
  -8   6   0   26.28    2.03
  -6   6   0    0.47    0.41
  -4   6   0    1.47    0.51
  -2   6   0    1.58    0.87
   0   6   0  194.59    9.73
   2   6   0    1.29    0.76
   4   6   0    0.65    0.66
   6   6   0   -0.28    0.42
   8   6   0   23.87    2.11
  10   6   0    8.24    1.31
 -10  -6   1    7.12    1.08
  -8  -6   1    0.80    0.52
  -6  -6   1    5.46    0.86
  -4  -6   1    0.19    0.38
  -2  -6   1   -0.18    0.32
   0  -6   1    0.53    0.63
   2  -6   1    0.65    0.70
   4  -6   1    0.45    0.72
   6  -6   1   13.68    2.11
   8  -6   1   -0.18    0.55
 -19  -5   1    0.31    0.84
 -17  -5   1   42.23    2.42
 -15  -5   1   10.62    1.33
 -13  -5   1    1.52    0.56
 -11  -5   1    1.10    0.42
  -9  -5   1   23.50    1.72
  -7  -5   1   87.84    2.56
  -5  -5   1   14.30    1.19
  -3  -5   1    1.11    0.36
  -1  -5   1   -0.01    0.23
   1  -5   1    0.30    0.25
   3  -5   1    0.25    0.22
   5  -5   1   77.82    2.98
   7  -5   1    2.14    0.61
   9  -5   1    2.65    0.66
  11  -5   1   -0.41    0.29
  13  -5   1   -0.27    0.36
  15  -5   1    1.69    0.65
  17  -5   1    7.86    1.27
 -24  -4   1    7.93    1.89
 -22  -4   1    7.41    1.18
 -20  -4   1    6.39    1.10
 -18  -4   1   33.53    2.01
 -16  -4   1    0.29    0.37
 -14  -4   1    3.94    0.72
 -12  -4   1    4.13    0.68
 -10  -4   1   18.70    1.38
  -8  -4   1    1.97    0.42
  -6  -4   1   13.71    1.07
  -4  -4   1   -0.05    0.13
  -2  -4   1    0.18    0.17
   0  -4   1    0.63    0.20
   2  -4   1    0.38    0.18
   4  -4   1    0.31    0.14
   6  -4   1   29.00    0.92
   8  -4   1    0.22    0.18
  10  -4   1   21.45    1.11
  12  -4   1    9.09    0.84
  14  -4   1   28.95    1.36
  16  -4   1   60.14    2.13
  18  -4   1    1.67    0.47
  20  -4   1   10.98    1.11
  22  -4   1    0.55    0.63
 -25  -3   1   17.62    1.72
 -23  -3   1    6.02    0.97
 -21  -3   1    0.09    0.41
 -19  -3   1    0.05    0.35
 -17  -3   1   78.73    3.13
 -15  -3   1   13.59    1.25
 -13  -3   1    4.13    0.66
 -11  -3   1    2.50    0.34
  -9  -3   1   50.14    1.43
  -7  -3   1  196.35    4.25
  -5  -3   1   33.85    1.04
  -3  -3   1    1.94    0.25
  -1  -3   1    0.54    0.12
   1  -3   1    0.73    0.13
   3  -3   1    0.58    0.11
   5  -3   1  173.95    3.33
   7  -3   1    3.82    0.33
   9  -3   1    7.16    0.43
  11  -3   1    0.15    0.14
  13  -3   1    0.74    0.27
  15  -3   1    1.84    0.40
  17  -3   1   23.49    1.34
  19  -3   1   -0.05    0.29
  21  -3   1    0.56    0.36
  23  -3   1   -0.01    0.34
  25  -3   1    2.12    0.58
 -28  -2   1    2.00    0.84
 -26  -2   1    3.93    0.76
 -24  -2   1   12.79    1.40
 -22  -2   1   12.16    1.32
 -20  -2   1   10.38    1.16
 -18  -2   1   58.02    1.96
 -16  -2   1    0.58    0.26
 -14  -2   1    6.47    0.60
 -12  -2   1    8.15    0.62
 -10  -2   1   42.33    1.26
  -8  -2   1    5.15    0.40
  -6  -2   1   27.75    0.83
  -4  -2   1    0.06    0.09
  -2  -2   1    0.83    0.12
   0  -2   1    1.74    0.16
   2  -2   1    1.07    0.13
   4  -2   1    0.28    0.09
   6  -2   1   59.93    1.30
   8  -2   1    0.06    0.08
  10  -2   1   42.79    1.09
  12  -2   1   19.08    0.72
  14  -2   1   55.31    1.45
  16  -2   1   98.16    2.77
  18  -2   1    2.84    0.50
  20  -2   1   18.68    1.29
  22  -2   1   -0.18    0.27
  24  -2   1    0.14    0.31
  26  -2   1   -0.41    0.31
 -29  -1   1   15.93    2.25
 -27  -1   1    0.02    0.68
 -25  -1   1   29.80    3.14
 -23  -1   1    5.94    0.88
 -21  -1   1    0.19    0.36
 -19  -1   1    0.45    0.26
 -17  -1   1  126.45    3.21
 -15  -1   1   21.72    0.97
 -13  -1   1    5.11    0.48
 -11  -1   1    5.91    0.43
  -9  -1   1   90.15    2.03
  -7  -1   1  361.42    7.15
  -5  -1   1   71.57    1.73
  -3  -1   1    3.92    0.17
  -1  -1   1    0.63    0.08
   1  -1   1    1.65    0.12
   3  -1   1    1.07    0.11
   5  -1   1  337.79    5.19
   7  -1   1    6.19    0.30
   9  -1   1   10.74    0.37
  11  -1   1    0.07    0.09
  13  -1   1    1.11    0.17
  15  -1   1    3.15    0.28
  17  -1   1   40.61    1.11
  19  -1   1   -0.06    0.18
  21  -1   1    0.00    0.22
  23  -1   1    0.22    0.24
  25  -1   1    4.75    0.65
  27  -1   1    1.60    0.53
  29  -1   1    6.89    1.41
 -28   0   1    0.82    0.68
 -26   0   1    8.97    1.57
 -24   0   1   14.41    1.29
 -22   0   1   15.61    1.74
 -20   0   1   13.46    1.11
 -18   0   1   72.50    2.18
 -16   0   1    0.58    0.23
 -14   0   1    8.93    0.73
 -12   0   1   11.51    0.65
 -10   0   1   60.81    1.78
  -8   0   1    7.35    0.41
  -6   0   1   41.41    1.09
  -4   0   1   -0.14    0.06
  -2   0   1    1.74    0.08
   0   0   1    4.08    0.13
   2   0   1    2.28    0.13
   4   0   1    0.27    0.08
   6   0   1   89.57    1.32
   8   0   1    0.52    0.12
  10   0   1   59.92    1.02
  12   0   1   26.92    0.62
  14   0   1   73.79    1.25
  16   0   1  133.22    2.00
  18   0   1    3.63    0.29
  20   0   1   22.90    0.64
  22   0   1    0.27    0.16
  24   0   1    0.03    0.27
 -29   1   1   15.69    1.49
 -27   1   1    0.29    0.57
 -25   1   1   23.65    1.73
 -23   1   1    4.96    0.79
 -21   1   1    0.02    0.21
 -19   1   1    0.45    0.24
 -17   1   1  120.74    3.20
 -15   1   1   22.74    1.19
 -13   1   1    5.24    0.81
 -11   1   1    5.89    0.55
  -9   1   1   92.57    2.60
  -7   1   1  379.21    9.23
  -5   1   1   70.13    1.57
  -3   1   1    4.18    0.21
  -1   1   1    0.73    0.09
   1   1   1    1.52    0.10
   3   1   1    1.34    0.12
   5   1   1  343.55    5.34
   7   1   1    7.06    0.33
   9   1   1   11.74    0.38
  11   1   1   -0.01    0.09
  13   1   1    0.80    0.16
  15   1   1    3.21    0.28
  17   1   1   39.65    0.94
  19   1   1    0.19    0.16
  21   1   1   -0.09    0.17
  23   1   1   -0.08    0.22
  25   1   1    4.34    0.77
 -28   2   1    1.76    0.66
 -26   2   1    4.70    0.89
 -24   2   1   10.78    1.26
 -22   2   1   10.83    1.15
 -20   2   1    8.23    0.97
 -18   2   1   56.64    1.92
 -16   2   1    0.64    0.25
 -14   2   1    6.50    0.57
 -12   2   1    7.73    0.68
 -10   2   1   42.20    1.53
  -8   2   1    4.76    0.39
  -6   2   1   27.94    0.85
  -4   2   1    0.14    0.09
  -2   2   1    1.02    0.13
   0   2   1    1.93    0.16
   2   2   1    1.08    0.11
   4   2   1    0.46    0.12
   6   2   1   58.81    1.38
   8   2   1    0.00    0.10
  10   2   1   42.07    0.97
  12   2   1   19.56    0.81
  14   2   1   54.30    1.59
  16   2   1   96.26    2.43
  18   2   1    2.08    0.45
  20   2   1   15.00    1.21
  22   2   1    0.30    0.31
  24   2   1    0.44    0.42
  26   2   1   -0.09    0.36
  28   2   1   32.10    2.26
 -27   3   1   -0.12    0.71
 -25   3   1   14.57    1.59
 -23   3   1    4.08    0.82
 -21   3   1    0.02    0.32
 -19   3   1    1.02    0.46
 -17   3   1   81.48    2.48
 -15   3   1   15.35    1.04
 -13   3   1    3.87    0.48
 -11   3   1    3.33    0.41
  -9   3   1   46.98    1.45
  -7   3   1  201.20    4.35
  -5   3   1   33.55    0.89
  -3   3   1    2.53    0.24
  -1   3   1    0.28    0.10
   1   3   1    0.76    0.13
   3   3   1    0.62    0.16
   5   3   1  180.91    3.51
   7   3   1    3.10    0.32
   9   3   1    5.96    0.48
  11   3   1   -0.03    0.14
  13   3   1    0.52    0.30
  15   3   1    0.98    0.39
  17   3   1   24.64    1.46
  19   3   1    0.24    0.33
  21   3   1    0.06    0.36
  23   3   1    0.28    0.44
  25   3   1    3.59    0.86
 -22   4   1    5.20    1.02
 -20   4   1    6.04    1.00
 -18   4   1   30.34    2.17
 -16   4   1    0.01    0.27
 -14   4   1    2.77    0.49
 -12   4   1    4.43    0.55
 -10   4   1   18.37    0.95
  -8   4   1    2.26    0.35
  -6   4   1   14.07    0.76
  -4   4   1    0.23    0.15
  -2   4   1    0.77    0.23
   0   4   1    3.81    0.84
   2   4   1    0.31    0.18
   4   4   1    0.63    0.21
   6   4   1   30.58    1.02
   8   4   1    0.20    0.18
  10   4   1   21.89    1.30
  12   4   1   11.12    1.03
  14   4   1   28.75    1.55
  16   4   1   52.75    2.18
  18   4   1    0.61    0.42
  20   4   1   12.04    1.27
  22   4   1   -0.54    0.45
 -19   5   1    0.84    0.81
 -17   5   1   39.34    2.24
 -15   5   1    8.13    0.89
 -13   5   1    2.15    0.49
 -11   5   1    1.63    0.49
  -9   5   1   20.71    1.60
  -7   5   1   83.59    3.10
  -5   5   1   14.12    1.21
  -3   5   1    0.42    0.28
  -1   5   1    0.54    0.30
   1   5   1    0.14    0.21
   3   5   1    0.12    0.22
   5   5   1   75.45    3.15
   7   5   1    1.28    0.51
   9   5   1    2.78    0.66
  11   5   1    0.09    0.50
  13   5   1    0.18    0.45
  15   5   1    2.52    0.81
  17   5   1   13.50    1.70
 -12   6   1    2.08    1.15
 -10   6   1    6.16    1.01
  -8   6   1    1.24    0.54
  -6   6   1    4.48    0.73
  -4   6   1    0.15    0.36
  -2   6   1    0.09    0.34
   0   6   1    0.82    0.74
   2   6   1    0.08    0.60
   4   6   1    0.31    0.63
   6   6   1   14.18    2.26
   8   6   1    0.14    0.50
  10   6   1    8.43    2.10
 -12  -6   2    5.24    1.31
 -10  -6   2    7.30    1.07
  -8  -6   2   30.68    1.94
  -6  -6   2    8.13    1.08
  -4  -6   2    1.76    0.97
  -2  -6   2    0.73    0.67
   0  -6   2    0.60    0.68
   2  -6   2    1.40    0.76
   4  -6   2   10.92    1.92
   6  -6   2   37.62    3.13
   8  -6   2    9.07    1.27
  10  -6   2    0.08    0.84
 -19  -5   2   12.61    2.29
 -17  -5   2   20.67    1.91
 -15  -5   2    4.74    0.94
 -13  -5   2    6.86    1.00
 -11  -5   2    1.34    0.52
  -9  -5   2    1.67    0.47
  -7  -5   2    3.97    0.68
  -5  -5   2   87.88    3.04
  -3  -5   2    0.21    0.28
  -1  -5   2    6.69    0.65
   1  -5   2    0.16    0.27
   3  -5   2   67.49    2.65
   5  -5   2    0.10    0.33
   7  -5   2   -0.20    0.28
   9  -5   2    1.30    0.53
  11  -5   2    0.29    0.36
  13  -5   2    0.15    0.34
  15  -5   2   25.83    1.69
  17  -5   2    6.72    0.97
 -24  -4   2    1.31    1.04
 -22  -4   2    0.50    0.53
 -20  -4   2    2.33    0.72
 -18  -4   2   11.73    1.41
 -16  -4   2   11.66    1.31
 -14  -4   2    3.61    0.69
 -12  -4   2   16.99    1.41
 -10  -4   2   18.95    1.42
  -8  -4   2   74.96    2.08
  -6  -4   2   14.18    0.78
  -4  -4   2    1.41    0.28
  -2  -4   2    0.21    0.15
   0  -4   2    0.67    0.20
   2  -4   2    1.61    0.27
   4  -4   2   18.03    0.70
   6  -4   2  104.56    2.77
   8  -4   2   28.35    1.18
  10  -4   2    1.02    0.32
  12  -4   2    8.01    0.80
  14  -4   2   17.10    1.23
  16  -4   2   18.14    1.33
  18  -4   2   25.93    1.66
  20  -4   2    4.51    0.76
  22  -4   2    0.17    0.97
 -27  -3   2   32.74    3.66
 -25  -3   2    5.71    1.06
 -23  -3   2   11.91    1.45
 -21  -3   2    4.36    0.87
 -19  -3   2   30.98    1.84
 -17  -3   2   39.64    2.06
 -15  -3   2   10.11    0.85
 -13  -3   2   18.01    0.93
 -11  -3   2    2.83    0.37
  -9  -3   2    6.05    0.51
  -7  -3   2    5.61    0.47
  -5  -3   2  203.26    4.31
  -3  -3   2    0.02    0.09
  -1  -3   2   17.37    0.57
   1  -3   2    0.61    0.14
   3  -3   2  146.11    2.82
   5  -3   2    0.06    0.09
   7  -3   2    3.02    0.30
   9  -3   2    1.18    0.27
  11  -3   2    3.91    0.49
  13  -3   2    0.02    0.20
  15  -3   2   47.39    1.75
  17  -3   2   14.28    1.12
  19  -3   2    9.41    0.96
  21  -3   2   34.23    1.80
  23  -3   2    1.59    0.53
 -28  -2   2   26.21    2.13
 -26  -2   2   18.68    1.74
 -24  -2   2    0.16    0.35
 -22  -2   2    0.14    0.52
 -20  -2   2    4.87    0.83
 -18  -2   2   22.08    1.47
 -16  -2   2   18.12    1.22
 -14  -2   2    7.13    0.76
 -12  -2   2   38.12    1.51
 -10  -2   2   44.79    1.13
  -8  -2   2  161.68    3.56
  -6  -2   2   28.10    0.68
  -4  -2   2    2.31    0.22
  -2  -2   2    0.42    0.11
   0  -2   2    1.46    0.15
   2  -2   2    2.27    0.19
   4  -2   2   31.13    0.77
   6  -2   2  224.38    4.06
   8  -2   2   56.28    1.28
  10  -2   2    3.39    0.32
  12  -2   2   19.93    0.91
  14  -2   2   32.30    1.31
  16  -2   2   28.80    1.27
  18  -2   2   36.90    1.58
  20  -2   2    6.60    0.81
  22  -2   2    1.08    0.40
  24  -2   2    5.08    0.87
  26  -2   2   35.96    1.93
 -29  -1   2   30.44    3.47
 -27  -1   2   36.95    3.22
 -25  -1   2    7.20    1.06
 -23  -1   2   21.27    1.78
 -21  -1   2   10.06    1.19
 -19  -1   2   47.39    1.67
 -17  -1   2   61.95    1.91
 -15  -1   2   12.94    0.58
 -13  -1   2   33.77    0.89
 -11  -1   2    4.46    0.37
  -9  -1   2   12.84    0.51
  -7  -1   2    9.79    0.39
  -5  -1   2  406.86    7.98
  -3  -1   2   -0.22    0.08
  -1  -1   2   44.52    0.88
   1  -1   2    1.54    0.12
   3  -1   2  292.39    5.13
   5  -1   2    0.10    0.06
   7  -1   2    5.87    0.29
   9  -1   2    2.19    0.21
  11  -1   2    6.29    0.39
  13  -1   2    0.20    0.13
  15  -1   2   74.07    1.59
  17  -1   2   21.22    1.00
  19  -1   2   16.69    0.96
  21  -1   2   47.16    1.73
  23  -1   2    2.13    0.56
  25  -1   2   13.61    1.26
  27  -1   2   49.84    2.26
 -30   0   2    4.59    0.95
 -28   0   2   28.61    2.88
 -26   0   2   21.95    1.68
 -24   0   2   -0.08    0.30
 -22   0   2   -0.27    0.23
 -20   0   2    4.98    0.56
 -18   0   2   31.73    1.19
 -16   0   2   26.35    1.01
 -14   0   2    8.89    0.69
 -12   0   2   53.39    1.64
 -10   0   2   64.84    1.77
  -8   0   2  238.69    4.53
  -6   0   2   39.33    0.91
  -4   0   2    2.20    0.18
  -2   0   2    0.20    0.05
   0   0   2    1.69    0.12
   2   0   2    3.33    0.18
   4   0   2   43.04    0.82
   6   0   2  327.47    4.42
   8   0   2   83.95    1.31
  10   0   2    5.08    0.29
  12   0   2   27.43    0.64
  14   0   2   49.44    0.95
  16   0   2   37.66    0.82
  18   0   2   49.61    1.00
  20   0   2   11.42    0.56
  22   0   2    2.24    0.39
  24   0   2    7.74    0.89
 -29   1   2   23.57    1.88
 -27   1   2   33.63    1.92
 -25   1   2    5.52    1.16
 -23   1   2   20.63    1.52
 -21   1   2    8.43    0.94
 -19   1   2   44.12    1.88
 -17   1   2   63.53    1.86
 -15   1   2   13.02    0.68
 -13   1   2   32.27    1.03
 -11   1   2    4.28    0.33
  -9   1   2   14.13    0.50
  -7   1   2   10.32    0.38
  -5   1   2  426.86    8.15
  -3   1   2   -0.39    0.12
  -1   1   2   44.92    1.08
   1   1   2    1.50    0.15
   3   1   2  300.10    5.28
   5   1   2    0.13    0.06
   7   1   2    6.40    0.31
   9   1   2    2.06    0.21
  11   1   2    6.15    0.38
  13   1   2    0.14    0.12
  15   1   2   73.89    1.52
  17   1   2   25.65    0.83
  19   1   2   14.30    0.72
  21   1   2   47.14    1.51
  23   1   2    3.69    0.58
  25   1   2   10.41    1.66
 -28   2   2   24.38    2.79
 -26   2   2   16.89    1.57
 -24   2   2    0.28    0.37
 -22   2   2    0.19    0.32
 -20   2   2    2.38    0.56
 -18   2   2   22.38    1.38
 -16   2   2   18.52    0.93
 -14   2   2    6.96    0.56
 -12   2   2   37.36    1.19
 -10   2   2   45.40    1.28
  -8   2   2  162.97    3.53
  -6   2   2   28.46    0.83
  -4   2   2    2.20    0.22
  -2   2   2    0.13    0.08
   0   2   2    1.04    0.13
   2   2   2    2.77    0.20
   4   2   2   31.65    0.71
   6   2   2  228.61    3.75
   8   2   2   57.43    1.20
  10   2   2    3.51    0.33
  12   2   2   19.47    0.91
  14   2   2   34.02    1.26
  16   2   2   27.20    1.14
  18   2   2   41.65    1.59
  20   2   2    8.27    0.90
  22   2   2    0.94    0.44
  24   2   2    7.17    0.89
  26   2   2   38.59    3.02
 -27   3   2   20.90    2.70
 -25   3   2    4.19    0.88
 -23   3   2   12.97    1.37
 -21   3   2    5.29    0.86
 -19   3   2   27.92    1.62
 -17   3   2   40.64    1.88
 -15   3   2    7.72    0.70
 -13   3   2   17.82    0.88
 -11   3   2    2.30    0.34
  -9   3   2    5.31    0.46
  -7   3   2    6.57    0.51
  -5   3   2  199.30    3.75
  -3   3   2   -0.06    0.09
  -1   3   2   17.93    0.58
   1   3   2    0.39    0.11
   3   3   2  149.25    3.49
   5   3   2    0.13    0.13
   7   3   2    2.38    0.30
   9   3   2    1.79    0.28
  11   3   2    4.08    0.44
  13   3   2    0.07    0.18
  15   3   2   46.90    1.91
  17   3   2   15.96    1.30
  19   3   2   10.85    1.14
  21   3   2   27.45    1.72
  23   3   2    0.44    0.59
 -22   4   2    1.08    0.56
 -20   4   2    2.63    0.72
 -18   4   2   12.38    1.30
 -16   4   2   10.51    0.93
 -14   4   2    2.82    0.47
 -12   4   2   16.53    0.98
 -10   4   2   19.57    0.91
  -8   4   2   77.00    2.09
  -6   4   2   14.56    0.74
  -4   4   2    1.05    0.22
  -2   4   2    0.09    0.18
   0   4   2    0.65    0.21
   2   4   2    1.48    0.30
   4   4   2   17.19    0.89
   6   4   2  106.29    2.84
   8   4   2   24.03    1.14
  10   4   2    0.67    0.41
  12   4   2    6.92    1.05
  14   4   2   15.67    1.65
  16   4   2   13.88    1.65
  18   4   2   20.47    2.11
  20   4   2    3.33    0.98
  22   4   2    0.48    1.38
 -19   5   2   13.11    2.09
 -17   5   2   19.95    1.75
 -15   5   2    5.57    0.85
 -13   5   2    8.59    0.85
 -11   5   2    1.83    0.47
  -9   5   2    2.02    0.51
  -7   5   2    2.93    0.58
  -5   5   2   87.01    3.08
  -3   5   2    0.41    0.27
  -1   5   2    6.86    0.82
   1   5   2    0.38    0.29
   3   5   2   67.87    2.16
   5   5   2    0.08    0.25
   7   5   2    0.77    0.45
   9   5   2    0.36    0.47
  11   5   2    1.09    0.61
  13   5   2    0.43    0.56
  15   5   2   23.90    2.25
  17   5   2    6.65    1.87
 -12   6   2    7.23    1.74
 -10   6   2    6.79    1.03
  -8   6   2   31.31    1.82
  -6   6   2    6.58    0.96
  -4   6   2    1.33    0.50
  -2   6   2    0.30    0.38
   0   6   2    0.51    0.65
   2   6   2    1.76    0.96
   4   6   2    7.28    1.68
   6   6   2   40.59    3.43
   8   6   2    9.68    1.50
  10   6   2    0.67    0.98
 -12  -6   3   43.37    3.19
 -10  -6   3    3.37    1.06
  -8  -6   3    0.82    0.79
  -6  -6   3    0.09    0.54
  -4  -6   3    9.31    1.77
  -2  -6   3    1.44    0.72
   0  -6   3   11.75    1.93
   2  -6   3    1.34    0.80
   4  -6   3   -0.11    0.49
   6  -6   3    0.39    0.48
   8  -6   3   31.82    3.47
 -19  -5   3    3.22    0.96
 -17  -5   3    1.22    0.66
 -15  -5   3   39.38    2.23
 -13  -5   3    0.10    0.37
 -11  -5   3   45.24    2.21
  -9  -5   3   -0.01    0.27
  -7  -5   3    0.65    0.37
  -5  -5   3    9.02    0.94
  -3  -5   3   80.22    2.27
  -1  -5   3   16.33    1.31
   1  -5   3   93.77    3.27
   3  -5   3    9.46    1.04
   5  -5   3    3.38    0.65
   7  -5   3    1.45    0.50
   9  -5   3   63.73    2.76
  11  -5   3   70.79    2.98
  13  -5   3    4.69    0.69
  15  -5   3    1.23    0.47
  17  -5   3    3.22    0.87
 -24  -4   3    6.29    1.89
 -22  -4   3   53.06    2.82
 -20  -4   3   16.17    1.68
 -18  -4   3   21.14    1.85
 -16  -4   3    0.48    0.40
 -14  -4   3   27.36    1.65
 -12  -4   3   87.91    3.24
 -10  -4   3    6.23    0.63
  -8  -4   3    3.92    0.47
  -6  -4   3    0.45    0.20
  -4  -4   3   14.88    0.76
  -2  -4   3    5.12    0.48
   0  -4   3   24.29    0.92
   2  -4   3    1.52    0.38
   4  -4   3   -0.02    0.19
   6  -4   3    0.94    0.27
   8  -4   3   60.98    1.94
  10  -4   3    2.35    0.44
  12  -4   3    8.95    0.84
  14  -4   3    8.02    0.85
  16  -4   3    1.55    0.46
  18  -4   3   -0.21    0.34
  20  -4   3   51.27    2.16
 -27  -3   3    5.85    1.72
 -25  -3   3    0.30    0.49
 -23  -3   3   36.10    2.22
 -21  -3   3    0.68    0.48
 -19  -3   3    8.33    1.18
 -17  -3   3    5.90    0.74
 -15  -3   3   83.70    2.42
 -13  -3   3    0.16    0.17
 -11  -3   3   89.47    2.40
  -9  -3   3    0.24    0.16
  -7  -3   3    0.85    0.21
  -5  -3   3   19.89    0.76
  -3  -3   3  181.29    3.35
  -1  -3   3   36.77    0.94
   1  -3   3  206.03    3.82
   3  -3   3   25.16    0.73
   5  -3   3    8.04    0.60
   7  -3   3    4.85    0.52
   9  -3   3  131.09    3.24
  11  -3   3  147.96    3.62
  13  -3   3   10.39    0.86
  15  -3   3    3.01    0.51
  17  -3   3    5.29    0.68
  19  -3   3   44.13    1.85
  21  -3   3    2.21    0.68
  23  -3   3   12.62    1.40
 -28  -2   3   13.69    1.57
 -26  -2   3   10.87    2.06
 -24  -2   3   19.82    2.81
 -22  -2   3   88.14    3.59
 -20  -2   3   27.41    1.82
 -18  -2   3   39.09    1.96
 -16  -2   3    0.25    0.25
 -14  -2   3   48.92    1.96
 -12  -2   3  162.09    4.73
 -10  -2   3   12.47    0.51
  -8  -2   3    7.31    0.38
  -6  -2   3    0.84    0.15
  -4  -2   3   30.27    0.76
  -2  -2   3   10.76    0.38
   0  -2   3   46.20    1.01
   2  -2   3    3.39    0.22
   4  -2   3   -0.03    0.06
   6  -2   3    2.59    0.19
   8  -2   3  105.54    2.25
  10  -2   3    7.13    0.51
  12  -2   3   13.61    0.78
  14  -2   3   14.48    0.99
  16  -2   3    2.96    0.50
  18  -2   3    0.69    0.32
  20  -2   3   84.06    3.15
  22  -2   3   -0.32    0.35
  24  -2   3   28.72    1.85
  26  -2   3    3.32    1.12
 -29  -1   3    3.12    1.21
 -27  -1   3    8.62    1.28
 -25  -1   3    1.87    0.64
 -23  -1   3   53.67    2.57
 -21  -1   3    0.34    0.39
 -19  -1   3   11.03    0.89
 -17  -1   3    6.12    0.60
 -15  -1   3  127.35    3.15
 -13  -1   3    0.20    0.09
 -11  -1   3  152.58    3.43
  -9  -1   3    0.12    0.08
  -7  -1   3    2.21    0.22
  -5  -1   3   37.28    0.96
  -3  -1   3  358.22    6.06
  -1  -1   3   70.33    1.37
   1  -1   3  394.74    5.96
   3  -1   3   46.98    1.04
   5  -1   3   13.76    0.48
   7  -1   3    7.45    0.43
   9  -1   3  214.44    3.49
  11  -1   3  234.65    3.87
  13  -1   3   16.85    0.82
  15  -1   3    4.92    0.50
  17  -1   3    9.99    0.72
  19  -1   3   62.99    2.05
  21  -1   3    2.99    0.50
  23  -1   3   18.59    1.48
  25  -1   3    2.37    0.61
  27  -1   3    0.50    0.65
 -30   0   3    0.23    0.68
 -26   0   3   13.45    1.33
 -24   0   3   19.34    1.56
 -22   0   3  112.11    3.77
 -20   0   3   32.98    1.66
 -18   0   3   49.87    1.54
 -16   0   3    0.19    0.15
 -14   0   3   62.56    1.43
 -12   0   3  223.76    4.08
 -10   0   3   17.58    0.58
  -8   0   3    8.96    0.36
  -6   0   3    1.63    0.15
  -4   0   3   52.51    1.36
  -2   0   3   17.41    0.44
   0   0   3   72.46    1.27
   2   0   3    5.14    0.26
   4   0   3    0.06    0.08
   6   0   3    3.60    0.27
   8   0   3  147.39    2.64
  10   0   3    9.25    0.48
  12   0   3   18.29    0.68
  14   0   3   19.64    0.72
  16   0   3    4.49    0.42
  18   0   3    0.84    0.25
  20   0   3  104.18    2.50
  22   0   3   -0.05    0.25
  24   0   3   32.99    1.69
  26   0   3    5.04    1.21
 -29   1   3    4.84    0.92
 -27   1   3    7.99    1.09
 -25   1   3    0.95    0.43
 -23   1   3   47.42    2.09
 -21   1   3    0.18    0.25
 -19   1   3   10.46    0.93
 -17   1   3    6.23    0.67
 -15   1   3  133.74    3.04
 -13   1   3    0.06    0.11
 -11   1   3  159.47    3.37
  -9   1   3    0.04    0.07
  -7   1   3    2.01    0.20
  -5   1   3   39.30    0.95
  -3   1   3  370.77    7.19
  -1   1   3   71.78    1.22
   1   1   3  394.75    6.94
   3   1   3   47.85    1.20
   5   1   3   13.69    0.43
   7   1   3    7.11    0.37
   9   1   3  210.48    3.69
  11   1   3  242.26    4.28
  13   1   3   18.01    0.73
  15   1   3    4.67    0.43
  17   1   3   10.14    0.73
  19   1   3   66.95    2.29
  21   1   3    3.25    0.57
  23   1   3   17.67    1.27
  25   1   3    0.68    0.86
 -28   2   3   11.30    1.91
 -26   2   3   10.18    1.17
 -24   2   3   14.69    1.40
 -22   2   3   85.31    3.20
 -20   2   3   27.08    1.50
 -18   2   3   41.13    1.77
 -16   2   3    0.08    0.19
 -14   2   3   48.78    1.45
 -12   2   3  174.39    3.79
 -10   2   3   12.81    0.56
  -8   2   3    6.76    0.41
  -6   2   3    1.21    0.18
  -4   2   3   32.36    0.89
  -2   2   3   11.37    0.41
   0   2   3   46.75    1.08
   2   2   3    3.77    0.27
   4   2   3    0.13    0.09
   6   2   3    2.53    0.24
   8   2   3  107.06    2.27
  10   2   3    6.89    0.49
  12   2   3   13.46    0.87
  14   2   3   13.77    0.92
  16   2   3    2.88    0.57
  18   2   3    0.39    0.34
  20   2   3   86.95    3.74
  22   2   3   -0.73    0.41
  24   2   3   26.01    2.25
  26   2   3    4.88    1.37
 -27   3   3    4.39    1.35
 -25   3   3    1.39    0.56
 -23   3   3   33.32    1.94
 -21   3   3   -0.09    0.29
 -19   3   3    6.70    0.84
 -17   3   3    4.68    0.73
 -15   3   3   82.14    2.30
 -13   3   3    0.49    0.21
 -11   3   3   90.16    2.34
  -9   3   3    0.18    0.14
  -7   3   3    0.98    0.19
  -5   3   3   19.91    0.73
  -3   3   3  179.17    3.45
  -1   3   3   36.63    0.97
   1   3   3  208.34    3.93
   3   3   3   23.97    0.97
   5   3   3    6.81    0.59
   7   3   3    3.89    0.47
   9   3   3  126.42    3.36
  11   3   3  144.43    3.80
  13   3   3   11.56    0.98
  15   3   3    2.42    0.55
  17   3   3    4.14    0.94
  19   3   3   45.18    2.84
  21   3   3    2.49    0.89
  23   3   3   10.23    1.54
 -24   4   3   11.15    2.15
 -22   4   3   54.69    2.66
 -20   4   3   15.70    1.54
 -18   4   3   22.73    1.73
 -16   4   3    0.00    0.27
 -14   4   3   30.42    1.25
 -12   4   3   92.24    2.49
 -10   4   3    7.07    0.62
  -8   4   3    4.09    0.47
  -6   4   3    0.41    0.19
  -4   4   3   16.32    0.71
  -2   4   3    5.47    0.57
   0   4   3   23.11    1.07
   2   4   3    2.15    0.37
   4   4   3    0.02    0.17
   6   4   3    1.37    0.34
   8   4   3   58.90    1.96
  10   4   3    3.24    0.53
  12   4   3    9.39    1.25
  14   4   3    5.23    1.03
  16   4   3    1.22    0.71
  18   4   3    0.76    0.65
  20   4   3   45.21    3.04
 -19   5   3    3.54    1.14
 -17   5   3    2.40    0.69
 -15   5   3   39.58    1.98
 -13   5   3    0.46    0.31
 -11   5   3   45.22    2.13
  -9   5   3    0.38    0.32
  -7   5   3    0.41    0.33
  -5   5   3    9.04    0.96
  -3   5   3   80.39    2.93
  -1   5   3   14.42    1.21
   1   5   3   87.90    3.20
   3   5   3    9.89    0.90
   5   5   3    2.44    0.47
   7   5   3    1.27    0.59
   9   5   3   63.06    3.10
  11   5   3   65.67    3.25
  13   5   3    3.16    0.89
  15   5   3    0.55    0.70
 -10   6   3    3.33    0.76
  -8   6   3    1.32    0.55
  -6   6   3    0.25    0.40
  -4   6   3    9.15    1.15
  -2   6   3    2.65    0.63
   0   6   3   10.55    1.20
   2   6   3    0.99    0.81
   4   6   3    0.14    0.60
   6   6   3   -0.01    0.80
  -8  -6   4    5.58    1.52
  -6  -6   4   61.27    4.13
  -4  -6   4    0.01    0.58
  -2  -6   4   21.04    2.55
   0  -6   4   -0.27    0.55
   2  -6   4   44.44    2.34
   4  -6   4    2.03    0.70
   6  -6   4    8.52    1.71
 -19  -5   4    9.22    2.12
 -17  -5   4   21.52    2.09
 -15  -5   4    0.24    0.40
 -13  -5   4   34.26    1.94
 -11  -5   4    1.67    0.56
  -9  -5   4   -0.06    0.31
  -7  -5   4   -0.03    0.26
  -5  -5   4    0.27    0.30
  -3  -5   4   -0.25    0.23
  -1  -5   4    1.52    0.48
   1  -5   4    0.61    0.36
   3  -5   4   -0.08    0.25
   5  -5   4    0.36    0.34
   7  -5   4    3.01    0.64
   9  -5   4   20.80    1.71
  11  -5   4    6.11    0.97
  13  -5   4    7.70    0.93
  15  -5   4   17.63    1.74
 -24  -4   4    1.36    1.23
 -22  -4   4    8.03    1.32
 -20  -4   4   12.29    1.44
 -18  -4   4    1.75    0.63
 -16  -4   4    3.33    0.75
 -14  -4   4    5.02    0.78
 -12  -4   4    0.28    0.26
 -10  -4   4    7.18    0.66
  -8  -4   4   11.31    0.81
  -6  -4   4  153.68    3.59
  -4  -4   4    0.08    0.16
  -2  -4   4   55.22    1.59
   0  -4   4    0.88    0.31
   2  -4   4  101.44    2.73
   4  -4   4    3.56    0.49
   6  -4   4   22.53    1.12
   8  -4   4    5.32    0.63
  10  -4   4    0.25    0.28
  12  -4   4    0.15    0.25
  14  -4   4    2.05    0.47
  16  -4   4   18.47    1.36
  18  -4   4    5.67    1.03
 -27  -3   4   10.73    2.33
 -25  -3   4   13.66    1.63
 -23  -3   4   -0.28    0.42
 -21  -3   4    0.58    0.52
 -19  -3   4   21.79    1.31
 -17  -3   4   45.58    1.75
 -15  -3   4    0.22    0.24
 -13  -3   4   74.37    2.18
 -11  -3   4    1.70    0.33
  -9  -3   4    1.58    0.28
  -7  -3   4    0.25    0.16
  -5  -3   4    0.94    0.21
  -3  -3   4    0.53    0.14
  -1  -3   4    1.97    0.23
   1  -3   4    4.15    0.32
   3  -3   4    0.09    0.14
   5  -3   4    1.03    0.25
   7  -3   4    6.69    0.59
   9  -3   4   48.27    1.59
  11  -3   4   10.66    0.82
  13  -3   4   16.15    1.09
  15  -3   4   37.42    1.55
  17  -3   4    1.69    0.56
  19  -3   4    3.24    0.76
  21  -3   4   28.41    2.10
  23  -3   4    8.37    1.95
 -28  -2   4   29.39    3.52
 -26  -2   4    0.32    0.73
 -24  -2   4    3.60    0.85
 -22  -2   4   14.57    1.58
 -20  -2   4   24.80    1.92
 -18  -2   4    1.52    0.49
 -16  -2   4    7.59    0.91
 -14  -2   4   11.18    0.98
 -12  -2   4    0.93    0.19
 -10  -2   4   13.70    0.57
  -8  -2   4   21.96    0.75
  -6  -2   4  325.37    6.70
  -4  -2   4    0.04    0.08
  -2  -2   4  122.05    2.32
   0  -2   4    2.94    0.21
   2  -2   4  216.37    3.43
   4  -2   4    6.48    0.41
   6  -2   4   44.23    1.14
   8  -2   4   11.23    0.60
  10  -2   4    0.43    0.17
  12  -2   4    0.17    0.16
  14  -2   4    2.87    0.41
  16  -2   4   33.05    1.24
  18  -2   4    9.23    1.07
  20  -2   4    3.55    0.71
  22  -2   4    3.61    0.75
  24  -2   4   15.94    1.50
 -29  -1   4   33.82    2.56
 -27  -1   4   17.53    1.75
 -25  -1   4   21.38    1.93
 -23  -1   4   -0.10    0.38
 -21  -1   4    1.38    0.54
 -19  -1   4   31.25    1.34
 -17  -1   4   71.79    2.14
 -15  -1   4    0.20    0.17
 -13  -1   4  124.19    3.00
 -11  -1   4    3.34    0.33
  -9  -1   4    3.84    0.32
  -7  -1   4    0.71    0.15
  -5  -1   4    2.92    0.21
  -3  -1   4    1.66    0.16
  -1  -1   4    2.41    0.20
   1  -1   4    9.48    0.36
   3  -1   4    0.42    0.10
   5  -1   4    1.66    0.21
   7  -1   4   13.28    0.61
   9  -1   4   82.88    1.84
  11  -1   4   20.46    0.78
  13  -1   4   25.57    0.96
  15  -1   4   62.47    1.95
  17  -1   4    5.06    0.61
  19  -1   4    7.84    0.79
  21  -1   4   41.66    1.65
  23  -1   4   14.64    1.14
  25  -1   4   18.15    2.21
 -30   0   4    3.68    1.17
 -28   0   4   39.50    3.03
 -26   0   4   -0.42    0.35
 -24   0   4    5.68    0.87
 -22   0   4   19.43    1.52
 -20   0   4   28.34    1.63
 -18   0   4    1.77    0.44
 -16   0   4   10.69    0.59
 -14   0   4   16.90    0.67
 -12   0   4    0.56    0.14
 -10   0   4   17.29    0.57
  -8   0   4   31.04    0.82
  -6   0   4  507.79    9.41
  -4   0   4    0.14    0.08
  -2   0   4  199.13    3.53
   0   0   4    5.22    0.20
   2   0   4  335.09    6.41
   4   0   4    8.02    0.38
   6   0   4   57.78    1.21
   8   0   4   16.77    0.59
  10   0   4    0.54    0.16
  12   0   4    0.07    0.14
  14   0   4    2.82    0.38
  16   0   4   42.24    1.37
  18   0   4    9.26    0.71
  20   0   4    2.74    0.49
  22   0   4    5.89    0.71
  24   0   4   21.56    1.62
  26   0   4    8.42    1.56
 -29   1   4   32.23    2.27
 -27   1   4   16.90    1.63
 -25   1   4   20.68    1.71
 -23   1   4   -0.09    0.28
 -21   1   4   -0.02    0.21
 -19   1   4   32.92    1.48
 -17   1   4   72.38    2.38
 -15   1   4    0.33    0.18
 -13   1   4  131.40    3.45
 -11   1   4    3.58    0.25
  -9   1   4    4.01    0.25
  -7   1   4    1.06    0.14
  -5   1   4    3.50    0.23
  -3   1   4    1.60    0.15
  -1   1   4    2.31    0.18
   1   1   4    9.78    0.30
   3   1   4    0.46    0.08
   5   1   4    1.67    0.18
   7   1   4   13.18    0.51
   9   1   4   81.55    1.71
  11   1   4   19.54    0.74
  13   1   4   25.78    1.03
  15   1   4   64.21    1.80
  17   1   4    5.23    0.56
  19   1   4    7.17    0.85
  21   1   4   42.51    1.81
  23   1   4   16.70    1.61
  25   1   4   18.85    2.71
 -28   2   4   25.08    2.05
 -26   2   4   -0.23    0.42
 -24   2   4    3.26    0.69
 -22   2   4   13.40    1.25
 -20   2   4   24.82    1.36
 -18   2   4    1.05    0.33
 -16   2   4    9.09    0.82
 -14   2   4   12.32    0.81
 -12   2   4    0.82    0.19
 -10   2   4   13.89    0.58
  -8   2   4   23.47    0.77
  -6   2   4  342.44    6.84
  -4   2   4    0.06    0.09
  -2   2   4  124.55    2.41
   0   2   4    3.15    0.19
   2   2   4  215.11    4.03
   4   2   4    5.73    0.35
   6   2   4   43.34    1.14
   8   2   4   12.29    0.58
  10   2   4    0.62    0.20
  12   2   4    0.11    0.24
  14   2   4    2.70    0.56
  16   2   4   33.93    1.65
  18   2   4    7.48    0.90
  20   2   4    3.28    0.64
  22   2   4    4.08    0.95
  24   2   4   20.74    2.09
 -27   3   4    7.62    1.66
 -25   3   4   14.66    1.53
 -23   3   4    0.06    0.36
 -21   3   4    0.06    0.30
 -19   3   4   18.87    1.49
 -17   3   4   48.18    1.99
 -15   3   4   -0.12    0.18
 -13   3   4   73.19    2.03
 -11   3   4    1.88    0.30
  -9   3   4    1.77    0.30
  -7   3   4    0.17    0.14
  -5   3   4    1.00    0.20
  -3   3   4    0.57    0.16
  -1   3   4    2.07    0.25
   1   3   4    4.01    0.33
   3   3   4    0.23    0.18
   5   3   4    0.54    0.23
   7   3   4    5.22    0.59
   9   3   4   47.63    1.70
  11   3   4   10.35    0.90
  13   3   4   14.08    1.16
  15   3   4   36.18    1.76
  17   3   4    2.70    0.81
  19   3   4    4.68    1.02
  21   3   4   27.26    2.43
  23   3   4    7.96    2.44
 -24   4   4    1.77    1.03
 -22   4   4    7.91    1.15
 -20   4   4   11.57    1.28
 -18   4   4    1.03    0.42
 -16   4   4    3.64    0.62
 -14   4   4    4.99    0.70
 -12   4   4    0.44    0.23
 -10   4   4    7.16    0.62
  -8   4   4   11.52    0.77
  -6   4   4  153.68    3.57
  -4   4   4    0.19    0.16
  -2   4   4   52.05    2.07
   0   4   4    0.91    0.31
   2   4   4  102.06    2.83
   4   4   4    3.75    0.53
   6   4   4   23.79    1.24
   8   4   4    5.41    0.67
  10   4   4    0.54    0.32
  12   4   4   -0.24    0.25
  14   4   4    1.68    0.74
  16   4   4   20.09    2.06
  18   4   4    4.58    1.15
  20   4   4    0.99    1.76
 -19   5   4    9.10    1.69
 -17   5   4   26.70    1.72
 -15   5   4    0.14    0.36
 -13   5   4   32.36    1.63
 -11   5   4    0.49    0.38
  -9   5   4    0.14    0.30
  -7   5   4    0.10    0.27
  -5   5   4    0.17    0.30
  -3   5   4    0.34    0.32
  -1   5   4    1.44    0.43
   1   5   4    0.83    0.38
   3   5   4   -0.04    0.28
   5   5   4    0.15    0.27
   7   5   4    2.89    0.56
   9   5   4   22.49    2.08
  11   5   4    3.84    0.96
  13   5   4    7.03    1.31
 -10   6   4    3.13    1.20
  -8   6   4    4.01    0.82
  -6   6   4   62.52    2.79
  -4   6   4    0.21    0.39
  -2   6   4   21.68    1.73
   0   6   4    0.28    0.37
   2   6   4   42.50    2.25
   4   6   4    2.85    1.20
  -4  -6   5   21.04    2.66
  -2  -6   5    7.39    1.54
   0  -6   5    1.01    0.58
   2  -6   5    2.45    0.73
   4  -6   5   39.74    3.84
 -17  -5   5    9.92    1.43
 -15  -5   5    7.97    1.21
 -13  -5   5    0.31    0.41
 -11  -5   5    0.32    0.38
  -9  -5   5   42.18    1.63
  -7  -5   5    7.78    0.97
  -5  -5   5    0.28    0.30
  -3  -5   5    3.83    0.71
  -1  -5   5    6.68    0.89
   1  -5   5    0.93    0.41
   3  -5   5   50.39    2.30
   5  -5   5    2.63    0.65
   7  -5   5    3.73    0.72
   9  -5   5   -0.02    0.37
  11  -5   5   -0.01    0.38
  13  -5   5   -0.46    0.41
 -22  -4   5    0.97    0.69
 -20  -4   5   53.46    2.88
 -18  -4   5    5.06    1.01
 -16  -4   5   37.49    2.09
 -14  -4   5    0.34    0.27
 -12  -4   5    0.54    0.28
 -10  -4   5    1.29    0.33
  -8  -4   5   66.91    1.98
  -6  -4   5    0.15    0.17
  -4  -4   5   45.78    1.88
  -2  -4   5   20.61    1.16
   0  -4   5    4.84    0.65
   2  -4   5    4.40    0.54
   4  -4   5   77.04    2.27
   6  -4   5   13.46    0.97
   8  -4   5    4.35    0.58
  10  -4   5    0.03    0.22
  12  -4   5   31.95    1.43
  14  -4   5   64.57    2.82
  16  -4   5    9.80    1.28
  18  -4   5   -0.21    0.47
 -25  -3   5   20.16    2.01
 -23  -3   5   16.01    1.79
 -21  -3   5    1.49    0.49
 -19  -3   5   23.47    1.42
 -17  -3   5   12.73    1.04
 -15  -3   5   23.03    1.18
 -13  -3   5    1.34    0.33
 -11  -3   5    0.32    0.19
  -9  -3   5   84.08    2.26
  -7  -3   5   17.27    0.78
  -5  -3   5    0.94    0.19
  -3  -3   5    9.71    0.50
  -1  -3   5   13.28    0.53
   1  -3   5    1.77    0.29
   3  -3   5  118.43    2.87
   5  -3   5    7.11    0.61
   7  -3   5    9.30    0.73
   9  -3   5    0.60    0.24
  11  -3   5    0.47    0.26
  13  -3   5   -0.08    0.21
  15  -3   5   42.80    2.08
  17  -3   5    0.10    0.37
  19  -3   5    6.67    1.04
  21  -3   5    1.31    0.66
 -28  -2   5    8.60    2.03
 -26  -2   5    0.22    0.53
 -24  -2   5    3.51    0.85
 -22  -2   5    0.33    0.48
 -20  -2   5   92.14    3.67
 -18  -2   5    7.85    1.01
 -16  -2   5   67.22    2.63
 -14  -2   5    0.90    0.34
 -12  -2   5    1.39    0.25
 -10  -2   5    2.26    0.28
  -8  -2   5  127.36    2.89
  -6  -2   5    0.82    0.18
  -4  -2   5   92.30    2.17
  -2  -2   5   44.86    0.93
   0  -2   5    8.32    0.33
   2  -2   5    9.71    0.48
   4  -2   5  140.17    2.82
   6  -2   5   25.51    0.83
   8  -2   5    9.64    0.56
  10  -2   5    0.14    0.16
  12  -2   5   48.67    1.43
  14  -2   5  105.03    2.91
  16  -2   5   15.71    1.14
  18  -2   5    0.96    0.38
  20  -2   5    0.30    0.45
  22  -2   5    0.25    0.38
  24  -2   5    5.88    1.36
 -29  -1   5    1.07    0.64
 -27  -1   5   13.03    1.59
 -25  -1   5   31.58    2.43
 -23  -1   5   22.85    2.04
 -21  -1   5    2.98    0.73
 -19  -1   5   37.43    1.49
 -17  -1   5   19.50    0.98
 -15  -1   5   36.24    1.29
 -13  -1   5    1.99    0.29
 -11  -1   5    1.05    0.20
  -9  -1   5  144.43    3.23
  -7  -1   5   28.41    0.75
  -5  -1   5    1.54    0.18
  -3  -1   5   16.62    0.52
  -1  -1   5   27.29    0.72
   1  -1   5    2.30    0.21
   3  -1   5  195.92    3.64
   5  -1   5   10.80    0.46
   7  -1   5   16.49    0.62
   9  -1   5    0.48    0.17
  11  -1   5    0.29    0.19
  13  -1   5    0.02    0.20
  15  -1   5   60.04    1.95
  17  -1   5    0.24    0.26
  19  -1   5    9.84    0.91
  21  -1   5    0.70    0.35
  23  -1   5    7.15    0.97
  25  -1   5    0.35    0.49
 -30   0   5   24.89    2.84
 -28   0   5   13.83    2.13
 -26   0   5    0.21    0.40
 -24   0   5    3.43    0.73
 -22   0   5    0.34    0.33
 -20   0   5  117.79    3.77
 -18   0   5    8.72    0.85
 -16   0   5   85.26    2.14
 -14   0   5    0.99    0.18
 -12   0   5    1.26    0.19
 -10   0   5    4.01    0.31
  -8   0   5  179.27    3.66
  -6   0   5    1.11    0.16
  -4   0   5  138.17    2.51
  -2   0   5   67.73    1.24
   0   0   5   11.31    0.33
   2   0   5   13.35    0.51
   4   0   5  195.86    3.73
   6   0   5   34.95    0.99
   8   0   5   13.40    0.63
  10   0   5    0.53    0.19
  12   0   5   65.71    1.73
  14   0   5  134.67    3.03
  16   0   5   20.49    1.03
  18   0   5    0.59    0.30
  20   0   5    0.29    0.29
  22   0   5   -0.26    0.31
  24   0   5    7.00    1.45
 -29   1   5    0.71    0.54
 -27   1   5   14.48    1.47
 -25   1   5   33.57    2.04
 -23   1   5   21.88    1.70
 -21   1   5    3.17    0.63
 -19   1   5   36.62    1.35
 -17   1   5   21.34    0.93
 -15   1   5   39.50    1.22
 -13   1   5    1.79    0.27
 -11   1   5    0.70    0.16
  -9   1   5  148.55    2.75
  -7   1   5   29.65    0.75
  -5   1   5    1.79    0.19
  -3   1   5   17.03    0.51
  -1   1   5   28.19    0.81
   1   1   5    2.74    0.21
   3   1   5  201.35    3.48
   5   1   5   11.08    0.42
   7   1   5   16.21    0.57
   9   1   5    0.56    0.20
  11   1   5   -0.18    0.17
  13   1   5    0.53    0.24
  15   1   5   61.70    1.82
  17   1   5    0.65    0.29
  19   1   5   10.78    1.35
  21   1   5    1.38    0.59
  23   1   5    6.83    1.07
  25   1   5    0.17    0.76
 -28   2   5    8.36    1.17
 -26   2   5    0.30    0.46
 -24   2   5    2.89    0.55
 -22   2   5    0.00    0.28
 -20   2   5   95.82    3.20
 -18   2   5    8.08    0.82
 -16   2   5   68.69    2.33
 -14   2   5    0.48    0.22
 -12   2   5    1.23    0.28
 -10   2   5    2.91    0.30
  -8   2   5  129.72    2.91
  -6   2   5    0.91    0.16
  -4   2   5   94.00    1.85
  -2   2   5   44.95    0.92
   0   2   5    7.96    0.30
   2   2   5    9.56    0.49
   4   2   5  145.85    2.94
   6   2   5   25.89    0.87
   8   2   5    9.96    0.58
  10   2   5    0.00    0.16
  12   2   5   47.13    1.92
  14   2   5  104.56    3.28
  16   2   5   12.93    1.19
  18   2   5    0.39    0.39
  20   2   5    0.13    0.36
  22   2   5    0.03    0.51
  24   2   5    6.09    1.89
 -25   3   5   23.82    1.95
 -23   3   5   11.50    1.27
 -21   3   5    2.22    0.59
 -19   3   5   25.60    1.53
 -17   3   5   14.59    1.17
 -15   3   5   22.47    1.19
 -13   3   5    0.71    0.27
 -11   3   5    0.43    0.18
  -9   3   5   86.68    2.17
  -7   3   5   17.59    0.73
  -5   3   5    0.79    0.20
  -3   3   5    8.54    0.51
  -1   3   5   14.22    0.60
   1   3   5    1.46    0.22
   3   3   5  113.04    3.05
   5   3   5    6.42    0.62
   7   3   5   11.12    0.89
   9   3   5    0.10    0.22
  11   3   5   -0.14    0.20
  13   3   5    0.22    0.32
  15   3   5   40.94    1.95
  17   3   5    0.08    0.39
  19   3   5    5.29    1.13
  21   3   5    0.48    0.68
 -24   4   5    1.92    0.97
 -22   4   5    0.32    0.43
 -20   4   5   56.28    2.46
 -18   4   5    3.98    0.72
 -16   4   5   35.92    1.72
 -14   4   5    0.24    0.26
 -12   4   5    0.89    0.33
 -10   4   5    1.31    0.29
  -8   4   5   67.97    1.93
  -6   4   5    0.18    0.20
  -4   4   5   43.54    1.88
  -2   4   5   21.59    1.22
   0   4   5    2.93    0.46
   2   4   5    5.41    0.63
   4   4   5   74.18    2.38
   6   4   5   13.52    1.05
   8   4   5    4.95    0.65
  10   4   5   -0.12    0.26
  12   4   5   26.30    1.56
  14   4   5   59.32    3.19
  16   4   5    5.38    1.23
  18   4   5    0.12    0.67
 -19   5   5   14.19    2.03
 -17   5   5    6.86    0.99
 -15   5   5   11.20    1.15
 -13   5   5    1.46    0.67
 -11   5   5   -0.03    0.34
  -9   5   5   38.01    1.95
  -7   5   5    7.54    0.96
  -5   5   5    1.05    0.41
  -3   5   5    3.53    0.69
  -1   5   5    5.05    0.79
   1   5   5    0.65    0.37
   3   5   5   53.69    2.37
   5   5   5    2.62    0.54
   7   5   5    4.16    0.64
   9   5   5   -0.26    0.46
  11   5   5    0.31    0.61
  13   5   5   -0.19    0.70
  -8   6   5   31.07    2.96
  -6   6   5    0.05    0.41
  -4   6   5   20.94    1.75
  -2   6   5    8.79    1.13
   0   6   5    1.02    0.51
   2   6   5    1.20    0.56
  -2  -6   6   19.01    2.47
   0  -6   6   13.82    2.08
 -17  -5   6    0.73    0.55
 -15  -5   6   12.06    1.43
 -13  -5   6   12.66    1.35
 -11  -5   6   84.77    3.27
  -9  -5   6    2.78    0.66
  -7  -5   6    0.84    0.41
  -5  -5   6   -0.12    0.28
  -3  -5   6   80.75    3.02
  -1  -5   6    0.29    0.29
   1  -5   6    0.25    0.35
   3  -5   6    2.83    0.62
   5  -5   6   24.31    1.78
   7  -5   6    0.67    0.42
   9  -5   6   27.00    1.80
  11  -5   6    0.50    0.82
 -22  -4   6    9.84    1.50
 -20  -4   6    2.78    0.83
 -18  -4   6   -0.37    0.32
 -16  -4   6   29.93    1.57
 -14  -4   6   70.20    2.34
 -12  -4   6    1.10    0.35
 -10  -4   6    4.07    0.54
  -8  -4   6    7.22    0.66
  -6  -4   6   14.71    1.16
  -4  -4   6   40.53    1.79
  -2  -4   6   47.24    1.93
   0  -4   6   43.95    1.85
   2  -4   6    3.82    0.52
   4  -4   6    0.43    0.26
   6  -4   6    0.33    0.27
   8  -4   6   67.31    2.21
  10  -4   6   38.61    1.60
  12  -4   6   28.89    2.06
  14  -4   6    8.27    1.17
  16  -4   6    4.79    0.96
 -25  -3   6   49.76    2.86
 -23  -3   6   14.70    1.41
 -21  -3   6    1.19    0.58
 -19  -3   6   12.14    1.32
 -17  -3   6   -0.05    0.28
 -15  -3   6   16.54    1.32
 -13  -3   6   22.73    1.12
 -11  -3   6  175.35    4.19
  -9  -3   6    5.57    0.56
  -7  -3   6    4.96    0.49
  -5  -3   6   -0.06    0.11
  -3  -3   6  157.15    3.66
  -1  -3   6    0.96    0.23
   1  -3   6    0.02    0.15
   3  -3   6    6.80    0.58
   5  -3   6   52.42    1.64
   7  -3   6    0.55    0.24
   9  -3   6   42.00    1.48
  11  -3   6    0.92    0.38
  13  -3   6    0.17    0.33
  15  -3   6   10.04    1.32
  17  -3   6    9.97    1.25
  19  -3   6   32.09    2.28
 -28  -2   6    0.79    0.64
 -26  -2   6   11.84    1.65
 -24  -2   6   10.66    1.47
 -22  -2   6   21.19    1.96
 -20  -2   6    3.96    0.79
 -18  -2   6    0.71    0.36
 -16  -2   6   50.44    2.20
 -14  -2   6  128.26    4.13
 -12  -2   6    1.42    0.26
 -10  -2   6   10.00    0.58
  -8  -2   6   14.30    0.63
  -6  -2   6   30.97    1.02
  -4  -2   6   75.89    1.62
  -2  -2   6   85.29    1.56
   0  -2   6   86.43    1.87
   2  -2   6    7.79    0.45
   4  -2   6    1.52    0.23
   6  -2   6    2.91    0.32
   8  -2   6  124.65    2.66
  10  -2   6   72.29    2.14
  12  -2   6   45.12    1.64
  14  -2   6   16.61    1.16
  16  -2   6    7.95    0.86
  18  -2   6   13.02    1.13
  20  -2   6   46.08    1.90
  22  -2   6    8.59    1.18
 -29  -1   6    2.72    0.83
 -27  -1   6   65.53    4.74
 -25  -1   6   67.74    3.27
 -23  -1   6   20.67    1.91
 -21  -1   6    0.51    0.29
 -19  -1   6   15.81    1.08
 -17  -1   6    0.65    0.26
 -15  -1   6   27.04    1.10
 -13  -1   6   32.64    1.14
 -11  -1   6  299.02    6.24
  -9  -1   6    9.11    0.47
  -7  -1   6   10.28    0.44
  -5  -1   6    0.27    0.11
  -3  -1   6  280.35    5.00
  -1  -1   6    1.96    0.21
   1  -1   6    0.40    0.11
   3  -1   6   11.32    0.45
   5  -1   6   84.79    1.82
   7  -1   6    0.71    0.22
   9  -1   6   62.33    1.82
  11  -1   6    2.44    0.39
  13  -1   6    0.16    0.24
  15  -1   6   14.91    1.05
  17  -1   6   12.89    1.05
  19  -1   6   41.14    1.69
  21  -1   6   76.78    3.03
  23  -1   6    1.40    0.63
 -30   0   6   -0.30    0.66
 -28   0   6    0.95    0.91
 -26   0   6   17.50    1.61
 -24   0   6   13.83    1.34
 -22   0   6   22.70    1.49
 -20   0   6    7.01    0.83
 -18   0   6    0.34    0.26
 -16   0   6   61.76    2.22
 -14   0   6  169.94    3.62
 -12   0   6    1.73    0.24
 -10   0   6   15.03    0.57
  -8   0   6   19.14    0.78
  -6   0   6   49.05    1.26
  -4   0   6  106.36    1.85
  -2   0   6  115.91    2.27
   0   0   6  125.36    2.44
   2   0   6   14.49    0.56
   4   0   6    2.20    0.25
   6   0   6    3.84    0.36
   8   0   6  164.65    3.35
  10   0   6   92.96    2.36
  12   0   6   57.93    1.65
  14   0   6   20.83    1.34
  16   0   6    8.10    0.86
  18   0   6   15.26    1.21
  20   0   6   51.92    2.03
  22   0   6   10.17    1.16
  24   0   6    1.67    0.89
 -29   1   6    1.86    0.67
 -27   1   6   54.15    2.59
 -25   1   6   66.14    2.89
 -23   1   6   20.53    1.67
 -21   1   6    0.31    0.30
 -19   1   6   14.53    0.85
 -17   1   6    0.31    0.20
 -15   1   6   25.43    0.95
 -13   1   6   34.48    1.07
 -11   1   6  298.34    5.99
  -9   1   6    9.12    0.43
  -7   1   6    9.96    0.43
  -5   1   6    0.25    0.11
  -3   1   6  288.90    5.09
  -1   1   6    2.23    0.21
   1   1   6    0.40    0.11
   3   1   6   12.54    0.46
   5   1   6   87.86    1.92
   7   1   6    0.23    0.20
   9   1   6   62.65    2.00
  11   1   6    3.22    0.55
  13   1   6   -0.14    0.23
  15   1   6   15.55    1.17
  17   1   6   11.14    1.02
  19   1   6   41.73    2.39
  21   1   6   70.14    3.34
  23   1   6    1.29    0.62
 -28   2   6    1.16    0.61
 -26   2   6   15.58    1.60
 -24   2   6   10.24    1.25
 -22   2   6   18.38    1.23
 -20   2   6    6.35    0.66
 -18   2   6    0.06    0.20
 -16   2   6   50.75    1.62
 -14   2   6  138.24    3.19
 -12   2   6    2.49    0.39
 -10   2   6    9.30    0.59
  -8   2   6   13.66    0.52
  -6   2   6   34.37    0.89
  -4   2   6   76.71    1.62
  -2   2   6   86.37    1.74
   0   2   6   90.37    1.96
   2   2   6    8.34    0.53
   4   2   6    1.22    0.24
   6   2   6    2.33    0.32
   8   2   6  122.67    2.81
  10   2   6   70.23    2.00
  12   2   6   44.20    2.07
  14   2   6   19.36    1.48
  16   2   6    7.30    0.94
  18   2   6   12.02    1.22
  20   2   6   45.36    2.08
  22   2   6    7.61    2.09
 -25   3   6   45.17    1.92
 -23   3   6   14.40    1.19
 -21   3   6    0.27    0.32
 -19   3   6   10.11    1.04
 -17   3   6    0.41    0.29
 -15   3   6   16.99    1.10
 -13   3   6   23.25    1.14
 -11   3   6  177.88    4.79
  -9   3   6    6.09    0.52
  -7   3   6    4.83    0.38
  -5   3   6    0.00    0.12
  -3   3   6  159.73    3.18
  -1   3   6    1.34    0.23
   1   3   6    0.04    0.14
   3   3   6    7.02    0.69
   5   3   6   52.06    1.86
   7   3   6    0.18    0.27
   9   3   6   39.52    1.75
  11   3   6    1.03    0.41
  13   3   6    0.15    0.34
  15   3   6    7.61    1.01
  17   3   6    7.45    1.01
  19   3   6   28.42    2.52
 -22   4   6   13.14    1.40
 -20   4   6    2.51    0.66
 -18   4   6   -0.23    0.28
 -16   4   6   26.43    1.44
 -14   4   6   75.44    2.61
 -12   4   6    1.04    0.35
 -10   4   6    3.63    0.55
  -8   4   6    5.61    0.56
  -6   4   6   14.59    0.82
  -4   4   6   39.56    1.81
  -2   4   6   44.95    1.96
   0   4   6   42.60    1.95
   2   4   6    4.01    0.57
   4   4   6    0.61    0.27
   6   4   6    0.87    0.36
   8   4   6   65.46    2.36
  10   4   6   37.81    1.76
  12   4   6   26.66    1.64
  14   4   6    6.66    1.29
  16   4   6    3.70    1.07
 -17   5   6    0.33    0.41
 -15   5   6   10.65    1.13
 -13   5   6   10.23    1.49
 -11   5   6   78.28    4.26
  -9   5   6    3.62    0.95
  -7   5   6    0.52    0.38
  -5   5   6    0.27    0.30
  -3   5   6   74.61    3.01
  -1   5   6    0.24    0.34
   1   5   6    0.04    0.36
   3   5   6    3.00    0.70
   5   5   6   20.19    1.69
   7   5   6   -0.01    0.34
   9   5   6   22.74    1.64
  11   5   6    0.32    0.69
  -6   6   6    6.69    1.69
  -4   6   6   23.38    3.16
  -2   6   6   20.03    1.88
   0   6   6   18.11    2.22
 -17  -5   7   -0.36    0.74
 -15  -5   7   -0.21    0.56
 -13  -5   7    0.49    0.46
 -11  -5   7    1.95    0.62
  -9  -5   7   30.89    1.76
  -7  -5   7    0.69    0.38
  -5  -5   7    0.25    0.37
  -3  -5   7    0.85    0.43
  -1  -5   7    8.66    1.04
   1  -5   7    1.25    0.49
   3  -5   7   56.65    2.45
   5  -5   7   16.38    1.48
   7  -5   7    6.70    1.43
 -22  -4   7    0.72    0.68
 -20  -4   7   34.03    2.13
 -18  -4   7   16.24    1.34
 -16  -4   7    8.08    0.91
 -14  -4   7    7.74    0.82
 -12  -4   7    7.72    0.75
 -10  -4   7    0.50    0.32
  -8  -4   7    4.08    0.65
  -6  -4   7    1.14    0.38
  -4  -4   7    5.91    0.78
  -2  -4   7    8.18    0.89
   0  -4   7    0.03    0.23
   2  -4   7    1.36    0.34
   4  -4   7    1.27    0.35
   6  -4   7   18.56    1.14
   8  -4   7   -0.32    0.32
  10  -4   7    0.49    0.42
  12  -4   7    0.35    0.48
  14  -4   7   13.02    1.48
 -25  -3   7    0.90    0.73
 -23  -3   7    1.26    0.66
 -21  -3   7    8.01    1.21
 -19  -3   7    6.50    1.01
 -17  -3   7    0.02    0.34
 -15  -3   7    0.12    0.30
 -13  -3   7    0.00    0.22
 -11  -3   7    5.39    0.59
  -9  -3   7   64.73    1.94
  -7  -3   7    1.66    0.29
  -5  -3   7    0.68    0.23
  -3  -3   7    2.47    0.36
  -1  -3   7   13.71    0.79
   1  -3   7    1.67    0.31
   3  -3   7  115.08    2.88
   5  -3   7   39.54    1.39
   7  -3   7   14.18    1.20
   9  -3   7    6.33    0.85
  11  -3   7    0.08    0.33
  13  -3   7   21.07    1.70
  15  -3   7    0.05    0.45
  17  -3   7    1.68    0.66
  19  -3   7    1.60    0.98
 -28  -2   7    1.96    0.91
 -26  -2   7    2.10    0.85
 -24  -2   7   32.99    2.64
 -22  -2   7   -0.38    0.34
 -20  -2   7   54.10    2.57
 -18  -2   7   25.78    1.70
 -16  -2   7   11.67    1.12
 -14  -2   7   19.12    0.90
 -12  -2   7   14.34    0.77
 -10  -2   7    0.19    0.16
  -8  -2   7    9.22    0.60
  -6  -2   7    0.68    0.18
  -4  -2   7   11.05    0.55
  -2  -2   7   15.64    0.61
   0  -2   7    0.09    0.11
   2  -2   7    2.50    0.28
   4  -2   7    4.50    0.39
   6  -2   7   38.89    1.39
   8  -2   7    0.28    0.23
  10  -2   7    3.11    0.49
  12  -2   7   -0.27    0.20
  14  -2   7   16.07    1.18
  16  -2   7    7.41    0.85
  18  -2   7   15.01    1.25
  20  -2   7    2.14    0.55
 -29  -1   7    5.86    1.18
 -27  -1   7    1.43    0.71
 -25  -1   7   -0.05    0.51
 -23  -1   7    0.43    0.45
 -21  -1   7   12.91    1.02
 -19  -1   7    6.94    0.70
 -17  -1   7    0.03    0.18
 -15  -1   7   -0.03    0.16
 -13  -1   7    0.41    0.19
 -11  -1   7    7.24    0.57
  -9  -1   7  100.95    2.47
  -7  -1   7    3.10    0.30
  -5  -1   7    1.02    0.19
  -3  -1   7    3.22    0.28
  -1  -1   7   23.40    0.70
   1  -1   7    3.01    0.26
   3  -1   7  183.79    4.04
   5  -1   7   67.49    1.86
   7  -1   7   18.16    0.89
   9  -1   7    7.14    0.66
  11  -1   7    0.27    0.22
  13  -1   7   25.41    1.28
  15  -1   7    1.04    0.36
  17  -1   7    1.59    0.74
  19  -1   7    5.41    0.92
  21  -1   7    0.86    0.55
 -28   0   7    4.06    1.38
 -26   0   7    1.17    0.56
 -24   0   7   42.12    2.15
 -22   0   7   -0.08    0.30
 -20   0   7   66.31    2.53
 -18   0   7   32.98    1.53
 -16   0   7   14.10    0.93
 -14   0   7   21.53    1.05
 -12   0   7   19.63    0.73
 -10   0   7    1.08    0.23
  -8   0   7   12.80    0.55
  -6   0   7    0.92    0.18
  -4   0   7   15.52    0.47
  -2   0   7   22.23    0.58
   0   0   7    0.17    0.12
   2   0   7    2.38    0.27
   4   0   7    4.84    0.40
   6   0   7   45.87    1.29
   8   0   7    0.40    0.20
  10   0   7    4.05    0.45
  12   0   7    0.04    0.24
  14   0   7   21.91    1.43
  16   0   7    8.83    0.94
  18   0   7   15.00    1.23
  20   0   7    2.99    0.71
  22   0   7    2.60    0.69
 -29   1   7    9.47    1.31
 -27   1   7    1.04    0.58
 -25   1   7   -0.34    0.35
 -23   1   7    1.10    0.49
 -21   1   7    7.99    0.95
 -19   1   7    8.42    0.93
 -17   1   7    0.10    0.17
 -15   1   7    0.24    0.15
 -13   1   7    0.08    0.13
 -11   1   7    7.98    0.52
  -9   1   7  105.98    2.38
  -7   1   7    2.83    0.28
  -5   1   7    0.90    0.17
  -3   1   7    3.16    0.28
  -1   1   7   23.29    0.72
   1   1   7    3.37    0.29
   3   1   7  183.01    3.54
   5   1   7   65.04    2.03
   7   1   7   19.89    1.09
   9   1   7    6.71    0.71
  11   1   7    0.34    0.26
  13   1   7   27.40    1.46
  15   1   7    1.04    0.41
  17   1   7    3.33    0.83
  19   1   7    3.71    0.92
  21   1   7   -0.20    0.49
 -28   2   7    2.26    1.06
 -26   2   7    1.52    0.59
 -24   2   7   33.34    2.09
 -22   2   7    0.30    0.38
 -20   2   7   53.85    1.82
 -18   2   7   24.63    1.14
 -16   2   7   11.86    0.80
 -14   2   7   18.03    0.85
 -12   2   7   15.25    0.70
 -10   2   7    0.18    0.13
  -8   2   7    9.87    0.53
  -6   2   7    0.69    0.16
  -4   2   7   11.88    0.50
  -2   2   7   16.28    0.75
   0   2   7    0.02    0.11
   2   2   7    1.64    0.30
   4   2   7    4.11    0.42
   6   2   7   36.76    1.24
   8   2   7    0.71    0.25
  10   2   7    2.59    0.58
  12   2   7    0.45    0.39
  14   2   7   17.33    1.48
  16   2   7    6.29    1.17
  18   2   7   13.01    1.69
  20   2   7    3.01    0.91
 -25   3   7    0.21    0.47
 -23   3   7    1.24    0.45
 -21   3   7    8.55    0.88
 -19   3   7    4.66    0.63
 -17   3   7    0.08    0.22
 -15   3   7    0.13    0.21
 -13   3   7    0.25    0.21
 -11   3   7    5.24    0.51
  -9   3   7   67.31    1.77
  -7   3   7    2.01    0.32
  -5   3   7    0.25    0.16
  -3   3   7    1.83    0.31
  -1   3   7   13.32    0.68
   1   3   7    2.43    0.32
   3   3   7  114.49    3.20
   5   3   7   39.37    1.65
   7   3   7   13.26    1.12
   9   3   7    4.60    0.71
  11   3   7   -0.15    0.31
  13   3   7   16.57    1.46
  15   3   7    0.82    0.49
  17   3   7    0.50    0.54
 -22   4   7    0.25    0.37
 -20   4   7   32.56    1.57
 -18   4   7   14.23    1.09
 -16   4   7    6.91    0.89
 -14   4   7    8.03    0.90
 -12   4   7    8.17    0.87
 -10   4   7    0.17    0.24
  -8   4   7    5.31    0.65
  -6   4   7    0.18    0.19
  -4   4   7    5.70    0.77
  -2   4   7    8.29    0.95
   0   4   7   -0.03    0.23
   2   4   7    1.42    0.38
   4   4   7    1.79    0.45
   6   4   7   19.62    1.41
   8   4   7    0.21    0.34
  10   4   7    2.26    0.57
  12   4   7   -0.02    0.39
  14   4   7   11.83    1.40
 -17   5   7   -0.10    0.52
 -15   5   7   -0.23    0.33
 -13   5   7   -0.31    0.46
 -11   5   7    1.82    0.73
  -9   5   7   29.51    2.25
  -7   5   7    0.39    0.44
  -5   5   7   -0.33    0.28
  -3   5   7    0.63    0.43
  -1   5   7    7.87    1.03
   1   5   7    0.36    0.42
   3   5   7   51.42    2.53
   5   5   7   19.65    1.79
   7   5   7    6.07    0.83
   9   5   7    3.90    0.84
 -15  -5   8    0.52    0.71
 -13  -5   8    3.42    0.75
 -11  -5   8   27.81    1.86
  -9  -5   8    8.57    1.14
  -7  -5   8   19.25    1.63
  -5  -5   8   24.13    1.65
  -3  -5   8    6.87    0.94
  -1  -5   8   18.86    1.54
   1  -5   8    2.28    0.62
   3  -5   8   30.89    2.53
   5  -5   8   11.92    1.91
 -22  -4   8   -0.80    0.78
 -20  -4   8    1.28    0.53
 -18  -4   8    0.71    0.42
 -16  -4   8    8.34    0.91
 -14  -4   8   17.93    1.30
 -12  -4   8    0.26    0.32
 -10  -4   8    1.07    0.41
  -8  -4   8   77.81    2.88
  -6  -4   8    0.18    0.28
  -4  -4   8   47.60    1.98
  -2  -4   8    2.03    0.47
   0  -4   8   33.28    1.62
   2  -4   8    0.62    0.30
   4  -4   8   26.14    1.69
   6  -4   8    2.10    0.57
   8  -4   8    0.37    0.48
  10  -4   8    3.19    0.76
  12  -4   8    9.86    1.22
 -25  -3   8    0.65    0.87
 -23  -3   8    5.68    1.12
 -21  -3   8    5.88    1.02
 -19  -3   8  133.27    4.58
 -17  -3   8    2.05    0.59
 -15  -3   8    0.49    0.32
 -13  -3   8   10.84    1.05
 -11  -3   8   54.19    2.18
  -9  -3   8   13.17    0.90
  -7  -3   8   41.22    1.75
  -5  -3   8   54.17    1.68
  -3  -3   8   13.57    0.87
  -1  -3   8   31.11    1.19
   1  -3   8    9.00    0.71
   3  -3   8   59.56    1.91
   5  -3   8   20.26    1.23
   7  -3   8    5.75    0.72
   9  -3   8   12.95    1.10
  11  -3   8   62.99    2.22
  13  -3   8   25.83    1.91
  15  -3   8   42.71    2.27
  17  -3   8    7.33    1.64
 -28  -2   8    3.21    1.37
 -26  -2   8   14.02    1.85
 -24  -2   8   29.43    2.45
 -22  -2   8   -0.58    0.42
 -20  -2   8    0.87    0.52
 -18  -2   8   -0.11    0.29
 -16  -2   8   14.24    1.30
 -14  -2   8   28.10    1.12
 -12  -2   8    0.09    0.16
 -10  -2   8    1.56    0.28
  -8  -2   8  141.95    3.27
  -6  -2   8    0.32    0.17
  -4  -2   8   91.19    2.29
  -2  -2   8    3.32    0.33
   0  -2   8   59.62    1.51
   2  -2   8    1.35    0.30
   4  -2   8   42.90    1.49
   6  -2   8    3.99    0.52
   8  -2   8    0.02    0.22
  10  -2   8    9.05    0.83
  12  -2   8   15.82    1.15
  14  -2   8   11.62    1.03
  16  -2   8   34.98    1.60
  18  -2   8    1.41    0.49
 -29  -1   8    3.36    1.48
 -27  -1   8    0.89    0.61
 -25  -1   8    0.27    0.52
 -23  -1   8    7.20    1.18
 -21  -1   8    7.63    0.81
 -19  -1   8  186.95    4.71
 -17  -1   8    2.37    0.42
 -15  -1   8    2.29    0.36
 -13  -1   8   17.42    0.86
 -11  -1   8   93.13    2.37
  -9  -1   8   19.80    0.80
  -7  -1   8   64.03    1.52
  -5  -1   8   93.81    2.02
  -3  -1   8   24.52    0.76
  -1  -1   8   50.66    1.51
   1  -1   8   12.71    0.72
   3  -1   8   92.79    2.40
   5  -1   8   34.55    1.26
   7  -1   8    7.67    0.67
   9  -1   8   21.74    1.11
  11  -1   8   88.16    2.57
  13  -1   8   39.38    1.59
  15  -1   8   56.35    2.56
  17  -1   8   11.37    1.32
  19  -1   8    3.04    0.76
  21  -1   8    5.70    1.49
 -28   0   8    4.88    1.50
 -26   0   8   18.26    1.66
 -24   0   8   34.24    1.89
 -22   0   8   -0.05    0.32
 -20   0   8    0.73    0.33
 -18   0   8   -0.02    0.18
 -16   0   8   16.76    1.04
 -14   0   8   33.63    1.41
 -12   0   8    0.02    0.13
 -10   0   8    2.00    0.28
  -8   0   8  190.51    3.54
  -6   0   8    0.25    0.12
  -4   0   8  129.33    2.30
  -2   0   8    6.33    0.43
   0   0   8   80.50    1.84
   2   0   8    2.57    0.30
   4   0   8   50.96    1.37
   6   0   8    5.20    0.47
   8   0   8    0.33    0.27
  10   0   8   12.11    1.05
  12   0   8   16.87    1.27
  14   0   8   13.14    1.14
  16   0   8   40.28    1.91
  18   0   8    2.80    0.61
  20   0   8    0.42    0.43
 -29   1   8    1.61    0.99
 -27   1   8   -0.05    0.48
 -25   1   8   -0.12    0.39
 -23   1   8    5.86    0.89
 -21   1   8    8.77    0.99
 -19   1   8  190.55    5.52
 -17   1   8    1.91    0.44
 -15   1   8    2.08    0.31
 -13   1   8   17.17    0.74
 -11   1   8   95.73    2.26
  -9   1   8   20.31    0.76
  -7   1   8   63.63    1.63
  -5   1   8   95.08    2.04
  -3   1   8   24.54    0.79
  -1   1   8   51.79    1.29
   1   1   8   13.40    0.82
   3   1   8   90.26    2.60
   5   1   8   35.91    1.42
   7   1   8    6.36    0.71
   9   1   8   20.15    1.20
  11   1   8   91.97    2.90
  13   1   8   41.51    1.77
  15   1   8   52.94    2.12
  17   1   8   15.26    1.78
  19   1   8    2.65    0.86
  21   1   8    6.40    1.68
 -26   2   8    9.61    1.26
 -24   2   8   32.68    2.01
 -22   2   8    0.42    0.34
 -20   2   8    0.89    0.32
 -18   2   8    0.03    0.20
 -16   2   8   15.57    0.89
 -14   2   8   26.97    1.03
 -12   2   8    0.13    0.15
 -10   2   8    1.99    0.29
  -8   2   8  141.55    3.10
  -6   2   8    0.17    0.12
  -4   2   8   92.10    2.48
  -2   2   8    3.63    0.43
   0   2   8   60.05    1.86
   2   2   8    1.72    0.34
   4   2   8   42.59    1.55
   6   2   8    4.53    0.56
   8   2   8    0.27    0.23
  10   2   8   10.28    1.44
  12   2   8   18.27    1.97
  14   2   8   11.46    1.57
  16   2   8   32.62    2.68
  18   2   8    2.56    0.88
  20   2   8    1.19    0.96
 -25   3   8   -0.22    0.77
 -23   3   8    5.21    0.77
 -21   3   8    4.59    0.62
 -19   3   8  128.98    3.40
 -17   3   8    1.65    0.38
 -15   3   8    1.05    0.29
 -13   3   8   11.59    0.80
 -11   3   8   55.56    2.02
  -9   3   8   12.95    0.96
  -7   3   8   38.94    1.57
  -5   3   8   55.41    1.70
  -3   3   8   14.69    0.82
  -1   3   8   33.76    1.26
   1   3   8    9.90    0.76
   3   3   8   53.91    2.56
   5   3   8   23.42    1.41
   7   3   8    2.42    0.55
   9   3   8   14.57    1.29
  11   3   8   58.55    2.53
  13   3   8   28.50    2.03
  15   3   8   39.80    2.83
  17   3   8    9.40    1.96
 -22   4   8    0.80    0.54
 -20   4   8    1.07    0.48
 -18   4   8    0.42    0.35
 -16   4   8    9.96    1.04
 -14   4   8   18.33    1.22
 -12   4   8    0.03    0.24
 -10   4   8    1.70    0.42
  -8   4   8   79.16    2.62
  -6   4   8    0.02    0.21
  -4   4   8   41.67    2.06
  -2   4   8    2.08    0.57
   0   4   8   32.83    1.85
   2   4   8    0.80    0.40
   4   4   8   24.23    1.64
   6   4   8    2.86    0.65
   8   4   8   -0.10    0.35
  10   4   8    3.05    0.73
  12   4   8    8.47    1.12
  14   4   8    7.66    1.71
 -13   5   8    6.08    1.35
 -11   5   8   26.34    2.19
  -9   5   8    6.04    1.19
  -7   5   8   17.41    2.05
  -5   5   8   26.29    2.13
  -3   5   8    4.35    0.85
  -1   5   8   18.39    1.71
   1   5   8    4.14    0.87
   3   5   8   23.64    2.03
   5   5   8   11.42    1.46
   7   5   8    1.61    0.75
 -13  -5   9    0.16    0.64
 -11  -5   9    0.03    0.43
  -9  -5   9    4.91    0.89
  -7  -5   9    5.29    0.90
  -5  -5   9    7.60    1.04
  -3  -5   9   43.83    2.16
  -1  -5   9    0.81    0.68
   1  -5   9    1.50    0.80
 -20  -4   9    0.96    0.64
 -18  -4   9   11.74    1.19
 -16  -4   9    0.12    0.41
 -14  -4   9   73.94    3.05
 -12  -4   9    0.54    0.39
 -10  -4   9   13.34    1.27
  -8  -4   9   18.23    1.31
  -6  -4   9    9.27    1.00
  -4  -4   9    0.23    0.30
  -2  -4   9   57.48    2.35
   0  -4   9   21.10    2.19
   2  -4   9    0.30    0.42
   4  -4   9    6.91    0.95
   6  -4   9   49.23    2.34
   8  -4   9   25.88    2.01
  10  -4   9    1.04    0.56
 -23  -3   9   21.51    2.13
 -21  -3   9   12.91    1.53
 -19  -3   9    9.69    1.19
 -17  -3   9    6.26    0.94
 -15  -3   9   25.59    1.51
 -13  -3   9    1.57    0.45
 -11  -3   9   -0.06    0.24
  -9  -3   9   12.85    1.12
  -7  -3   9   11.97    0.84
  -5  -3   9   15.61    0.90
  -3  -3   9   83.13    2.28
  -1  -3   9    0.28    0.27
   1  -3   9    3.08    0.59
   3  -3   9    0.62    0.29
   5  -3   9   12.98    1.03
   7  -3   9    0.60    0.34
   9  -3   9   50.13    1.93
  11  -3   9    0.01    0.33
  13  -3   9    2.20    0.57
  15  -3   9    0.60    0.82
 -26  -2   9   57.98    3.28
 -24  -2   9    4.07    0.99
 -22  -2   9    3.37    0.82
 -20  -2   9    2.24    0.66
 -18  -2   9   16.21    1.48
 -16  -2   9    0.03    0.29
 -14  -2   9  132.23    3.35
 -12  -2   9    1.38    0.32
 -10  -2   9   27.22    1.05
  -8  -2   9   30.92    1.12
  -6  -2   9   14.60    0.79
  -4  -2   9    0.29    0.17
  -2  -2   9  100.22    2.65
   0  -2   9   34.31    1.31
   2  -2   9    0.86    0.29
   4  -2   9   10.43    0.85
   6  -2   9   73.98    2.27
   8  -2   9   36.17    1.51
  10  -2   9    1.60    0.44
  12  -2   9    1.70    0.46
  14  -2   9    0.22    0.33
  16  -2   9   18.02    1.43
 -27  -1   9    0.85    0.72
 -25  -1   9   32.81    2.70
 -23  -1   9   31.44    2.46
 -21  -1   9   20.36    1.40
 -19  -1   9   15.48    1.10
 -17  -1   9   10.35    0.85
 -15  -1   9   38.91    1.42
 -13  -1   9    1.94    0.33
 -11  -1   9    0.16    0.16
  -9  -1   9   22.97    0.90
  -7  -1   9   17.73    0.75
  -5  -1   9   23.86    0.90
  -3  -1   9  129.68    3.12
  -1  -1   9    0.43    0.20
   1  -1   9    6.71    0.59
   3  -1   9    0.57    0.23
   5  -1   9   18.75    0.98
   7  -1   9    2.07    0.37
   9  -1   9   68.35    2.12
  11  -1   9    0.10    0.27
  13  -1   9    3.09    0.75
  15  -1   9    3.45    0.78
  17  -1   9   12.99    1.45
  19  -1   9   -0.33    0.70
 -28   0   9    9.45    1.50
 -26   0   9   73.57    3.17
 -24   0   9    4.66    0.87
 -22   0   9    4.34    0.73
 -20   0   9    2.89    0.58
 -18   0   9   19.52    1.34
 -16   0   9    0.02    0.21
 -14   0   9  159.41    4.51
 -12   0   9    2.49    0.41
 -10   0   9   36.30    1.05
  -8   0   9   39.04    1.06
  -6   0   9   19.56    0.80
  -4   0   9    0.13    0.14
  -2   0   9  130.63    2.73
   0   0   9   44.45    1.25
   2   0   9    1.08    0.23
   4   0   9   14.48    0.73
   6   0   9   89.34    2.79
   8   0   9   47.17    1.87
  10   0   9    1.73    0.48
  12   0   9    1.58    0.47
  14   0   9    0.24    0.31
  16   0   9   18.28    1.46
  18   0   9   25.86    2.10
  20   0   9   34.06    3.27
 -27   1   9    1.06    0.62
 -25   1   9   30.54    2.01
 -23   1   9   26.03    1.89
 -21   1   9   17.05    1.40
 -19   1   9   14.09    1.20
 -17   1   9   11.40    1.00
 -15   1   9   39.32    1.29
 -13   1   9    1.94    0.30
 -11   1   9    0.12    0.14
  -9   1   9   22.76    0.86
  -7   1   9   18.90    0.74
  -5   1   9   24.09    0.82
  -3   1   9  130.03    2.71
  -1   1   9    0.54    0.23
   1   1   9    5.99    0.64
   3   1   9    0.97    0.32
   5   1   9   17.04    1.05
   7   1   9    1.33    0.38
   9   1   9   69.46    2.36
  11   1   9    0.06    0.28
  13   1   9    1.20    0.47
  15   1   9    1.70    0.54
  17   1   9   10.12    1.48
  19   1   9    2.31    1.29
 -26   2   9   61.57    2.95
 -24   2   9    2.09    0.66
 -22   2   9    3.27    0.71
 -20   2   9    1.91    0.56
 -18   2   9   16.65    1.02
 -16   2   9   -0.02    0.18
 -14   2   9  136.80    3.19
 -12   2   9    1.58    0.28
 -10   2   9   25.49    0.95
  -8   2   9   30.68    1.03
  -6   2   9   17.42    0.94
  -4   2   9    0.11    0.17
  -2   2   9  105.47    2.85
   0   2   9   34.68    1.40
   2   2   9    0.82    0.29
   4   2   9   12.08    0.91
   6   2   9   72.29    2.34
   8   2   9   37.99    1.65
  10   2   9    2.40    0.84
  12   2   9    0.48    0.57
  14   2   9   -0.29    0.52
  16   2   9   16.73    1.98
 -23   3   9   19.55    1.76
 -21   3   9   15.01    1.16
 -19   3   9   11.27    0.95
 -17   3   9    7.47    0.70
 -15   3   9   28.29    1.15
 -13   3   9    1.28    0.36
 -11   3   9    0.08    0.20
  -9   3   9   13.74    0.93
  -7   3   9   13.43    1.00
  -5   3   9   15.07    0.98
  -3   3   9   76.75    2.36
  -1   3   9    0.05    0.21
   1   3   9    2.62    0.46
   3   3   9    0.80    0.43
   5   3   9   10.24    1.39
   7   3   9    0.65    0.53
   9   3   9   40.30    2.73
  11   3   9    0.51    0.50
  13   3   9    0.74    0.75
  15   3   9    1.03    1.04
 -20   4   9    1.84    0.56
 -18   4   9   13.32    1.29
 -16   4   9   -0.20    0.25
 -14   4   9   73.25    2.73
 -12   4   9    0.55    0.34
 -10   4   9   14.50    1.15
  -8   4   9   19.51    1.21
  -6   4   9    8.65    1.41
  -4   4   9   -0.04    0.38
  -2   4   9   60.46    2.76
   0   4   9   19.04    1.69
   2   4   9    0.96    0.49
   4   4   9    7.02    1.10
   6   4   9   39.32    2.57
   8   4   9   18.12    1.94
  10   4   9    0.22    0.64
  -9   5   9    6.09    1.24
  -7   5   9    4.53    1.10
  -5   5   9    9.26    1.58
  -3   5   9   41.16    2.94
  -1   5   9   -0.16    0.36
   1   5   9    1.12    0.61
   3   5   9    0.26    1.16
  -7  -5  10   -0.28    0.54
 -18  -4  10    1.89    0.73
 -16  -4  10   21.60    1.84
 -14  -4  10    2.81    0.69
 -12  -4  10   11.10    1.18
 -10  -4  10    0.02    0.34
  -8  -4  10   -0.23    0.29
  -6  -4  10    2.47    0.60
  -4  -4  10    6.03    1.26
  -2  -4  10    0.88    0.56
   0  -4  10    0.13    0.57
   2  -4  10   15.64    1.46
   4  -4  10    7.21    1.02
   6  -4  10    1.82    0.64
   8  -4  10   33.36    3.58
 -23  -3  10    0.59    0.87
 -21  -3  10    0.89    0.59
 -19  -3  10    6.37    1.03
 -17  -3  10    4.69    0.82
 -15  -3  10   13.27    1.30
 -13  -3  10   35.41    1.78
 -11  -3  10    4.63    0.73
  -9  -3  10   39.30    1.79
  -7  -3  10   -0.03    0.20
  -5  -3  10   24.44    1.46
  -3  -3  10    6.66    0.84
  -1  -3  10    2.03    0.53
   1  -3  10    7.26    0.88
   3  -3  10    2.25    0.54
   5  -3  10    0.38    0.32
   7  -3  10    9.53    0.95
   9  -3  10    3.15    0.63
  11  -3  10    3.03    0.64
  13  -3  10    2.69    0.82
 -24  -2  10    9.46    1.48
 -22  -2  10    1.11    0.59
 -20  -2  10    8.71    1.15
 -18  -2  10    3.48    0.72
 -16  -2  10   42.92    2.02
 -14  -2  10    5.84    0.63
 -12  -2  10   20.36    1.00
 -10  -2  10    0.14    0.18
  -8  -2  10   -0.01    0.17
  -6  -2  10    3.45    0.55
  -4  -2  10   10.19    0.91
  -2  -2  10    3.57    0.57
   0  -2  10    0.08    0.22
   2  -2  10   30.80    1.31
   4  -2  10   16.25    1.12
   6  -2  10    3.12    0.53
   8  -2  10   42.75    1.72
  10  -2  10    1.15    0.43
  12  -2  10   17.76    1.35
  14  -2  10    9.07    1.25
 -27  -1  10    5.16    2.03
 -25  -1  10    0.83    0.64
 -23  -1  10    3.70    0.88
 -21  -1  10    1.21    0.42
 -19  -1  10   11.16    0.97
 -17  -1  10    7.76    0.73
 -15  -1  10   16.17    1.03
 -13  -1  10   50.55    1.65
 -11  -1  10    6.02    0.56
  -9  -1  10   56.92    1.67
  -7  -1  10    0.44    0.23
  -5  -1  10   37.32    1.33
  -3  -1  10   10.30    0.78
  -1  -1  10    3.72    0.49
   1  -1  10   13.02    0.88
   3  -1  10    4.46    0.54
   5  -1  10    0.28    0.23
   7  -1  10   16.87    1.02
   9  -1  10    4.01    0.82
  11  -1  10    4.89    0.91
  13  -1  10    6.25    1.02
  15  -1  10    0.13    0.45
  17  -1  10   28.89    3.35
 -26   0  10    3.02    0.66
 -24   0  10    8.19    0.97
 -22   0  10    0.19    0.34
 -20   0  10   11.98    1.13
 -18   0  10    4.65    0.66
 -16   0  10   46.54    1.68
 -14   0  10    8.72    0.73
 -12   0  10   27.22    1.07
 -10   0  10    0.00    0.16
  -8   0  10    0.05    0.15
  -6   0  10    3.24    0.38
  -4   0  10   11.72    0.70
  -2   0  10    5.61    0.53
   0   0  10    0.00    0.15
   2   0  10   40.16    1.25
   4   0  10   22.13    1.28
   6   0  10    4.54    0.66
   8   0  10   49.81    2.02
  10   0  10    1.84    0.51
  12   0  10   18.78    1.46
  14   0  10    6.60    1.05
  16   0  10   14.94    1.54
  18   0  10    3.46    1.09
 -27   1  10    8.65    1.67
 -25   1  10    0.76    0.54
 -23   1  10    2.56    0.65
 -21   1  10    0.56    0.38
 -19   1  10   10.81    1.04
 -17   1  10    8.42    0.86
 -15   1  10   17.02    1.19
 -13   1  10   51.81    1.57
 -11   1  10    6.74    0.57
  -9   1  10   56.52    1.61
  -7   1  10    0.33    0.18
  -5   1  10   37.31    1.23
  -3   1  10   11.66    0.88
  -1   1  10    4.00    0.53
   1   1  10   13.07    0.98
   3   1  10    2.36    0.44
   5   1  10    0.05    0.26
   7   1  10   18.90    1.49
   9   1  10    5.28    0.76
  11   1  10    3.79    0.67
  13   1  10    4.26    0.73
  15   1  10   -0.20    0.54
 -24   2  10    6.48    1.04
 -22   2  10    0.57    0.41
 -20   2  10    9.73    1.09
 -18   2  10    3.49    0.58
 -16   2  10   40.65    1.43
 -14   2  10    6.41    0.58
 -12   2  10   20.57    0.88
 -10   2  10    0.99    0.32
  -8   2  10    0.09    0.22
  -6   2  10    2.26    0.42
  -4   2  10   11.03    0.91
  -2   2  10    4.39    0.58
   0   2  10    0.02    0.20
   2   2  10   30.53    1.39
   4   2  10   16.60    1.06
   6   2  10    3.51    0.63
   8   2  10   43.25    1.88
  10   2  10    0.46    0.59
  12   2  10   12.81    1.77
  14   2  10    5.53    1.15
 -23   3  10    2.58    0.96
 -21   3  10    0.24    0.40
 -19   3  10    7.69    0.77
 -17   3  10    5.48    0.73
 -15   3  10   13.67    1.17
 -13   3  10   35.92    1.62
 -11   3  10    3.73    0.59
  -9   3  10   38.64    1.67
  -7   3  10    0.29    0.25
  -5   3  10   24.77    1.26
  -3   3  10    7.08    0.77
  -1   3  10    2.16    0.45
   1   3  10    6.79    1.12
   3   3  10    1.72    0.61
   5   3  10   -0.38    0.40
   7   3  10    9.51    1.47
   9   3  10    2.60    0.92
  11   3  10    2.76    1.02
 -18   4  10    1.67    0.54
 -16   4  10   24.90    1.56
 -14   4  10    2.53    0.58
 -12   4  10   10.22    1.02
 -10   4  10    0.16    0.32
  -8   4  10    0.56    0.34
  -6   4  10    1.45    0.64
  -4   4  10    6.86    1.30
  -2   4  10    1.77    0.73
   0   4  10    0.02    0.41
   2   4  10   14.67    1.66
   4   4  10    6.72    1.23
   6   4  10    0.12    0.59
   8   4  10   23.52    2.50
 -16  -4  11    3.56    1.12
 -14  -4  11    0.22    0.40
 -12  -4  11   14.82    1.40
 -10  -4  11   23.06    2.47
  -8  -4  11   49.43    3.14
  -6  -4  11   -0.34    0.50
  -4  -4  11   14.68    1.93
  -2  -4  11   -0.06    0.56
   0  -4  11   52.34    3.32
   2  -4  11    0.87    0.56
   4  -4  11    7.34    1.65
 -21  -3  11    0.15    0.57
 -19  -3  11    4.22    0.85
 -17  -3  11    4.43    0.84
 -15  -3  11    1.15    0.49
 -13  -3  11   16.10    1.37
 -11  -3  11   29.86    1.62
  -9  -3  11    0.35    0.42
  -7  -3  11    4.15    0.70
  -5  -3  11    5.42    0.80
  -3  -3  11    8.35    1.00
  -1  -3  11    0.29    0.38
   1  -3  11   75.79    2.95
   3  -3  11   19.61    1.59
   5  -3  11    0.08    0.39
   7  -3  11    2.48    0.58
   9  -3  11    2.61    0.64
 -24  -2  11    5.12    1.85
 -22  -2  11   57.34    2.92
 -20  -2  11   40.12    2.19
 -18  -2  11    3.75    0.72
 -16  -2  11    5.47    0.80
 -14  -2  11    0.26    0.25
 -12  -2  11   22.45    1.05
 -10  -2  11   45.46    1.87
  -8  -2  11   76.16    2.67
  -6  -2  11    0.46    0.29
  -4  -2  11   23.39    1.28
  -2  -2  11    0.70    0.33
   0  -2  11   82.81    2.87
   2  -2  11    1.46    0.41
   4  -2  11   16.36    1.18
   6  -2  11    2.53    0.53
   8  -2  11   24.16    1.52
  10  -2  11    6.54    0.82
  12  -2  11   63.33    2.95
 -25  -1  11    6.13    1.22
 -23  -1  11   20.13    1.95
 -21  -1  11    0.24    0.33
 -19  -1  11    6.07    0.71
 -17  -1  11    6.01    0.74
 -15  -1  11    2.39    0.41
 -13  -1  11   25.93    1.11
 -11  -1  11   44.21    1.80
  -9  -1  11   -0.07    0.23
  -7  -1  11    5.12    0.63
  -5  -1  11   10.04    0.89
  -3  -1  11   14.43    0.98
  -1  -1  11    0.53    0.25
   1  -1  11  113.92    3.03
   3  -1  11   22.39    1.19
   5  -1  11    0.20    0.25
   7  -1  11    5.12    0.88
   9  -1  11    2.41    0.71
  11  -1  11    5.62    0.98
  13  -1  11   29.03    2.25
 -26   0  11    9.13    1.12
 -24   0  11    3.58    0.69
 -22   0  11   71.64    2.51
 -20   0  11   41.26    1.73
 -18   0  11    3.98    0.58
 -16   0  11    6.55    0.68
 -14   0  11    0.41    0.23
 -12   0  11   25.76    1.27
 -10   0  11   56.86    2.01
  -8   0  11   97.53    2.53
  -6   0  11    0.44    0.22
  -4   0  11   33.51    1.21
  -2   0  11    0.59    0.23
   0   0  11   98.45    3.36
   2   0  11    1.93    0.44
   4   0  11   18.29    1.35
   6   0  11    4.79    0.74
   8   0  11   25.96    1.58
  10   0  11    8.16    1.08
  12   0  11   66.45    3.05
  14   0  11    0.13    0.46
 -25   1  11    5.61    0.91
 -23   1  11   16.87    1.54
 -21   1  11    0.55    0.42
 -19   1  11    5.15    0.73
 -17   1  11    6.59    0.81
 -15   1  11    2.53    0.47
 -13   1  11   24.29    1.23
 -11   1  11   44.14    1.43
  -9   1  11    0.22    0.20
  -7   1  11    5.64    0.51
  -5   1  11    8.66    0.91
  -3   1  11   15.58    1.20
  -1   1  11    0.40    0.25
   1   1  11  115.51    3.32
   3   1  11   23.35    1.36
   5   1  11    0.32    0.34
   7   1  11    3.04    0.58
   9   1  11    3.36    0.66
  11   1  11    4.78    0.77
  13   1  11   27.96    1.87
 -24   2  11    3.15    1.16
 -22   2  11   58.50    2.58
 -20   2  11   34.53    1.82
 -18   2  11    1.39    0.44
 -16   2  11    6.27    0.64
 -14   2  11    0.69    0.26
 -12   2  11   22.07    1.42
 -10   2  11   45.25    1.85
  -8   2  11   77.10    2.61
  -6   2  11    0.27    0.27
  -4   2  11   26.25    1.35
  -2   2  11    1.04    0.34
   0   2  11   81.78    2.61
   2   2  11    2.14    0.48
   4   2  11   16.59    1.26
   6   2  11    3.23    0.60
   8   2  11   24.87    2.37
  10   2  11    6.75    1.31
  12   2  11   60.67    3.33
 -19   3  11    4.38    0.74
 -17   3  11    3.72    0.63
 -15   3  11    1.42    0.44
 -13   3  11   17.38    1.35
 -11   3  11   30.30    1.53
  -9   3  11   -0.15    0.22
  -7   3  11    3.84    0.61
  -5   3  11    7.36    0.84
  -3   3  11   10.06    0.97
  -1   3  11   -0.13    0.25
   1   3  11   76.37    3.56
   3   3  11   13.62    1.69
   5   3  11    1.05    0.56
   7   3  11    2.84    0.88
   9   3  11    1.14    0.79
 -16   4  11    2.71    0.59
 -14   4  11    0.38    0.37
 -12   4  11   13.47    1.22
 -10   4  11   27.08    1.59
  -8   4  11   43.71    3.00
  -6   4  11    0.12    0.42
  -4   4  11   13.67    1.85
  -2   4  11    0.08    0.47
   0   4  11   49.38    3.35
   2   4  11    0.85    0.62
   4   4  11    6.26    2.39
 -19  -3  12    2.48    1.09
 -17  -3  12   77.46    3.17
 -15  -3  12    5.45    1.28
 -13  -3  12   10.84    1.68
 -11  -3  12   19.17    2.16
  -9  -3  12    6.02    1.22
  -7  -3  12    8.41    1.07
  -5  -3  12   13.16    1.27
  -3  -3  12   22.57    1.71
  -1  -3  12    7.73    1.02
   1  -3  12   16.68    1.49
   3  -3  12    2.75    0.69
   5  -3  12   34.27    2.02
   7  -3  12   20.28    2.37
 -22  -2  12   26.74    3.45
 -20  -2  12   11.93    1.41
 -18  -2  12    1.52    0.56
 -16  -2  12    2.17    0.61
 -14  -2  12   18.51    1.44
 -12  -2  12    8.25    0.93
 -10  -2  12   18.78    1.43
  -8  -2  12    5.37    0.77
  -6  -2  12   79.47    2.82
  -4  -2  12    2.98    0.56
  -2  -2  12   -0.15    0.25
   0  -2  12    6.44    0.84
   2  -2  12    0.42    0.38
   4  -2  12    5.17    0.69
   6  -2  12   34.70    1.73
   8  -2  12    9.15    1.45
  10  -2  12    9.30    1.96
 -23  -1  12    1.19    0.61
 -21  -1  12    4.81    0.69
 -19  -1  12    7.20    0.80
 -17  -1  12  109.54    3.07
 -15  -1  12    8.49    0.96
 -13  -1  12   10.26    1.01
 -11  -1  12   31.09    1.54
  -9  -1  12    7.44    0.80
  -7  -1  12   11.31    1.00
  -5  -1  12   19.66    1.20
  -3  -1  12   33.75    1.55
  -1  -1  12   13.37    0.98
   1  -1  12   24.79    1.26
   3  -1  12    4.49    0.80
   5  -1  12   47.36    2.44
   7  -1  12   32.79    2.10
   9  -1  12    6.65    1.08
  11  -1  12   20.69    1.92
 -24   0  12    1.80    0.56
 -22   0  12   36.10    1.72
 -20   0  12   12.92    1.06
 -18   0  12    1.47    0.42
 -16   0  12    3.81    0.63
 -14   0  12   23.61    1.28
 -12   0  12    8.47    0.84
 -10   0  12   21.94    1.18
  -8   0  12    6.23    0.70
  -6   0  12  100.11    2.63
  -4   0  12    3.31    0.47
  -2   0  12    0.56    0.37
   0   0  12    6.37    0.92
   2   0  12    1.26    0.41
   4   0  12    4.82    0.81
   6   0  12   30.31    1.98
   8   0  12    5.89    0.95
  10   0  12    6.36    1.08
  12   0  12    2.06    0.73
 -23   1  12    0.74    0.51
 -21   1  12    4.68    0.79
 -19   1  12    8.27    0.93
 -17   1  12  108.42    3.52
 -15   1  12    7.79    0.85
 -13   1  12   11.83    0.99
 -11   1  12   34.40    1.48
  -9   1  12    7.04    0.82
  -7   1  12    9.82    0.98
  -5   1  12   21.45    1.33
  -3   1  12   36.31    1.71
  -1   1  12   11.03    1.17
   1   1  12   21.57    1.48
   3   1  12    5.07    0.73
   5   1  12   53.88    2.15
   7   1  12   30.54    1.74
   9   1  12    5.98    0.87
  11   1  12   21.78    1.64
 -22   2  12   29.58    2.43
 -20   2  12   10.09    1.10
 -18   2  12    0.77    0.42
 -16   2  12    2.76    0.81
 -14   2  12   19.78    1.43
 -12   2  12    8.07    0.91
 -10   2  12   17.85    1.21
  -8   2  12    4.77    0.66
  -6   2  12   79.41    2.83
  -4   2  12    2.01    0.47
  -2   2  12    0.01    0.26
   0   2  12    3.69    0.64
   2   2  12    1.46    0.44
   4   2  12    4.90    0.74
   6   2  12   28.74    1.69
   8   2  12    5.78    1.26
  10   2  12    4.57    1.70
 -17   3  12   75.26    2.92
 -15   3  12    6.52    0.88
 -13   3  12    7.32    0.91
 -11   3  12   23.11    1.44
  -9   3  12    5.94    0.78
  -7   3  12    7.14    0.88
  -5   3  12   13.10    1.20
  -3   3  12   24.94    1.51
  -1   3  12    7.97    0.95
   1   3  12   16.98    2.24
   3   3  12    2.76    0.98
   5   3  12   31.29    2.75
   7   3  12   24.44    4.22
 -12   4  12    3.78    0.96
 -10   4  12    8.62    1.32
  -8   4  12    3.61    1.15
  -6   4  12   45.88    3.49
 -13  -3  13    0.34    0.67
 -11  -3  13    6.57    1.37
  -9  -3  13    1.29    0.75
  -7  -3  13    9.74    1.51
  -5  -3  13   33.61    1.84
  -3  -3  13    0.25    0.40
  -1  -3  13    2.35    0.64
   1  -3  13    1.69    0.65
 -18  -2  13    0.66    0.63
 -16  -2  13    8.30    1.46
 -14  -2  13    0.49    0.40
 -12  -2  13    2.02    0.56
 -10  -2  13    8.10    1.01
  -8  -2  13    7.33    0.92
  -6  -2  13   10.33    1.07
  -4  -2  13   14.48    1.29
  -2  -2  13    2.05    0.55
   0  -2  13   13.23    1.26
   2  -2  13   -0.31    0.33
   4  -2  13   14.55    1.38
   6  -2  13    3.00    0.92
 -23  -1  13    1.39    1.11
 -21  -1  13    1.30    0.52
 -19  -1  13    7.58    0.98
 -17  -1  13    2.69    0.58
 -15  -1  13   13.42    1.22
 -13  -1  13   -0.22    0.28
 -11  -1  13    8.73    0.93
  -9  -1  13    2.19    0.49
  -7  -1  13   10.95    1.08
  -5  -1  13   46.12    1.93
  -3  -1  13   -0.16    0.25
  -1  -1  13    4.39    0.68
   1  -1  13    2.10    0.66
   3  -1  13    0.40    0.47
   5  -1  13    0.43    0.49
   7  -1  13   17.81    1.80
   9  -1  13   -0.43    0.75
 -22   0  13    5.61    0.89
 -20   0  13    5.24    0.82
 -18   0  13   -0.06    0.32
 -16   0  13    7.02    0.84
 -14   0  13    0.58    0.31
 -12   0  13    1.05    0.37
 -10   0  13   12.77    1.06
  -8   0  13   10.13    0.95
  -6   0  13   12.08    1.54
  -4   0  13   19.57    1.66
  -2   0  13    3.05    0.69
   0   0  13   10.86    1.26
   2   0  13    0.67    0.47
   4   0  13   15.55    1.58
   6   0  13    3.11    0.80
   8   0  13    0.46    0.55
 -21   1  13    2.22    0.60
 -19   1  13    6.16    0.85
 -17   1  13    3.19    0.59
 -15   1  13   12.61    1.10
 -13   1  13    0.18    0.36
 -11   1  13    8.74    1.31
  -9   1  13    2.70    0.56
  -7   1  13   11.35    1.14
  -5   1  13   45.80    2.08
  -3   1  13    0.31    0.35
  -1   1  13    4.54    0.79
   1   1  13    2.66    0.69
   3   1  13    1.28    0.48
   5   1  13    0.01    0.33
   7   1  13   17.62    1.45
   9   1  13    0.06    0.52
 -18   2  13   -0.21    0.45
 -16   2  13    5.02    1.10
 -14   2  13    0.12    0.45
 -12   2  13    0.32    0.35
 -10   2  13    9.83    1.05
  -8   2  13    9.74    1.02
  -6   2  13    9.42    1.06
  -4   2  13   15.47    1.28
  -2   2  13    1.62    0.50
   0   2  13   10.03    1.14
   2   2  13    0.08    0.38
   4   2  13   10.75    1.14
   6   2  13    5.34    1.88
 -15   3  13    8.00    1.48
 -13   3  13    0.10    0.36
 -11   3  13    6.50    0.90
  -9   3  13    1.85    0.55
  -7   3  13   11.00    1.18
  -5   3  13   36.97    1.79
  -3   3  13    0.05    0.37
  -1   3  13    2.08    0.91
 -14  -2  14   24.53    1.82
 -12  -2  14   12.48    1.28
 -10  -2  14    5.21    0.85
  -8  -2  14    4.63    0.78
  -6  -2  14    0.18    0.39
  -4  -2  14    4.31    0.72
  -2  -2  14    1.16    0.49
   0  -2  14   31.07    1.77
 -19  -1  14   38.29    2.83
 -17  -1  14   14.95    1.36
 -15  -1  14    0.19    0.37
 -13  -1  14    0.66    0.38
 -11  -1  14   83.50    3.06
  -9  -1  14    0.37    0.35
  -7  -1  14    4.94    0.72
  -5  -1  14   23.68    1.47
  -3  -1  14   29.63    2.35
  -1  -1  14    2.57    0.89
   1  -1  14   25.90    2.68
   3  -1  14   14.12    1.56
   5  -1  14    2.09    1.35
 -20   0  14    0.90    0.40
 -18   0  14    1.64    0.51
 -16   0  14   27.97    1.56
 -14   0  14   29.94    1.59
 -12   0  14   10.12    1.04
 -10   0  14    6.48    0.83
  -8   0  14    8.99    1.50
  -6   0  14    0.34    0.44
  -4   0  14    4.15    1.08
  -2   0  14    1.03    0.52
   0   0  14   40.76    2.18
   2   0  14   29.07    2.28
   4   0  14    3.11    0.81
 -19   1  14   38.95    2.63
 -17   1  14   12.00    1.68
 -15   1  14    1.11    0.64
 -13   1  14   -0.10    0.35
 -11   1  14   89.48    4.43
  -9   1  14    0.32    0.49
  -7   1  14    6.75    0.98
  -5   1  14   22.62    1.76
  -3   1  14   28.58    1.84
  -1   1  14    1.83    0.61
   1   1  14   27.04    1.82
   3   1  14   10.71    1.38
   5   1  14    1.71    0.83
 -14   2  14   27.52    2.19
 -12   2  14   13.34    1.75
 -10   2  14    6.76    0.93
  -8   2  14    5.39    0.84
  -6   2  14    0.25    0.36
  -4   2  14    3.08    0.68
  -2   2  14    0.76    0.47
   0   2  14   32.81    2.00
   2   2  14   25.70    2.12
 -15  -1  15    0.51    0.67
 -13  -1  15   -0.38    0.34
 -11  -1  15   15.73    1.40
  -9  -1  15    0.17    0.39
  -7  -1  15    0.39    0.57
  -5  -1  15   26.03    2.70
 -16   0  15   20.66    2.16
 -14   0  15   24.24    1.77
 -12   0  15    7.30    1.39
 -10   0  15    1.28    0.71
  -8   0  15    8.04    1.42
  -6   0  15   31.13    2.48
  -4   0  15    1.55    0.72
  -2   0  15    9.34    1.61
   0   0  15    7.29    1.94
 -11   1  15   15.05    1.97
  -9   1  15    1.30    0.75
  -7   1  15    0.21    0.54
  -5   1  15   27.42    2.25
  -3   1  15    3.16    0.85
  -1   1  15   16.58    2.71
   0   0   0    0.00    0.00
;
_shelx_hkl_checksum              6429
#END Tags that were not found in dictionaries
loop_
_space_group_symop_operation_xyz
'x, y, z'
'-x, y, -z'
'x+1/2, y+1/2, z'
'-x+1/2, y+1/2, -z'
'-x, -y, -z'
'x, -y, z'
'-x+1/2, -y+1/2, -z'
'x+1/2, -y+1/2, z'
loop_
_atom_site_label
_atom_site_type_symbol
_atom_site_fract_x
_atom_site_fract_y
_atom_site_fract_z
_atom_site_U_iso_or_equiv
_atom_site_adp_type
_atom_site_occupancy
_atom_site_site_symmetry_order
_atom_site_calc_flag
_atom_site_refinement_flags_posn
_atom_site_refinement_flags_adp
_atom_site_refinement_flags_occupancy
Tb1 Tb 0.27830(2) 0.0000 0.65591(4) 0.00787(9) Uani 1 2 d S T P
Tb2 Tb 0.37132(2) 0.0000 0.00695(3) 0.00703(9) Uani 1 2 d S T P
Tb3 Tb 0.37279(2) 0.0000 0.35947(4) 0.00842(9) Uani 1 2 d S T P
Tb4 Tb 0.54120(2) 0.0000 0.27206(4) 0.00884(9) Uani 1 2 d S T P
Rh Rh 0.24058(3) 0.0000 0.10680(6) 0.00787(12) Uani 1 2 d S T P
In1 In 0.0000 0.0000 0.5000 0.01127(15) Uani 1 4 d S T P
In2 In 0.0000 0.0000 0.0000 0.01258(16) Uani 1 4 d S T P
Ge1 Ge 0.06320(4) 0.0000 0.78519(9) 0.00996(16) Uani 1 2 d S T P
Ge2 Ge 0.13207(5) 0.0000 0.18953(8) 0.00944(16) Uani 1 2 d S T P
Ge3 Ge 0.14302(4) 0.0000 0.44998(8) 0.00876(16) Uani 1 2 d S T P
Ge4 Ge 0.80414(4) 0.0000 0.14907(8) 0.00778(16) Uani 1 2 d S T P
loop_
_atom_site_aniso_label
_atom_site_aniso_U_11
_atom_site_aniso_U_22
_atom_site_aniso_U_33
_atom_site_aniso_U_23
_atom_site_aniso_U_13
_atom_site_aniso_U_12
Tb1 0.00660(17) 0.00965(16) 0.00744(16) 0.000 0.00195(13) 0.000
Tb2 0.00809(17) 0.00765(16) 0.00578(15) 0.000 0.00255(12) 0.000
Tb3 0.00981(18) 0.00883(16) 0.00711(16) 0.000 0.00307(13) 0.000
Tb4 0.00623(17) 0.00927(16) 0.01102(17) 0.000 0.00224(13) 0.000
Rh 0.0069(3) 0.0087(3) 0.0082(2) 0.000 0.0024(2) 0.000
In1 0.0084(4) 0.0162(4) 0.0086(3) 0.000 0.0010(3) 0.000
In2 0.0087(4) 0.0182(4) 0.0110(3) 0.000 0.0028(3) 0.000
Ge1 0.0074(4) 0.0088(4) 0.0126(4) 0.000 0.0005(3) 0.000
Ge2 0.0136(4) 0.0078(3) 0.0086(4) 0.000 0.0057(3) 0.000
Ge3 0.0113(4) 0.0082(3) 0.0074(4) 0.000 0.0036(3) 0.000
Ge4 0.0080(4) 0.0078(3) 0.0077(3) 0.000 0.0021(3) 0.000
loop_
_atom_type_symbol
_atom_type_description
_atom_type_scat_dispersion_real
_atom_type_scat_dispersion_imag
_atom_type_scat_source
Ge Ge 0.1547 1.8001 'International Tables Vol C Tables 4.2.6.8 and 6.1.1.4'
Rh Rh -1.1178 0.9187 'International Tables Vol C Tables 4.2.6.8 and 6.1.1.4'
In In -0.7276 1.3100 'International Tables Vol C Tables 4.2.6.8 and 6.1.1.4'
Tb Tb -0.1723 4.1537 'International Tables Vol C Tables 4.2.6.8 and 6.1.1.4'
loop_
_geom_angle_atom_site_label_1
_geom_angle_atom_site_label_2
_geom_angle_atom_site_label_3
_geom_angle
_geom_angle_site_symmetry_1
_geom_angle_site_symmetry_3
Ge4 Tb1 Ge2 90.82(2) 5_656 7_556
Ge4 Tb1 Ge2 90.82(2) 5_656 7_546
Ge2 Tb1 Ge2 91.49(3) 7_556 7_546
Ge4 Tb1 Ge3 84.30(2) 5_656 .
Ge2 Tb1 Ge3 134.083(14) 7_556 .
Ge2 Tb1 Ge3 134.083(14) 7_546 .
Ge4 Tb1 Ge3 133.915(13) 5_656 7_556
Ge2 Tb1 Ge3 51.73(2) 7_556 7_556
Ge2 Tb1 Ge3 112.95(2) 7_546 7_556
Ge3 Tb1 Ge3 102.61(2) . 7_556
Ge4 Tb1 Ge3 133.915(13) 5_656 7_546
Ge2 Tb1 Ge3 112.95(2) 7_556 7_546
Ge2 Tb1 Ge3 51.73(2) 7_546 7_546
Ge3 Tb1 Ge3 102.61(2) . 7_546
Ge3 Tb1 Ge3 89.59(2) 7_556 7_546
Ge4 Tb1 Rh 46.014(12) 5_656 7_556
Ge2 Tb1 Rh 47.350(18) 7_556 7_556
Ge2 Tb1 Rh 103.883(19) 7_546 7_556
Ge3 Tb1 Rh 104.905(18) . 7_556
Ge3 Tb1 Rh 88.922(15) 7_556 7_556
Ge3 Tb1 Rh 152.09(2) 7_546 7_556
Ge4 Tb1 Rh 46.014(12) 5_656 7_546
Ge2 Tb1 Rh 103.883(19) 7_556 7_546
Ge2 Tb1 Rh 47.350(18) 7_546 7_546
Ge3 Tb1 Rh 104.905(18) . 7_546
Ge3 Tb1 Rh 152.09(2) 7_556 7_546
Ge3 Tb1 Rh 88.922(15) 7_546 7_546
Rh Tb1 Rh 79.656(15) 7_556 7_546
Ge4 Tb1 Tb4 126.96(2) 5_656 5_656
Ge2 Tb1 Tb4 55.518(16) 7_556 5_656
Ge2 Tb1 Tb4 55.518(16) 7_546 5_656
Ge3 Tb1 Tb4 148.74(2) . 5_656
Ge3 Tb1 Tb4 57.519(16) 7_556 5_656
Ge3 Tb1 Tb4 57.519(16) 7_546 5_656
Rh Tb1 Tb4 98.951(14) 7_556 5_656
Rh Tb1 Tb4 98.951(14) 7_546 5_656
Ge4 Tb1 Tb2 63.937(19) 5_656 1_556
Ge2 Tb1 Tb2 51.649(15) 7_556 1_556
Ge2 Tb1 Tb2 51.649(15) 7_546 1_556
Ge3 Tb1 Tb2 148.23(2) . 1_556
Ge3 Tb1 Tb2 99.778(18) 7_556 1_556
Ge3 Tb1 Tb2 99.778(18) 7_546 1_556
Rh Tb1 Tb2 53.157(11) 7_556 1_556
Rh Tb1 Tb2 53.157(11) 7_546 1_556
Tb4 Tb1 Tb2 63.022(10) 5_656 1_556
Ge4 Tb1 Tb3 54.206(14) 5_656 7_546
Ge2 Tb1 Tb3 145.02(2) 7_556 7_546
Ge2 Tb1 Tb3 89.654(16) 7_546 7_546
Ge3 Tb1 Tb3 51.235(13) . 7_546
Ge3 Tb1 Tb3 153.82(2) 7_556 7_546
Ge3 Tb1 Tb3 94.899(14) 7_546 7_546
Rh Tb1 Tb3 98.629(13) 7_556 7_546
Rh Tb1 Tb3 53.977(12) 7_546 7_546
Tb4 Tb1 Tb3 143.881(6) 5_656 7_546
Tb2 Tb1 Tb3 104.823(11) 1_556 7_546
Ge4 Tb1 Tb3 54.206(14) 5_656 7_556
Ge2 Tb1 Tb3 89.654(16) 7_556 7_556
Ge2 Tb1 Tb3 145.02(2) 7_546 7_556
Ge3 Tb1 Tb3 51.235(13) . 7_556
Ge3 Tb1 Tb3 94.899(14) 7_556 7_556
Ge3 Tb1 Tb3 153.82(2) 7_546 7_556
Rh Tb1 Tb3 53.977(12) 7_556 7_556
Rh Tb1 Tb3 98.629(13) 7_546 7_556
Tb4 Tb1 Tb3 143.881(6) 5_656 7_556
Tb2 Tb1 Tb3 104.823(11) 1_556 7_556
Tb3 Tb1 Tb3 70.374(11) 7_546 7_556
Ge2 Tb2 Ge2 93.78(2) 7_545 7
Ge2 Tb2 Ge1 156.37(3) 7_545 7_556
Ge2 Tb2 Ge1 84.237(19) 7 7_556
Ge2 Tb2 Ge1 84.237(19) 7_545 7_546
Ge2 Tb2 Ge1 156.37(3) 7 7_546
Ge1 Tb2 Ge1 88.25(2) 7_556 7_546
Ge2 Tb2 Rh 111.13(2) 7_545 .
Ge2 Tb2 Rh 111.13(2) 7 .
Ge1 Tb2 Rh 91.38(2) 7_556 .
Ge1 Tb2 Rh 91.38(2) 7_546 .
Ge2 Tb2 Ge4 153.38(3) 7_545 3_455
Ge2 Tb2 Ge4 83.469(17) 7 3_455
Ge1 Tb2 Ge4 49.92(2) 7_556 3_455
Ge1 Tb2 Ge4 108.49(2) 7_546 3_455
Rh Tb2 Ge4 47.242(13) . 3_455
Ge2 Tb2 Ge4 83.469(17) 7_545 3_445
Ge2 Tb2 Ge4 153.38(3) 7 3_445
Ge1 Tb2 Ge4 108.49(2) 7_556 3_445
Ge1 Tb2 Ge4 49.92(2) 7_546 3_445
Rh Tb2 Ge4 47.242(13) . 3_445
Ge4 Tb2 Ge4 87.29(2) 3_455 3_445
Ge2 Tb2 Rh 49.955(19) 7_545 7_545
Ge2 Tb2 Rh 110.94(2) 7 7_545
Ge1 Tb2 Rh 151.67(2) 7_556 7_545
Ge1 Tb2 Rh 85.744(16) 7_546 7_545
Rh Tb2 Rh 61.173(15) . 7_545
Ge4 Tb2 Rh 106.40(2) 3_455 7_545
Ge4 Tb2 Rh 48.411(18) 3_445 7_545
Ge2 Tb2 Rh 110.94(2) 7_545 7
Ge2 Tb2 Rh 49.955(19) 7 7
Ge1 Tb2 Rh 85.744(16) 7_556 7
Ge1 Tb2 Rh 151.67(2) 7_546 7
Rh Tb2 Rh 61.173(15) . 7
Ge4 Tb2 Rh 48.411(18) 3_455 7
Ge4 Tb2 Rh 106.40(2) 3_445 7
Rh Tb2 Rh 86.540(19) 7_545 7
Ge2 Tb2 In2 109.053(18) 7_545 3
Ge2 Tb2 In2 53.570(18) 7 3
Ge1 Tb2 In2 51.558(16) 7_556 3
Ge1 Tb2 In2 104.832(18) 7_546 3
Rh Tb2 In2 137.858(7) . 3
Ge4 Tb2 In2 90.616(13) 3_455 3
Ge4 Tb2 In2 151.74(2) 3_445 3
Rh Tb2 In2 156.214(16) 7_545 3
Rh Tb2 In2 92.923(10) 7 3
Ge2 Tb2 In2 53.570(18) 7_545 3_545
Ge2 Tb2 In2 109.053(18) 7 3_545
Ge1 Tb2 In2 104.832(18) 7_556 3_545
Ge1 Tb2 In2 51.559(16) 7_546 3_545
Rh Tb2 In2 137.858(7) . 3_545
Ge4 Tb2 In2 151.74(2) 3_455 3_545
Ge4 Tb2 In2 90.616(13) 3_445 3_545
Rh Tb2 In2 92.923(10) 7_545 3_545
Rh Tb2 In2 156.214(16) 7 3_545
In2 Tb2 In2 78.146(9) 3 3_545
Ge2 Tb2 Tb1 53.068(16) 7_545 1_554
Ge2 Tb2 Tb1 53.068(16) 7 1_554
Ge1 Tb2 Tb1 135.621(12) 7_556 1_554
Ge1 Tb2 Tb1 135.621(12) 7_546 1_554
Rh Tb2 Tb1 93.378(16) . 1_554
Ge4 Tb2 Tb1 106.859(18) 3_455 1_554
Ge4 Tb2 Tb1 106.859(18) 3_445 1_554
Rh Tb2 Tb1 58.919(12) 7_545 1_554
Rh Tb2 Tb1 58.919(12) 7 1_554
In2 Tb2 Tb1 100.716(9) 3 1_554
In2 Tb2 Tb1 100.716(9) 3_545 1_554
Ge3 Tb3 Ge3 92.02(2) 7_556 7_546
Ge3 Tb3 Ge1 161.64(3) 7_556 7_546
Ge3 Tb3 Ge1 87.099(16) 7_546 7_546
Ge3 Tb3 Ge1 87.099(17) 7_556 7_556
Ge3 Tb3 Ge1 161.64(3) 7_546 7_556
Ge1 Tb3 Ge1 88.02(2) 7_546 7_556
Ge3 Tb3 Ge4 148.09(3) 7_556 3_445
Ge3 Tb3 Ge4 81.797(18) 7_546 3_445
Ge1 Tb3 Ge4 49.82(2) 7_546 3_445
Ge1 Tb3 Ge4 108.20(2) 7_556 3_445
Ge3 Tb3 Ge4 81.797(18) 7_556 3_455
Ge3 Tb3 Ge4 148.09(3) 7_546 3_455
Ge1 Tb3 Ge4 108.20(2) 7_546 3_455
Ge1 Tb3 Ge4 49.82(2) 7_556 3_455
Ge4 Tb3 Ge4 87.12(2) 3_445 3_455
Ge3 Tb3 Rh 108.76(2) 7_556 .
Ge3 Tb3 Rh 108.76(2) 7_546 .
Ge1 Tb3 Rh 88.81(2) 7_546 .
Ge1 Tb3 Rh 88.81(2) 7_556 .
Ge4 Tb3 Rh 46.123(13) 3_445 .
Ge4 Tb3 Rh 46.123(13) 3_455 .
Ge3 Tb3 In1 57.594(17) 7_556 3
Ge3 Tb3 In1 112.035(19) 7_546 3
Ge1 Tb3 In1 105.909(18) 7_546 3
Ge1 Tb3 In1 52.719(16) 7_556 3
Ge4 Tb3 In1 152.921(19) 3_445 3
Ge4 Tb3 In1 91.017(13) 3_455 3
Rh Tb3 In1 137.049(7) . 3
Ge3 Tb3 In1 112.035(19) 7_556 3_545
Ge3 Tb3 In1 57.594(17) 7_546 3_545
Ge1 Tb3 In1 52.719(16) 7_546 3_545
Ge1 Tb3 In1 105.909(18) 7_556 3_545
Ge4 Tb3 In1 91.017(13) 3_445 3_545
Ge4 Tb3 In1 152.921(19) 3_455 3_545
Rh Tb3 In1 137.049(7) . 3_545
In1 Tb3 In1 78.569(10) 3 3_545
Ge3 Tb3 Tb2 133.298(13) 7_556 .
Ge3 Tb3 Tb2 133.297(13) 7_546 .
Ge1 Tb3 Tb2 53.919(15) 7_546 .
Ge1 Tb3 Tb2 53.919(15) 7_556 .
Ge4 Tb3 Tb2 54.289(14) 3_445 .
Ge4 Tb3 Tb2 54.289(14) 3_455 .
Rh Tb3 Tb2 53.319(13) . .
In1 Tb3 Tb2 103.613(9) 3 .
In1 Tb3 Tb2 103.613(9) 3_545 .
Ge3 Tb3 Tb1 102.322(18) 7_556 7_546
Ge3 Tb3 Tb1 51.991(18) 7_546 7_546
Ge1 Tb3 Tb1 91.566(15) 7_546 7_546
Ge1 Tb3 Tb1 145.90(2) 7_556 7_546
Ge4 Tb3 Tb1 49.873(16) 3_445 7_546
Ge4 Tb3 Tb1 98.609(17) 3_455 7_546
Rh Tb3 Tb1 57.093(11) . 7_546
In1 Tb3 Tb1 156.377(12) 3 7_546
In1 Tb3 Tb1 100.746(7) 3_545 7_546
Tb2 Tb3 Tb1 99.504(11) . 7_546
Ge3 Tb3 Tb1 51.991(18) 7_556 7_556
Ge3 Tb3 Tb1 102.321(19) 7_546 7_556
Ge1 Tb3 Tb1 145.90(2) 7_546 7_556
Ge1 Tb3 Tb1 91.566(15) 7_556 7_556
Ge4 Tb3 Tb1 98.609(17) 3_445 7_556
Ge4 Tb3 Tb1 49.873(16) 3_455 7_556
Rh Tb3 Tb1 57.093(11) . 7_556
In1 Tb3 Tb1 100.746(7) 3 7_556
In1 Tb3 Tb1 156.377(12) 3_545 7_556
Tb2 Tb3 Tb1 99.504(11) . 7_556
Tb1 Tb3 Tb1 70.375(11) 7_546 7_556
Ge1 Tb4 Ge1 92.44(3) 7_546 7_556
Ge1 Tb4 Ge2 153.51(3) 7_546 3
Ge1 Tb4 Ge2 83.899(19) 7_556 3
Ge1 Tb4 Ge2 83.899(19) 7_546 3_545
Ge1 Tb4 Ge2 153.51(3) 7_556 3_545
Ge2 Tb4 Ge2 87.80(2) 3 3_545
Ge1 Tb4 Ge3 156.92(2) 7_546 3
Ge1 Tb4 Ge3 87.413(18) 7_556 3
Ge2 Tb4 Ge3 49.39(2) 3 3
Ge2 Tb4 Ge3 106.02(2) 3_545 3
Ge1 Tb4 Ge3 87.413(18) 7_546 3_545
Ge1 Tb4 Ge3 156.92(2) 7_556 3_545
Ge2 Tb4 Ge3 106.02(2) 3 3_545
Ge2 Tb4 Ge3 49.39(2) 3_545 3_545
Ge3 Tb4 Ge3 83.88(2) 3 3_545
Ge1 Tb4 In1 107.265(19) 7_546 3
Ge1 Tb4 In1 52.905(17) 7_556 3
Ge2 Tb4 In1 91.413(12) 3 3
Ge2 Tb4 In1 152.75(2) 3_545 3
Ge3 Tb4 In1 55.207(15) 3 3
Ge3 Tb4 In1 105.218(16) 3_545 3
Ge1 Tb4 In1 52.905(17) 7_546 3_545
Ge1 Tb4 In1 107.265(19) 7_556 3_545
Ge2 Tb4 In1 152.75(2) 3 3_545
Ge2 Tb4 In1 91.413(12) 3_545 3_545
Ge3 Tb4 In1 105.218(16) 3 3_545
Ge3 Tb4 In1 55.207(15) 3_545 3_545
In1 Tb4 In1 77.106(9) 3 3_545
Ge1 Tb4 In2 51.666(17) 7_546 3_545
Ge1 Tb4 In2 106.009(19) 7_556 3_545
Ge2 Tb4 In2 104.142(17) 3 3_545
Ge2 Tb4 In2 51.957(17) 3_545 3_545
Ge3 Tb4 In2 149.722(18) 3 3_545
Ge3 Tb4 In2 91.954(12) 3_545 3_545
In1 Tb4 In2 152.797(12) 3 3_545
In1 Tb4 In2 96.655(6) 3_545 3_545
Ge1 Tb4 In2 106.009(19) 7_546 3
Ge1 Tb4 In2 51.666(17) 7_556 3
Ge2 Tb4 In2 51.957(17) 3 3
Ge2 Tb4 In2 104.142(17) 3_545 3
Ge3 Tb4 In2 91.954(12) 3 3
Ge3 Tb4 In2 149.722(18) 3_545 3
In1 Tb4 In2 96.655(6) 3 3
In1 Tb4 In2 152.797(12) 3_545 3
In2 Tb4 In2 76.711(9) 3_545 3
Ge1 Tb4 Tb1 133.615(14) 7_546 5_656
Ge1 Tb4 Tb1 133.615(13) 7_556 5_656
Ge2 Tb4 Tb1 52.945(16) 3 5_656
Ge2 Tb4 Tb1 52.945(16) 3_545 5_656
Ge3 Tb4 Tb1 53.154(14) 3 5_656
Ge3 Tb4 Tb1 53.154(14) 3_545 5_656
In1 Tb4 Tb1 106.213(10) 3 5_656
In1 Tb4 Tb1 106.213(10) 3_545 5_656
In2 Tb4 Tb1 100.962(9) 3_545 5_656
In2 Tb4 Tb1 100.962(9) 3 5_656
Ge1 Tb4 Tb3 108.924(18) 7_546 5_656
Ge1 Tb4 Tb3 108.924(18) 7_556 5_656
Ge2 Tb4 Tb3 97.025(19) 3 5_656
Ge2 Tb4 Tb3 97.025(19) 3_545 5_656
Ge3 Tb4 Tb3 50.017(13) 3 5_656
Ge3 Tb4 Tb3 50.017(13) 3_545 5_656
In1 Tb4 Tb3 56.028(7) 3 5_656
In1 Tb4 Tb3 56.028(7) 3_545 5_656
In2 Tb4 Tb3 140.674(5) 3_545 5_656
In2 Tb4 Tb3 140.674(5) 3 5_656
Tb1 Tb4 Tb3 66.523(11) 5_656 5_656
Ge4 Rh Ge4 119.32(4) 3_455 3_445
Ge4 Rh Ge4 102.20(2) 3_455 5_655
Ge4 Rh Ge4 102.20(2) 3_445 5_655
Ge4 Rh Ge2 113.36(2) 3_455 .
Ge4 Rh Ge2 113.36(2) 3_445 .
Ge4 Rh Ge2 103.56(3) 5_655 .
Ge4 Rh Tb2 66.65(2) 3_455 .
Ge4 Rh Tb2 66.65(2) 3_445 .
Ge4 Rh Tb2 76.41(2) 5_655 .
Ge2 Rh Tb2 179.97(3) . .
Ge4 Rh Tb2 162.46(3) 3_455 7_545
Ge4 Rh Tb2 76.724(19) 3_445 7_545
Ge4 Rh Tb2 65.355(18) 5_655 7_545
Ge2 Rh Tb2 61.154(17) . 7_545
Tb2 Rh Tb2 118.827(15) . 7_545
Ge4 Rh Tb2 76.724(19) 3_455 7
Ge4 Rh Tb2 162.46(3) 3_445 7
Ge4 Rh Tb2 65.355(18) 5_655 7
Ge2 Rh Tb2 61.154(17) . 7
Tb2 Rh Tb2 118.827(15) . 7
Tb2 Rh Tb2 86.541(19) 7_545 7
Ge4 Rh Rh 123.70(3) 3_455 7_545
Ge4 Rh Rh 52.11(2) 3_445 7_545
Ge4 Rh Rh 50.083(19) 5_655 7_545
Ge2 Rh Rh 120.03(3) . 7_545
Tb2 Rh Rh 59.952(19) . 7_545
Tb2 Rh Rh 58.875(16) 7_545 7_545
Tb2 Rh Rh 114.30(3) 7 7_545
Ge4 Rh Rh 52.11(2) 3_455 7
Ge4 Rh Rh 123.70(3) 3_445 7
Ge4 Rh Rh 50.083(19) 5_655 7
Ge2 Rh Rh 120.03(3) . 7
Tb2 Rh Rh 59.952(19) . 7
Tb2 Rh Rh 114.30(3) 7_545 7
Tb2 Rh Rh 58.875(16) 7 7
Rh Rh Rh 85.26(3) 7_545 7
Ge4 Rh Tb3 64.53(2) 3_455 .
Ge4 Rh Tb3 64.53(2) 3_445 .
Ge4 Rh Tb3 146.36(3) 5_655 .
Ge2 Rh Tb3 110.07(3) . .
Tb2 Rh Tb3 69.957(17) . .
Tb2 Rh Tb3 132.673(12) 7_545 .
Tb2 Rh Tb3 132.673(12) 7 .
Rh Rh Tb3 109.56(3) 7_545 .
Rh Rh Tb3 109.56(3) 7 .
Ge4 Rh Tb1 58.16(2) 3_455 7_556
Ge4 Rh Tb1 125.31(3) 3_445 7_556
Ge4 Rh Tb1 132.472(16) 5_655 7_556
Ge2 Rh Tb1 59.070(17) . 7_556
Tb2 Rh Tb1 120.950(16) . 7_556
Tb2 Rh Tb1 120.15(2) 7_545 7_556
Tb2 Rh Tb1 67.925(11) 7 7_556
Rh Rh Tb1 177.13(2) 7_545 7_556
Rh Rh Tb1 97.540(10) 7 7_556
Tb3 Rh Tb1 68.929(13) . 7_556
Ge4 Rh Tb1 125.31(3) 3_455 7_546
Ge4 Rh Tb1 58.16(2) 3_445 7_546
Ge4 Rh Tb1 132.472(16) 5_655 7_546
Ge2 Rh Tb1 59.070(17) . 7_546
Tb2 Rh Tb1 120.950(16) . 7_546
Tb2 Rh Tb1 67.925(11) 7_545 7_546
Tb2 Rh Tb1 120.15(2) 7 7_546
Rh Rh Tb1 97.540(10) 7_545 7_546
Rh Rh Tb1 177.13(2) 7 7_546
Tb3 Rh Tb1 68.929(13) . 7_546
Tb1 Rh Tb1 79.657(15) 7_556 7_546
Ge1 In1 Ge1 180.0 5_556 .
Ge1 In1 Ge3 88.75(2) 5_556 5_556
Ge1 In1 Ge3 91.25(2) . 5_556
Ge1 In1 Ge3 91.25(2) 5_556 .
Ge1 In1 Ge3 88.75(2) . .
Ge3 In1 Ge3 180.0 5_556 .
Ge1 In1 Tb3 58.292(13) 5_556 3_445
Ge1 In1 Tb3 121.708(13) . 3_445
Ge3 In1 Tb3 54.584(11) 5_556 3_445
Ge3 In1 Tb3 125.416(11) . 3_445
Ge1 In1 Tb3 121.708(13) 5_556 7_556
Ge1 In1 Tb3 58.292(13) . 7_556
Ge3 In1 Tb3 125.416(11) 5_556 7_556
Ge3 In1 Tb3 54.584(11) . 7_556
Tb3 In1 Tb3 180.000(18) 3_445 7_556
Ge1 In1 Tb3 121.708(13) 5_556 7_546
Ge1 In1 Tb3 58.292(13) . 7_546
Ge3 In1 Tb3 125.416(11) 5_556 7_546
Ge3 In1 Tb3 54.584(11) . 7_546
Tb3 In1 Tb3 101.430(10) 3_445 7_546
Tb3 In1 Tb3 78.570(9) 7_556 7_546
Ge1 In1 Tb3 58.292(13) 5_556 3_455
Ge1 In1 Tb3 121.708(13) . 3_455
Ge3 In1 Tb3 54.584(11) 5_556 3_455
Ge3 In1 Tb3 125.416(11) . 3_455
Tb3 In1 Tb3 78.570(9) 3_445 3_455
Tb3 In1 Tb3 101.430(9) 7_556 3_455
Tb3 In1 Tb3 180.0 7_546 3_455
Ge1 In1 Tb4 55.155(13) 5_556 3_445
Ge1 In1 Tb4 124.845(13) . 3_445
Ge3 In1 Tb4 121.425(12) 5_556 3_445
Ge3 In1 Tb4 58.575(12) . 3_445
Tb3 In1 Tb4 66.950(9) 3_445 3_445
Tb3 In1 Tb4 113.050(9) 7_556 3_445
Tb3 In1 Tb4 66.565(9) 7_546 3_445
Tb3 In1 Tb4 113.435(9) 3_455 3_445
Ge1 In1 Tb4 124.845(13) 5_556 7_556
Ge1 In1 Tb4 55.155(13) . 7_556
Ge3 In1 Tb4 58.575(12) 5_556 7_556
Ge3 In1 Tb4 121.425(12) . 7_556
Tb3 In1 Tb4 113.050(9) 3_445 7_556
Tb3 In1 Tb4 66.950(9) 7_556 7_556
Tb3 In1 Tb4 113.435(9) 7_546 7_556
Tb3 In1 Tb4 66.565(9) 3_455 7_556
Tb4 In1 Tb4 180.000(12) 3_445 7_556
Ge1 In1 Tb4 124.845(13) 5_556 7_546
Ge1 In1 Tb4 55.155(13) . 7_546
Ge3 In1 Tb4 58.575(12) 5_556 7_546
Ge3 In1 Tb4 121.425(12) . 7_546
Tb3 In1 Tb4 66.565(9) 3_445 7_546
Tb3 In1 Tb4 113.435(9) 7_556 7_546
Tb3 In1 Tb4 66.950(9) 7_546 7_546
Tb3 In1 Tb4 113.050(9) 3_455 7_546
Tb4 In1 Tb4 102.894(9) 3_445 7_546
Tb4 In1 Tb4 77.106(9) 7_556 7_546
Ge1 In1 Tb4 55.155(13) 5_556 3_455
Ge1 In1 Tb4 124.845(13) . 3_455
Ge3 In1 Tb4 121.425(12) 5_556 3_455
Ge3 In1 Tb4 58.575(12) . 3_455
Tb3 In1 Tb4 113.435(9) 3_445 3_455
Tb3 In1 Tb4 66.565(9) 7_556 3_455
Tb3 In1 Tb4 113.050(9) 7_546 3_455
Tb3 In1 Tb4 66.950(9) 3_455 3_455
Tb4 In1 Tb4 77.106(9) 3_445 3_455
Tb4 In1 Tb4 102.894(9) 7_556 3_455
Tb4 In1 Tb4 180.0 7_546 3_455
Ge1 In2 Ge1 180.00(3) 5_556 1_554
Ge1 In2 Ge2 89.76(2) 5_556 5
Ge1 In2 Ge2 90.24(2) 1_554 5
Ge1 In2 Ge2 90.24(2) 5_556 .
Ge1 In2 Ge2 89.76(2) 1_554 .
Ge2 In2 Ge2 180.0 5 .
Ge1 In2 Tb2 58.345(13) 5_556 3_445
Ge1 In2 Tb2 121.655(13) 1_554 3_445
Ge2 In2 Tb2 54.952(12) 5 3_445
Ge2 In2 Tb2 125.048(12) . 3_445
Ge1 In2 Tb2 121.655(13) 5_556 7
Ge1 In2 Tb2 58.345(13) 1_554 7
Ge2 In2 Tb2 125.048(12) 5 7
Ge2 In2 Tb2 54.952(12) . 7
Tb2 In2 Tb2 180.0 3_445 7
Ge1 In2 Tb2 58.345(13) 5_556 3_455
Ge1 In2 Tb2 121.655(13) 1_554 3_455
Ge2 In2 Tb2 54.953(12) 5 3_455
Ge2 In2 Tb2 125.048(12) . 3_455
Tb2 In2 Tb2 78.147(9) 3_445 3_455
Tb2 In2 Tb2 101.853(9) 7 3_455
Ge1 In2 Tb2 121.655(13) 5_556 7_545
Ge1 In2 Tb2 58.345(13) 1_554 7_545
Ge2 In2 Tb2 125.047(12) 5 7_545
Ge2 In2 Tb2 54.952(12) . 7_545
Tb2 In2 Tb2 101.853(9) 3_445 7_545
Tb2 In2 Tb2 78.147(9) 7 7_545
Tb2 In2 Tb2 180.000(12) 3_455 7_545
Ge1 In2 Tb4 55.296(13) 5_556 3_455
Ge1 In2 Tb4 124.704(13) 1_554 3_455
Ge2 In2 Tb4 122.471(12) 5 3_455
Ge2 In2 Tb4 57.529(12) . 3_455
Tb2 In2 Tb4 113.631(8) 3_445 3_455
Tb2 In2 Tb4 66.369(8) 7 3_455
Tb2 In2 Tb4 67.577(8) 3_455 3_455
Tb2 In2 Tb4 112.423(9) 7_545 3_455
Ge1 In2 Tb4 124.704(13) 5_556 7_545
Ge1 In2 Tb4 55.296(13) 1_554 7_545
Ge2 In2 Tb4 57.529(12) 5 7_545
Ge2 In2 Tb4 122.471(12) . 7_545
Tb2 In2 Tb4 66.369(8) 3_445 7_545
Tb2 In2 Tb4 113.631(8) 7 7_545
Tb2 In2 Tb4 112.423(9) 3_455 7_545
Tb2 In2 Tb4 67.577(8) 7_545 7_545
Tb4 In2 Tb4 180.0 3_455 7_545
Ge1 In2 Tb4 124.704(13) 5_556 7
Ge1 In2 Tb4 55.296(13) 1_554 7
Ge2 In2 Tb4 57.529(12) 5 7
Ge2 In2 Tb4 122.471(12) . 7
Tb2 In2 Tb4 112.423(9) 3_445 7
Tb2 In2 Tb4 67.577(8) 7 7
Tb2 In2 Tb4 66.369(8) 3_455 7
Tb2 In2 Tb4 113.631(8) 7_545 7
Tb4 In2 Tb4 103.288(9) 3_455 7
Tb4 In2 Tb4 76.712(9) 7_545 7
Ge1 In2 Tb4 55.296(13) 5_556 3_445
Ge1 In2 Tb4 124.704(13) 1_554 3_445
Ge2 In2 Tb4 122.471(12) 5 3_445
Ge2 In2 Tb4 57.529(12) . 3_445
Tb2 In2 Tb4 67.577(8) 3_445 3_445
Tb2 In2 Tb4 112.423(9) 7 3_445
Tb2 In2 Tb4 113.631(8) 3_455 3_445
Tb2 In2 Tb4 66.369(8) 7_545 3_445
Tb4 In2 Tb4 76.712(9) 3_455 3_445
Tb4 In2 Tb4 103.288(9) 7_545 3_445
Tb4 In2 Tb4 180.0 7 3_445
Ge4 Ge1 In2 116.52(4) 5_656 1_556
Ge4 Ge1 In1 115.04(4) 5_656 .
In2 Ge1 In1 128.44(3) 1_556 .
Ge4 Ge1 Tb4 133.760(13) 5_656 7_546
In2 Ge1 Tb4 73.038(19) 1_556 7_546
In1 Ge1 Tb4 71.939(19) . 7_546
Ge4 Ge1 Tb4 133.760(14) 5_656 7_556
In2 Ge1 Tb4 73.038(19) 1_556 7_556
In1 Ge1 Tb4 71.939(19) . 7_556
Tb4 Ge1 Tb4 92.44(3) 7_546 7_556
Ge4 Ge1 Tb2 65.58(2) 5_656 7_556
In2 Ge1 Tb2 70.097(18) 1_556 7_556
In1 Ge1 Tb2 134.960(13) . 7_556
Tb4 Ge1 Tb2 143.11(3) 7_546 7_556
Tb4 Ge1 Tb2 78.139(13) 7_556 7_556
Ge4 Ge1 Tb2 65.58(2) 5_656 7_546
In2 Ge1 Tb2 70.097(18) 1_556 7_546
In1 Ge1 Tb2 134.960(13) . 7_546
Tb4 Ge1 Tb2 78.139(13) 7_546 7_546
Tb4 Ge1 Tb2 143.11(3) 7_556 7_546
Tb2 Ge1 Tb2 88.25(2) 7_556 7_546
Ge4 Ge1 Tb3 65.60(2) 5_656 7_546
In2 Ge1 Tb3 135.337(13) 1_556 7_546
In1 Ge1 Tb3 68.988(18) . 7_546
Tb4 Ge1 Tb3 76.872(13) 7_546 7_546
Tb4 Ge1 Tb3 140.91(3) 7_556 7_546
Tb2 Ge1 Tb3 131.18(3) 7_556 7_546
Tb2 Ge1 Tb3 71.996(13) 7_546 7_546
Ge4 Ge1 Tb3 65.60(2) 5_656 7_556
In2 Ge1 Tb3 135.337(13) 1_556 7_556
In1 Ge1 Tb3 68.988(18) . 7_556
Tb4 Ge1 Tb3 140.91(3) 7_546 7_556
Tb4 Ge1 Tb3 76.872(13) 7_556 7_556
Tb2 Ge1 Tb3 71.996(13) 7_556 7_556
Tb2 Ge1 Tb3 131.18(3) 7_546 7_556
Tb3 Ge1 Tb3 88.02(2) 7_546 7_556
Rh Ge2 Ge3 119.01(4) . .
Rh Ge2 In2 120.50(3) . .
Ge3 Ge2 In2 120.49(4) . .
Rh Ge2 Tb2 68.893(19) . 7_545
Ge3 Ge2 Tb2 133.047(13) . 7_545
In2 Ge2 Tb2 71.477(19) . 7_545
Rh Ge2 Tb2 68.893(19) . 7
Ge3 Ge2 Tb2 133.047(13) . 7
In2 Ge2 Tb2 71.477(19) . 7
Tb2 Ge2 Tb2 93.78(2) 7_545 7
Rh Ge2 Tb1 73.58(2) . 7_556
Ge3 Ge2 Tb1 65.10(2) . 7_556
In2 Ge2 Tb1 133.887(15) . 7_556
Tb2 Ge2 Tb1 142.34(3) 7_545 7_556
Tb2 Ge2 Tb1 75.283(12) 7 7_556
Rh Ge2 Tb1 73.58(2) . 7_546
Ge3 Ge2 Tb1 65.10(2) . 7_546
In2 Ge2 Tb1 133.887(14) . 7_546
Tb2 Ge2 Tb1 75.283(12) 7_545 7_546
Tb2 Ge2 Tb1 142.34(3) 7 7_546
Tb1 Ge2 Tb1 91.49(3) 7_556 7_546
Rh Ge2 Tb4 136.023(12) . 3_445
Ge3 Ge2 Tb4 67.60(2) . 3_445
In2 Ge2 Tb4 70.51(2) . 3_445
Tb2 Ge2 Tb4 76.954(13) 7_545 3_445
Tb2 Ge2 Tb4 141.88(3) 7 3_445
Tb1 Ge2 Tb4 132.58(3) 7_556 3_445
Tb1 Ge2 Tb4 71.538(13) 7_546 3_445
Rh Ge2 Tb4 136.023(12) . 3_455
Ge3 Ge2 Tb4 67.60(2) . 3_455
In2 Ge2 Tb4 70.51(2) . 3_455
Tb2 Ge2 Tb4 141.88(3) 7_545 3_455
Tb2 Ge2 Tb4 76.954(13) 7 3_455
Tb1 Ge2 Tb4 71.538(13) 7_556 3_455
Tb1 Ge2 Tb4 132.58(3) 7_546 3_455
Tb4 Ge2 Tb4 87.80(2) 3_445 3_455
Ge2 Ge3 Tb3 132.516(15) . 7_556
Ge2 Ge3 Tb3 132.516(15) . 7_546
Tb3 Ge3 Tb3 92.02(2) 7_556 7_546
Ge2 Ge3 Tb1 122.57(4) . .
Tb3 Ge3 Tb1 76.78(2) 7_556 .
Tb3 Ge3 Tb1 76.78(2) 7_546 .
Ge2 Ge3 Tb1 63.16(2) . 7_556
Tb3 Ge3 Tb1 83.453(11) 7_556 7_556
Tb3 Ge3 Tb1 154.12(3) 7_546 7_556
Tb1 Ge3 Tb1 77.39(2) . 7_556
Ge2 Ge3 Tb1 63.16(2) . 7_546
Tb3 Ge3 Tb1 154.12(3) 7_556 7_546
Tb3 Ge3 Tb1 83.453(11) 7_546 7_546
Tb1 Ge3 Tb1 77.39(2) . 7_546
Tb1 Ge3 Tb1 89.59(2) 7_556 7_546
Ge2 Ge3 In1 109.58(4) . .
Tb3 Ge3 In1 67.820(17) 7_556 .
Tb3 Ge3 In1 67.820(17) 7_546 .
Tb1 Ge3 In1 127.84(3) . .
Tb1 Ge3 In1 131.849(16) 7_556 .
Tb1 Ge3 In1 131.849(16) 7_546 .
Ge2 Ge3 Tb4 63.02(2) . 3_445
Tb3 Ge3 Tb4 133.87(3) 7_556 3_445
Tb3 Ge3 Tb4 74.414(13) 7_546 3_445
Tb1 Ge3 Tb4 137.817(12) . 3_445
Tb1 Ge3 Tb4 126.07(3) 7_556 3_445
Tb1 Ge3 Tb4 69.329(13) 7_546 3_445
In1 Ge3 Tb4 66.217(17) . 3_445
Ge2 Ge3 Tb4 63.02(2) . 3_455
Tb3 Ge3 Tb4 74.414(13) 7_556 3_455
Tb3 Ge3 Tb4 133.87(3) 7_546 3_455
Tb1 Ge3 Tb4 137.817(12) . 3_455
Tb1 Ge3 Tb4 69.329(13) 7_556 3_455
Tb1 Ge3 Tb4 126.07(3) 7_546 3_455
In1 Ge3 Tb4 66.217(17) . 3_455
Tb4 Ge3 Tb4 83.88(2) 3_445 3_455
Rh Ge4 Rh 119.33(4) 3_545 3
Rh Ge4 Rh 77.80(2) 3_545 5_655
Rh Ge4 Rh 77.80(2) 3 5_655
Rh Ge4 Ge1 120.20(2) 3_545 5_656
Rh Ge4 Ge1 120.20(2) 3 5_656
Rh Ge4 Ge1 109.65(4) 5_655 5_656
Rh Ge4 Tb1 75.83(2) 3_545 5_656
Rh Ge4 Tb1 75.83(2) 3 5_656
Rh Ge4 Tb1 126.28(3) 5_655 5_656
Ge1 Ge4 Tb1 124.07(4) 5_656 5_656
Rh Ge4 Tb2 66.104(16) 3_545 3_545
Rh Ge4 Tb2 141.84(3) 3 3_545
Rh Ge4 Tb2 66.235(18) 5_655 3_545
Ge1 Ge4 Tb2 64.50(2) 5_656 3_545
Tb1 Ge4 Tb2 136.301(11) 5_656 3_545
Rh Ge4 Tb2 141.84(3) 3_545 3
Rh Ge4 Tb2 66.104(16) 3 3
Rh Ge4 Tb2 66.235(18) 5_655 3
Ge1 Ge4 Tb2 64.50(2) 5_656 3
Tb1 Ge4 Tb2 136.301(11) 5_656 3
Tb2 Ge4 Tb2 87.29(2) 3_545 3
Rh Ge4 Tb3 146.80(3) 3_545 3
Rh Ge4 Tb3 69.346(17) 3 3
Rh Ge4 Tb3 133.967(14) 5_655 3
Ge1 Ge4 Tb3 64.58(2) 5_656 3
Tb1 Ge4 Tb3 75.921(18) 5_656 3
Tb2 Ge4 Tb3 129.08(3) 3_545 3
Tb2 Ge4 Tb3 71.293(13) 3 3
Rh Ge4 Tb3 69.346(17) 3_545 3_545
Rh Ge4 Tb3 146.80(3) 3 3_545
Rh Ge4 Tb3 133.967(14) 5_655 3_545
Ge1 Ge4 Tb3 64.58(2) 5_656 3_545
Tb1 Ge4 Tb3 75.921(18) 5_656 3_545
Tb2 Ge4 Tb3 71.293(13) 3_545 3_545
Tb2 Ge4 Tb3 129.08(3) 3 3_545
Tb3 Ge4 Tb3 87.11(2) 3 3_545
loop_
_geom_bond_atom_site_label_1
_geom_bond_atom_site_label_2
_geom_bond_distance
_geom_bond_site_symmetry_2
Tb1 Ge4 2.9166(9) 5_656
Tb1 Ge2 2.9768(7) 7_556
Tb1 Ge2 2.9768(7) 7_546
Tb1 Ge3 2.9946(10) .
Tb1 Ge3 3.0261(6) 7_556
Tb1 Ge3 3.0261(6) 7_546
Tb1 Rh 3.3288(5) 7_556
Tb1 Rh 3.3288(5) 7_546
Tb1 Tb4 3.5381(6) 5_656
Tb1 Tb2 3.6018(5) 1_556
Tb1 Tb3 3.6999(5) 7_546
Tb1 Tb3 3.6999(5) 7_556
Tb2 Ge2 2.9205(6) 7_545
Tb2 Ge2 2.9205(6) 7
Tb2 Ge1 3.0622(7) 7_556
Tb2 Ge1 3.0622(7) 7_546
Tb2 Rh 3.0761(7) .
Tb2 Ge4 3.0891(6) 3_455
Tb2 Ge4 3.0891(6) 3_445
Tb2 Rh 3.1105(5) 7_545
Tb2 Rh 3.1105(5) 7
Tb2 In2 3.3826(3) 3
Tb2 In2 3.3826(3) 3_545
Tb2 Tb1 3.6019(5) 1_554
Tb3 Ge3 2.9634(6) 7_556
Tb3 Ge3 2.9634(6) 7_546
Tb3 Ge1 3.0687(7) 7_546
Tb3 Ge1 3.0687(7) 7_556
Tb3 Ge4 3.0940(6) 3_445
Tb3 Ge4 3.0940(6) 3_455
Tb3 Rh 3.2068(7) .
Tb3 In1 3.3673(3) 3
Tb3 In1 3.3673(3) 3_545
Tb3 Tb1 3.6998(5) 7_546
Tb3 Tb1 3.6998(5) 7_556
Tb4 Ge1 2.9531(7) 7_546
Tb4 Ge1 2.9531(7) 7_556
Tb4 Ge2 3.0747(7) 3
Tb4 Ge2 3.0747(7) 3_545
Tb4 Ge3 3.1900(7) 3
Tb4 Ge3 3.1900(7) 3_545
Tb4 In1 3.4209(3) 3
Tb4 In1 3.4209(3) 3_545
Tb4 In2 3.4358(3) 3_545
Tb4 In2 3.4358(3) 3
Tb4 Tb1 3.5381(6) 5_656
Tb4 Tb3 3.7253(5) 5_656
Rh Ge4 2.4703(5) 3_455
Rh Ge4 2.4703(5) 3_445
Rh Ge4 2.5419(10) 5_655
Rh Ge2 2.5524(10) .
Rh Tb2 3.1105(5) 7_545
Rh Tb2 3.1105(5) 7
Rh Rh 3.1481(8) 7_545
Rh Rh 3.1481(8) 7
Rh Tb1 3.3288(5) 7_556
Rh Tb1 3.3288(5) 7_546
In1 Ge1 2.8701(9) 5_556
In1 Ge1 2.8701(9) .
In1 Ge3 3.0700(9) 5_556
In1 Ge3 3.0701(9) .
In1 Tb3 3.3672(3) 3_445
In1 Tb3 3.3672(3) 7_556
In1 Tb3 3.3672(3) 7_546
In1 Tb3 3.3672(3) 3_455
In1 Tb4 3.4209(3) 3_445
In1 Tb4 3.4209(3) 7_556
In1 Tb4 3.4209(3) 7_546
In1 Tb4 3.4209(3) 3_455
In2 Ge1 2.8177(9) 5_556
In2 Ge1 2.8177(9) 1_554
In2 Ge2 2.8702(9) 5
In2 Ge2 2.8703(9) .
In2 Tb2 3.3825(3) 3_445
In2 Tb2 3.3825(3) 7
In2 Tb2 3.3825(3) 3_455
In2 Tb2 3.3825(3) 7_545
In2 Tb4 3.4358(3) 3_455
In2 Tb4 3.4358(3) 7_545
In2 Tb4 3.4358(3) 7
In2 Tb4 3.4358(3) 3_445
Ge1 Ge4 2.5958(12) 5_656
Ge1 In2 2.8176(9) 1_556
Ge1 Tb4 2.9530(7) 7_546
Ge1 Tb4 2.9530(7) 7_556
Ge1 Tb2 3.0622(7) 7_556
Ge1 Tb2 3.0622(7) 7_546
Ge1 Tb3 3.0687(7) 7_546
Ge1 Tb3 3.0687(7) 7_556
Ge2 Ge3 2.6192(12) .
Ge2 Tb2 2.9205(6) 7_545
Ge2 Tb2 2.9205(6) 7
Ge2 Tb1 2.9768(7) 7_556
Ge2 Tb1 2.9768(7) 7_546
Ge2 Tb4 3.0748(7) 3_445
Ge2 Tb4 3.0748(7) 3_455
Ge3 Tb3 2.9635(6) 7_556
Ge3 Tb3 2.9635(6) 7_546
Ge3 Tb1 3.0261(6) 7_556
Ge3 Tb1 3.0261(6) 7_546
Ge3 Tb4 3.1900(7) 3_445
Ge3 Tb4 3.1900(7) 3_455
Ge4 Rh 2.4703(5) 3_545
Ge4 Rh 2.4703(5) 3
Ge4 Rh 2.5420(10) 5_655
Ge4 Ge1 2.5958(12) 5_656
Ge4 Tb1 2.9166(9) 5_656
Ge4 Tb2 3.0891(6) 3_545
Ge4 Tb2 3.0891(6) 3
Ge4 Tb3 3.0941(6) 3
Ge4 Tb3 3.0941(6) 3_545
