#------------------------------------------------------------------------------
#$Date: 2016-03-24 00:12:42 +0200 (Thu, 24 Mar 2016) $
#$Revision: 179527 $
#$URL: svn://www.crystallography.net/cod/cif/4/34/24/4342464.cif $
#------------------------------------------------------------------------------
#
# This file is available in the Crystallography Open Database (COD),
# http://www.crystallography.net/
#
# All data on this site have been placed in the public domain by the
# contributors.
#
data_4342464
loop_
_publ_author_name
'Mesbah, Adel'
'Prakash, Jai'
'Beard, Jessica C.'
'Pozzi, Eric A.'
'Tarasenko, Mariya S.'
'Leb\`egue, S\'ebastien'
'Malliakas, Christos D.'
'Van Duyne, Richard P.'
'Ibers, James A.'
_publ_section_title
;
 Positional Flexibility: Syntheses and Characterization of Six Uranium
 Chalcogenides Related to the 2H Hexagonal Perovskite Family.
;
_journal_issue                   6
_journal_name_full               'Inorganic chemistry'
_journal_page_first              2851
_journal_page_last               2857
_journal_paper_doi               10.1021/ic5029806
_journal_volume                  54
_journal_year                    2015
_chemical_formula_sum            'Ba4 Se6 U'
_chemical_formula_weight         1261.15
_space_group_crystal_system      trigonal
_space_group_IT_number           167
_space_group_name_Hall           '-R 3 2"c'
_space_group_name_H-M_alt        'R -3 c :H'
_symmetry_space_group_name_Hall  '-R 3 2"c'
_symmetry_space_group_name_H-M   'R -3 c :H'
_audit_creation_method           SHELXL-2014/6
_cell_angle_alpha                90
_cell_angle_beta                 90
_cell_angle_gamma                120
_cell_formula_units_Z            6
_cell_length_a                   12.5997(2)
_cell_length_b                   12.5997(2)
_cell_length_c                   15.6063(2)
_cell_measurement_reflns_used    3423
_cell_measurement_temperature    100(2)
_cell_measurement_theta_max      59.509
_cell_measurement_theta_min      10.165
_cell_volume                     2145.61(6)
_computing_structure_refinement  'SHELXL-2014/6 (Sheldrick, 2014)'
_diffrn_ambient_temperature      100(2)
_diffrn_measured_fraction_theta_full 0.995
_diffrn_measured_fraction_theta_max 0.996
_diffrn_radiation_type           MoK\a
_diffrn_radiation_wavelength     0.71073
_diffrn_reflns_av_R_equivalents  0.0332
_diffrn_reflns_av_unetI/netI     0.0136
_diffrn_reflns_Laue_measured_fraction_full 0.995
_diffrn_reflns_Laue_measured_fraction_max 0.996
_diffrn_reflns_limit_h_max       17
_diffrn_reflns_limit_h_min       -17
_diffrn_reflns_limit_k_max       17
_diffrn_reflns_limit_k_min       -17
_diffrn_reflns_limit_l_max       21
_diffrn_reflns_limit_l_min       -21
_diffrn_reflns_number            8459
_diffrn_reflns_point_group_measured_fraction_full 0.995
_diffrn_reflns_point_group_measured_fraction_max 0.996
_diffrn_reflns_theta_full        25.242
_diffrn_reflns_theta_max         30.062
_diffrn_reflns_theta_min         4.558
_exptl_absorpt_coefficient_mu    37.349
_exptl_absorpt_correction_T_max  0.54141
_exptl_absorpt_correction_T_min  0.26346
_exptl_absorpt_correction_type   numerical
_exptl_absorpt_process_details   'face indexed (SADABS; Sheldrick, 2008)'
_exptl_crystal_colour            red-blackish
_exptl_crystal_density_diffrn    5.856
_exptl_crystal_description       plate
_exptl_crystal_F_000             3120
_exptl_crystal_size_max          0.054
_exptl_crystal_size_mid          0.034
_exptl_crystal_size_min          0.029
_refine_diff_density_max         0.980
_refine_diff_density_min         -1.184
_refine_diff_density_rms         0.189
_refine_ls_extinction_coef       0.000073(9)
_refine_ls_extinction_expression Fc^*^=kFc[1+0.001xFc^2^\l^3^/sin(2\q)]^-1/4^
_refine_ls_extinction_method     SHELXL
_refine_ls_goodness_of_fit_ref   1.245
_refine_ls_hydrogen_treatment    undef
_refine_ls_matrix_type           full
_refine_ls_number_parameters     20
_refine_ls_number_reflns         699
_refine_ls_number_restraints     0
_refine_ls_restrained_S_all      1.245
_refine_ls_R_factor_all          0.0168
_refine_ls_R_factor_gt           0.0143
_refine_ls_shift/su_max          0.001
_refine_ls_shift/su_mean         0.000
_refine_ls_structure_factor_coef Fsqd
_refine_ls_weighting_details
'w=1/[\s^2^(Fo^2^)+(0.0132P)^2^] where P=(1.0000Fo^2^+0.0000Fc^2^)'
_refine_ls_weighting_scheme      calc
_refine_ls_wR_factor_gt          0.0301
_refine_ls_wR_factor_ref         0.0306
_reflns_Friedel_coverage         0.000
_reflns_number_gt                654
_reflns_number_total             699
_reflns_threshold_expression     'I > 2\s(I)'
_cod_data_source_file            ic5029806_si_001.cif
_cod_data_source_block           Ba4USe6
_cod_depositor_comments
'Adding full bibliography for 4342464--4342469.cif.'
_cod_original_cell_volume        2145.61(7)
_cod_database_code               4342464
#BEGIN Tags that were not found in dictionaries:
_shelx_space_group_comment
;
The symmetry employed for this shelxl refinement is uniquely defined
by the following loop, which should always be used as a source of
symmetry information in preference to the above space-group names.
They are only intended as comments.
;
_shelxl_version_number           2014/6
_shelx_res_file
;
TITL Ba4USe6 in R-3c #167 after absorption correction and tidy
CELL 0.71073 12.5997 12.5997 15.6063 90 90 120
ZERR 6 0.0002 0.0002 0.0002 0 0 0
LATT 3
SYMM -Y,+X-Y,+Z
SYMM +Y-X,-X,+Z
SYMM -Y+X,-Y,0.5-Z
SYMM -X,-X+Y,0.5-Z
SYMM +Y,+X,0.5-Z

SFAC Se Ba U
UNIT 36 24 6

L.S. 4
PLAN  20
TEMP -173.06
ACTA
BOND
fmap 2

WGHT    0.013200    0.000000    0.000000    0.000000    0.000000    1.000000
EXTI    0.000073
FVAR       0.07396
U1    3    0.000000    0.000000    0.000000    10.16667    0.00432    0.00432 =
         0.00564    0.00000    0.00000    0.00216
BA1   2    0.375236    0.000000    0.250000    10.50000    0.00567    0.00541 =
         0.00687   -0.00063   -0.00031    0.00270
BA2   2    0.000000    0.000000    0.250000    10.16667    0.00937    0.00937 =
         0.00673    0.00000    0.00000    0.00468
SE1   1    0.195031    0.028870    0.105343    11.00000    0.00582    0.00748 =
         0.00771   -0.00025   -0.00099    0.00363
HKLF 4

REM  Ba4USe6 in R-3c #167 after absorption correction and tidy
REM R1 =  0.0143 for     654 Fo > 4sig(Fo)  and  0.0168 for all     699 data
REM     20 parameters refined using      0 restraints

END

WGHT      0.0138     16.3462

REM Highest difference peak  0.980,  deepest hole -1.184,  1-sigma level  0.189
Q1    1  -0.0807  0.0000  0.2500  10.50000  0.05    0.98
Q2    1  -0.0223 -0.0428  0.0459  11.00000  0.05    0.68
Q3    1   0.3715 -0.0116  0.2962  11.00000  0.05    0.65
Q4    1   0.1290  0.2286  0.2446  11.00000  0.05    0.64
Q5    1   0.1054  0.0403  0.1754  11.00000  0.05    0.62
Q6    1   0.1711  0.0352  0.1376  11.00000  0.05    0.61
Q7    1   0.0402  0.0444  0.1973  11.00000  0.05    0.60
Q8    1   0.3453 -0.0958  0.3038  11.00000  0.05    0.59
Q9    1   0.3886  0.0387  0.2440  11.00000  0.05    0.56
Q10   1   0.0467  0.1506  0.2244  11.00000  0.05    0.53
Q11   1   0.2034  0.0597  0.0704  11.00000  0.05    0.53
Q12   1   0.1653 -0.0141  0.1738  11.00000  0.05    0.52
Q13   1   0.2986  0.1116  0.1064  11.00000  0.05    0.52
Q14   1   0.2096 -0.0101  0.0950  11.00000  0.05    0.50
Q15   1   0.4355  0.0269  0.2758  11.00000  0.05    0.50
Q16   1   0.0000  0.0725  0.2500  10.50000  0.05    0.49
Q17   1   0.2741  0.0840  0.0521  11.00000  0.05    0.49
Q18   1   0.3009  0.0482  0.3153  11.00000  0.05    0.49
Q19   1   0.2918  0.0901  0.1705  11.00000  0.05    0.48
Q20   1   0.1398  0.0407  0.0615  11.00000  0.05    0.47
;
_shelx_res_checksum              23499
_shelx_hkl_file
;
   3   0   0 5702.63 108.408   7
  -3   3   0 6000.46 100.547   2
   0  -3   0 5859.15 97.8390   6
   3   0   0 5826.95 103.726   2
   0   3   0 5825.77 93.6264   5
   0   3   0 6025.85 97.1571   2
   2   2   0 10.2877 5.15039   6
   2   2   0 15.6054 4.59157   2
   4  -2   0 4.01397 5.71060   2
  -2   4   0 9.98027 5.16663   2
   4  -2   0 -8.6779 5.23815   2
   1   4   0 2440.65 49.5816   5
   1   4   0 2474.55 48.6242   6
   1   4   0 2562.06 45.9235   2
   4  -5   0 2447.17 50.6558   2
   5  -1   0 2466.38 53.9743   2
  -4   5   0 2479.93 50.9384   2
  -1  -4   0 2494.81 48.9257   6
   5  -1   0 2441.21 56.5142   7
  -5   4   0 2336.81 50.6271   2
   1  -5   0 2478.46 49.4601   6
   1  -5   0 2382.33 47.1455   3
   4   1   0 2456.55 50.9351   2
  -1   5   0 2498.02 46.9939   2
   5  -4   0 2456.89 50.8785   2
   3   3   0 3617.20 67.0230   6
   3  -6   0 3549.84 67.6132   1
   3  -6   0 3671.20 68.5401   3
   3   3   0 3702.21 64.7929   2
   6  -3   0 3674.25 71.9370   2
  -3  -3   0 3466.66 66.4549   1
  -3   6   0 3647.08 68.8093   2
   6  -3   0 3645.40 71.9764   2
  -6   6   0 9581.89 165.022   2
   0  -6   0 9558.04 161.891   6
   6   0   0 9396.44 168.296   2
   0  -6   0 9438.32 157.073   1
   6   0   0 9609.44 176.879   7
   6  -6   0 9386.87 161.931   1
   6  -6   0 9687.54 165.114   2
   0   6   0 9444.58 154.165   5
  -6   0   0 9117.09 166.476   1
   0   6   0 9497.89 157.191   2
  -7   2   0 2072.62 50.1917   1
   2   5   0 2003.36 48.9358   5
   5  -7   0 2126.93 47.7342   3
   5  -7   0 2111.44 47.2685   1
   5  -7   0 2031.36 47.6890   2
   2   5   0 2046.51 44.9154   6
  -7   2   0 2121.62 49.1429   2
   2   5   0 2079.68 40.5408   2
  -2  -5   0 2026.18 43.7324   1
  -5   7   0 2060.44 47.9221   2
   7  -2   0 1991.93 51.0111   2
   7  -2   0 2063.41 53.5028   7
  -7   5   0 2161.37 48.8912   1
   5   2   0 2105.60 45.3805   2
   2  -7   0 2120.91 46.0391   3
  -7   5   0 2082.43 49.6304   2
   2  -7   0 2104.31 45.2715   1
  -2   7   0 2082.68 44.6028   2
  -5  -2   0 2003.12 51.1907   1
   7  -5   0 2039.06 49.2259   2
  -8   1   0 284.743 21.4737   1
   1   7   0 277.079 19.6503   5
   1   7   0 321.375 13.1646   2
   7  -8   0 316.969 19.0733   2
  -8   1   0 289.409 22.7814   1
   7  -8   0 305.365 19.1291   1
  -7   8   0 292.405 18.5961   2
   8  -1   0 316.026 24.7859   7
   8  -1   0 306.439 22.5123   2
  -1  -7   0 295.648 15.8871   1
  -8   4   0 4.88950 8.00227   1
   4  -8   0 4.97271 6.51303   1
   4   4   0 10.8452 5.47158   2
   4  -8   0 8.41413 7.35013   3
   4  -8   0 6.05462 7.08693   2
  -8   4   0 20.8235 8.64214   2
   4   4   0 -5.1667 5.66819   6
  -4   8   0 8.40518 6.95977   2
  -4  -4   0 1.38239 7.42782   1
  -4  -4   0 -11.531 8.34441   3
   8  -4   0 9.27375 8.61941   2
   7   1   0 301.208 19.6435   2
   1  -8   0 291.688 16.3930   3
   1  -8   0 307.358 16.5680   1
  -8   7   0 328.630 19.9850   2
  -8   7   0 349.915 20.5093   1
   8  -7   0 330.348 19.6506   1
   8  -7   0 332.230 20.2448   2
  -1   8   0 345.949 19.0753   5
  -1   8   0 346.082 15.3920   2
  -7  -1   0 318.994 23.3292   1
   6  -9   0 787.700 29.2009   1
   3   6   0 825.064 20.9933   2
  -9   3   0 769.630 31.8232   1
   6  -9   0 833.166 29.8651   2
   3   6   0 825.311 27.1980   6
   9  -3   0 817.774 33.4038   2
  -6   9   0 789.142 28.8910   2
   9  -3   0 815.127 34.3096   7
  -3  -6   0 797.799 26.8432   1
   6   3   0 786.493 24.2184   2
   3  -9   0 805.183 27.3263   1
  -9   6   0 763.431 30.1386   1
   3  -9   0 793.663 27.4912   3
   6   3   0 756.471 27.2296   6
  -3   9   0 803.503 26.1927   2
   9  -6   0 806.215 30.0001   1
   9  -6   0 820.901 31.1703   2
  -6  -3   0 797.899 32.6326   1
   9   0   0 134.342 17.2637   2
   0  -9   0 117.744 13.3969   1
  -9   9   0 141.177 16.1814   2
  -9   0   0 144.735 20.0350   1
   9  -9   0 170.285 18.2311   2
   0   9   0 153.052 17.0705   5
   0   9   0 149.943 11.3391   2
   9  -9   0 147.396 16.6722   1
   8 -10   0 2166.49 56.6595   2
   8 -10   0 2086.89 55.4049   1
 -10   2   0 2039.10 60.2238   1
   2   8   0 2125.43 57.3203   5
   2   8   0 2102.96 41.4804   2
  -8  10   0 2165.98 55.5060   2
  10  -2   0 2050.97 59.5364   2
  10  -2   0 2066.20 63.6075   7
  -2  -8   0 2024.24 50.2614   1
   5   5   0 4545.76 78.4074   2
 -10   5   0 4376.92 92.9342   1
   5 -10   0 4474.67 90.5629   3
 -10   5   0 4450.06 93.9536   2
   5   5   0 4376.51 86.1608   6
   5 -10   0 4233.23 87.9048   1
  10  -5   0 4260.79 94.6718   2
  -5  10   0 4364.17 88.3504   2
  -5  -5   0 4274.80 89.5711   1
   2 -10   0 2196.40 53.3404   3
 -10   8   0 2115.09 56.6174   1
 -10   8   0 2077.38 57.5550   2
   2 -10   0 2156.15 52.7547   1
   8   2   0 2151.06 50.9035   2
  -2  10   0 2055.99 53.0704   5
  10  -8   0 2149.66 58.0343   2
  -2  10   0 2086.15 48.2540   2
  10  -8   0 2120.95 61.7244   1
  -8  -2   0 2069.26 60.5012   1
  10 -11   0 1623.04 52.9614   2
 -11   1   0 1668.45 57.8913   1
   1  10   0 1648.98 34.9448   2
  10 -11   0 1678.05 52.5724   1
   1  10   0 1639.66 52.5599   5
 -11   1   0 1738.53 59.4503   1
  11  -1   0 1722.95 52.1012   2
  -1 -10   0 1662.07 46.6805   1
 -10  11   0 1638.71 51.8390   2
   4   7   0 1182.86 25.0211   2
 -11   4   0 1191.41 43.8054   1
   7 -11   0 1180.21 39.7852   1
  -4  -7   0 1215.10 38.2114   1
  -7  11   0 1138.45 38.7438   2
  11  -4   0 1260.14 46.9008   7
  11  -4   0 1187.63 44.5902   2
   4 -11   0 1198.87 37.9269   1
   4 -11   0 1178.52 38.4391   3
   7   4   0 1183.17 29.9173   2
 -11   7   0 1162.88 42.2193   2
 -11   7   0 1243.58 42.5507   1
  11  -7   0 1195.25 42.4652   2
  -7  -4   0 1185.48 43.6828   1
  -4  11   0 1220.10 35.8060   2
  11  -7   0 1151.73 42.0339   2
   1 -11   0 1680.47 47.6521   1
 -11  10   0 1594.97 52.3284   2
  10   1   0 1632.74 46.9932   2
  11 -10   0 1768.73 54.5867   2
 -10  -1   0 1634.38 56.9817   1
  -1  11   0 1736.47 50.7028   5
  -1  11   0 1648.25 39.0329   2
   9 -12   0 734.640 34.1711   1
 -12   3   0 683.156 38.1599   1
  12  -3   0 677.972 36.6149   2
  -9  12   0 702.523 33.1599   2
  12  -3   0 718.595 40.4454   7
  -3  -9   0 772.205 31.0788   1
 -12   6   0 629.360 32.8215   1
   6 -12   0 581.537 29.0607   1
   6   6   0 619.510 14.9930   2
  -6  12   0 612.100 27.8415   2
  12  -6   0 596.883 32.4585   2
  -6  -6   0 486.543 29.7194   1
   9   3   0 698.556 24.5925   2
   3 -12   0 731.874 31.2730   1
   3 -12   0 681.352 30.9797   3
 -12   9   0 673.986 34.3188   2
  -3  12   0 711.370 26.1979   2
  12  -9   0 665.818 34.5265   2
  -3  12   0 702.603 32.1538   5
  -9  -3   0 698.676 37.8431   1
 -12  12   0 265.287 26.2654   2
   0 -12   0 251.094 22.3149   1
  12   0   0 251.975 21.9173   2
 -12   0   0 217.932 27.2148   1
 -12   0   0 262.876 29.4551   1
  12 -12   0 258.988 26.2244   2
   0  12   0 262.176 25.0887   5
 -13   2   0 2030.89 69.1116   1
   2  11   0 2005.89 65.5852   5
  11 -13   0 1981.65 61.6216   1
  -2 -11   0 2052.93 56.5825   1
  13  -2   0 1890.52 59.1283   2
 -11  13   0 1992.32 61.5140   2
   8 -13   0 2106.49 60.2266   1
 -13   5   0 2060.40 65.7398   1
  -8  13   0 2090.83 58.5884   2
  13  -5   0 2173.30 70.2316   7
  13  -5   0 2098.00 65.6463   2
  -5  -8   0 2153.94 60.2387   1
 -13   8   0 2116.08 63.6075   1
   5 -13   0 2085.50 58.6989   1
  -5  13   0 2067.30 53.3816   2
  -8  -5   0 2195.03 65.4659   1
  13  -8   0 2173.00 65.5771   2
  11   2   0 1909.85 48.2844   2
   2 -13   0 1974.25 57.2926   1
 -13  11   0 2001.07 63.2944   2
  -2  13   0 1992.21 45.2851   2
  -2  13   0 1936.77 59.2453   5
  13 -11   0 2014.85 64.1495   2
 -11  -2   0 2005.71 66.5736   1
 -14   1   0 238.882 30.9941   1
   1  13   0 225.560 28.5651   5
 -13  14   0 219.961 26.0577   2
  -1 -13   0 226.113 23.1806   1
  14  -1   0 206.388 21.2773   2
 -14   4   0 95.8024 21.0699   1
  10 -14   0 40.9448 14.8043   1
  14  -4   0 51.8968 19.5466   7
  -4 -10   0 42.8713 14.2411   1
 -10  14   0 66.9711 15.2025   2
  14  -4   0 47.9519 17.4252   2
   7 -14   0 -13.150 9.95009   1
 -14   7   0 21.1803 13.5845   1
  14  -7   0 -16.173 11.9930   2
  -7  14   0 6.30179 10.1785   2
  -7  -7   0 -10.015 13.3539   1
 -14  10   0 27.7620 14.8166   2
   4 -14   0 38.0086 13.2157   1
  -4  14   0 57.6855 11.1715   2
  14 -10   0 44.8771 16.6292   2
 -10  -4   0 21.5334 16.2372   1
  14 -10   0 46.4757 16.0842   2
  -4  14   0 48.5764 15.2994   5
 -14  13   0 222.698 26.3142   2
   1 -14   0 210.413 23.0836   1
  13   1   0 229.348 18.8806   2
  -1  14   0 216.856 26.8219   5
 -13  -1   0 205.176 28.2962   1
 -13  -1   0 263.681 30.8759   1
  14 -13   0 245.235 27.7459   2
 -15   3   0 414.353 39.3954   1
  15  -3   0 410.141 30.4534   2
  -3 -12   0 391.100 29.3848   1
 -12  15   0 484.364 33.3408   2
 -15   6   0 12.4347 15.8812   1
   9 -15   0 22.6389 14.0059   1
  15  -6   0 34.3228 18.4457   7
  -9  15   0 39.5767 13.5238   2
  -6  -9   0 19.2655 15.1503   1
  15  -6   0 28.4336 17.0942   2
   6 -15   0 13.4119 12.8435   1
  -6  15   0 52.1103 15.9829   5
  -9  -6   0 28.6355 16.5558   1
  15  -9   0 19.7928 15.8752   2
  -6  15   0 41.8801 11.5765   2
   3 -15   0 452.204 30.2139   1
 -15  12   0 382.546 34.5995   2
 -12  -3   0 416.202 37.1200   1
  -3  15   0 443.326 32.5235   5
  15 -12   0 415.763 35.5360   2
  15 -12   0 375.685 34.3418   2
   0 -15   0 87.1781 18.1245   1
 -15  15   0 78.7323 20.5111   2
 -15   0   0 45.4609 19.9247   1
 -16   2   0 1542.44 68.6865   1
 -14  16   0 1460.48 58.7959   2
  -2 -14   0 1506.96 55.3119   1
  16  -2   0 1561.38 49.5609   2
 -16   5   0 1852.57 72.8611   1
  11 -16   0 1918.31 64.7307   1
  16  -5   0 1867.34 66.3919   2
  -5 -11   0 1841.48 63.1891   1
 -11  16   0 1806.19 60.5800   2
   8 -16   0 5017.48 115.582   1
  16  -8   0 5074.98 125.402   2
  -8  16   0 4876.48 107.882   2
  -8  -8   0 4973.74 119.612   1
   5 -16   0 1664.65 57.9626   1
  16 -11   0 1672.58 65.3947   2
  -5  16   0 1694.00 44.9709   2
 -11  -5   0 1741.21 61.8045   1
 -16  14   0 1589.59 64.3068   2
   2 -16   0 1603.11 57.9235   1
 -14  -2   0 1624.16 67.5120   1
  16 -14   0 1641.12 66.0894   2
  16 -14   0 1523.63 63.1734   2
 -14  -2   0 1678.12 67.9074   1
  10 -17   0 279.850 30.0302   1
 -17   7   0 288.122 34.9443   1
  -7 -10   0 312.416 33.3938   1
 -10  17   0 332.918 27.1803   2
  17  -7   0 258.532 32.6435   2
   7 -17   0 267.577 27.9803   1
 -10  -7   0 259.109 30.5693   1
  -7  17   0 301.362 22.6724   2
  17 -10   0 313.417 33.7627   2
   1   0   1 -0.0135 3.59213   7
  -1   3  -1 36.0131 4.65910   2
   3  -2  -1 26.4273 5.35658   2
   2   1   1 27.4707 7.11360   2
   0  -2  -1 7.02020 3.64073   6
   2   0  -1 3.74903 5.15873   7
   0   2   1 1.28320 3.76475   6
   0   2   1 0.19782 3.56422   5
   5  -3  -1 117.004 10.4563   2
  -2   5  -1 114.202 9.30246   2
   2  -5   1 115.791 9.45426   3
  -5   3   1 101.378 9.71743   2
   3   2   1 125.121 10.4499   2
   1   2  -1 37.1408 7.07130   5
  -1  -2   1 32.9965 4.28772   6
   3  -1   1 37.9947 6.95343   2
  -2   3   1 32.4874 5.53371   2
  -1  -3  -1 3675.86 66.3607   6
   4  -1  -1 3688.22 67.5110   2
  -3   4  -1 3707.11 66.6022   2
   1   3   1 3685.86 65.0855   2
   1   3   1 3530.81 65.7288   6
  -3   7  -1 71.7542 8.55643   2
   7  -4  -1 73.3255 10.2824   2
  -4  -3  -1 75.3249 11.0081   1
   4   3   1 81.8711 9.26851   2
  -7   4   1 83.5331 10.5225   1
   4   3   1 81.0099 10.2317   6
   3  -7   1 69.3613 8.83931   3
   3  -7   1 67.7793 8.72932   1
  -7   4   1 50.3651 9.15705   2
   0   4  -1 6.25928 3.61292   2
   4  -4  -1 0.29031 5.32829   2
   0   4  -1 0.53768 5.23801   5
  -4   4   1 -4.4423 5.18277   2
   0  -4   1 -3.5112 3.69985   3
   4   0   1 4.15653 10.1920   7
   0  -4   1 9.52299 5.02143   6
   4   0   1 19.4850 9.68793   2
   3   1  -1 3757.51 63.5742   2
   1  -4  -1 3703.44 67.3090   6
  -4   3  -1 3720.30 68.8681   2
  -1   4   1 3733.18 66.6408   2
   4  -3   1 3573.13 68.3716   2
  -4   6  -1 528.515 19.2936   2
   6  -2  -1 519.845 20.5418   2
  -2  -4  -1 494.582 18.0928   1
   2   4   1 499.766 22.3304   5
   2   4   1 529.087 17.4168   2
   2   4   1 543.342 19.4266   6
  -6   2   1 511.666 19.9812   1
   4  -6   1 527.427 19.1585   1
   4  -6   1 542.473 19.5770   2
  -5  -4  -1 162.703 16.6854   1
   9  -5  -1 134.765 15.0401   2
   9  -5  -1 120.984 14.6853   2
  -4   9  -1 155.389 13.4025   2
  -9   5   1 152.225 15.2592   2
  -9   5   1 156.388 16.0690   1
   5   4   1 179.270 15.3131   6
   5   4   1 156.550 12.6039   2
   4  -9   1 144.345 13.4170   1
  -1   6  -1 2018.48 39.3540   2
  -5  -1  -1 1891.84 49.3162   1
  -1   6  -1 1953.23 41.7134   5
   6  -5  -1 1961.08 45.3347   2
   1  -6   1 1981.25 43.5439   6
  -6   5   1 1910.72 45.5464   2
   5   1   1 1983.92 48.6820   2
   1  -6   1 1944.21 40.1793   1
   1  -6   1 1990.14 41.1412   3
  -5   2  -1 96.0265 10.6250   2
   3  -5  -1 118.438 10.2662   2
   2   3  -1 105.650 8.51141   6
   2   3  -1 106.255 5.51675   2
  -3   5   1 105.320 9.52054   2
   5  -2   1 116.716 11.1020   2
   5   0  -1 4.00736 8.06156   2
   0  -5  -1 -4.6814 4.99426   6
   0  -5  -1 5.05570 5.11773   1
  -5   5  -1 0.97002 6.16132   2
   5   0  -1 9.42309 8.88732   7
   0   5   1 -7.3618 5.75492   5
   5  -5   1 -5.8796 5.57789   2
  -5   0   1 1.78892 7.48796   1
   0   5   1 0.84020 4.66565   2
   8  -3  -1 30.1229 8.96561   2
  -5   8  -1 21.0165 7.33763   2
  -3  -5  -1 12.0618 7.52692   1
  -8   3   1 16.4695 8.19855   1
   5  -8   1 27.8443 8.00554   2
   5  -8   1 22.9548 7.96634   3
   5  -8   1 17.4549 7.25902   1
  -8   3   1 14.7090 7.56650   2
   3   5   1 22.4381 6.66379   2
   3   5   1 20.4046 7.63841   6
  -6  -5  -1 73.7767 15.2281   1
  -5  11  -1 62.4444 11.0154   2
  11  -6  -1 75.2129 14.3978   2
 -11   6   1 81.7357 14.9226   1
   5 -11   1 96.4916 13.2076   3
   6   5   1 80.4754 10.4193   2
   5 -11   1 81.4743 12.8857   1
  -6  -2  -1 19.4923 10.5627   1
   8  -6  -1 21.1173 8.28173   2
  -2   8  -1 22.2824 6.38182   2
   6   2   1 13.4856 8.42877   2
  -8   6   1 23.2328 8.72326   2
   2  -8   1 15.0486 6.41822   3
   2  -8   1 11.7431 6.25831   1
  -8   6   1 5.26843 6.79180   1
   5  -6  -1 1956.72 45.1871   2
  -6   1  -1 1940.54 46.4078   2
   1   5  -1 2014.71 35.6680   2
  -6   1  -1 1852.45 48.0254   1
   1   5  -1 2009.47 44.3551   5
   6  -1   1 1886.95 52.4909   7
  -5   6   1 1950.07 45.0107   2
   6  -1   1 2010.98 50.4054   2
  -1  -5   1 1980.17 39.1449   1
  -1  -5   1 1970.58 41.8698   6
   2  -6  -1 544.641 18.9808   3
  -6   4  -1 540.232 21.7165   2
   4   2  -1 552.291 15.1058   2
   2  -6  -1 525.061 18.7146   1
  -2   6   1 544.491 18.9165   2
  -4  -2   1 510.031 20.4115   1
   6  -4   1 546.962 21.3262   2
   7  -1  -1 2611.64 64.7789   7
  -1  -6  -1 2637.41 55.0732   1
   7  -1  -1 2560.06 61.5709   2
  -6   7  -1 2634.25 58.6219   2
   1   6   1 2661.81 53.1705   2
   6  -7   1 2730.35 58.6043   2
   1   6   1 2663.71 58.0311   5
  -7   1   1 2664.03 60.1546   1
  -7   1   1 2719.72 60.8466   1
   6  -7   1 2673.71 58.1246   1
  -4  -6  -1 261.082 19.3454   1
  -6  10  -1 272.842 18.5084   2
  10  -4  -1 298.642 22.1048   2
   4   6   1 256.042 18.0465   6
 -10   4   1 268.292 21.3761   1
   6 -10   1 281.095 19.4726   1
   6 -10   1 238.106 18.8980   3
   4   6   1 266.553 14.6074   2
  -6  13  -1 36.1220 10.2993   2
  -7  -6  -1 42.6555 16.2434   1
  13  -7  -1 50.9122 14.5189   2
 -13   7   1 36.6528 14.4471   1
   6 -13   1 42.0705 12.9855   1
   7   6   1 49.0061 8.38480   2
  -3  10  -1 2138.24 47.8041   2
  -7  -3  -1 1950.30 58.9030   1
  10  -7  -1 2103.64 56.2990   2
 -10   7   1 2059.29 56.0624   2
 -10   7   1 2174.58 56.4099   1
   7   3   1 2002.33 50.0793   2
   7   3   1 2106.62 54.7745   6
   3 -10   1 2117.49 51.4468   3
   3 -10   1 2087.75 50.8151   1
   7  -7  -1 -0.3984 6.96419   1
   7  -7  -1 -0.8141 6.83178   2
   0   7  -1 2.55496 4.34925   2
   0   7  -1 12.2221 7.49475   5
  -7   0  -1 4.04769 9.77752   1
   0  -7   1 -4.0325 4.69057   1
   7   0   1 -6.7699 10.0403   7
  -7   7   1 -9.4163 6.19449   1
   0  -7   1 10.3412 5.71339   3
  -7   7   1 2.74971 7.05128   2
   7   0   1 10.4114 9.60290   2
  -7   3  -1 68.5130 10.8236   1
  -7   3  -1 63.1500 10.2251   2
   3   4  -1 81.8189 5.50026   2
   4  -7  -1 58.4212 8.96558   1
   3   4  -1 65.8134 5.25283   2
   4  -7  -1 68.7310 9.49059   2
   4  -7  -1 62.7923 9.41911   3
   3   4  -1 67.6974 7.81284   6
   7  -3   1 94.4499 11.9202   2
  -4   7   1 54.3679 9.05049   2
  -3  -4   1 89.3400 8.53572   1
  -3  -4   1 65.0779 10.9946   3
   1  -7  -1 2676.66 55.3672   1
   6   1  -1 2577.25 55.0660   2
  -7   6  -1 2630.59 59.7404   2
   7  -6   1 2685.12 59.9970   2
  -6  -1   1 2583.97 60.9019   1
  -1   7   1 2687.55 54.9285   2
  -1   7   1 2746.09 56.5466   5
   9  -2  -1 678.195 30.8289   2
   9  -2  -1 758.551 33.7456   7
  -2  -7  -1 680.325 25.8469   1
  -7   9  -1 726.829 28.5965   2
   7  -9   1 733.019 29.3129   2
   2   7   1 757.527 31.6709   5
   7  -9   1 746.089 28.5302   1
   2   7   1 746.840 22.8568   2
  -9   2   1 713.987 30.6122   1
  12  -5  -1 1557.95 54.4657   7
  12  -5  -1 1488.35 51.6633   2
  -5  -7  -1 1573.59 50.1890   1
  -7  12  -1 1589.84 46.3206   2
   5   7   1 1555.54 35.7483   2
 -12   5   1 1568.12 52.0130   1
   7 -12   1 1643.90 48.8337   1
  -7  15  -1 5.97201 10.1189   2
  15  -8  -1 -23.167 11.8746   2
  -8  -7  -1 -10.390 15.0504   1
 -15   8   1 11.1997 13.7904   1
   7 -15   1 19.7707 12.8766   1
  12  -8  -1 33.0564 12.7626   2
  -4  12  -1 33.1840 11.8694   5
  12  -8  -1 27.2791 13.2535   2
  -8  -4  -1 62.6878 16.5239   1
  -4  12  -1 30.3937 9.10517   2
   4 -12   1 47.7654 11.8481   3
 -12   8   1 47.7149 14.0352   2
 -12   8   1 38.8926 13.4827   1
   4 -12   1 51.8668 11.5487   1
   8   4   1 47.8318 10.0629   2
  -8  -1  -1 37.9394 12.6303   1
  -1   9  -1 51.0618 10.7029   5
   9  -8  -1 48.6530 11.3727   2
  -1   9  -1 39.8783 6.75057   2
   9  -8  -1 30.1336 9.96881   1
   1  -9   1 51.3353 9.62867   1
  -9   8   1 50.2183 11.2957   2
   8   1   1 44.9258 12.1469   2
   1  -9   1 20.4518 8.09032   3
  -9   8   1 34.2515 10.2998   1
  -8   2  -1 18.8715 10.3686   1
   6  -8  -1 22.2503 8.41401   1
   2   6  -1 24.0452 3.63605   2
   6  -8  -1 27.4395 8.69278   2
   2   6  -1 25.3793 3.92317   2
   2   6  -1 13.4034 9.17953   5
  -8   2  -1 30.2660 10.5084   1
  -8   2  -1 39.6979 9.68863   2
  -2  -6   1 29.8867 7.07364   1
   8  -2   1 17.8817 10.4162   2
   8  -2   1 9.89080 10.5511   7
  -2  -6   1 24.0488 7.23188   6
  -6   8   1 11.9174 7.53596   2
   5   3  -1 28.6926 6.73733   6
  -8   5  -1 24.9531 9.27780   2
   3  -8  -1 22.7118 7.48312   1
   5   3  -1 15.4573 4.57815   2
   3  -8  -1 27.4028 7.99829   2
  -8   5  -1 13.4605 7.97353   1
   5   3  -1 24.3916 4.81850   2
   3  -8  -1 19.6284 7.06154   3
  -5  -3   1 21.5267 9.61635   3
  -5  -3   1 18.4835 8.66581   1
   8  -5   1 16.5432 8.30843   2
  -3   8   1 22.5410 6.92678   2
   8  -5   1 19.2129 8.19943   2
   8   0  -1 4.29239 8.83820   2
   0  -8  -1 3.61448 6.58925   1
  -8   8  -1 -0.2374 7.11329   2
   0   8   1 -13.937 7.18727   5
   8  -8   1 -0.2672 7.69304   2
  -8   0   1 -0.2837 9.68557   1
   8  -8   1 0.93597 7.58408   1
   0   8   1 2.25104 5.34360   2
  11  -3  -1 54.2248 14.9182   7
  11  -3  -1 20.7063 12.2499   2
  -3  -8  -1 25.5047 9.91768   1
  -8  11  -1 41.9515 11.1397   2
   3   8   1 45.3108 14.9966   5
   3   8   1 38.6432 7.58568   2
 -11   3   1 19.2173 11.9904   1
   8 -11   1 35.3604 11.1209   1
  14  -6  -1 13.1042 14.6356   7
  -8  14  -1 6.04890 10.6777   2
  -6  -8  -1 -13.225 12.2230   1
  14  -6  -1 -16.345 11.6204   2
 -14   6   1 1.02955 12.4929   1
   8 -14   1 -9.3821 10.2700   1
  -9  -8  -1 27.6522 18.1937   1
  -8  17  -1 53.4977 14.2007   2
  17  -9  -1 77.2888 22.0589   2
   8 -17   1 43.0783 16.8153   1
  -9  -5  -1 48.8060 17.2703   1
  -5  14  -1 63.9051 12.0222   2
  -5  14  -1 76.3333 16.4699   5
  14  -9  -1 47.2082 16.9739   2
   9   5   1 68.7067 9.42037   2
   5 -14   1 82.4004 15.2526   1
  -9  -2  -1 1000.74 43.1346   1
  -2  11  -1 1063.99 28.3628   2
  11  -9  -1 1031.65 40.2030   2
  -2  11  -1 1030.05 37.0546   5
 -11   9   1 1013.23 39.8670   2
   2 -11   1 1002.80 34.8417   1
   2 -11   1 1062.44 35.5914   3
   9   2   1 1023.34 36.0831   2
   8  -9  -1 47.6048 10.8795   2
  -9   1  -1 15.7871 13.3085   1
   8  -9  -1 39.8005 10.6145   1
   1   8  -1 36.5173 4.58598   2
  -9   1  -1 48.3362 14.1921   1
   1   8  -1 28.8222 11.0168   5
  -1  -8   1 41.4497 8.39967   1
  -8   9   1 32.9187 10.6481   2
   9  -1   1 41.1125 13.1836   2
   9  -1   1 62.4803 15.0123   7
  -9   4  -1 152.056 16.5952   2
  -9   4  -1 165.331 16.7229   1
   5  -9  -1 138.228 14.1964   3
   4   5  -1 157.275 12.6842   6
   5  -9  -1 125.289 14.0152   2
   5  -9  -1 151.351 14.5503   1
  -5   9   1 147.464 14.5331   2
   9  -4   1 141.674 16.1654   2
  -4  -5   1 153.922 13.3328   1
   2  -9  -1 737.699 27.0403   3
  -9   7  -1 693.236 29.4418   2
   7   2  -1 705.800 22.2591   2
   2  -9  -1 640.197 25.6692   1
  -9   7  -1 783.851 30.1248   1
  -2   9   1 712.911 24.9319   2
  -7  -2   1 708.718 31.5547   1
  -2   9   1 726.337 27.7757   5
   9  -7   1 777.234 29.7967   1
   9  -7   1 678.724 29.3995   2
  10  -1  -1 1996.59 57.4742   7
  -1  -9  -1 1847.25 49.2028   1
  10  -1  -1 1947.29 53.6430   2
  -9  10  -1 1837.16 53.3130   2
 -10   1   1 1889.10 58.3207   1
   9 -10   1 1944.61 55.2695   2
   1   9   1 1878.76 53.4594   5
   9 -10   1 1887.92 53.0225   1
 -10   1   1 1798.33 56.7019   1
   1   9   1 1884.53 42.9953   2
  -9  13  -1 201.876 20.9313   2
  -4  -9  -1 196.434 21.3321   1
  13  -4  -1 213.526 26.2088   7
  13  -4  -1 187.013 23.5161   2
 -13   4   1 213.967 24.8690   1
   9 -13   1 200.914 21.6825   1
   4   9   1 227.460 11.6378   2
  -7  -9  -1 173.725 26.3345   1
  16  -7  -1 156.958 26.0180   2
  -9  16  -1 172.536 19.9268   2
   9 -16   1 157.229 22.3136   1
 -16   7   1 155.913 25.2973   1
  -6  16  -1 12.8698 9.90106   2
  16 -10  -1 -3.7266 14.2484   2
 -10  -6  -1 -10.301 13.5723   1
  -6  16  -1 17.9070 15.0930   5
   6 -16   1 12.3749 12.8587   1
  13 -10  -1 137.761 20.7097   2
  -3  13  -1 159.467 20.2953   5
  -3  13  -1 174.764 14.2334   2
 -10  -3  -1 158.414 22.7860   1
   3 -13   1 192.625 19.3876   1
  10   3   1 180.104 16.7375   2
 -13  10   1 134.873 20.4563   2
  10 -10  -1 0.50997 9.48762   1
   0  10  -1 -15.987 9.04541   5
  10 -10  -1 -1.2948 9.49991   2
   0  10  -1 -2.1717 3.99461   2
 -10   0  -1 -10.025 12.3806   1
 -10  10   1 -0.3132 9.66755   2
  10   0   1 -4.3256 10.5269   2
   0 -10   1 -5.1088 6.92325   1
   7 -10  -1 1992.16 52.9589   1
 -10   3  -1 2101.78 58.9109   1
   7 -10  -1 2044.70 54.2076   2
  -7  10   1 2062.75 53.8600   2
  10  -3   1 1965.20 61.7901   7
  -3  -7   1 2009.65 47.6355   1
  10  -3   1 1898.15 57.9182   2
   4 -10  -1 273.261 18.8904   3
 -10   6  -1 289.198 21.4360   2
   6   4  -1 282.218 9.46620   2
   4 -10  -1 287.219 18.6199   1
 -10   6  -1 301.847 21.7989   1
  10  -6   1 274.706 21.1276   2
  -4  10   1 291.409 18.0235   2
  -6  -4   1 255.628 21.5528   1
  10  -6   1 244.374 20.4595   2
   9   1  -1 1867.36 46.1578   2
   1 -10  -1 1810.96 49.0115   1
 -10   9  -1 1910.82 54.5356   2
  10  -9   1 1881.74 53.0440   1
  -9  -1   1 1879.84 56.6021   1
  10  -9   1 1850.11 54.0608   2
  -1  10   1 1821.04 50.7758   5
  -1  10   1 1795.65 44.4506   2
  -2 -10  -1 114.473 15.6151   1
  12  -2  -1 116.197 17.5953   2
  12  -2  -1 85.0728 17.9630   7
 -10  12  -1 119.557 18.0911   2
  10 -12   1 81.1182 15.9191   1
 -12   2   1 100.943 20.0035   1
   2  10   1 133.801 20.0079   5
   2  10   1 118.215 10.5084   2
  15  -5  -1 -11.485 16.8157   7
  -5 -10  -1 20.2213 15.2830   1
  15  -5  -1 3.35118 14.8490   2
 -10  15  -1 -15.763 9.11333   2
  10 -15   1 0.45715 12.5212   1
 -15   5   1 -1.5115 15.4344   1
  -4  15  -1 1172.76 46.9637   5
 -11  -4  -1 1169.16 51.8999   1
  15 -11  -1 1145.93 50.9273   2
  15 -11  -1 1111.66 50.5343   2
   4 -15   1 1172.54 44.9407   1
  12 -11  -1 109.219 18.7601   2
 -11  -1  -1 75.7145 18.7373   1
  -1  12  -1 41.4378 13.8845   5
  11   1   1 41.6862 12.9140   2
 -12  11   1 61.5260 15.2392   2
   1 -12   1 62.4333 12.9552   1
   9 -11  -1 1057.03 39.3628   1
 -11   2  -1 918.117 43.6530   1
   2   9  -1 1115.38 42.6831   5
   9 -11  -1 1022.06 39.4349   2
  11  -2   1 1097.56 46.4236   7
  -9  11   1 936.739 38.2717   2
  -2  -9   1 1020.30 33.4636   1
  11  -2   1 1059.37 43.5407   2
   6 -11  -1 87.1399 13.8778   1
 -11   5  -1 88.6723 15.6712   1
  -6  11   1 77.8597 13.1004   2
  11  -5   1 86.4782 16.5382   2
  -5  -6   1 77.7214 13.1815   1
   3 -11  -1 47.5162 10.9634   3
   3 -11  -1 18.9512 9.61249   1
 -11   8  -1 18.1396 10.4779   2
   8   3  -1 29.0568 6.13770   2
  -8  -3   1 22.9564 13.9120   1
  11  -8   1 29.4742 11.9132   2
  11  -8   1 5.52084 9.88042   2
  -3  11   1 18.1424 8.76963   2
  -3  11   1 42.1162 11.7621   5
 -11  11  -1 0.66589 10.6945   2
   0 -11  -1 0.37207 9.74874   1
  11   0  -1 17.8813 10.3499   2
  11 -11   1 6.91636 11.4088   2
   0  11   1 -2.8864 11.3994   5
   0  11   1 6.80185 7.36361   2
 -11   0   1 6.93709 14.2132   1
 -11   0   1 0.19405 13.7640   1
  11 -11   1 -0.6037 10.6633   1
  -3 -11  -1 22.6671 13.0152   1
 -11  14  -1 27.9911 13.3871   2
  14  -3  -1 -2.9857 13.2288   2
 -14   3   1 26.4031 17.7245   1
  11 -14   1 -4.4738 11.5710   1
  -6 -11  -1 43.4033 19.7744   1
  17  -6  -1 82.6616 20.4640   2
 -11  17  -1 67.2208 16.6821   2
 -17   6   1 76.2709 22.7887   1
  11 -17   1 42.0947 16.4553   1
  17 -12  -1 118.975 24.8289   2
 -12  -5  -1 73.8793 21.2042   1
   5 -17   1 43.0297 15.8134   1
 -12  -2  -1 313.272 31.8545   1
  14 -12  -1 289.654 28.7452   2
  -2  14  -1 350.991 30.3135   5
 -14  12   1 344.633 32.0154   2
   2 -14   1 325.589 25.8296   1
  12   2   1 348.884 22.5737   2
   1  11  -1 77.4652 17.8139   5
 -12   1  -1 28.3893 17.4612   1
 -12   1  -1 64.0355 19.4401   1
  11 -12  -1 65.2602 16.4495   2
  -1 -11   1 83.6325 13.6234   1
  12  -1   1 63.4863 15.8717   2
 -11  12   1 85.4151 16.2755   2
   8 -12  -1 53.2216 12.4615   1
 -12   4  -1 18.0112 14.3563   1
  -8  12   1 52.2908 12.8384   2
  12  -4   1 55.7090 16.1813   2
  -4  -8   1 54.5546 11.8171   1
  12  -4   1 29.2644 16.1026   7
 -12   7  -1 1548.15 52.0853   2
   5 -12  -1 1632.21 48.1821   1
 -12   7  -1 1622.82 52.4985   1
  -5  12   1 1523.39 45.5354   2
  12  -7   1 1590.25 53.2424   2
  -7  -5   1 1524.68 50.9619   1
   2 -12  -1 133.757 17.0732   1
  10   2  -1 138.010 11.9043   2
 -12  10  -1 101.121 17.1666   2
 -10  -2   1 112.973 20.3656   1
  -2  12   1 85.7715 12.1591   2
  12 -10   1 91.6372 17.3652   2
  -2  12   1 109.913 17.2050   5
  13  -1  -1 189.616 19.0643   2
 -12  13  -1 184.850 22.1412   2
  -1 -12  -1 157.612 19.6657   1
  12 -13   1 185.850 24.6443   1
 -13   1   1 107.855 22.3773   1
   1  12   1 215.574 26.6538   5
  -4 -12  -1 78.3010 19.0621   1
 -12  16  -1 66.7608 17.7878   2
  16  -4  -1 81.8630 17.5527   2
  12 -16   1 83.6557 20.5045   1
 -16   4   1 50.4943 21.2754   1
  16 -13  -1 205.798 28.7332   2
  16 -13  -1 203.611 27.3964   2
 -13  -3  -1 198.732 28.6286   1
   3 -16   1 159.082 22.1939   1
 -16  13   1 230.056 28.9882   2
   0  13  -1 -5.0769 14.7072   5
 -13   0  -1 -8.7125 16.9758   1
 -13   0  -1 -2.2621 15.2869   1
  13 -13  -1 8.78424 14.5449   2
 -13  13   1 -7.4521 12.0341   2
   0 -13   1 18.1451 11.4634   1
  13   0   1 20.3240 11.8532   2
  10 -13  -1 187.189 22.0221   1
 -13   3  -1 191.497 25.9261   1
  13  -3   1 182.843 23.9152   2
  -3 -10   1 152.507 17.5233   1
 -10  13   1 155.979 20.2268   2
  13  -3   1 143.060 23.1057   7
 -13   6  -1 49.9318 16.0614   1
   7 -13  -1 43.7311 13.0093   1
  -6  -7   1 80.2516 16.2260   1
  13  -6   1 22.3925 14.7769   2
  13  -6   1 56.2321 17.3475   7
  -7  13   1 22.6764 10.9525   2
   4 -13  -1 220.912 21.9427   1
 -13   9  -1 211.462 23.6261   2
  -4  13   1 199.433 17.9937   2
  13  -9   1 225.229 25.0005   2
  -4  13   1 246.987 23.4775   5
  13  -9   1 224.239 24.6047   2
  -9  -4   1 249.210 25.8068   1
 -13  12  -1 192.325 24.5880   2
   1 -13  -1 184.408 21.6624   1
  12   1  -1 211.093 16.0533   2
  -1  13   1 185.877 15.0173   2
  13 -12   1 159.406 22.5990   2
 -12  -1   1 180.720 26.3552   1
 -12  -1   1 161.690 25.5625   1
  -1  13   1 202.595 25.1004   5
  -2 -13  -1 382.752 29.7792   1
  15  -2  -1 359.255 25.4744   2
 -13  15  -1 335.619 31.0429   2
 -15   2   1 347.195 36.3453   1
  15 -14  -1 494.591 38.4232   2
 -14  -1  -1 451.535 40.9938   1
 -14  -1  -1 436.399 40.7853   1
 -15  14   1 472.141 36.3227   2
   1 -15   1 439.212 31.1285   1
  14   1   1 450.391 24.9809   2
 -14   2  -1 307.025 35.1065   1
  -2 -12   1 339.359 24.9024   1
 -12  14   1 307.530 28.6617   2
  14  -2   1 299.479 27.5235   2
   9 -14  -1 60.6427 16.5652   1
 -14   5  -1 70.0111 20.7632   1
  14  -5   1 95.6392 21.1285   2
  14  -5   1 74.8095 20.2256   7
  -9  14   1 65.5719 14.6619   2
  -5  -9   1 75.6985 15.8173   1
   6 -14  -1 7.17462 10.9334   1
  -8  -6   1 29.7693 16.3504   1
  -6  14   1 -2.5437 9.81436   2
  14  -8   1 -5.1359 12.4230   2
 -14  11  -1 18.0509 13.9502   2
   3 -14  -1 2.93091 11.6734   1
  -3  14   1 30.0651 15.5398   5
 -11  -3   1 23.2462 16.2080   1
  14 -11   1 11.6627 13.9394   2
  14 -11   1 1.60298 14.2148   2
  -3  14   1 42.3667 10.9647   2
 -14  14  -1 1.45024 13.7029   2
   0 -14  -1 5.34163 12.1737   1
 -14   0   1 1.82130 17.0494   1
 -15   1  -1 474.092 42.2683   1
  -1 -14   1 438.982 30.0569   1
  15  -1   1 425.539 28.7901   2
 -14  15   1 379.061 34.6777   2
  11 -15  -1 1228.97 50.2312   1
 -15   4  -1 1176.88 56.7888   1
 -11  15   1 1165.47 47.0309   2
  15  -4   1 1079.78 49.2158   2
  15  -4   1 1118.51 53.9002   7
  -4 -11   1 1124.97 44.3286   1
   8 -15  -1 -6.9993 12.0582   1
 -15   7  -1 -12.987 13.6563   1
  -7  -8   1 -17.958 13.2772   1
  15  -7   1 3.88428 15.1204   2
  15  -7   1 18.7199 16.6368   7
  -8  15   1 13.7166 11.5624   2
 -15  10  -1 1.89203 14.6707   2
   5 -15  -1 -10.252 10.7733   1
  15 -10   1 -14.749 12.8464   2
  -5  15   1 -4.0254 8.98051   2
 -10  -5   1 2.48427 14.3062   1
  -5  15   1 -8.2190 12.1504   5
   2 -15  -1 350.263 30.5073   1
 -15  13  -1 445.685 35.3116   2
  15 -13   1 439.643 35.6355   2
 -13  -2   1 435.144 37.8505   1
  15 -13   1 350.221 33.6627   2
 -13  -2   1 387.523 36.6940   1
 -16   3  -1 159.723 30.5218   1
 -13  16   1 168.930 24.8476   2
  -3 -13   1 178.044 21.9610   1
  16  -3   1 184.155 23.4996   2
 -16   6  -1 5.23934 19.3446   1
  10 -16  -1 24.3903 15.7861   1
  16  -6   1 20.6237 17.4047   2
  -6 -10   1 34.3158 16.1404   1
 -10  16   1 16.3001 12.7962   2
   7 -16  -1 136.363 21.0081   1
  -9  -7   1 133.043 23.3704   1
  16  -9   1 123.599 23.9253   2
  -7  16   1 150.498 18.5759   2
 -16  12  -1 42.1212 18.9662   2
   4 -16  -1 46.9523 16.3707   1
  16 -12   1 49.1486 18.8068   2
  -4  16   1 59.6901 12.1368   2
 -12  -4   1 72.2520 19.7990   1
 -17   5  -1 40.9957 22.9409   1
  17  -5   1 71.9703 19.6859   2
  -5 -12   1 67.7706 19.1286   1
 -12  17   1 62.7461 17.4633   2
   9 -17  -1 46.5239 17.5107   1
  17  -8   1 65.5708 22.0541   2
  -9  17   1 52.9574 15.6401   2
  -8  -9   1 36.7882 17.7369   1
   6 -17  -1 72.9282 18.4223   1
  17 -11   1 86.9640 22.6857   2
 -11  -6   1 79.1970 20.1351   1
  -6  17   1 64.4306 14.2571   2
   0   2  -2 23.5673 3.62651   5
   2   0   2 12.7572 9.03251   7
   3  -1  -2 82.6182 6.80994   2
  -2   3  -2 92.3795 7.29786   2
   3  -1  -2 93.4069 7.15890   2
   1   2   2 101.577 9.01739   2
   1   2   2 77.4106 8.10947   6
   1   2   2 76.0048 8.89715   5
   4  -3  -2 1950.93 40.4473   2
  -1   4  -2 1994.25 35.2344   2
   1  -4   2 1927.33 36.4563   3
   3   1   2 1951.18 46.6473   2
   2   1  -2 77.2328 3.67622   6
   1  -3  -2 65.5371 6.96436   6
  -3   2  -2 86.3884 8.63257   2
  -1   3   2 106.599 8.44670   2
  -1   3   2 70.4027 7.17583   6
   5  -2  -2 425.952 16.5342   2
   5  -2  -2 431.631 16.6695   2
  -3   5  -2 423.769 15.8565   2
   3  -5   2 399.805 15.3306   3
   2   3   2 395.912 16.6904   2
   2   3   2 417.078 19.7762   5
   2   3   2 416.845 17.8492   6
  -4  -2  -2 349.655 20.9815   1
   6  -4  -2 360.779 17.2071   2
  -2   6  -2 390.946 13.6472   2
   4   2   2 347.461 19.1928   2
   2  -6   2 352.519 14.2416   1
  -6   4   2 360.429 16.9436   1
  -6   4   2 356.246 17.2282   2
   2  -6   2 371.744 14.6678   3
   1   3  -2 1934.08 38.9194   5
  -4   1  -2 1938.87 43.5387   2
  -1  -3   2 1895.36 36.7115   3
  -1  -3   2 1923.34 33.3947   3
   4  -1   2 1974.49 45.4635   2
   4  -1   2 1901.72 46.6680   7
  -3   4   2 1857.24 40.6505   2
  -1  -3   2 2004.42 36.1178   6
  -4   4  -2 224.414 13.3203   2
   4   0  -2 208.786 13.5874   2
   4   0  -2 211.977 14.7580   7
   0  -4  -2 223.199 13.2614   6
   0   4   2 212.526 13.2917   5
   0   4   2 214.812 12.6898   2
   0   4   2 202.146 12.9542   6
  -4   7  -2 1283.64 32.7305   2
   7  -3  -2 1327.04 35.5190   2
  -3  -4  -2 1253.35 34.9326   1
   4  -7   2 1307.10 33.6398   3
  -7   3   2 1359.97 35.1371   2
   3   4   2 1335.57 34.0142   2
   4  -7   2 1275.66 33.0974   1
   3   4   2 1267.16 35.4020   6
  -7   3   2 1246.46 34.3020   1
  -5  -3  -2 3304.15 74.5807   1
  -3   8  -2 3386.85 63.8809   2
   8  -5  -2 3206.13 69.8600   2
   3  -8   2 3305.78 66.1996   3
   5   3   2 3378.90 70.3400   2
  -8   5   2 3144.35 69.2176   1
   3  -8   2 3296.01 65.2764   1
  -8   5   2 3278.29 70.6245   2
  -5   0  -2 411.535 23.2748   1
  -5   0  -2 420.505 21.9375   2
   0   5  -2 438.358 16.4935   5
   5  -5  -2 448.495 18.6202   2
  -5   5   2 455.402 18.8681   2
   0  -5   2 443.510 16.1109   6
   0  -5   2 427.778 13.9958   3
   0  -5   2 438.865 13.4819   1
   5   0   2 470.905 26.1456   7
   5   0   2 450.729 24.4969   2
   3   2  -2 406.996 11.6278   6
  -5   3  -2 400.624 18.0037   2
   2  -5  -2 414.505 17.1154   6
   2  -5  -2 402.411 16.7853   2
   5  -3   2 408.313 18.3890   2
   5  -3   2 416.210 18.2868   2
  -2   5   2 375.488 16.3450   2
  -3  -2   2 422.519 13.4602   3
   6  -1  -2 842.400 27.2062   2
   6  -1  -2 779.707 28.0672   7
  -1  -5  -2 816.976 24.7299   1
  -5   6  -2 787.414 25.8285   2
   5  -6   2 768.019 24.8159   1
   1   5   2 807.746 26.6793   5
   1   5   2 762.652 25.0262   6
  -6   1   2 803.473 25.6443   1
   5  -6   2 871.080 25.7725   2
  -6   1   2 844.837 25.7963   1
   5  -6   2 852.346 25.8345   3
   1   5   2 778.800 24.0570   2
  -4  -5  -2 1362.85 40.6899   1
   9  -4  -2 1299.65 40.3130   2
  -5   9  -2 1355.18 37.0003   2
   4   5   2 1356.98 36.2849   2
   5  -9   2 1433.23 38.9530   3
   5  -9   2 1328.46 37.5317   1
   4   5   2 1413.37 40.0452   6
  -9   4   2 1402.95 40.3773   1
  -6  -4  -2 72.3516 15.3539   1
  10  -6  -2 50.0013 12.2409   2
  10  -6  -2 49.2928 11.6050   2
  -4  10  -2 66.1410 10.2188   2
 -10   6   2 58.7858 12.5710   2
   4 -10   2 72.5475 10.8195   1
   4 -10   2 61.1794 10.9606   3
 -10   6   2 49.9988 11.6811   1
   6   4   2 63.4695 11.4895   2
   6   4   2 81.1066 13.5157   6
   7  -6  -2 1068.15 33.4015   2
  -6  -1  -2 1170.35 39.3604   2
  -1   7  -2 1119.98 30.3470   5
  -1   7  -2 1187.45 26.7177   2
  -6  -1  -2 1055.51 38.0552   1
  -1   7  -2 1154.17 24.3790   2
   1  -7   2 1166.26 28.9222   3
   6   1   2 1188.44 38.7354   2
   1  -7   2 1127.68 27.9525   1
  -7   6   2 1117.92 33.9716   2
  -7   6   2 1098.67 32.9472   1
  -6   2  -2 386.117 19.4938   2
  -2  -4   2 344.859 16.2583   3
  -2  -4   2 371.398 11.7638   1
  -2  -4   2 375.556 13.8901   6
   6  -2   2 369.086 21.1264   7
   6  -2   2 328.082 19.9330   2
  -6   5  -2 729.728 25.6508   2
   1  -6  -2 759.442 23.9449   1
   1  -6  -2 799.502 25.0849   2
   5   1  -2 802.120 19.0161   2
  -5  -1   2 734.214 26.1972   1
  -5  -1   2 783.765 22.3023   3
  -1   6   2 745.470 23.6291   2
  -1   6   2 796.977 24.8373   5
   6  -5   2 757.417 25.5918   1
  -2  -6  -2 90.6557 11.3580   1
  -6   8  -2 103.452 12.0562   2
   8  -2  -2 113.992 14.5798   7
   8  -2  -2 82.4369 12.5189   2
   6  -8   2 85.1668 11.1743   3
   6  -8   2 106.520 12.1816   1
   6  -8   2 95.4010 12.1417   2
   2   6   2 106.736 11.0182   2
  -8   2   2 84.8373 12.1461   1
   2   6   2 101.859 12.5132   6
   2   6   2 93.7351 13.6954   5
  -6  11  -2 9.04078 8.81692   2
  -5  -6  -2 50.2723 13.6543   1
  11  -5  -2 12.4179 10.2528   2
   6 -11   2 26.2155 9.76259   3
   5   6   2 14.1537 9.28977   6
   6 -11   2 17.9626 9.59042   1
 -11   5   2 27.8761 11.4828   1
   5   6   2 26.1023 8.94465   2
  -5  12  -2 1107.88 33.8089   2
  12  -7  -2 1082.52 41.3912   2
  -7  -5  -2 911.964 42.8015   1
 -12   7   2 1048.02 41.0659   1
   7   5   2 1054.54 33.8844   2
   5 -12   2 1073.28 37.5885   3
   5 -12   2 1154.03 37.8912   1
  -2   9  -2 521.843 17.0013   2
   9  -7  -2 418.449 23.8319   2
  -2   9  -2 499.959 22.3221   5
  -7  -2  -2 481.928 29.0386   1
   2  -9   2 489.182 20.1862   1
  -9   7   2 475.061 24.8372   1
   2  -9   2 503.412 20.7900   3
   7   2   2 497.366 25.7701   2
  -7   1  -2 1143.61 36.5358   2
   6  -7  -2 1092.93 32.5099   1
  -7   1  -2 1123.33 38.3840   1
   1   6  -2 1166.14 32.3537   5
   6  -7  -2 1095.69 33.6275   2
  -1  -6   2 1122.40 26.7251   1
   7  -1   2 1118.31 39.4827   2
   7  -1   2 1137.57 41.6115   7
  -6   7   2 1015.60 32.6510   2
  -1  -6   2 1163.10 29.7666   6
   3  -7  -2 1267.23 34.1975   1
   4   3  -2 1376.13 29.0143   6
   3  -7  -2 1339.79 35.7846   2
   3  -7  -2 1323.42 34.5434   3
  -7   4  -2 1300.04 37.4038   2
   7  -4   2 1265.75 37.3132   2
   7  -4   2 1299.37 37.7274   2
  -3   7   2 1300.85 34.8156   2
  -4  -3   2 1292.22 31.2734   1
  -4  -3   2 1295.81 33.2796   3
   7   0  -2 8.32851 8.04357   2
  -7   7  -2 4.98863 7.53719   2
   0  -7  -2 7.55178 6.75930   1
   0   7   2 14.0443 8.38661   5
  -7   0   2 21.6955 7.39806   3
   0   7   2 4.59945 5.85595   2
   7  -7   2 4.31013 6.96705   1
  -7   0   2 17.4492 8.76915   1
   7  -7   2 23.2881 8.65178   2
   7  -7   2 9.59205 7.38609   3
  10  -3  -2 653.361 31.9549   7
  -3  -7  -2 647.922 28.1657   1
  10  -3  -2 691.768 30.5843   2
  -7  10  -2 629.445 27.5382   2
   3   7   2 677.207 28.3897   6
 -10   3   2 653.043 29.7305   1
   7 -10   2 615.714 27.9485   1
   3   7   2 623.419 23.6346   2
   3   7   2 707.018 33.8750   5
  13  -6  -2 70.5368 16.6914   2
  -6  -7  -2 77.3077 17.9991   1
  -7  13  -2 38.0773 11.2607   2
   7 -13   2 60.1683 13.8258   1
 -13   6   2 67.3512 16.3249   1
   6   7   2 71.0603 10.5255   2
  -8  -6  -2 250.064 27.9361   1
  -6  14  -2 220.514 18.2427   2
  14  -8  -2 243.883 25.5893   2
   8   6   2 256.485 17.2331   2
   6 -14   2 264.993 24.0887   1
 -14   8   2 228.300 25.5287   1
  11  -8  -2 753.108 33.4166   2
  -3  11  -2 714.735 22.8988   2
  -3  11  -2 731.688 29.9136   5
  -8  -3  -2 755.697 37.2851   1
   3 -11   2 684.463 27.9578   1
 -11   8   2 701.269 32.8277   2
 -11   8   2 662.663 32.4413   1
   3 -11   2 728.653 28.5929   3
   8   3   2 710.888 30.8238   2
  -8   0  -2 31.7090 12.7447   1
   0   8  -2 21.9697 9.17458   5
   8  -8  -2 23.5662 9.10841   1
   8  -8  -2 12.3369 8.61309   2
   8   0   2 27.4391 11.8560   2
  -8   8   2 24.9647 9.34774   2
   0  -8   2 18.6482 6.78994   3
   0  -8   2 26.4486 7.09783   1
   8   0   2 42.1563 13.4058   7
  -8   8   2 25.3760 8.86830   1
   5  -8  -2 3316.11 71.0200   2
   5  -8  -2 3350.29 70.0629   3
  -8   3  -2 3379.20 74.3015   1
   5  -8  -2 3252.59 69.0182   1
  -8   3  -2 3336.51 74.0993   2
   8  -3   2 3261.74 78.8650   7
   8  -3   2 3353.81 76.0299   2
  -5   8   2 3384.92 70.8953   2
  -3  -5   2 3243.36 62.1645   1
   6   2  -2 88.6461 6.03412   2
  -8   6  -2 101.022 12.7183   1
   2  -8  -2 106.406 12.1657   1
   6   2  -2 86.6192 11.2549   4
   6   2  -2 92.6991 8.96180   6
   6   2  -2 104.972 6.74758   2
  -8   6  -2 85.9786 12.5674   2
  -2   8   2 98.7604 12.1147   5
   8  -6   2 90.6372 12.2484   2
   8  -6   2 88.5133 11.9832   1
  -2   8   2 77.3253 10.6155   2
  -6  -2   2 134.228 15.5333   1
  -6  -2   2 86.2987 10.9680   3
   9  -1  -2 279.328 22.1810   7
  -8   9  -2 251.083 19.6065   2
  -1  -8  -2 255.186 17.6668   1
   9  -1  -2 228.331 19.0580   2
   8  -9   2 264.426 19.6072   1
   1   8   2 228.793 20.2173   5
   1   8   2 240.842 15.5556   2
  -9   1   2 239.214 21.1489   1
  -9   1   2 251.329 22.0898   1
   8  -9   2 248.809 19.7193   2
  -4  -8  -2 199.800 21.1835   1
  12  -4  -2 193.711 21.3733   2
  -8  12  -2 190.857 19.3190   2
  12  -4  -2 242.828 25.1806   7
   4   8   2 197.167 14.9780   2
 -12   4   2 208.306 22.0668   1
   8 -12   2 186.207 19.5730   1
  15  -7  -2 18.6319 15.8299   2
  -8  15  -2 -8.8351 10.2299   2
  -7  -8  -2 4.73592 15.8466   1
  15  -7  -2 21.5702 16.1531   7
 -15   7   2 -3.8917 13.3421   1
   8 -15   2 0.55240 11.3686   1
  -9  -7  -2 369.281 35.0519   1
  16  -9  -2 302.191 31.0664   2
  -7  16  -2 274.050 20.9075   2
 -16   9   2 286.352 31.8005   1
   7 -16   2 326.956 28.0311   1
  -4  13  -2 769.756 25.0392   2
  -4  13  -2 835.625 35.3286   5
  -9  -4  -2 708.057 39.9658   1
  13  -9  -2 758.080 38.0785   2
  13  -9  -2 773.011 37.7675   2
   4 -13   2 722.372 32.4934   3
   4 -13   2 788.126 32.4707   1
   9   4   2 709.618 30.3266   2
 -13   9   2 744.211 37.7487   1
  -9  -1  -2 1456.36 52.2513   1
  10  -9  -2 1483.13 47.3108   2
  -1  10  -2 1477.66 43.1334   5
   9   1   2 1401.10 47.1143   2
   1 -10   2 1408.85 39.7443   3
   1 -10   2 1365.56 39.2089   1
 -10   9   2 1500.97 47.5017   2
 -10   9   2 1490.37 46.4714   1
   7  -9  -2 518.712 24.9449   2
  -9   2  -2 540.466 30.3369   1
   2   7  -2 497.973 26.3121   5
   7  -9  -2 482.242 23.6124   1
  -9   2  -2 442.781 28.6733   1
  -9   2  -2 466.821 27.1281   2
   9  -2   2 534.423 30.1481   2
  -2  -7   2 491.250 18.8301   1
  -7   9   2 506.741 25.0520   2
   9  -2   2 482.821 31.0341   7
   4  -9  -2 1434.76 39.6885   3
  -9   5  -2 1434.14 42.9710   2
   4  -9  -2 1312.69 38.7689   1
   5   4  -2 1382.69 32.7802   6
   4  -9  -2 1403.66 41.3128   2
  -9   5  -2 1332.22 41.6785   1
  -5  -4   2 1342.47 40.8412   3
  -4   9   2 1368.51 39.2575   2
  -5  -4   2 1368.92 37.1619   1
   9  -5   2 1396.11 41.5336   1
   9  -5   2 1384.86 43.6475   2
  -9   8  -2 256.710 20.0088   2
   8   1  -2 242.671 14.0443   2
   1  -9  -2 244.030 17.5185   1
   9  -8   2 210.268 19.0047   2
   9  -8   2 247.863 20.1480   1
  -1   9   2 250.236 18.9869   5
  -8  -1   2 243.393 21.5437   1
  -1   9   2 249.778 16.2844   2
  11  -2  -2 384.088 27.8290   7
  -2  -9  -2 322.807 22.3808   1
  11  -2  -2 333.971 25.0825   2
  -9  11  -2 340.508 23.6712   2
   2   9   2 385.660 19.2777   2
   2   9   2 359.975 28.6689   5
 -11   2   2 351.705 27.0104   1
   9 -11   2 392.391 24.9131   1
  14  -5  -2 327.259 29.5583   2
  14  -5  -2 319.244 30.9174   7
  -5  -9  -2 303.826 29.5531   1
  -9  14  -2 273.838 23.5132   2
 -14   5   2 240.413 26.5123   1
   5   9   2 296.005 15.1948   2
   9 -14   2 260.508 25.2509   1
  -9  17  -2 257.705 23.0032   2
  17  -8  -2 344.766 35.0297   2
  -8  -9  -2 338.526 35.4115   1
   9 -17   2 294.940 29.3781   1
 -17   8   2 299.801 32.8186   1
  15 -10  -2 57.6906 18.0378   2
 -10  -5  -2 63.9252 19.8296   1
   5 -15   2 64.2706 15.4630   1
  10   5   2 90.7081 12.7576   2
 -10  -2  -2 47.3363 17.1509   1
  -2  12  -2 41.3565 13.0032   5
  12 -10  -2 34.4945 13.5009   2
   2 -12   2 54.1985 11.8399   3
  10   2   2 11.4897 11.7839   2
 -12  10   2 37.7054 14.0314   2
   2 -12   2 30.0514 10.5151   1
 -10   1  -2 1455.03 53.4303   1
 -10   1  -2 1424.83 52.0963   1
   1   9  -2 1431.73 45.4411   5
   9 -10  -2 1379.44 45.7994   2
   9 -10  -2 1456.98 45.6112   1
  10  -1   2 1436.73 52.9878   7
  -9  10   2 1485.50 46.3564   2
  -1  -9   2 1388.39 37.9186   1
  10  -1   2 1463.44 49.6563   2
 -10   4  -2 61.4126 13.9123   1
   6 -10  -2 99.4947 14.4496   2
 -10   4  -2 78.3001 15.2614   2
   6 -10  -2 65.9169 11.9689   1
  -4  -6   2 62.1446 9.97185   1
  10  -4   2 78.0986 15.2404   7
  10  -4   2 51.1349 13.6972   2
  -6  10   2 78.7226 13.1321   2
   3 -10  -2 613.346 26.9986   1
   7   3  -2 649.419 28.0296   4
 -10   7  -2 669.379 30.1829   1
 -10   7  -2 713.198 31.5038   2
  10  -7   2 644.443 30.4881   2
  10  -7   2 684.153 30.5502   2
  -3  10   2 636.224 26.1747   2
  10  -7   2 630.456 29.9729   1
  -3  10   2 614.853 27.7252   5
  -7  -3   2 675.778 31.4387   1
  10   0  -2 104.866 12.9740   2
 -10  10  -2 99.0283 15.3851   2
   0 -10  -2 100.009 14.6816   1
 -10   0   2 151.920 20.2386   1
  10 -10   2 99.2318 15.4686   1
   0  10   2 128.257 13.5154   2
   0  10   2 99.7887 16.3720   5
 -10   0   2 139.039 19.4312   1
  13  -3  -2 25.9576 14.1017   2
 -10  13  -2 -4.1440 10.2109   2
  -3 -10  -2 31.4753 12.8294   1
  10 -13   2 10.9617 11.7303   1
 -13   3   2 43.1010 15.9952   1
   3  10   2 9.77735 7.35316   2
  -6 -10  -2 22.7892 17.6617   1
 -10  16  -2 6.33562 11.9179   2
  16  -6  -2 -3.0621 15.4667   2
  10 -16   2 7.68219 13.6107   1
 -16   6   2 -7.5337 16.3133   1
 -11  -6  -2 -17.250 15.1875   1
  17 -11  -2 7.36338 15.9038   2
   6 -17   2 -0.0029 12.2768   1
 -11  -3  -2 336.347 32.3979   1
  14 -11  -2 330.223 30.1921   2
   3 -14   2 372.743 26.2733   1
  11   3   2 385.897 25.1490   2
   0  11  -2 880.155 37.1595   5
  11 -11  -2 757.554 37.2947   2
 -11   0  -2 841.617 43.2326   1
   0 -11   2 811.481 31.1208   1
  11   0   2 757.505 36.5063   2
 -11  11   2 869.814 37.8705   2
 -11   3  -2 630.008 35.9611   1
   8 -11  -2 667.673 32.1978   2
   8 -11  -2 700.312 31.7256   1
  11  -3   2 713.255 37.4888   2
  -3  -8   2 685.546 25.7688   1
  11  -3   2 617.461 37.6992   7
  -8  11   2 676.805 31.6763   2
 -11   6  -2 40.2679 12.8111   1
   5 -11  -2 12.6245 9.54999   1
 -11   6  -2 25.7019 11.6496   2
  11  -6   2 19.3709 11.6970   2
  -5  11   2 7.34101 8.83393   2
  -6  -5   2 9.74165 10.1497   1
 -11   9  -2 370.627 26.1195   2
   2 -11  -2 382.270 23.7507   1
  -2  11   2 351.502 20.4606   2
  -2  11   2 366.735 24.2692   5
  11  -9   2 356.462 26.5468   2
  11  -9   2 357.015 26.0975   1
  -9  -2   2 354.994 27.7571   1
  12  -1  -2 1070.16 36.6776   2
 -11  12  -2 1007.69 42.1451   2
  -1 -11  -2 1005.19 39.2061   1
   1  11   2 1085.70 45.3541   5
   1  11   2 1053.83 31.9484   2
  11 -12   2 1047.17 42.5531   1
 -12   1   2 1067.51 46.7022   1
 -11  15  -2 573.507 33.9526   2
  -4 -11  -2 656.062 38.1605   1
  15  -4  -2 682.075 35.7398   2
  11 -15   2 745.800 39.9952   1
 -15   4   2 687.760 43.4555   1
 -12  -4  -2 57.7664 19.8371   1
  16 -12  -2 48.0109 17.5829   2
  16 -12  -2 42.5286 17.0811   2
   4 -16   2 15.0848 13.4936   1
 -12  -1  -2 373.760 34.2361   1
  13 -12  -2 440.788 32.0696   2
   1 -13   2 446.320 26.7101   1
  12   1   2 393.916 26.8918   2
 -13  12   2 383.563 30.5263   2
  10 -12  -2 25.1853 12.8693   1
  10 -12  -2 25.1827 13.3127   2
 -12   2  -2 44.4659 17.6980   1
   2  10  -2 38.0241 15.5107   5
 -10  12   2 44.2210 13.3705   2
  -2 -10   2 21.9004 10.1026   1
  12  -2   2 10.8384 14.9520   7
  12  -2   2 14.6740 13.6522   2
 -12   5  -2 1085.78 45.2304   1
   7 -12  -2 1155.59 40.1878   1
  12  -5   2 1061.81 46.7775   7
  -5  -7   2 1055.01 36.4318   1
  12  -5   2 998.843 45.1136   2
  -7  12   2 1031.27 38.9262   2
   4 -12  -2 174.551 19.0709   1
 -12   8  -2 173.506 21.0486   2
  -4  12   2 183.407 17.5095   2
  12  -8   2 185.813 21.7025   2
  -4  12   2 215.970 21.0010   5
  -8  -4   2 205.836 22.0296   1
   1 -12  -2 1052.18 40.6981   1
  11   1  -2 1031.20 26.8257   2
 -12  11  -2 1107.56 44.3576   2
 -11  -1   2 1072.70 46.2849   1
 -11  -1   2 879.009 45.1330   1
  -1  12   2 1135.14 34.6353   2
  -1  12   2 1100.17 42.7530   5
  14  -2  -2 281.817 23.3106   2
  -2 -12  -2 346.144 27.7840   1
 -12  14  -2 375.060 29.4694   2
   2  12   2 365.564 34.5973   5
  12 -14   2 342.320 30.6940   1
 -14   2   2 317.763 32.6779   1
  -5 -12  -2 373.543 36.0699   1
 -12  17  -2 388.952 31.4814   2
  17  -5  -2 427.250 31.5222   2
  12 -17   2 472.357 36.5530   1
 -17   5   2 444.989 41.1001   1
 -13  -2  -2 121.933 24.1484   1
  15 -13  -2 125.297 22.8757   2
 -15  13   2 126.255 23.0233   2
   2 -15   2 125.321 19.2959   1
  13   2   2 137.015 17.1076   2
  12 -13  -2 408.759 32.5298   2
 -13   1  -2 430.924 38.8367   1
 -12  13   2 398.319 30.6917   2
  -1 -12   2 427.765 26.0193   1
  13  -1   2 399.356 29.8650   2
   9 -13  -2 772.035 37.0894   1
 -13   4  -2 865.273 45.6857   1
  13  -4   2 723.703 42.1178   2
  -4  -9   2 748.988 31.7695   1
  13  -4   2 810.897 45.1878   7
  -9  13   2 790.992 36.6914   2
 -13   7  -2 51.3552 15.8969   1
 -13   7  -2 29.4272 14.3914   2
   6 -13  -2 60.9216 14.1140   1
  -6  13   2 56.8101 13.7466   2
  -7  -6   2 39.2186 14.7128   1
  13  -7   2 54.5856 16.3219   2
   3 -13  -2 12.7501 11.2671   1
 -13  10  -2 11.1313 13.4479   2
  -3  13   2 9.87601 12.2648   5
 -10  -3   2 22.3787 15.6889   1
  13 -10   2 2.92626 13.5055   2
  13 -10   2 10.7564 13.4033   2
  -3  13   2 20.8849 10.2022   2
   0 -13  -2 1554.38 53.1230   1
 -13  13  -2 1575.65 56.7932   2
   0  13   2 1583.20 58.0698   5
   0  13   2 1562.12 40.6258   2
 -13   0   2 1571.60 61.5631   1
  16  -3  -2 49.8394 13.8054   2
 -13  16  -2 32.6578 15.8468   2
  -3 -13  -2 85.0536 19.7898   1
 -16   3   2 67.9772 23.0925   1
  14 -14  -2 388.683 34.7248   2
 -14   0  -2 409.332 39.4386   1
   0 -14   2 373.249 28.2280   1
  14   0   2 360.658 26.6521   2
 -14  14   2 426.441 33.5791   2
 -14   3  -2 379.962 36.7059   1
  14  -3   2 414.684 32.1659   2
  14  -3   2 373.071 35.1141   7
 -11  14   2 319.934 29.0723   2
  -3 -11   2 372.663 24.9214   1
   8 -14  -2 282.881 26.2512   1
 -14   6  -2 270.376 30.5119   1
  14  -6   2 266.026 30.7155   7
  14  -6   2 266.503 29.4744   2
  -8  14   2 216.856 22.4018   2
  -6  -8   2 261.839 25.1386   1
 -14   9  -2 277.921 28.3954   2
   5 -14  -2 253.527 24.9499   1
  -5  14   2 300.610 23.5587   2
  -9  -5   2 284.033 28.1377   1
  -5  14   2 258.610 25.1445   5
  14  -9   2 311.810 30.1972   2
   2 -14  -2 308.015 27.7796   1
 -14  12  -2 280.070 29.1863   2
  -2  14   2 314.675 21.1526   2
 -12  -2   2 375.472 33.5963   1
 -12  -2   2 338.666 33.6569   1
  -2  14   2 296.668 28.6895   5
  -1 -14  -2 29.3319 15.3707   1
 -14  15  -2 31.9088 16.3695   2
 -15   1   2 33.3028 19.4376   1
 -15   2  -2 113.829 26.0858   1
  15  -2   2 161.582 22.6740   2
 -13  15   2 148.792 22.3673   2
  -2 -13   2 135.061 18.9402   1
  10 -15  -2 59.8717 17.4025   1
 -15   5  -2 73.4767 22.0501   1
 -10  15   2 76.8245 17.2275   2
  15  -5   2 126.643 25.6121   7
  -5 -10   2 78.9325 16.9268   1
  15  -5   2 68.6298 20.6531   2
   7 -15  -2 18.5107 12.9440   1
  -8  -7   2 11.6847 15.4976   1
  -7  15   2 8.91123 10.8143   2
  15  -8   2 -8.4526 13.9062   2
  15  -8   2 5.97689 15.5585   7
   4 -15  -2 665.107 37.0505   1
 -15  11  -2 645.613 40.3608   2
  -4  15   2 699.692 38.2882   5
  -4  15   2 656.169 30.1898   2
  15 -11   2 606.348 41.1297   2
 -11  -4   2 637.525 40.7279   1
   1 -15  -2 51.4517 16.5048   1
 -15  14  -2 23.1947 15.9671   2
 -14  -1   2 25.3170 19.3513   1
 -16   4  -2 33.3557 21.0937   1
  16  -4   2 44.9672 18.8231   2
 -12  16   2 48.8719 15.8287   2
  -4 -12   2 43.4568 15.7892   1
   9 -16  -2 309.983 30.5495   1
  -7  -9   2 323.311 30.9705   1
  -9  16   2 341.484 27.7845   2
  16  -7   2 388.523 37.2023   2
   6 -16  -2 24.6696 14.0448   1
  -6  16   2 15.8511 11.2429   2
 -10  -6   2 14.9196 15.5943   1
  16 -10   2 12.9178 17.2187   2
 -16  13  -2 74.7128 21.1170   2
   3 -16  -2 49.7957 16.9151   1
 -13  -3   2 35.1209 18.5760   1
  -3  16   2 67.8510 12.2220   2
 -13  -3   2 81.1817 22.4368   1
  16 -13   2 72.1834 21.7912   2
  16 -13   2 71.3832 22.2266   2
  -6 -11   2 27.8091 16.3904   1
  17  -6   2 -7.8389 16.1651   2
 -11  17   2 24.6488 13.3150   2
   8 -17  -2 283.010 29.4822   1
  -8  17   2 288.002 26.2408   2
  -9  -8   2 283.158 30.1808   1
  17  -9   2 327.746 35.9721   2
   5 -17  -2 440.276 34.3589   1
 -17  12  -2 404.276 37.6268   2
  -5  17   2 413.891 25.0120   2
  17 -12   2 461.212 40.4615   2
 -12  -5   2 417.551 35.7980   1
   0   0   3 -8.6576 2.68391   5
   0   0   3 -6.8447 5.97807   7
   2  -1  -3 794.022 16.9769   6
   2  -1  -3 786.535 17.0726   2
   1   1   3 767.050 20.7748   5
  -2   1  -3 799.483 24.2472   2
   1  -2  -3 770.439 19.9903   6
   1  -2  -3 800.311 19.5616   2
  -1   2   3 790.620 20.0942   6
  -2   4  -3 7853.50 129.752   2
  -2  -2  -3 7661.00 139.337   2
   4  -2  -3 7952.09 131.295   2
   2   2   3 7687.55 130.617   5
   2   2   3 7810.35 137.146   2
   2  -4   3 8117.87 128.972   3
   0   3  -3 1.13526 4.05848   5
   3  -3  -3 2.56737 4.74932   6
  -3   0  -3 -5.5195 8.52352   2
   3  -3  -3 -2.9582 4.93750   2
   3   0   3 3.17128 9.41418   2
   0  -3   3 0.36211 2.47842   3
   3   0   3 1.12021 10.5336   7
   0  -3  -3 0.98053 5.47363   6
   0  -3  -3 1.32155 5.51943   2
  -3   3  -3 -0.3472 6.09732   2
   3   0  -3 0.63975 4.20913   7
   0   3   3 1.28765 5.35105   6
   0   3   3 -0.3942 5.70493   5
   0   3   3 4.37397 6.05391   2
  -3   6  -3 563.837 18.1310   2
   6  -3  -3 560.635 20.2062   2
  -3  -3  -3 550.362 23.4797   1
  -3  -3  -3 570.817 26.8666   2
   3  -6   3 587.274 18.9988   1
  -6   3   3 582.159 20.4905   1
   3   3   3 560.086 22.7522   2
   3  -6   3 590.531 19.0999   3
   5  -4  -3 107.302 10.4094   2
  -4  -1  -3 126.591 14.7944   2
   4   1   3 99.7596 14.2612   2
   1  -5   3 102.182 7.80311   3
  -5   4   3 100.336 10.0881   2
   2  -4  -3 7789.61 134.435   2
  -4   2  -3 7768.36 137.684   2
   2  -4  -3 7891.85 133.337   6
   4  -2   3 7890.72 137.177   2
  -2   4   3 7963.85 134.802   2
  -2  -2   3 8077.83 123.895   6
  -4   5  -3 772.117 23.4743   2
  -1  -4  -3 770.629 26.5355   2
   5  -1  -3 774.918 23.6264   7
  -1  -4  -3 766.417 24.0556   1
   5  -1  -3 780.956 22.8999   2
   1   4   3 736.667 24.0955   2
   4  -5   3 805.395 23.5904   1
   1   4   3 776.432 25.0233   5
   1   4   3 785.701 24.9984   6
   4  -5   3 765.479 22.8934   3
  -5   1   3 730.828 21.2666   1
   8  -4  -3 427.248 20.6530   2
  -4  -4  -3 463.993 24.0959   1
   8  -4  -3 448.819 21.1584   2
  -4   8  -3 440.731 18.1439   2
   4   4   3 420.463 22.8300   6
  -8   4   3 430.579 20.6371   1
   4   4   3 486.833 22.3577   2
   4  -8   3 424.334 18.7663   3
  -8   4   3 438.760 20.9872   2
   4  -8   3 448.399 19.1321   1
  -2   7  -3 92.1143 7.42729   2
  -5  -2  -3 76.7800 14.2561   1
   7  -5  -3 69.5458 9.99603   2
  -5  -2  -3 98.6631 15.0593   2
  -2   7  -3 95.0879 7.26166   2
   2  -7   3 90.2794 9.11575   3
  -7   5   3 80.2017 10.8311   1
   2  -7   3 92.8846 9.12497   1
   5   2   3 87.8339 13.8014   2
  -7   5   3 93.6647 11.4750   2
  -5   1  -3 112.188 13.5292   2
   4  -5  -3 105.671 10.4435   2
   1   4  -3 125.562 11.3270   5
   5  -1   3 101.993 14.6340   7
  -4   5   3 117.120 11.3426   2
  -1  -4   3 106.211 5.96959   3
   5  -1   3 100.093 13.7854   2
  -1  -4   3 99.3590 8.03951   6
   1  -5  -3 801.099 24.5933   2
  -5   4  -3 754.133 25.3622   2
   1  -5  -3 751.106 24.4866   6
  -1   5   3 774.936 23.7711   2
   5  -4   3 785.345 24.7525   2
  -4  -1   3 809.690 19.1307   3
  -1   5   3 753.074 24.4528   6
   7  -2  -3 151.006 13.4287   2
  -5   7  -3 154.027 13.4237   2
  -2  -5  -3 192.438 15.0302   1
  -2  -5  -3 167.615 17.5705   2
   5  -7   3 164.465 13.3863   2
   2   5   3 173.904 13.8668   2
   2   5   3 160.021 14.3339   6
   5  -7   3 163.788 13.5359   1
   2   5   3 162.761 15.9417   5
   5  -7   3 142.652 12.7286   3
  -7   2   3 144.225 13.1700   1
  10  -5  -3 269.399 20.7009   2
  -5  -5  -3 256.339 22.5994   1
  -5  10  -3 261.603 16.5400   2
   5   5   3 297.059 22.1180   6
   5 -10   3 263.406 18.2524   3
   5 -10   3 274.596 18.1877   1
   5   5   3 287.543 19.6926   2
 -10   5   3 287.851 20.6103   1
  -6  -3  -3 41.3343 13.4773   1
   9  -6  -3 59.3886 11.3974   2
  -3   9  -3 65.1446 8.11656   2
  -9   6   3 42.2213 10.6738   1
   3  -9   3 59.5769 9.61928   3
   3  -9   3 49.0559 9.14806   1
   6   3   3 39.1149 11.5438   2
  -9   6   3 65.1595 11.6468   2
  -6   0  -3 -3.6010 9.47298   1
   0   6  -3 5.45053 6.14310   5
  -6   0  -3 4.99700 9.80656   2
   6  -6  -3 -3.8028 5.81436   2
   0  -6   3 -0.4850 3.94687   3
  -6   6   3 7.06722 6.50961   2
   0  -6   3 1.37060 5.08356   6
   0  -6   3 -0.2219 3.82362   1
  -6   6   3 8.25520 6.46445   1
   6   0   3 12.9650 11.1238   7
   6   0   3 13.4051 10.3260   2
   3  -6  -3 556.751 21.3038   1
   3  -6  -3 609.766 22.1629   2
  -6   3  -3 564.043 23.8163   2
  -3  -3   3 581.885 16.4146   3
  -3   6   3 579.568 21.8377   2
  -3  -3   3 607.031 14.8949   1
   6  -3   3 598.786 24.5495   2
   0  -6  -3 -5.0471 5.40112   1
  -6   6  -3 7.93686 7.11909   2
   6   0  -3 -1.7501 5.87075   2
   0  -6  -3 7.49210 6.94086   2
   0   6   3 -5.6547 6.32986   5
   6  -6   3 10.6344 6.48275   3
  -6   0   3 -11.818 5.74366   1
   0   6   3 -3.8908 5.48769   2
   0   6   3 2.37788 5.86305   6
   6  -6   3 -2.9939 6.06336   2
   6  -6   3 -3.3265 5.92172   1
  -6   0   3 -1.9448 4.80669   3
   9  -3  -3 31.8504 11.0641   7
  -6   9  -3 21.8970 8.44657   2
  -3  -6  -3 37.8890 10.2203   1
   9  -3  -3 37.0068 10.1065   2
   3   6   3 29.6386 8.80191   2
   6  -9   3 37.9183 9.71790   1
  -9   3   3 21.2391 8.86648   1
   3   6   3 26.3612 9.15933   6
   6  -9   3 36.3573 8.89179   3
   3   6   3 27.2693 12.0989   5
  -6  12  -3 1312.39 38.8106   2
  -6  -6  -3 1357.79 50.6784   1
  12  -6  -3 1353.10 45.8046   2
   6 -12   3 1326.75 42.8367   1
 -12   6   3 1297.91 45.6998   1
   6 -12   3 1364.98 42.7747   3
   6   6   3 1347.24 40.8092   2
  11  -7  -3 108.636 15.3982   2
  11  -7  -3 151.556 17.6980   2
  -4  11  -3 125.512 11.5051   2
  -7  -4  -3 143.406 20.5364   1
   7   4   3 136.225 16.5382   2
   4 -11   3 118.259 14.0667   3
   7   4   3 143.824 18.9468   6
 -11   7   3 116.743 16.7162   1
   4 -11   3 122.865 14.3842   1
  -7  -1  -3 145.743 19.0077   1
  -1   8  -3 136.179 13.3823   5
   8  -7  -3 194.074 17.1226   2
   1  -8   3 141.023 11.5343   3
  -8   7   3 170.999 15.7321   1
  -8   7   3 153.228 16.0838   2
   1  -8   3 143.536 11.3712   1
   7   1   3 182.763 19.5591   2
  -7   2  -3 72.3281 12.9179   1
  -7   2  -3 80.2461 12.3655   2
   5  -7  -3 71.8162 10.6727   2
   5  -7  -3 80.8556 10.4087   1
  -7   2  -3 56.1534 12.4540   1
   7  -2   3 76.0163 14.1990   7
   7  -2   3 77.5729 13.7186   2
  -2  -5   3 86.9787 6.75885   1
  -5   7   3 82.7495 11.1224   2
  -2  -5   3 84.5211 8.06763   6
   5   2  -3 187.869 14.9826   4
  -7   5  -3 151.259 14.9428   2
   2  -7  -3 177.678 13.8049   1
   5   2  -3 164.319 8.07725   6
   2  -7  -3 168.681 14.3142   2
  -2   7   3 170.937 13.7893   2
  -5  -2   3 148.939 13.7053   1
   7  -5   3 159.358 14.9452   2
   7  -5   3 203.519 17.3386   1
  -5  -2   3 156.446 10.9040   3
  -7   8  -3 58.6958 10.8850   2
   8  -1  -3 56.9529 12.0567   7
   8  -1  -3 46.3225 10.7313   2
  -1  -7  -3 58.9530 10.5028   1
   7  -8   3 57.3853 10.4907   3
   7  -8   3 52.9932 10.8548   2
   7  -8   3 46.4033 10.6402   1
   1   7   3 65.6657 11.9964   5
  -8   1   3 58.7717 11.2196   1
   1   7   3 58.7537 10.4963   6
   1   7   3 71.9749 10.4106   2
  11  -4  -3 1194.26 42.0898   2
  -4  -7  -3 1205.68 43.1998   1
  11  -4  -3 1250.63 44.2218   7
  -7  11  -3 1261.56 39.4467   2
   4   7   3 1210.65 36.9545   2
   4   7   3 1337.97 42.9456   6
 -11   4   3 1206.85 41.9080   1
   7 -11   3 1200.02 40.1301   1
  -7  14  -3 445.251 24.3432   2
  14  -7  -3 386.791 29.9976   2
  -7  -7  -3 449.384 35.5375   1
 -14   7   3 424.894 30.9847   1
   7 -14   3 445.265 28.6111   1
   7   7   3 453.227 23.1188   2
  -8  -5  -3 125.086 22.2801   1
  13  -8  -3 125.043 18.7143   2
  -5  13  -3 128.001 12.8658   2
   5 -13   3 135.513 16.6423   1
   5 -13   3 120.568 16.6197   3
   8   5   3 115.896 15.5490   2
 -13   8   3 137.856 20.3031   1
  -2  10  -3 183.336 16.6098   5
  10  -8  -3 161.579 18.0854   2
  -8  -2  -3 149.845 20.8113   1
   8   2   3 150.265 18.0188   2
   2 -10   3 179.643 14.8538   1
 -10   8   3 174.053 18.3916   1
 -10   8   3 153.485 17.3356   2
   2 -10   3 169.365 14.8900   3
  -8   1  -3 140.642 18.7018   1
  -8   1  -3 118.048 17.0613   2
   1   7  -3 183.525 16.4869   5
   7  -8  -3 148.396 14.6367   1
   7  -8  -3 167.873 16.1898   2
  -1  -7   3 155.155 10.8281   1
   8  -1   3 144.481 19.0036   2
   8  -1   3 196.998 22.3955   7
  -7   8   3 142.170 14.4955   1
  -7   8   3 171.797 15.5869   2
   4  -8  -3 471.137 21.4582   1
   4  -8  -3 421.811 20.3485   3
  -8   4  -3 403.217 23.3772   2
  -8   4  -3 444.708 23.8148   1
   4  -8  -3 446.156 21.8583   2
   8  -4   3 440.783 23.5009   1
   8  -4   3 420.077 23.5086   2
  -4  -4   3 457.616 16.1688   1
  -4   8   3 445.572 21.0753   2
  -4  -4   3 429.745 20.0961   3
   7   1  -3 58.5065 10.5839   4
   1  -8  -3 48.9459 9.68640   1
  -8   7  -3 63.1229 11.8204   2
   7   1  -3 54.4894 4.62762   2
   7   1  -3 66.1585 4.96404   2
   8  -7   3 62.8499 11.7301   1
  -1   8   3 38.5863 9.95099   5
   8  -7   3 52.0657 11.4829   2
  -7  -1   3 40.6147 8.37341   3
  -7  -1   3 70.9652 12.0921   1
  -1   8   3 54.1806 9.42686   2
  10  -2  -3 214.652 19.4973   2
  10  -2  -3 229.683 21.7970   7
  -2  -8  -3 180.245 17.8057   1
  -8  10  -3 191.345 18.4495   2
   2   8   3 175.919 20.1914   5
   2   8   3 156.968 15.0472   2
   8 -10   3 176.306 17.8942   1
 -10   2   3 190.277 19.1967   1
   2   8   3 226.554 19.5772   6
  13  -5  -3 9.35512 12.8113   2
  -8  13  -3 26.3739 10.8508   2
  13  -5  -3 14.2432 14.4880   7
  -5  -8  -3 22.4407 14.6606   1
 -13   5   3 10.7313 12.8839   1
   5   8   3 3.83073 8.27027   2
   8 -13   3 4.22971 10.5770   1
  -8  -8  -3 21.6669 18.1529   1
  -8  16  -3 8.79690 10.2768   2
  16  -8  -3 19.7983 16.9367   2
   8 -16   3 11.8543 13.0899   1
 -16   8   3 -7.3694 15.5365   1
  15  -9  -3 126.334 21.2815   2
  -9  -6  -3 105.391 21.9654   1
 -15   9   3 93.0891 20.4939   1
   9   6   3 123.253 15.3112   2
   6 -15   3 108.523 17.5472   1
  -9  -3  -3 472.286 33.8405   1
  12  -9  -3 511.271 30.4356   2
  -3  12  -3 512.769 27.2947   5
 -12   9   3 555.060 31.0949   1
   3 -12   3 455.276 24.3009   3
   3 -12   3 478.404 24.4096   1
   9   3   3 455.778 28.4013   2
   0   9  -3 -17.741 8.11088   5
  -9   0  -3 -6.3770 11.4683   1
   9  -9  -3 2.33268 8.74169   2
  -9   9   3 10.0673 9.19130   1
   9   0   3 2.38882 10.9045   2
   0  -9   3 2.34123 6.13037   3
  -9   9   3 -3.8028 8.55845   2
   0  -9   3 -2.9789 6.04038   1
  -9   3  -3 36.9988 12.9162   1
  -9   3  -3 37.5689 11.9899   2
   6  -9  -3 37.6610 9.81514   1
   6  -9  -3 59.3686 11.0276   2
   9  -3   3 59.8513 14.5102   7
  -3  -6   3 54.7881 7.75033   1
   9  -3   3 70.6829 15.1735   2
  -6   9   3 61.2379 11.6231   2
   6   3  -3 31.7492 9.76180   4
   3  -9  -3 51.9655 10.0408   1
  -9   6  -3 16.5267 9.51413   1
  -9   6  -3 37.3080 10.9831   2
  -3   9   3 37.2316 9.08522   2
  -6  -3   3 35.1274 8.83843   3
  -6  -3   3 42.4208 11.3134   1
   9  -6   3 27.8970 10.0156   2
   9  -6   3 35.1670 11.1726   1
   9  -6   3 28.7007 10.5787   2
  -9   9  -3 7.59092 9.72851   2
   9   0  -3 6.91308 6.82353   2
   0  -9  -3 -7.3817 7.64491   1
   0   9   3 5.69558 9.33262   5
   9  -9   3 3.03704 9.21755   1
  -9   0   3 12.1481 10.8372   1
  -9   0   3 8.08662 10.3638   1
   0   9   3 6.01311 7.64860   2
  12  -3  -3 967.799 38.9449   2
  12  -3  -3 1024.32 43.2151   7
  -9  12  -3 984.361 37.9492   2
  -3  -9  -3 1046.90 40.3312   1
   3   9   3 1026.70 33.1672   2
   9 -12   3 1005.97 39.4294   1
   3   9   3 940.472 43.8130   5
 -12   3   3 1002.76 41.0465   1
  -9  15  -3 321.494 24.8585   2
  15  -6  -3 356.093 30.8147   2
  -6  -9  -3 326.122 32.1179   1
 -15   6   3 321.632 30.9267   1
   6   9   3 357.786 19.0792   2
   9 -15   3 333.978 29.2290   1
  17 -10  -3 438.587 37.8148   2
 -10  -7  -3 470.946 40.5296   1
   7 -17   3 469.776 33.1973   1
  14 -10  -3 847.779 41.4204   2
 -10  -4  -3 851.931 44.7353   1
  14 -10  -3 772.544 41.1685   2
   4 -14   3 928.867 37.2569   3
   4 -14   3 840.278 36.3610   1
  10   4   3 863.709 35.7016   2
  -1  11  -3 155.403 17.9764   5
  11 -10  -3 144.566 18.9606   2
 -10  -1  -3 144.665 21.8170   1
   1 -11   3 144.182 15.1049   3
 -11  10   3 166.176 20.2911   2
   1 -11   3 152.677 15.6763   1
  10   1   3 197.032 21.9875   2
   2   8  -3 233.598 21.6867   5
   8 -10  -3 171.695 18.2072   2
 -10   2  -3 137.121 20.3728   1
 -10   2  -3 159.156 21.7582   1
   8 -10  -3 168.792 18.0214   1
  10  -2   3 159.109 23.0511   7
  -8  10   3 168.125 18.2510   2
  -2  -8   3 157.857 13.0763   1
  10  -2   3 141.862 20.8268   2
 -10   5  -3 293.220 24.4873   2
   5 -10  -3 277.400 22.8760   2
   5 -10  -3 233.041 19.0008   1
 -10   5  -3 281.131 23.6162   1
  -5  10   3 252.356 19.4306   2
  -5  -5   3 257.890 16.7358   1
  10  -5   3 311.908 24.2385   2
  -5  -5   3 235.357 20.0433   3
   2 -10  -3 177.109 17.0497   1
 -10   8  -3 163.582 18.3803   2
  -8  -2   3 179.556 19.0374   1
  -2  10   3 173.006 17.8964   5
  -2  10   3 158.060 15.5747   2
  10  -8   3 173.096 19.2667   1
  10  -8   3 199.808 20.1170   2
 -10  11  -3 33.7622 13.1966   2
  -1 -10  -3 45.3271 12.0572   1
  11  -1  -3 23.8380 10.4649   2
 -11   1   3 53.1636 15.0608   1
  10 -11   3 36.0205 12.5464   1
   1  10   3 30.9658 9.73356   2
   1  10   3 55.9755 15.0821   5
 -10  14  -3 862.778 37.3277   2
  -4 -10  -3 825.855 41.5694   1
  14  -4  -3 809.161 38.9599   2
 -14   4   3 815.357 42.3355   1
   4  10   3 768.320 27.8050   2
  10 -14   3 865.055 40.4085   1
 -10  17  -3 74.2439 15.7109   2
  -7 -10  -3 74.3762 23.5046   1
  17  -7  -3 113.407 23.3650   2
  10 -17   3 126.399 21.9842   1
 -17   7   3 122.200 25.3279   1
 -11  -5  -3 45.7127 18.9487   1
  16 -11  -3 61.4892 18.2621   2
  11   5   3 42.5409 12.3108   2
   5 -16   3 70.2293 16.3345   1
  13 -11  -3 79.4853 17.3913   2
 -11  -2  -3 111.112 22.9690   1
 -13  11   3 103.743 19.2237   2
   2 -13   3 111.553 15.6495   1
  11   2   3 68.7308 15.8402   2
 -11   1  -3 153.728 23.7053   1
 -11   1  -3 144.767 23.1108   1
  10 -11  -3 168.397 20.0279   2
   1  10  -3 120.762 18.7691   5
  11  -1   3 175.775 23.1165   7
 -10  11   3 171.747 19.9273   2
  11  -1   3 151.886 21.0042   2
  -1 -10   3 167.066 15.0072   1
   7 -11  -3 121.627 16.9504   2
 -11   4  -3 143.334 20.9547   1
 -11   4  -3 129.701 19.1086   2
   7 -11  -3 126.738 16.6583   1
  -4  -7   3 133.157 13.1562   1
  11  -4   3 151.837 20.8165   2
  -7  11   3 125.077 15.5955   2
  11  -4   3 146.380 21.4753   7
 -11   7  -3 1245.65 45.2412   2
   4 -11  -3 1245.80 40.7455   1
   7   4  -3 1237.75 42.8153   4
  -4  11   3 1199.11 39.5604   2
  11  -7   3 1158.76 44.3312   2
  -7  -4   3 1212.07 41.9555   1
   1 -11  -3 18.0370 11.0682   1
 -11  10  -3 35.6476 12.9345   2
  -1  11   3 16.8413 9.56130   2
 -10  -1   3 9.35156 13.2120   1
  11 -10   3 33.3422 12.9427   1
  -1  11   3 44.2994 13.2215   5
 -11  13  -3 474.353 30.6237   2
  13  -2  -3 501.440 25.9215   2
  -2 -11  -3 508.649 31.2654   1
 -13   2   3 530.825 35.5349   1
   2  11   3 507.033 23.5604   2
   2  11   3 461.232 34.8086   5
  11 -13   3 541.915 33.2110   1
  16  -5  -3 143.236 20.8428   2
 -11  16  -3 111.492 18.4224   2
  -5 -11  -3 109.894 23.3721   1
  11 -16   3 140.395 22.9717   1
 -16   5   3 149.951 26.2004   1
  15 -12  -3 149.846 23.2100   2
 -12  -3  -3 183.570 26.3087   1
   3 -15   3 163.229 19.9334   1
  12   3   3 145.242 19.0144   2
 -12   0  -3 -2.2370 14.4235   1
 -12   0  -3 -9.4431 15.0962   1
  12 -12  -3 -9.9568 10.6365   2
 -12  12   3 -9.9098 11.1506   2
  12   0   3 -1.1791 11.4288   2
   0 -12   3 -1.4548 8.93251   1
   9 -12  -3 553.739 31.4638   2
   9 -12  -3 478.541 29.3743   1
 -12   3  -3 451.510 35.5093   1
  -3  -9   3 504.137 23.2319   1
  12  -3   3 514.383 35.6001   2
  12  -3   3 543.664 38.7420   7
  -9  12   3 500.984 30.2995   2
   6 -12  -3 1405.96 46.1000   1
 -12   6  -3 1483.25 52.0313   1
 -12   6  -3 1385.91 50.7046   2
  -6  12   3 1254.20 43.6852   2
  -6  -6   3 1236.18 41.3953   1
  12  -6   3 1412.43 51.7788   2
 -12   9  -3 1012.97 42.6890   2
   3 -12  -3 1044.88 39.4458   1
  12  -9   3 1068.07 43.7467   2
  12  -9   3 968.792 42.0696   2
  -3  12   3 1015.50 36.2425   2
  -9  -3   3 1010.09 41.3404   1
  -3  12   3 913.018 38.5293   5
   0 -12  -3 13.8326 11.6101   1
 -12  12  -3 -7.8569 10.5972   2
  12 -12   3 -3.6374 12.2639   1
   0  12   3 -6.5367 12.2871   5
 -12   0   3 15.8324 14.5666   1
   0  12   3 5.19505 8.77162   2
 -12  15  -3 8.22090 11.7953   2
  15  -3  -3 9.76195 11.4112   2
  -3 -12  -3 14.3856 14.0567   1
  12 -15   3 5.97611 13.5202   1
 -15   3   3 3.66534 16.7281   1
  14 -13  -3 6.78626 14.0904   2
 -13  -1  -3 21.4634 19.1274   1
 -13  -1  -3 34.4744 17.6584   1
 -14  13   3 -6.8222 12.9471   2
   1 -14   3 10.3006 11.8466   1
  13   1   3 4.56256 12.5320   2
 -13   2  -3 84.7634 21.5684   1
  11 -13  -3 86.4173 18.0788   2
  13  -2   3 77.5702 19.2480   7
  13  -2   3 93.3857 19.4415   2
 -11  13   3 92.1693 17.8353   2
  -2 -11   3 100.243 14.0693   1
 -13   5  -3 96.4856 21.6353   1
   8 -13  -3 153.511 20.0354   1
  -5  -8   3 166.966 17.4435   1
  -8  13   3 93.8603 16.0706   2
  13  -5   3 119.973 21.4314   2
  13  -5   3 100.010 21.6028   7
 -13   8  -3 53.9711 16.2174   2
   5 -13  -3 37.1710 13.0376   1
  13  -8   3 12.5208 13.0131   2
  -5  13   3 27.2314 11.1343   2
  -8  -5   3 32.7552 14.6803   1
 -13  11  -3 441.010 31.7435   2
   2 -13  -3 453.737 30.2065   1
 -11  -2   3 526.118 34.2634   1
  -2  13   3 468.881 25.7841   2
  -2  13   3 454.311 31.1223   5
 -13  14  -3 57.6130 16.6444   2
  -1 -13  -3 20.9963 14.0834   1
  13 -14   3 21.1533 15.5123   1
 -14   1   3 34.6792 19.1021   1
   1  13   3 49.6489 10.3138   2
  16 -14  -3 19.1357 15.7934   2
 -14  -2  -3 -5.1445 16.7633   1
 -14  -2  -3 34.7599 19.6592   1
   2 -16   3 17.2070 14.0650   1
  14   2   3 3.23915 11.6973   2
 -14   1  -3 36.7798 20.9141   1
  13 -14  -3 19.4105 15.3143   2
  14  -1   3 27.2195 14.9253   2
  -1 -13   3 14.9517 11.5454   1
 -13  14   3 12.6769 14.3970   2
 -14   4  -3 892.125 49.7923   1
 -10  14   3 831.306 40.0363   2
  14  -4   3 918.524 48.1913   2
  14  -4   3 820.428 48.8825   7
  -4 -10   3 842.792 34.8247   1
   7 -14  -3 445.100 30.4335   1
   7   7  -3 488.241 34.3383   4
  14  -7   3 425.072 36.3478   7
  -7  14   3 430.416 28.3060   2
  -7  -7   3 430.244 30.6218   1
  14  -7   3 395.232 35.2614   2
 -14  10  -3 843.186 42.7568   2
   4 -14  -3 763.504 38.2872   1
  -4  14   3 787.040 34.5208   2
 -10  -4   3 843.093 41.7471   1
  14 -10   3 842.343 44.3999   2
  -4  14   3 819.613 39.5511   5
   1 -14  -3 19.3162 14.5631   1
 -14  13  -3 62.8485 18.2763   2
  -1  14   3 40.7121 11.9883   2
 -13  -1   3 40.1878 18.4411   1
 -14  16  -3 12.5775 14.9283   2
  -2 -14  -3 -1.6081 15.0088   1
 -16   2   3 11.4876 17.9486   1
  15 -15  -3 -6.8816 15.0271   2
 -15   0  -3 -12.791 17.2343   1
   0 -15   3 -6.0038 11.3008   1
  15   0   3 12.0020 12.2156   2
 -15  15   3 15.5700 16.3521   2
 -15   3  -3 181.790 31.1020   1
  15  -3   3 201.486 25.7499   2
 -12  15   3 164.232 24.1483   2
  -3 -12   3 168.994 19.5342   1
   9 -15  -3 126.704 20.9253   1
  15  -6   3 91.9575 23.9067   2
  -6  -9   3 109.570 18.9158   1
  -9  15   3 134.067 20.2017   2
   6 -15  -3 371.334 29.5391   1
 -15   9  -3 351.871 34.1642   2
  15  -9   3 289.045 30.9749   2
  -9  -6   3 365.686 30.8471   1
  -6  15   3 330.837 26.2602   2
  -6  15   3 324.757 29.1241   5
 -15  12  -3 26.8714 16.4903   2
   3 -15  -3 2.43143 13.8683   1
 -12  -3   3 25.0412 15.6950   1
  -3  15   3 5.34879 10.2680   2
 -15  15  -3 5.39282 14.4523   2
   0 -15  -3 -1.1258 14.0748   1
 -15   0   3 -25.706 15.8799   1
 -16   2  -3 3.41047 19.4749   1
  16  -2   3 -5.4961 12.8748   2
  -2 -14   3 35.8496 14.3057   1
 -14  16   3 9.22144 15.1264   2
 -16   5  -3 6.45626 21.0469   1
 -11  16   3 60.4056 17.3524   2
  -5 -11   3 33.8961 15.2500   1
  16  -5   3 41.2200 19.6496   2
   8 -16  -3 35.3204 15.1471   1
  -8  -8   3 0.39736 15.2636   1
  16  -8   3 30.6132 19.4605   2
  -8  16   3 3.82442 12.0309   2
   5 -16  -3 145.120 23.0171   1
 -16  11  -3 161.112 25.6689   2
 -11  -5   3 137.035 24.3324   1
  -5  16   3 132.163 18.1176   2
  16 -11   3 136.947 25.2509   2
 -16  14  -3 42.5211 17.5414   2
   2 -16  -3 2.49169 13.8186   1
 -14  -2   3 2.14616 17.5206   1
  -2  16   3 1.84227 10.1627   2
  17  -7   3 484.604 43.1684   2
  -7 -10   3 430.174 34.9372   1
 -10  17   3 371.860 30.6303   2
   7 -17  -3 69.2467 18.2017   1
  17 -10   3 76.4097 22.7649   2
 -10  -7   3 95.4296 20.7501   1
  -7  17   3 106.737 17.4104   2
   1  -1  -4 12.6493 4.55937   2
  -1   0  -4 15.6100 6.21718   2
   1   0   4 24.9175 9.89763   7
  -1   1   4 9.88891 5.00722   6
  -2  -1  -4 6383.99 117.701   2
   3  -2  -4 6293.48 108.190   2
   3  -2  -4 6440.35 106.599   6
   2   1   4 6407.29 118.808   2
   1  -3   4 6713.09 106.645   3
   0  -2  -4 5089.22 89.5365   2
  -2   2  -4 4946.83 90.7649   2
   0   2   4 5049.02 83.1408   5
  -2   0   4 5177.96 81.2427   6
   0   2   4 5118.38 90.1501   6
  -2   5  -4 6426.11 105.971   2
  -3  -2  -4 6238.01 121.135   2
   5  -3  -4 6329.22 110.608   2
   2  -5   4 6439.83 106.348   1
  -5   3   4 6147.02 109.334   1
   2  -5   4 6491.98 106.958   3
   3   2   4 6327.31 119.863   2
  -3   1  -4 6125.61 115.857   2
   2  -3  -4 6302.02 107.757   6
   2  -3  -4 6523.64 108.885   2
   3  -1   4 6389.15 115.664   2
  -2   3   4 6324.14 107.664   6
   3  -1   4 6235.90 119.706   7
   4  -1  -4 1251.68 26.2520   2
   4  -1  -4 1203.72 23.6510   6
  -3   4  -4 1220.11 31.1030   2
  -1  -3  -4 1234.44 33.6885   2
   1   3   4 1191.31 31.0230   5
   1   3   4 1227.86 33.0542   6
   1   3   4 1159.95 32.2760   2
   3  -4   4 1168.93 29.2017   3
   7  -4  -4 897.159 27.9390   2
  -3   7  -4 910.571 23.8742   2
  -4  -3  -4 889.106 33.6730   1
  -4  -3  -4 986.768 36.7492   2
   3  -7   4 923.293 25.9536   3
  -7   4   4 930.806 28.7853   2
   4   3   4 916.210 33.2307   2
  -7   4   4 872.319 27.9837   1
   3  -7   4 918.436 25.5099   1
   4  -4  -4 746.326 22.2493   6
   0   4  -4 770.399 18.7246   5
  -4   0  -4 749.049 30.1537   2
   4  -4  -4 761.412 22.9696   2
   0  -4   4 778.644 15.8124   3
  -4   4   4 779.142 23.7464   2
   4   0   4 699.042 31.8583   7
   4   0   4 740.075 31.0745   2
   1  -4  -4 1168.69 31.1322   6
   1  -4  -4 1193.92 30.7670   2
  -4   3  -4 1155.10 33.2202   2
  -1   4   4 1170.54 31.0111   6
  -1   4   4 1185.15 30.8701   2
  -3  -1   4 1171.44 21.7879   3
   6  -2  -4 636.738 21.0065   2
  -4   6  -4 618.766 22.7259   4
  -2  -4  -4 644.721 24.4165   1
  -2  -4  -4 687.565 28.6598   2
  -4   6  -4 629.715 21.6923   2
   2   4   4 645.519 24.8650   2
  -6   2   4 669.885 21.1091   1
   4  -6   4 652.732 21.6223   3
   4  -6   4 626.018 21.4996   1
   2   4   4 596.466 25.1956   5
   2   4   4 603.099 24.6994   6
   9  -5  -4 476.774 22.8235   2
  -4   9  -4 503.487 18.5590   2
   9  -5  -4 460.949 22.3445   2
  -5  -4  -4 463.894 27.8674   1
  -9   5   4 480.164 23.3584   1
   5   4   4 422.153 26.3879   6
   4  -9   4 447.670 20.4219   1
   5   4   4 472.059 25.8655   2
   4  -9   4 470.350 20.6905   3
   6  -5  -4 69.7794 9.74962   2
  -1   6  -4 56.0697 7.83200   5
  -5  -1  -4 92.5187 14.7782   1
  -5  -1  -4 82.2504 13.9756   2
   1  -6   4 60.4789 6.45585   1
  -6   5   4 55.0648 9.25852   1
   5   1   4 60.3229 13.6009   2
   1  -6   4 62.7855 6.66800   3
  -6   5   4 58.1968 9.55945   2
  -5   2  -4 6303.19 119.077   2
   3  -5  -4 6223.32 111.918   6
   3  -5  -4 6306.88 112.705   2
   2   3  -4 6246.20 115.706   4
   5  -2   4 6338.47 123.579   7
   5  -2   4 6272.70 117.914   2
  -3   5   4 6359.07 113.698   2
  -2  -3   4 6438.63 101.399   6
  -5   5  -4 2185.46 49.6313   2
   0  -5  -4 2148.94 50.0449   2
  -5   0   4 2174.47 42.3173   3
   0   5   4 2095.76 49.3548   6
   5  -5   4 2171.02 48.8201   3
  -5   0   4 2147.31 43.2866   1
   5  -5   4 2184.18 48.1524   2
   0   5   4 2179.99 47.7173   5
   5  -5   4 2105.61 48.6275   1
  -5   0   4 2132.53 43.4962   1
   0   5   4 2125.73 48.6847   2
   8  -3  -4 9587.41 168.959   2
  -5   8  -4 9729.07 168.320   2
  -3  -5  -4 9728.26 172.933   1
   3   5   4 9508.95 170.570   5
  -8   3   4 9587.41 167.484   1
   3   5   4 9844.56 173.747   2
   5  -8   4 9660.98 166.812   1
   5  -8   4 9751.55 168.382   3
   3   5   4 9999.99 174.524   6
  11  -6  -4 1086.24 38.9828   2
  -5  11  -4 1153.07 31.9825   2
  -6  -5  -4 1051.49 44.8053   1
   6   5   4 1069.54 39.2988   2
   5 -11   4 1114.14 36.1000   1
   5 -11   4 1154.33 36.5769   3
 -11   6   4 1162.86 40.0288   1
   6   5   4 1097.57 43.0351   6
  -6  -2  -4 2812.24 72.3327   2
  -2   8  -4 2819.06 56.3637   5
  -6  -2  -4 2740.25 70.3924   1
   8  -6  -4 2793.40 63.4175   2
  -8   6   4 2858.57 64.5346   2
  -8   6   4 2771.90 62.6136   1
   2  -8   4 2762.50 56.2286   3
   6   2   4 2814.38 70.2005   2
   2  -8   4 2786.77 55.7911   1
  -6   1  -4 44.2439 12.1559   1
  -6   1  -4 63.4890 13.5799   2
   5  -6  -4 59.8901 9.59048   2
   1   5  -4 71.3716 10.1417   5
  -1  -5   4 69.9681 5.79774   3
  -1  -5   4 61.4779 6.89324   6
  -5   6   4 55.4629 9.50186   2
   6  -1   4 85.9580 15.1939   2
  -5   6   4 72.2236 10.1223   1
   6  -1   4 84.6400 15.2831   7
  -1  -5   4 63.4008 4.90229   1
   2  -6  -4 596.392 23.2035   2
   4   2  -4 639.980 23.5502   4
  -6   4  -4 620.792 25.4178   2
  -2   6   4 623.275 23.1912   2
   6  -4   4 608.541 25.3711   1
   6  -4   4 648.246 25.1322   2
  -4  -2   4 678.348 18.7196   1
   6  -4   4 654.681 25.0113   2
  -4  -2   4 609.629 16.0116   3
  -1  -6  -4 41.4830 10.4168   2
   7  -1  -4 31.7761 9.70552   7
   7  -1  -4 63.2394 9.76202   2
  -6   7  -4 59.5852 10.3439   2
  -6   7  -4 58.5274 9.41495   4
  -1  -6  -4 52.6281 10.1334   1
  -7   1   4 27.2742 7.65828   1
  -7   1   4 37.6819 7.52429   3
   6  -7   4 52.3416 9.72858   2
   6  -7   4 44.9546 9.08299   3
   6  -7   4 53.3730 10.2904   1
   1   6   4 34.9947 10.0974   5
   1   6   4 49.3977 10.0696   6
   1   6   4 60.6689 9.87070   2
  -4  -6  -4 411.928 26.8869   1
  -6  10  -4 433.774 21.5296   2
  10  -4  -4 418.735 23.2163   2
   4   6   4 407.910 23.0954   2
   4   6   4 438.328 26.2827   6
   6 -10   4 434.042 22.4200   3
 -10   4   4 393.289 22.8814   1
   6 -10   4 398.585 22.3822   1
  -6  13  -4 1826.00 45.9784   2
  -7  -6  -4 1863.88 64.7824   1
  13  -7  -4 1860.42 57.3158   2
 -13   7   4 1874.87 58.3899   1
   6 -13   4 1894.69 53.9239   3
   6 -13   4 1841.93 53.0348   1
   7   6   4 1791.62 52.8732   2
  10  -7  -4 505.280 26.2706   2
  -7  -3  -4 541.820 32.5539   1
  -3  10  -4 541.553 23.8267   5
 -10   7   4 511.576 27.0408   1
   3 -10   4 515.845 21.7916   3
   7   3   4 484.967 28.6893   2
   3 -10   4 519.942 22.2115   1
  -7   0  -4 1516.54 50.3973   2
   0   7  -4 1514.51 37.3406   5
   7  -7  -4 1537.19 41.9533   2
  -7   0  -4 1448.92 48.4448   1
   0  -7   4 1545.31 32.4856   1
   7   0   4 1466.50 48.2680   2
   7   0   4 1447.19 51.3542   7
  -7   7   4 1426.53 40.3291   1
  -7   7   4 1512.82 42.2962   2
   0  -7   4 1514.73 33.3829   3
   4  -7  -4 1020.73 31.2635   2
   4  -7  -4 953.405 29.6084   1
  -7   3  -4 890.444 33.8649   2
  -7   3  -4 982.589 33.4357   1
   3   4  -4 936.125 31.3377   4
   7  -3   4 988.288 33.5655   1
  -3  -4   4 945.457 19.6280   1
  -4   7   4 930.938 30.5419   2
  -3  -4   4 908.071 24.1204   3
   7  -3   4 902.597 35.6865   7
   7  -3   4 950.715 34.2581   2
   1  -7  -4 53.2463 10.5316   2
  -7   6  -4 34.7745 9.67167   2
   6   1  -4 29.6038 8.85137   4
   1  -7  -4 39.6584 9.40589   1
   6   1  -4 45.9783 4.39696   6
  -6  -1   4 47.0013 7.56807   3
  -1   7   4 65.1973 9.92657   2
   7  -6   4 72.5476 10.8605   3
   7  -6   4 35.5191 9.77558   1
  -1   7   4 41.3472 9.78311   5
  -6  -1   4 39.8498 9.40534   1
   7  -6   4 60.0153 10.7802   2
  -7   9  -4 836.044 31.0623   2
  -2  -7  -4 823.078 32.1580   1
   9  -2  -4 833.802 30.7353   2
   9  -2  -4 890.281 33.1597   7
   2   7   4 840.653 30.7117   2
   2   7   4 836.909 34.8299   5
  -9   2   4 777.934 29.3960   1
   7  -9   4 811.204 30.5688   3
   2   7   4 830.848 32.5578   6
   7  -9   4 804.939 31.1562   1
  -5  -7  -4 92.5639 18.2505   1
  12  -5  -4 82.3548 16.4059   7
  -7  12  -4 107.464 13.9045   2
  12  -5  -4 76.0501 15.5923   2
 -12   5   4 68.3228 14.8968   1
   5   7   4 69.9536 13.5821   2
   7 -12   4 68.1964 13.5535   1
  -7  15  -4 554.965 24.3627   2
  -8  -7  -4 598.277 42.1799   1
  15  -8  -4 543.139 35.1139   2
   8   7   4 622.025 29.5505   2
   7 -15   4 609.401 32.7325   1
 -15   8   4 550.653 36.8990   1
  -8  -4  -4 315.580 29.2163   1
  -4  12  -4 310.021 24.0042   5
  12  -8  -4 315.133 23.9195   2
  12  -8  -4 287.426 24.4059   2
   4 -12   4 300.228 20.7053   1
 -12   8   4 284.233 24.8528   1
   4 -12   4 279.461 20.5693   3
   8   4   4 299.025 24.5722   2
  -8  -1  -4 3317.40 82.3901   1
   9  -8  -4 3381.06 76.5467   2
  -1   9  -4 3366.01 68.7990   5
   1  -9   4 3258.23 65.2206   1
   1  -9   4 3260.28 66.3980   3
  -9   8   4 3426.15 76.3720   1
   8   1   4 3253.85 81.4805   2
  -9   8   4 3319.49 77.2324   2
  -8   2  -4 2706.60 70.1883   1
   6  -8  -4 2858.33 62.7157   1
   6  -8  -4 2823.90 63.9179   2
  -8   2  -4 2761.50 69.9894   2
  -8   2  -4 2661.24 69.5644   1
   8  -2   4 2631.20 70.8728   2
  -6   8   4 2856.35 62.3281   1
   8  -2   4 2687.34 74.7467   7
  -2  -6   4 2783.68 50.6725   1
  -6   8   4 2749.61 63.7170   2
  -8   5  -4 9903.91 173.870   1
   3  -8  -4 9918.53 171.146   1
  -8   5  -4 9930.06 179.512   2
   3  -8  -4 9810.68 175.444   2
   5   3  -4 9963.17 177.701   4
   8  -5   4 9871.57 178.787   2
  -3   8   4 9809.96 173.776   2
  -5  -3   4 9553.17 162.802   3
  -5  -3   4 9535.59 164.884   1
   8  -5   4 9859.73 176.262   1
   8   0  -4 6210.18 99.3620   2
  -8   8  -4 6083.03 119.222   2
   0  -8  -4 5944.16 115.800   1
   8  -8   4 6036.92 117.585   1
   0   8   4 5958.27 113.855   5
  -8   0   4 5957.04 113.916   1
   0   8   4 6032.06 115.513   2
  -8   0   4 5983.80 114.164   1
  11  -3  -4 2785.17 72.9582   7
  -8  11  -4 2909.35 69.5863   2
  11  -3  -4 2857.35 69.7621   2
  -3  -8  -4 2933.08 72.8958   1
   8 -11   4 2954.65 70.3566   1
 -11   3   4 2845.02 69.8770   1
   3   8   4 2875.20 76.6648   5
   3   8   4 2794.54 67.1934   2
  14  -6  -4 1444.20 54.6787   7
  -6  -8  -4 1408.31 57.3434   1
  14  -6  -4 1397.03 50.7941   2
  -8  14  -4 1349.68 42.5488   2
   6   8   4 1339.05 42.8727   2
   8 -14   4 1346.28 48.3190   1
 -14   6   4 1419.31 52.3956   1
  17  -9  -4 37.1594 18.2693   2
  -9  -8  -4 44.1606 20.4879   1
 -17   9   4 -20.411 14.3073   1
   8 -17   4 6.27280 12.8471   1
  -9  -5  -4 2347.10 74.0336   1
  14  -9  -4 2289.61 68.6743   2
 -14   9   4 2380.88 70.1038   1
   5 -14   4 2268.19 61.1176   1
   9   5   4 2231.95 63.1074   2
   5 -14   4 2248.50 62.0535   3
  -9  -2  -4 339.585 29.9911   1
  -2  11  -4 328.839 26.1722   5
  11  -9  -4 336.231 25.5421   2
 -11   9   4 319.310 24.8835   1
   9   2   4 339.009 26.5512   2
   2 -11   4 327.337 19.2813   3
   2 -11   4 357.132 19.6959   1
   8  -9  -4 3175.75 77.9132   1
  -9   1  -4 3040.28 80.3423   1
  -9   1  -4 3256.72 85.0662   2
   8  -9  -4 3253.80 74.7391   2
   1   8  -4 3292.19 71.1960   5
  -1  -8   4 3265.80 62.0820   1
   9  -1   4 3224.78 86.9348   7
   9  -1   4 3133.25 82.6042   2
  -8   9   4 3295.29 75.3898   2
  -8   9   4 3230.95 73.1058   1
  -9   4  -4 487.624 27.7513   1
  -9   4  -4 493.250 27.8141   2
   5  -9  -4 473.959 24.4763   2
   5  -9  -4 504.668 24.0812   1
  -4  -5   4 472.635 22.2034   3
   9  -4   4 495.380 27.1126   1
   9  -4   4 521.937 29.9516   7
  -4  -5   4 485.469 16.8990   1
  -5   9   4 489.648 23.9549   2
   9  -4   4 441.503 27.5302   2
   7   2  -4 800.814 30.5872   4
   2  -9  -4 843.384 31.4764   1
  -9   7  -4 875.529 34.6409   2
   9  -7   4 829.628 33.5675   2
   9  -7   4 881.130 34.5005   1
  -7  -2   4 829.974 27.6141   3
  -7  -2   4 784.095 30.9320   1
  -2   9   4 818.313 31.1643   5
   9  -7   4 812.026 32.6370   2
  -2   9   4 857.752 30.8673   2
  10  -1  -4 157.789 13.7355   2
  -1  -9  -4 143.672 17.2768   1
  -9  10  -4 148.158 17.4514   2
   1   9   4 136.422 15.0238   2
   9 -10   4 124.288 16.4077   1
   1   9   4 80.6656 15.0775   5
 -10   1   4 124.381 16.9878   1
  -9  13  -4 319.804 24.6008   2
  -4  -9  -4 360.374 29.2601   1
  13  -4  -4 315.772 26.2916   2
 -13   4   4 279.179 26.4561   1
   9 -13   4 296.144 26.1538   1
   4   9   4 312.505 21.8488   2
  16  -7  -4 43.7882 17.3670   2
  -7  -9  -4 38.1527 19.4867   1
  -9  16  -4 65.7999 13.9245   2
   7   9   4 46.4062 10.9398   2
   9 -16   4 34.2968 15.8945   1
 -16   7   4 31.5212 17.1453   1
 -10  -6  -4 1057.43 52.7325   1
  16 -10  -4 1032.95 47.9826   2
 -16  10   4 1098.72 50.7050   1
  10   6   4 962.814 37.1703   2
   6 -16   4 986.651 42.1759   1
 -10  -3  -4 1424.83 55.6743   1
  13 -10  -4 1352.52 50.5901   2
  10   3   4 1391.08 49.3869   2
   3 -13   4 1410.19 43.6769   1
   3 -13   4 1468.02 44.7237   3
 -13  10   4 1406.39 52.1362   1
  10 -10  -4 1941.32 57.3388   2
 -10   0  -4 2014.56 64.4253   1
  10   0   4 1952.05 61.5934   2
 -10  10   4 1886.70 58.2398   1
   0 -10   4 1892.19 46.5705   1
 -10  10   4 2049.02 59.0330   2
   7 -10  -4 509.963 26.1885   1
 -10   3  -4 537.959 32.4943   2
 -10   3  -4 534.486 32.9658   1
   7 -10  -4 535.353 27.2009   2
  10  -3   4 523.932 33.4385   2
  -3  -7   4 514.381 18.8119   1
  10  -3   4 517.964 34.8913   7
  -7  10   4 531.757 27.5311   2
   4 -10  -4 447.949 24.3614   1
 -10   6  -4 452.464 27.7877   2
   6   4  -4 463.135 25.9313   4
  -6  -4   4 437.289 22.6789   3
  -4  10   4 428.294 23.6289   2
  10  -6   4 439.143 27.7016   2
  -6  -4   4 412.083 22.6085   1
   1 -10  -4 141.373 17.1903   1
 -10   9  -4 167.330 19.4423   2
  -1  10   4 133.510 15.6958   2
  -1  10   4 134.726 17.6466   5
  -9  -1   4 112.398 16.4881   1
  10  -9   4 148.189 18.6709   1
  12  -2  -4 306.969 21.0937   2
  -2 -10  -4 249.660 23.6971   1
 -10  12  -4 295.373 24.4067   2
  10 -12   4 262.133 24.2809   1
   2  10   4 275.040 20.5808   2
 -12   2   4 257.050 24.8678   1
   2  10   4 268.672 27.5049   5
  15  -5  -4 869.345 40.5976   2
 -10  15  -4 918.287 38.2394   2
  -5 -10  -4 967.353 48.3665   1
 -15   5   4 916.201 45.5273   1
  10 -15   4 965.862 43.9334   1
   5  10   4 898.545 32.5999   2
  15 -11  -4 139.169 21.9608   2
 -11  -4  -4 129.608 23.9643   1
  15 -11  -4 182.971 24.4696   2
   4 -15   4 149.058 18.6261   1
   4 -15   4 160.259 20.2099   3
  11   4   4 133.550 18.6840   2
 -11  -1  -4 15.2111 16.5193   1
  12 -11  -4 44.7645 14.7257   2
  11   1   4 18.9015 13.2458   2
   1 -12   4 30.0496 10.5893   1
 -12  11   4 38.7146 14.3544   2
   9 -11  -4 331.419 24.4768   2
 -11   2  -4 321.232 31.3226   1
 -11   2  -4 311.074 31.5823   1
  -9  11   4 312.378 24.7050   2
  -2  -9   4 305.874 17.1889   1
  11  -2   4 300.437 29.2182   2
  11  -2   4 285.641 30.2082   7
   6 -11  -4 1133.31 40.0311   1
   5   6  -4 1142.99 43.4440   4
 -11   5  -4 1130.00 45.2576   1
 -11   5  -4 1107.64 45.2058   2
  11  -5   4 1076.99 47.1272   7
  -5  -6   4 1150.56 33.2293   1
  -6  11   4 1151.55 40.2960   2
  11  -5   4 1230.94 48.1782   2
   3 -11  -4 2874.72 71.2801   1
 -11   8  -4 2853.50 75.6431   2
  -3  11   4 2879.23 70.1716   5
  11  -8   4 2930.46 75.6616   2
  -8  -3   4 2910.69 71.3201   1
  11  -8   4 2951.75 76.1554   2
  -3  11   4 2939.17 69.6660   2
  11  -8   4 2986.38 75.2505   1
 -11  11  -4 2674.52 73.2488   2
   0 -11  -4 2637.59 70.3112   1
   0  11   4 2816.32 67.0641   2
   0  11   4 2704.54 73.3443   5
  11 -11   4 2731.45 74.0506   1
 -11   0   4 2763.69 73.4811   1
  14  -3  -4 2176.50 55.2269   2
 -11  14  -4 1963.21 61.7176   2
  -3 -11  -4 2101.57 67.0079   1
   3  11   4 2169.10 54.6754   2
  11 -14   4 2143.68 66.2147   1
 -14   3   4 2051.11 66.5488   1
  -6 -11  -4 703.171 47.1421   1
  17  -6  -4 767.613 38.9986   2
 -11  17  -4 735.652 35.9705   2
  11 -17   4 744.971 43.0121   1
 -17   6   4 796.891 48.0108   1
 -12  -2  -4 302.086 33.0338   1
  14 -12  -4 214.599 25.4521   2
  12   2   4 239.895 24.2894   2
   2 -14   4 275.540 23.2310   1
  11 -12  -4 31.2160 13.9931   2
 -12   1  -4 73.1568 20.3013   1
 -12   1  -4 45.5384 18.9735   1
  12  -1   4 5.21752 13.5114   2
  -1 -11   4 32.3606 9.93713   1
 -11  12   4 22.9331 13.1497   2
 -12   4  -4 321.038 30.9486   1
   8 -12  -4 286.116 24.8064   1
   8 -12  -4 339.333 26.0932   2
  -4  -8   4 279.503 17.9750   1
  -8  12   4 359.750 25.4343   2
  12  -4   4 274.687 29.5623   2
  12  -4   4 298.022 31.3548   7
 -12   7  -4 87.2082 18.3301   2
   5 -12  -4 60.7719 13.5990   1
   7   5  -4 68.2441 16.5983   4
  12  -7   4 88.9091 17.5916   2
  -7  -5   4 95.1053 16.5077   1
  -5  12   4 60.6338 13.2686   2
 -12  10  -4 277.945 26.9468   2
   2 -12  -4 294.463 24.6293   1
  -2  12   4 279.826 21.4595   2
  12 -10   4 282.529 27.0506   1
  -2  12   4 300.675 26.4366   5
 -10  -2   4 264.728 25.2302   1
  -1 -12  -4 314.473 28.4183   1
 -12  13  -4 353.241 30.5467   2
 -13   1   4 346.873 31.5095   1
   1  12   4 269.305 30.0183   5
  12 -13   4 297.036 28.4642   1
   1  12   4 320.770 22.2123   2
  16  -4  -4 188.141 18.7103   2
  -4 -12  -4 257.820 31.0014   1
 -12  16  -4 168.198 22.7530   2
 -16   4   4 179.323 26.9863   1
  12 -16   4 180.274 25.4073   1
  16 -13  -4 905.698 46.6903   2
 -13  -3  -4 834.440 48.7995   1
  16 -13  -4 831.599 46.1226   2
   3 -16   4 805.546 38.5635   1
  13   3   4 859.330 37.5265   2
 -13   0  -4 5011.36 123.344   1
  13 -13  -4 4717.33 114.892   2
 -13   0  -4 4916.75 123.129   1
 -13  13   4 4706.10 113.811   2
  13   0   4 4644.56 109.912   2
   0 -13   4 4625.59 99.1503   1
  10 -13  -4 1286.51 50.3170   2
 -13   3  -4 1389.15 59.1605   1
  13  -3   4 1426.95 60.2291   7
  -3 -10   4 1394.35 40.2942   1
 -10  13   4 1441.23 51.9830   2
  13  -3   4 1320.72 56.5412   2
   7 -13  -4 1827.33 56.7771   1
 -13   6  -4 1795.93 62.9718   2
   6   7  -4 1813.67 60.6938   4
  -6  -7   4 1798.49 50.9234   1
  13  -6   4 1852.98 65.0398   2
  -7  13   4 1827.24 55.7493   2
  13  -6   4 1730.81 65.7967   7
   4 -13  -4 302.641 25.9691   1
 -13   9  -4 278.796 28.5806   2
  -4  13   4 321.779 23.5718   2
  13  -9   4 293.911 29.2029   2
  -9  -4   4 305.288 27.9071   1
  -4  13   4 316.868 26.4839   5
   1 -13  -4 365.468 28.4570   1
 -13  12  -4 293.267 29.4455   2
 -12  -1   4 304.827 29.5395   1
  -1  13   4 323.696 29.7569   5
  -1  13   4 315.556 23.5738   2
  -2 -13  -4 323.623 31.6171   1
 -13  15  -4 340.382 30.1260   2
 -15   2   4 279.419 31.7407   1
  13 -15   4 328.750 32.4834   1
   2  13   4 301.009 20.5876   2
 -14  -1  -4 445.404 41.2770   1
 -14  -1  -4 583.388 43.3559   1
  15 -14  -4 502.374 38.2729   2
   1 -15   4 469.486 30.0283   1
  14   1   4 435.242 31.0290   2
 -14   2  -4 162.558 27.7780   1
  12 -14  -4 262.859 28.3509   2
 -12  14   4 270.832 28.0535   2
  -2 -12   4 264.919 21.3495   1
  14  -2   4 240.261 27.4864   2
  14  -5   4 2225.93 77.8991   2
  -5  -9   4 2415.31 60.0318   1
  14  -5   4 2316.68 81.9462   7
  -9  14   4 2242.00 67.7088   2
   6 -14  -4 1403.65 51.4152   1
 -14   8  -4 1516.46 58.4447   2
  14  -8   4 1469.54 58.3110   2
  -8  -6   4 1509.14 51.2613   1
  -6  14   4 1466.84 49.4784   2
   3 -14  -4 2249.92 66.3898   1
 -14  11  -4 1996.76 68.2545   2
 -11  -3   4 2057.00 65.9574   1
  -3  14   4 2068.59 58.8981   2
  -3  14   4 2019.87 64.6775   5
 -14  14  -4 1064.30 48.8317   2
   0 -14  -4 1065.19 47.8583   1
   0  14   4 1003.73 36.1575   2
 -14   0   4 948.304 49.0298   1
  14 -15  -4 399.371 37.4256   2
 -15   1  -4 510.525 44.9334   1
 -14  15   4 442.579 35.9274   2
  -1 -14   4 466.719 28.7718   1
  15  -1   4 470.877 33.2602   2
 -15   4  -4 164.118 30.0412   1
  15  -4   4 138.381 25.0396   2
  -4 -11   4 165.501 19.2552   1
 -11  15   4 157.329 22.2164   2
   7   8  -4 528.006 40.1147   4
   8 -15  -4 565.025 35.6861   1
  15  -7   4 616.693 42.6938   2
  -8  15   4 591.611 34.5523   2
  -7  -8   4 535.868 33.3335   1
   5 -15  -4 997.407 45.2647   1
 -15  10  -4 995.851 49.6015   2
 -10  -5   4 1007.22 44.9222   1
  -5  15   4 956.215 40.6307   2
  15 -10   4 974.843 50.0497   2
   2 -15  -4 320.564 31.1444   1
 -15  13  -4 302.806 32.1525   2
 -13  -2   4 262.332 30.5397   1
  -2  15   4 364.736 24.7481   2
 -16   3  -4 886.189 55.5777   1
  16  -3   4 771.505 44.0165   2
 -13  16   4 929.692 47.0847   2
  -3 -13   4 837.066 37.1846   1
   6  10  -4 1032.65 55.2530   4
  16  -6   4 1133.98 58.0472   2
 -10  16   4 994.543 46.0058   2
  -6 -10   4 1063.76 43.7647   1
 -16   9  -4 76.2381 22.3280   2
   7 -16  -4 52.0201 16.4274   1
  16  -9   4 42.4235 20.9459   2
  -9  -7   4 44.1577 17.6000   1
  -7  16   4 65.1773 16.7976   2
 -16  12  -4 166.138 25.8160   2
   4 -16  -4 208.470 27.2811   1
 -12  -4   4 192.285 25.9358   1
  -4  16   4 181.659 21.3859   2
  -9  17   4 21.9321 13.6545   2
  -8  -9   4 1.22112 15.3918   1
  17  -8   4 -16.537 15.2053   2
   6 -17  -4 715.579 43.9958   1
 -17  11  -4 806.328 49.9282   2
 -11  -6   4 761.305 43.5141   1
  -6  17   4 814.499 38.7318   2
  17 -11   4 898.835 52.8228   2
   1   0  -5 4.45779 2.94917   2
  -1   1  -5 3.44774 4.64456   2
   0  -1  -5 -9.3895 4.60948   2
   0   1   5 -4.5594 4.52719   5
   1  -1   5 1.21667 7.08416   7
   1  -1   5 -0.7501 5.70052   3
   0   2  -5 7.34081 6.79886   4
   2  -2  -5 0.88000 4.82192   2
  -2   0  -5 5.56431 7.54048   2
  -2   2   5 -1.5434 4.89641   6
   2   0   5 4.37752 10.5403   7
  -2   3  -5 822.916 21.1970   2
  -1  -2  -5 827.652 26.0882   2
   3  -1  -5 820.572 18.3084   2
   2  -3   5 819.200 24.9520   3
   1   2   5 800.421 23.9745   5
  -1   4  -5 1016.57 29.6096   4
   4  -3  -5 919.259 24.5405   6
  -3  -1  -5 948.807 33.6374   2
   4  -3  -5 947.613 25.1151   2
   1  -4   5 999.551 22.3608   3
  -4   3   5 949.563 25.3580   1
   3   1   5 970.390 35.2954   2
   1  -3  -5 804.956 23.4813   2
   2   1  -5 790.503 25.0704   4
  -3   2  -5 812.916 28.2196   2
  -1   3   5 819.464 24.4145   2
  -1   3   5 765.987 23.8452   6
   5  -2  -5 98.4042 8.47085   2
   5  -2  -5 77.6060 7.19496   6
  -3   5  -5 73.1178 10.2253   4
  -3   5  -5 96.5932 11.1487   2
  -2  -3  -5 106.285 14.1065   2
   2   3   5 84.3137 12.0588   5
   2   3   5 72.3874 12.0457   2
  -5   2   5 86.4031 8.69573   1
   3  -5   5 94.2208 9.53217   1
   3  -5   5 95.5031 9.83268   3
  -2   6  -5 30.1512 9.04272   4
  -4  -2  -5 23.7637 10.4904   1
  -4  -2  -5 38.0278 11.8977   2
   6  -4  -5 11.0397 6.58911   2
   6  -4  -5 22.8424 6.14590   6
   4   2   5 19.5307 11.0463   2
   2  -6   5 22.2134 5.71681   1
  -6   4   5 25.6987 7.32434   2
  -6   4   5 26.7621 7.18213   1
   2  -6   5 20.2313 5.38286   3
   3  -4  -5 994.062 26.9421   6
   3  -4  -5 932.962 26.5796   2
  -4   1  -5 941.628 33.5884   2
   1   3  -5 927.359 29.1661   4
  -3   4   5 936.339 27.2039   2
   4  -1   5 918.478 32.7997   2
   4  -1   5 995.833 35.8095   7
   0  -4  -5 -3.2686 6.32283   2
  -4   4  -5 -0.8101 8.19873   2
   4   0  -5 0.24932 6.57240   4
   0   4   5 0.39518 6.68032   2
   0   4   5 -6.4015 5.71385   6
   4  -4   5 -0.7912 7.02818   1
   0   4   5 -4.5874 6.20306   5
  -4   0   5 -1.2724 3.66635   3
  -4   0   5 -2.5790 4.09863   1
   4  -4   5 -9.3527 5.98658   3
   7  -3  -5 238.437 14.2893   2
  -3  -4  -5 278.915 23.5353   2
   7  -3  -5 239.140 14.4924   2
  -3  -4  -5 242.247 19.4224   1
  -4   7  -5 254.324 15.4033   2
  -4   7  -5 234.409 16.9894   4
   3   4   5 239.325 19.5801   6
   4  -7   5 239.675 14.7781   1
  -7   3   5 235.266 14.8161   1
   3   4   5 252.211 19.3599   2
   3   4   5 226.499 19.3273   5
   4  -7   5 222.516 14.3159   3
   8  -5  -5 62.7368 10.3432   2
  -5  -3  -5 81.1236 15.2112   1
  -5  -3  -5 69.1007 14.7045   2
   3  -8   5 44.5828 7.84360   3
   5   3   5 44.1336 12.7677   2
   3  -8   5 76.0647 9.26741   1
  -8   5   5 62.2843 10.6259   1
  -5   0  -5 -4.0215 9.56362   1
   5  -5  -5 -1.7238 5.74957   2
  -5   0  -5 3.75632 9.46989   2
   0   5  -5 6.68597 5.80008   5
   0   5  -5 -1.7672 6.71652   4
   0  -5   5 7.10526 3.29122   1
   5   0   5 1.95461 10.8591   7
   5   0   5 -0.7673 10.0452   2
  -5   5   5 2.17613 5.91439   2
   0  -5   5 -2.2439 2.73935   3
  -5   5   5 4.80514 6.16975   1
  -5   3  -5 85.1708 13.2554   2
   3   2  -5 70.3460 10.5403   4
   2  -5  -5 101.582 11.2183   2
   5  -3   5 95.0121 13.1940   1
  -2   5   5 60.8480 9.24212   6
  -2   5   5 96.0388 11.0164   2
   5  -3   5 95.7355 11.8269   2
   6  -1  -5 1554.50 29.8650   2
   6  -1  -5 1550.73 36.0972   7
  -1  -5  -5 1557.28 41.2379   1
  -5   6  -5 1530.67 40.5073   2
   6  -1  -5 1560.57 33.5597   2
  -1  -5  -5 1577.47 43.6715   2
  -5   6  -5 1521.09 38.8836   4
   1   5   5 1552.70 42.0504   2
   5  -6   5 1487.05 39.1070   1
   1   5   5 1496.39 42.3070   6
   1   5   5 1571.77 41.3634   5
   5  -6   5 1484.73 39.2070   3
  -6   1   5 1533.20 35.3164   1
  -6   1   5 1501.54 34.5960   3
  -4  -5  -5 146.940 18.1476   1
   9  -4  -5 150.065 14.8998   2
  -5   9  -5 172.663 14.1707   2
   4   5   5 142.778 17.3662   2
  -9   4   5 155.074 15.1484   1
   5  -9   5 167.281 14.5188   1
   5  -9   5 163.845 14.5877   3
   4   5   5 141.949 17.2770   6
  -6  -4  -5 -4.8668 12.1281   1
  -4  10  -5 11.1457 5.79665   2
  10  -6  -5 11.5077 8.30950   2
   6   4   5 6.38379 10.6636   2
   6   4   5 10.3773 11.4119   6
   4 -10   5 6.00293 6.70963   3
   4 -10   5 0.40305 7.19103   1
 -10   6   5 15.6986 9.19821   1
   7  -6  -5 2941.33 65.0674   2
  -6  -1  -5 3147.29 74.1333   1
  -6  -1  -5 2988.02 75.3554   2
  -1   7  -5 2983.07 57.0179   5
  -7   6   5 2956.12 66.1186   2
   6   1   5 2945.49 75.2647   2
   1  -7   5 3072.64 55.7194   1
   1  -7   5 2891.88 55.9438   3
  -7   6   5 3014.09 65.1017   1
   2   4  -5 13.3413 8.30427   4
  -6   2  -5 25.0112 11.3287   2
   4  -6  -5 13.3497 7.17832   2
  -4   6   5 25.9574 7.39600   1
  -4   6   5 12.6877 7.15939   2
   6  -2   5 15.1318 10.2781   7
  -2  -4   5 26.7323 4.40854   6
   6  -2   5 13.3154 9.85552   1
   6  -2   5 18.2480 10.2681   2
   5   1  -5 1541.26 40.1420   4
   1  -6  -5 1511.03 40.9925   2
  -6   5  -5 1485.99 42.5781   2
   1  -6  -5 1537.20 40.0771   1
  -1   6   5 1436.48 40.5241   6
   6  -5   5 1515.17 41.9945   1
   6  -5   5 1601.30 42.2633   3
  -1   6   5 1478.23 40.4944   2
  -5  -1   5 1475.05 33.4890   1
   6  -5   5 1592.15 41.0819   2
   6  -5   5 1491.21 40.0261   2
  -5  -1   5 1497.96 31.6212   3
   8  -2  -5 100.430 12.3877   7
   8  -2  -5 88.1010 11.4549   2
  -6   8  -5 87.4552 12.1334   2
  -2  -6  -5 76.1505 12.5967   1
  -6   8  -5 73.0637 11.6481   4
  -2  -6  -5 70.6185 14.5769   2
   6  -8   5 50.5936 10.5651   1
   2   6   5 65.2449 11.9005   2
   2   6   5 72.9059 13.0067   6
   6  -8   5 84.8717 11.5403   3
  -8   2   5 83.4919 10.9623   1
   2   6   5 78.5266 14.1392   5
  11  -5  -5 82.3706 13.6421   2
  -6  11  -5 89.7445 12.5006   2
  -5  -6  -5 103.768 18.8431   1
 -11   5   5 107.726 15.8284   1
   5   6   5 74.0649 14.5023   2
   6 -11   5 81.0421 13.1972   3
   6 -11   5 87.2089 13.5352   1
  12  -7  -5 1131.14 40.8990   2
  -7  -5  -5 1132.00 49.0118   1
  12  -7  -5 1151.24 41.5346   2
 -12   7   5 1071.93 41.8705   1
   5 -12   5 1064.63 37.6006   3
   7   5   5 1029.99 42.5129   2
   5 -12   5 1077.78 37.0240   1
  -7  -2  -5 1919.84 58.7146   1
  -2   9  -5 1801.37 43.7983   5
   9  -7  -5 1780.39 50.0055   2
  -9   7   5 1918.65 51.0213   1
   2  -9   5 1805.34 42.2757   1
   7   2   5 1890.06 57.6085   2
   2  -9   5 1868.42 42.7057   3
   6  -7  -5 3021.52 65.7170   2
  -7   1  -5 2903.27 75.0048   2
   1   6  -5 2976.57 69.8100   4
   1   6  -5 2939.63 61.3355   5
  -7   1  -5 2964.82 73.3939   1
   7  -1   5 2929.56 75.0560   2
  -1  -6   5 2916.87 52.5464   3
  -1  -6   5 3027.18 57.1165   6
  -6   7   5 2949.43 66.7165   2
  -6   7   5 2916.98 64.5864   1
  -1  -6   5 3014.99 51.2961   1
   7  -1   5 2906.24 79.1284   7
   3  -7  -5 265.307 17.5248   1
   3  -7  -5 285.631 18.0669   2
   4   3  -5 239.071 17.2273   4
  -7   4  -5 252.848 20.9059   2
   7  -4   5 282.706 19.9214   2
  -4  -3   5 254.501 9.61881   1
   7  -4   5 283.189 20.4262   1
  -3   7   5 236.782 16.9072   2
  -4  -3   5 255.301 9.69263   3
   7   0  -5 -2.0791 7.54857   4
   0  -7  -5 0.46103 8.13031   2
  -7   7  -5 -8.4318 5.97020   4
  -7   7  -5 -8.3387 7.25565   2
   0  -7  -5 0.29514 7.37372   1
   0   7   5 3.06727 7.49183   6
   7  -7   5 4.38867 7.07090   3
   7  -7   5 -3.2667 7.02625   1
  -7   0   5 -2.2883 6.14354   1
   0   7   5 -1.2606 7.51043   2
   0   7   5 6.24539 8.02971   5
  -7   0   5 3.92305 5.03019   3
  -7  10  -5 1035.15 35.6387   2
  -7  10  -5 1072.34 37.0660   4
  10  -3  -5 1025.64 34.8041   2
  -3  -7  -5 1071.89 40.5746   1
  10  -3  -5 1046.39 37.4687   7
   7 -10   5 1074.79 37.1518   1
 -10   3   5 1040.80 35.7500   1
   3   7   5 1051.34 40.3469   6
   3   7   5 1079.35 37.7995   2
   3   7   5 1096.36 43.4004   5
   7 -10   5 1115.83 37.4239   3
  -6  -7  -5 339.229 32.6172   1
  -7  13  -5 344.220 21.9900   2
  13  -6  -5 340.027 26.2330   2
   7 -13   5 289.168 23.6017   1
 -13   6   5 306.625 26.1823   1
   6   7   5 323.933 25.6001   2
  -8  -6  -5 -3.7555 16.7494   1
  14  -8  -5 11.7897 11.9606   2
   6 -14   5 11.8127 11.0738   1
   6 -14   5 -11.227 9.08092   3
 -14   8   5 -1.2814 12.3277   1
   8   6   5 6.42758 11.8514   2
  11  -8  -5 99.8558 15.3353   2
  -8  -3  -5 85.2503 18.7210   1
 -11   8   5 109.254 16.8905   1
   3 -11   5 91.8348 12.2366   3
   3 -11   5 121.789 13.4111   1
   8   3   5 97.3835 17.5211   2
   8  -8  -5 -8.3287 7.74771   2
   0   8  -5 -15.510 7.32916   5
  -8   0  -5 -12.241 10.4180   2
  -8   0  -5 -3.5548 11.0074   1
  -8   8   5 -6.7375 7.86591   1
   0  -8   5 10.1082 5.38623   3
   8   0   5 -5.8373 10.7901   2
   8   0   5 15.4584 13.1606   7
  -8   8   5 3.12528 8.05545   2
   0  -8   5 2.66866 5.07589   1
  -8   3  -5 70.0736 13.9189   1
   5  -8  -5 55.7216 10.8940   1
  -8   3  -5 63.6434 14.1558   2
   3   5  -5 43.3716 11.4469   4
   5  -8  -5 61.0669 11.3654   2
  -3  -5   5 65.7248 5.37085   1
   8  -3   5 50.7682 13.5305   2
  -5   8   5 54.4315 11.0578   2
  -3  -5   5 59.2559 8.87488   3
   8  -3   5 44.1274 12.3556   1
  -5   8   5 63.4766 11.3310   1
   8  -3   5 55.3733 14.2925   7
   6   2  -5 85.4031 13.2986   4
   2  -8  -5 60.6402 11.6053   1
   2  -8  -5 87.0349 12.6447   2
  -8   6  -5 84.2362 13.6198   2
   8  -6   5 74.7185 13.3677   1
  -2   8   5 65.3550 11.5002   2
   8  -6   5 80.5882 13.4639   2
  -6  -2   5 63.0564 11.3658   1
  -6  -2   5 90.4821 8.89925   3
  -2   8   5 50.8666 11.1459   5
   8  -6   5 62.8079 12.6674   2
  -1  -8  -5 13.5057 10.3569   1
  -8   9  -5 32.3034 11.2269   2
   9  -1  -5 27.8817 6.36957   2
   1   8   5 28.1758 11.9952   5
  -9   1   5 25.6263 9.20146   1
   1   8   5 34.2052 10.2774   2
   8  -9   5 28.3791 10.4878   1
   1   8   5 20.0130 10.1653   6
  -4  -8  -5 206.397 24.1765   1
  -8  12  -5 229.261 22.0929   4
  12  -4  -5 243.457 21.8200   2
  -8  12  -5 192.648 19.0957   2
   4   8   5 240.442 21.7201   2
 -12   4   5 223.359 21.6079   1
   8 -12   5 209.322 21.4757   1
  -7  -8  -5 8.09871 17.7901   1
  15  -7  -5 47.7242 16.7807   2
  -8  15  -5 33.5129 12.0035   2
  -8  15  -5 53.2261 16.5337   4
 -15   7   5 40.1729 16.2501   1
   8 -15   5 28.1825 13.0604   1
   7   8   5 28.7803 12.7480   2
  -9  -7  -5 158.862 26.8544   1
  16  -9  -5 93.7636 20.0815   2
   9   7   5 158.650 19.3328   2
   7 -16   5 80.4760 16.4025   1
 -16   9   5 162.094 25.0884   1
  13  -9  -5 354.143 26.9437   2
  13  -9  -5 338.909 27.3207   2
  -9  -4  -5 330.900 31.5853   1
   4 -13   5 351.796 22.8341   3
   9   4   5 345.962 27.6276   2
   4 -13   5 345.143 23.3089   1
 -13   9   5 360.732 29.0365   1
  -9  -1  -5 1803.56 60.0742   1
  10  -9  -5 1804.53 53.2262   2
   1 -10   5 1779.85 43.3974   3
   1 -10   5 1768.86 42.7401   1
 -10   9   5 1671.17 53.3511   2
 -10   9   5 1887.48 53.6176   1
   9   1   5 1706.04 57.2801   2
  -9   2  -5 1800.50 58.4719   1
   7  -9  -5 1904.40 51.2231   1
  -9   2  -5 1874.75 60.0613   2
   7  -9  -5 1884.17 51.5276   2
  -9   2  -5 1851.80 58.9336   1
  -7   9   5 1887.62 50.3067   1
  -7   9   5 1787.94 51.2574   2
   9  -2   5 1828.63 59.9768   2
  -2  -7   5 1849.83 37.7752   1
   9  -2   5 1782.23 62.8119   7
   4  -9  -5 143.168 16.1987   2
   4  -9  -5 145.099 15.4906   1
  -9   5  -5 184.160 20.5190   2
   5   4  -5 175.252 18.4020   4
  -5  -4   5 178.506 13.1692   1
  -4   9   5 179.145 17.0580   2
   9  -5   5 171.413 19.4348   1
  -5  -4   5 162.761 12.8099   3
   9  -5   5 149.136 17.7566   2
   1  -9  -5 23.0230 9.99295   1
  -9   8  -5 23.5297 11.3731   2
  -8  -1   5 34.2460 10.5076   1
   9  -8   5 3.59263 9.79737   1
  -8  -1   5 19.2463 10.2299   1
  -1   9   5 31.4896 10.9303   5
  -1   9   5 20.8058 9.23577   2
  -2  -9  -5 945.480 38.5390   1
  11  -2  -5 911.063 29.1746   2
  -9  11  -5 905.717 36.6962   2
   9 -11   5 844.534 36.6595   1
   2   9   5 893.949 40.7861   5
 -11   2   5 928.434 35.6376   1
   2   9   5 848.796 34.5937   2
  -9  14  -5 150.333 18.0717   2
  14  -5  -5 192.195 22.2643   2
  -5  -9  -5 190.359 26.7861   1
 -14   5   5 155.541 21.9157   1
   5   9   5 145.715 18.0793   2
   9 -14   5 161.815 20.8335   1
  17  -8  -5 50.8985 18.1108   2
  -8  -9  -5 20.1271 21.0060   1
   8   9   5 25.1792 11.1153   2
 -17   8   5 70.3473 19.6735   1
   9 -17   5 41.8751 15.7910   1
  15 -10  -5 162.735 23.2091   2
 -10  -5  -5 137.879 24.6556   1
  10   5   5 117.687 19.1048   2
   5 -15   5 128.070 18.6153   1
 -15  10   5 124.771 21.7877   1
   5 -15   5 134.575 17.8736   3
  12 -10  -5 37.5805 13.7960   2
 -10  -2  -5 77.7330 20.5567   1
   2 -12   5 67.6415 12.6109   1
 -12  10   5 87.5273 17.0373   1
   2 -12   5 51.1559 11.5151   3
  10   2   5 76.0762 17.5152   2
   9 -10  -5 1678.91 51.3203   2
 -10   1  -5 1666.44 58.7066   1
 -10   1  -5 1802.46 62.1450   1
  -1  -9   5 1786.92 40.7269   1
  -9  10   5 1753.67 53.5369   2
  10  -1   5 1660.83 58.0129   2
  -9  10   5 1782.77 52.1007   1
  10  -1   5 1687.87 61.5190   7
 -10   4  -5 17.5029 13.1755   1
   4   6  -5 6.25333 10.3509   4
   6 -10  -5 -0.8341 8.01526   2
   6 -10  -5 -5.2350 7.98451   1
 -10   4  -5 16.0851 12.5603   2
  10  -4   5 -11.760 10.7388   7
  -6  10   5 -1.3036 8.41423   2
  -4  -6   5 1.49589 5.45643   1
  10  -4   5 14.0243 13.1721   2
   3 -10  -5 1078.38 37.9264   1
   7   3  -5 1079.48 38.5788   4
 -10   7  -5 1100.61 42.2745   2
  -7  -3   5 1018.42 31.8562   3
  10  -7   5 1070.94 41.3242   2
  -7  -3   5 1034.72 35.9899   1
  10  -7   5 1080.98 41.9846   1
  -3  10   5 1027.56 36.8137   5
  -3  10   5 1044.76 37.4358   2
 -10  10  -5 -4.2617 9.95639   2
   0 -10  -5 -6.5266 9.35663   1
  10 -10   5 2.73831 9.84131   1
   0  10   5 -2.0268 9.83521   5
   0  10   5 18.6041 10.0859   2
 -10   0   5 2.08285 10.0370   1
  -3 -10  -5 84.4575 18.6385   1
 -10  13  -5 94.5028 16.7722   2
  13  -3  -5 81.0202 13.3289   2
  10 -13   5 106.178 17.8456   1
   3  10   5 83.1522 14.3210   2
 -13   3   5 85.3713 16.6162   1
   3  10   5 51.6015 18.3363   5
 -10  16  -5 122.851 18.6809   2
  -6 -10  -5 103.792 24.5074   1
  16  -6  -5 115.210 19.8604   2
 -16   6   5 112.003 21.6191   1
   6  10   5 95.8358 14.5497   2
  10 -16   5 117.384 20.5471   1
 -11  -6  -5 214.494 30.0950   1
  -6  17  -5 241.875 31.3640   4
  17 -11  -5 202.520 27.2359   2
  11   6   5 226.151 22.3341   2
   6 -17   5 189.905 23.8715   1
 -11  -3  -5 -17.118 14.3849   1
  14 -11  -5 -2.8550 12.0110   2
   3 -14   5 -6.2606 9.46233   1
   3 -14   5 -16.850 8.22227   3
  11   3   5 -9.5994 12.1936   2
 -11   0  -5 4.36792 14.5524   1
  11 -11  -5 -1.1111 10.7813   2
  11   0   5 19.0634 13.9871   2
 -11  11   5 9.58453 12.1647   2
   0 -11   5 7.05077 7.92091   1
   8 -11  -5 106.362 16.3706   2
 -11   3  -5 76.6663 19.9110   2
 -11   3  -5 112.532 21.0092   1
  -3  -8   5 98.6814 10.5598   1
  -8  11   5 77.7065 14.7024   2
  11  -3   5 92.3604 20.7296   7
  11  -3   5 109.062 21.7629   2
   5 -11  -5 106.462 15.6814   1
 -11   6  -5 90.3607 18.3363   2
   6   5  -5 81.6576 16.5332   4
  -6  -5   5 103.669 15.4282   3
  -5  11   5 95.0674 14.5869   2
  -6  -5   5 102.644 13.6060   1
  11  -6   5 96.3063 18.1481   2
 -11   9  -5 876.733 40.1563   2
   2 -11  -5 860.199 36.7947   1
  -2  11   5 913.932 35.6365   2
  11  -9   5 855.275 38.7261   1
  -9  -2   5 813.678 35.3794   1
  -2  11   5 842.098 36.2969   5
 -11  12  -5 3.61563 11.9789   2
  -1 -11  -5 -11.456 10.7394   1
  11 -12   5 10.9847 13.2184   1
 -12   1   5 1.85781 11.6732   1
   1  11   5 12.4927 14.5669   5
   1  11   5 3.16769 9.97486   2
  -4 -11  -5 576.916 40.1174   1
 -11  15  -5 525.037 32.4284   2
  15  -4  -5 549.372 27.3585   2
   4  11   5 482.051 27.6263   2
  11 -15   5 596.935 36.7936   1
 -15   4   5 516.636 36.5571   1
 -12  -4  -5 427.122 39.4552   1
  16 -12  -5 463.949 35.9593   2
  16 -12  -5 383.166 34.6861   2
   4 -16   5 431.911 29.2640   1
  12   4   5 400.371 29.3982   2
   4 -16   5 408.090 28.6461   3
  13 -12  -5 445.885 33.0961   2
 -12  -1  -5 513.991 39.0796   1
  12   1   5 502.812 32.9261   2
   1 -13   5 445.783 25.1342   1
 -12   2  -5 94.8088 22.3836   1
  10 -12  -5 72.4437 15.8491   2
  12  -2   5 81.3023 19.7251   2
 -10  12   5 56.6539 15.2006   2
  -2 -10   5 75.3596 11.3202   1
  12  -2   5 75.3871 19.6558   7
   7 -12  -5 1127.56 47.1429   2
   7 -12  -5 1096.56 41.8763   1
 -12   5  -5 1104.91 49.4917   2
   5   7  -5 1099.17 45.5879   4
  -7  12   5 1098.39 42.0575   2
  -5  -7   5 1057.74 32.9361   1
  12  -5   5 1080.15 51.0775   7
  12  -5   5 1160.67 50.2285   2
 -12   8  -5 169.357 21.7840   2
   4 -12  -5 203.396 21.6062   1
  -4  12   5 186.688 19.2793   2
  -4  12   5 210.260 21.7455   5
  -8  -4   5 252.572 22.7752   1
  12  -8   5 209.237 23.6614   2
   1 -12  -5 -22.911 9.47960   1
 -12  11  -5 10.6293 13.4883   2
  12 -11   5 16.0387 14.0063   1
  -1  12   5 10.8674 12.2182   5
  -1  12   5 -1.3214 9.60981   2
 -11  -1   5 1.04044 13.0988   1
 -12  14  -5 182.770 23.5277   2
  -2 -12  -5 198.256 25.7083   1
   2  12   5 155.909 18.1754   2
 -14   2   5 205.480 25.3184   1
  12 -14   5 232.917 26.8474   1
  15 -13  -5 421.077 34.6011   2
 -13  -2  -5 415.374 37.8319   1
  13   2   5 405.517 30.3743   2
   2 -15   5 388.492 26.7528   1
 -13   1  -5 497.988 40.6014   1
  12 -13  -5 369.636 31.8691   2
 -13   1  -5 410.789 38.5926   1
  13  -1   5 465.422 34.0785   2
 -12  13   5 527.049 33.9997   2
  -1 -12   5 486.311 25.0171   1
   4   9  -5 374.825 31.3950   4
 -13   4  -5 367.198 34.9856   1
   9 -13  -5 323.901 28.6144   2
  13  -4   5 350.201 35.4080   2
  -4  -9   5 312.848 19.5945   1
  13  -4   5 313.069 34.4267   7
  -9  13   5 365.445 28.0596   2
 -13   7  -5 367.262 34.1557   2
   6 -13  -5 367.638 27.6585   1
   7   6  -5 350.787 31.4574   4
  13  -7   5 361.098 33.0342   2
  -7  -6   5 340.890 25.8078   1
  -6  13   5 317.997 25.5698   2
  13  -7   5 337.983 31.9191   7
   3 -13  -5 85.2242 18.2198   1
 -13  10  -5 75.5509 18.7318   2
 -10  -3   5 47.6637 16.8389   1
  -3  13   5 65.0036 14.5735   2
  -3  13   5 95.2903 17.4172   5
 -13  13  -5 -4.6174 12.8440   2
   0 -13  -5 -1.7547 12.6514   1
   0  13   5 -15.682 8.47977   2
 -13   0   5 -4.8575 12.9781   1
  13 -13   5 -4.5560 13.7565   1
  -3 -13  -5 190.351 28.6075   1
 -13  16  -5 136.195 22.4889   2
  13 -16   5 83.8880 21.0048   1
   3  13   5 162.391 17.2170   2
 -16   3   5 175.945 26.2683   1
 -14   0  -5 -1.3689 17.8817   1
 -14   0  -5 -24.468 16.5980   1
  14 -14  -5 7.94700 14.7188   2
  14   0   5 11.0664 13.6662   2
 -14  14   5 3.89484 14.6402   2
   0 -14   5 7.91695 11.2390   1
   3  11  -5 8.30390 15.0144   4
  11 -14  -5 -9.0873 12.6661   2
 -14   3  -5 10.6264 18.5483   1
  14  -3   5 38.6679 19.5426   7
 -11  14   5 13.4477 13.3399   2
  -3 -11   5 2.13625 9.69761   1
  14  -3   5 9.93519 15.4490   2
   6   8  -5 1.20694 14.5599   4
  14  -6   5 9.10981 16.6286   7
  14  -6   5 -23.181 13.6466   2
  -6  -8   5 4.67029 11.0047   1
  -8  14   5 -9.7107 11.2880   2
   5 -14  -5 169.265 21.9612   1
 -14   9  -5 124.315 22.7032   2
  -9  -5   5 191.089 23.4380   1
  -5  14   5 152.562 21.8201   5
  -5  14   5 159.382 20.2761   2
  14  -9   5 156.685 24.4866   2
   2 -14  -5 178.634 23.9413   1
 -14  12  -5 172.410 25.2917   2
 -12  -2   5 170.325 24.1555   1
  -2  14   5 168.655 19.8445   2
 -14  15  -5 632.547 39.7860   2
  -1 -14  -5 602.951 40.3044   1
   1  14   5 580.007 29.2525   2
 -15   1   5 637.011 41.0499   1
  14 -15   5 587.121 41.4933   1
   2  13  -5 394.672 39.3928   4
  13 -15  -5 377.835 35.2982   2
 -15   2  -5 479.714 43.4851   1
  15  -2   5 474.267 35.5530   2
 -13  15   5 386.143 34.9152   2
  -2 -13   5 421.326 25.9300   1
   5  10  -5 108.558 23.5359   4
 -10  15   5 169.270 22.8293   2
  -5 -10   5 129.333 17.7994   1
  15  -5   5 149.054 26.6839   2
   7 -15  -5 42.0517 16.6666   1
 -15   8  -5 14.9486 18.3558   2
  15  -8   5 32.1488 19.4347   2
  -8  -7   5 34.1176 15.8006   1
  -7  15   5 36.7883 14.8971   2
   4 -15  -5 531.522 36.0737   1
 -15  11  -5 493.452 38.8476   2
  -4  15   5 525.270 31.6926   2
 -11  -4   5 557.702 36.4360   1
 -15  14  -5 586.292 40.9882   2
   1 -15  -5 561.640 38.8701   1
 -14  -1   5 561.591 40.1192   1
  -1  15   5 565.236 30.3686   2
   4  12  -5 426.840 42.1341   4
  16  -4   5 366.344 35.7343   2
  -4 -12   5 392.028 27.4434   1
 -12  16   5 322.481 31.7148   2
   7   9  -5 143.084 28.5560   4
  -7  -9   5 172.814 22.9645   1
  16  -7   5 186.094 31.0476   2
  -9  16   5 98.8021 20.0655   2
   6 -16  -5 119.576 22.3633   1
 -16  10  -5 116.260 24.7822   2
  -6  16   5 132.070 20.2827   2
  16 -10   5 98.3780 25.2822   2
 -10  -6   5 118.004 21.4492   1
 -16  13  -5 159.881 26.2136   2
   3 -16  -5 147.201 24.1745   1
 -13  -3   5 156.797 25.5190   1
  -3  16   5 125.936 18.6749   2
   6  11  -5 193.460 31.8649   4
 -11  17   5 191.105 25.7251   2
  17  -6   5 210.731 31.6206   2
  -6 -11   5 244.831 26.0314   1
  -9  -8   5 86.2053 19.7547   1
  -8  17   5 46.7869 15.9099   2
  17  -9   5 46.5938 22.3618   2
   0   0  -6 8728.94 143.031   2
   0   0   6 8729.67 133.106   5
  -1   2  -6 1208.51 22.9627   2
  -1   2  -6 1240.29 33.0490   4
  -1  -1  -6 1192.27 31.5403   2
   2  -1  -6 1218.03 25.3369   2
   1   1   6 1199.80 29.5620   5
   1  -2   6 1196.14 29.9346   3
  -2   1   6 1230.33 27.6958   6
   1  -2  -6 1211.38 29.2101   2
  -2   1  -6 1275.01 31.7347   2
   1   1  -6 1186.37 33.3185   4
   2  -1   6 1178.18 36.8959   7
  -1   2   6 1209.65 31.1260   6
  -1  -1   6 1228.72 29.8970   7
   2  -1   6 1181.41 34.5560   3
  -2   4  -6 2101.20 49.1903   4
   4  -2  -6 2097.49 41.6411   6
   4  -2  -6 2131.76 41.5989   2
  -2  -2  -6 2068.00 52.1658   2
   2  -4   6 2211.55 45.6552   3
   2   2   6 2019.45 48.2162   5
   2  -4   6 2040.83 45.8217   1
  -4   2   6 2069.69 42.1903   1
   2   2   6 2161.24 54.4203   2
   3  -3  -6 1172.98 30.1768   6
   3  -3  -6 1227.37 29.8933   2
  -3   0  -6 1214.12 37.6898   2
   3   0   6 1250.43 40.6321   2
  -3   3   6 1195.43 30.2035   1
  -3   3   6 1200.57 29.9712   6
   3   0   6 1283.30 42.9639   7
  -3   3  -6 10.1254 8.27491   2
  -3   3  -6 20.3918 7.72572   4
   0  -3  -6 16.7075 7.21957   2
   3   0  -6 28.9486 9.12960   4
   0   3   6 15.7156 7.72864   6
   3  -3   6 30.4871 9.43498   3
  -3   0   6 16.3069 3.63338   6
   0   3   6 14.9606 6.74101   5
   0   3   6 13.0555 8.08636   2
   3  -3   6 18.3308 9.81312   1
  -3   6  -6 69.3571 11.4618   4
  -3  -3  -6 46.1835 12.6888   2
  -3   6  -6 69.7095 5.30826   2
   6  -3  -6 58.0897 8.16039   2
   6  -3  -6 61.3733 7.69004   6
  -3   6  -6 67.1017 6.29542   2
  -3  -3  -6 76.6630 13.7861   1
   3   3   6 56.9504 12.5661   2
  -6   3   6 46.9144 8.08539   1
   3  -6   6 56.9045 8.39762   1
   3  -6   6 67.1098 8.61652   3
  -4  -1  -6 112.229 15.5272   2
  -1   5  -6 133.398 8.22998   5
  -1   5  -6 155.436 14.7846   4
   5  -4  -6 146.220 11.9872   2
   5  -4  -6 144.021 11.4784   6
  -5   4   6 146.291 12.2167   1
   4   1   6 156.949 18.5622   2
   1  -5   6 128.403 8.57468   3
  -5   4   6 109.470 11.0874   2
   1  -5   6 148.378 10.1216   1
   2   2  -6 2127.41 50.1732   4
   2  -4  -6 2130.49 47.0779   2
  -4   2  -6 2079.16 53.1051   2
  -2   4   6 2145.85 48.0874   2
  -2   4   6 2096.61 47.4169   6
   4  -2   6 2141.46 53.9443   7
   4  -2   6 2100.68 53.5715   1
   4  -2   6 2098.01 51.5114   2
  -2   4   6 2113.79 45.8885   1
   5  -1  -6 282.933 11.1914   7
  -4   5  -6 258.071 16.1514   4
  -1  -4  -6 301.655 19.1826   2
  -4   5  -6 285.609 18.1213   2
  -1  -4  -6 277.041 18.1785   1
   5  -1  -6 273.441 9.94387   6
  -5   1   6 260.101 12.2455   3
   4  -5   6 285.475 17.1114   1
   1   4   6 256.841 18.4216   2
   1   4   6 289.195 17.8772   5
   1   4   6 276.487 19.0168   6
  -5   1   6 259.748 12.3377   1
   4  -5   6 281.188 16.3773   3
   8  -4  -6 1336.31 35.8650   2
  -4  -4  -6 1294.52 46.4810   2
  -4  -4  -6 1336.10 45.3337   1
  -4   8  -6 1267.35 40.6400   4
  -4   8  -6 1315.93 30.9133   2
   8  -4  -6 1355.93 35.6205   2
   4  -8   6 1279.04 35.1955   3
   4   4   6 1303.77 44.8964   2
  -8   4   6 1304.70 37.6993   1
   4  -8   6 1308.11 35.3892   1
   4   4   6 1357.95 46.4877   6
  -2   7  -6 548.530 26.0447   4
   7  -5  -6 504.889 21.5388   2
  -5  -2  -6 536.781 30.2359   2
   2  -7   6 516.901 17.7892   3
   5   2   6 483.635 29.6593   2
   2  -7   6 520.140 17.8512   1
  -7   5   6 504.120 22.1344   1
   1   4  -6 134.831 14.1067   4
   4  -5  -6 113.160 11.5133   2
  -5   1  -6 163.629 18.5912   2
   5  -1   6 122.232 17.6201   7
  -4   5   6 137.905 12.6647   1
   5  -1   6 133.388 16.9530   1
  -4   5   6 150.899 13.9562   2
   5  -1   6 134.960 17.6440   2
  -5   4  -6 271.457 20.6001   2
   4   1  -6 302.699 17.6297   4
  -5   4  -6 273.440 15.4396   4
   1  -5  -6 257.116 16.9376   2
   5  -4   6 279.439 17.4918   2
   5  -4   6 287.989 19.8297   1
  -1   5   6 271.312 17.2739   2
  -4  -1   6 283.974 10.0064   1
  -1   5   6 266.430 16.1090   5
  -1   5   6 280.789 17.3611   6
  -4  -1   6 268.853 9.74617   3
   5  -4   6 276.761 18.8792   3
   7  -2  -6 94.4244 9.86661   2
   7  -2  -6 70.2562 9.61026   7
  -5   7  -6 77.5530 11.8331   4
  -2  -5  -6 70.0966 14.2204   2
  -2  -5  -6 71.6115 12.7696   1
  -5   7  -6 100.972 13.2600   2
   5  -7   6 81.3929 10.7291   3
   2   5   6 55.8268 11.6150   2
   2   5   6 60.9496 12.7536   5
   2   5   6 74.6075 12.9676   6
  -7   2   6 69.4488 9.46687   1
   5  -7   6 82.0122 10.9628   1
  -5  -5  -6 360.615 29.1823   1
  10  -5  -6 344.003 20.9070   2
  -5  10  -6 311.932 17.1796   2
  -5  10  -6 274.432 22.1181   4
   5   5   6 309.511 26.3905   2
   5   5   6 296.841 26.5871   6
 -10   5   6 279.483 21.3900   1
   5 -10   6 311.132 19.5403   1
   5 -10   6 303.635 19.0182   3
  -6  -3  -6 1066.76 43.3560   1
  -3   9  -6 1095.75 39.7263   4
   9  -6  -6 1046.34 34.5652   2
  -9   6   6 1044.72 35.3113   1
   3  -9   6 1010.44 30.1758   3
   3  -9   6 1017.44 30.1197   1
   6   3   6 1091.98 42.6623   2
  -6   0  -6 950.285 36.8517   1
   0   6  -6 889.747 32.7595   4
   0   6  -6 914.803 25.3101   5
   6  -6  -6 845.197 29.3012   2
  -6   0  -6 865.810 37.0078   2
   0  -6   6 905.882 19.6382   1
   6   0   6 901.772 40.1506   7
   0  -6   6 872.828 20.2207   3
   6   0   6 885.792 37.1747   2
   6   0   6 883.138 36.6258   1
  -6   6   6 869.789 29.0300   1
   3  -6  -6 60.5425 10.0327   2
  -6   3  -6 76.8092 14.6091   2
   3   3  -6 65.7604 11.1756   4
   6  -3   6 79.2565 13.9120   1
   6  -3   6 63.2967 12.5196   2
  -3   6   6 71.0758 11.0222   2
  -3   6   6 56.7539 9.87936   1
   6  -3   6 56.4463 12.6158   7
   6   0  -6 943.224 32.2335   4
   0  -6  -6 907.324 31.5013   1
   0  -6  -6 916.814 32.9601   2
  -6   6  -6 901.034 33.2516   2
  -6   6  -6 883.797 28.4729   4
   0   6   6 920.855 32.8113   6
   6  -6   6 941.387 32.0983   3
   0   6   6 909.217 31.0730   5
  -6   0   6 913.985 24.6219   1
   6  -6   6 916.838 32.5136   1
   0   6   6 894.967 32.2039   2
  -6   0   6 913.604 24.1396   3
  -6   9  -6 10.5757 9.61973   2
  -6   9  -6 21.6622 10.4572   4
  -3  -6  -6 13.8889 11.3756   1
   9  -3  -6 45.4752 10.4653   7
   9  -3  -6 39.9926 10.2766   2
   6  -9   6 31.4252 9.75262   1
  -9   3   6 17.8798 8.34453   1
   6  -9   6 23.2755 9.03267   3
   3   6   6 6.64311 11.3360   5
   3   6   6 23.4571 11.4591   2
   3   6   6 34.3661 11.4850   6
  -6  12  -6 271.959 16.8429   2
  12  -6  -6 276.581 22.0287   2
  -6  12  -6 292.865 26.3520   4
  -6  -6  -6 278.631 29.6281   1
   6   6   6 257.059 25.4897   2
 -12   6   6 296.753 25.7672   1
   6 -12   6 260.338 21.7493   3
   6 -12   6 299.056 21.9079   1
  -4  11  -6 228.503 23.5737   4
  -7  -4  -6 217.871 26.0460   1
  11  -7  -6 231.999 20.2653   2
 -11   7   6 226.971 21.0230   1
   4 -11   6 219.022 17.4479   3
   7   4   6 255.648 25.4558   2
   4 -11   6 212.773 17.3417   1
  -7  -1  -6 142.960 19.8020   1
  -1   8  -6 137.886 17.6705   4
  -7  -1  -6 117.022 19.0594   2
   8  -7  -6 155.977 15.6893   2
  -8   7   6 146.642 15.7242   1
   1  -8   6 136.890 10.6334   3
   1  -8   6 136.782 10.4341   1
   7   1   6 166.256 21.3932   2
  -8   7   6 168.776 17.8668   2
  -7   2  -6 491.203 27.9483   1
  -7   2  -6 513.821 30.0182   2
   5  -7  -6 458.587 22.4653   2
   2   5  -6 532.891 25.6617   4
  -7   2  -6 504.269 28.7945   1
   7  -2   6 458.665 29.7148   7
  -5   7   6 507.697 22.3395   1
  -5   7   6 490.506 23.4759   2
  -2  -5   6 497.141 11.0767   3
   7  -2   6 465.918 27.6378   1
   7  -2   6 495.658 29.3204   2
   2  -7  -6 80.5825 12.2306   2
   2  -7  -6 87.5140 12.1679   1
   5   2  -6 76.4615 12.7510   4
  -7   5  -6 66.4602 13.7316   2
  -2   7   6 63.3931 11.0723   6
  -5  -2   6 72.8189 6.56282   3
   7  -5   6 67.1987 13.0785   1
  -2   7   6 69.9493 11.2275   2
   7  -5   6 70.7776 13.5016   3
   7  -5   6 116.846 14.7016   2
  -2   7   6 91.3126 12.3521   5
  -2   7   6 86.6213 11.9808   1
  -5  -2   6 97.4859 9.59260   1
  -7   8  -6 1253.01 37.1093   4
  -1  -7  -6 1284.19 44.3888   2
  -7   8  -6 1304.25 41.2075   2
  -1  -7  -6 1242.90 40.9615   1
   1   7   6 1283.85 42.7166   6
  -8   1   6 1189.36 34.2875   1
   7  -8   6 1226.46 39.1864   3
   1   7   6 1273.34 40.7165   2
   7  -8   6 1237.36 39.7632   1
   1   7   6 1172.50 40.8828   5
  11  -4  -6 43.4978 12.2314   2
  -4  -7  -6 48.7987 16.0704   1
  -7  11  -6 32.6204 12.5115   4
  -7  11  -6 46.3803 12.4280   2
 -11   4   6 56.3938 12.6429   1
   4   7   6 38.7572 12.5251   2
   7 -11   6 37.3475 11.8732   1
   7 -11   6 44.5131 12.3937   3
  -7  -7  -6 1010.14 51.3326   1
  14  -7  -6 884.303 39.5145   2
  -7  14  -6 802.623 42.0246   4
   7   7   6 848.635 40.3858   2
   7 -14   6 843.689 37.2748   1
 -14   7   6 902.052 42.0134   1
  13  -8  -6 872.368 37.7870   2
  -5  13  -6 850.720 42.1047   4
  13  -8  -6 755.175 36.1839   2
  -8  -5  -6 879.236 45.8687   1
 -13   8   6 922.988 40.3630   1
   5 -13   6 819.019 33.3659   1
   5 -13   6 837.269 33.0575   3
   8   5   6 814.318 40.6828   2
  10  -8  -6 19.9053 10.2674   2
  -2  10  -6 32.9854 13.0639   4
  -8  -2  -6 33.3758 15.2518   1
   8   2   6 42.9089 14.1407   2
   2 -10   6 16.1396 7.36553   3
 -10   8   6 28.8741 11.3949   1
   2 -10   6 19.7965 8.02040   1
   7  -8  -6 145.366 15.5061   2
  -8   1  -6 94.4753 17.0242   2
  -8   1  -6 202.477 22.7461   1
   1   7  -6 141.668 17.1098   4
  -1  -7   6 144.661 8.43236   1
  -7   8   6 141.708 16.0905   1
   8  -1   6 116.736 19.1510   2
  -1  -7   6 131.830 9.02845   3
  -7   8   6 128.645 14.9085   2
   8  -1   6 142.003 20.9578   7
   4   4  -6 1337.75 42.3802   4
   4  -8  -6 1350.63 40.1640   1
  -8   4  -6 1362.93 46.8827   2
   4  -8  -6 1363.44 40.8448   2
   8  -4   6 1335.55 45.1279   1
  -4  -4   6 1316.35 25.4076   1
   8  -4   6 1340.23 47.6152   7
   8  -4   6 1346.85 45.7030   2
  -4   8   6 1368.53 39.8625   1
  -4  -4   6 1253.29 27.3379   3
  -4   8   6 1330.53 40.7068   2
   1  -8  -6 1209.39 40.9571   2
  -8   7  -6 1241.94 42.8208   2
   1  -8  -6 1253.33 40.0693   1
   7   1  -6 1273.45 40.3306   4
  -7  -1   6 1216.79 31.4208   3
   8  -7   6 1299.46 42.6067   1
  -1   8   6 1240.34 39.1763   5
  -7  -1   6 1231.19 33.3201   1
  -1   8   6 1233.33 40.2621   2
  -7  -1   6 1250.18 33.6977   1
  -1   8   6 1215.05 40.4157   6
  -2  -8  -6 8.32888 11.7120   1
  10  -2  -6 34.0709 7.93196   2
  -8  10  -6 30.1980 11.7098   2
   2   8   6 15.1322 10.9405   2
   8 -10   6 11.6107 9.72802   1
   2   8   6 25.3013 13.4496   5
 -10   2   6 8.43610 8.73907   1
  -8  13  -6 26.4414 12.3239   2
  13  -5  -6 37.8583 13.4507   2
  -5  -8  -6 40.4274 17.8358   1
  -8  13  -6 29.6666 14.4170   4
   8 -13   6 39.2461 12.8828   1
 -13   5   6 40.8410 13.5207   1
   5   8   6 30.5019 14.3049   2
  -8  -8  -6 1135.85 58.0301   1
  -8  16  -6 1119.81 52.1776   4
  16  -8  -6 1049.15 46.8893   2
   8   8   6 970.716 41.5201   2
   8 -16   6 1054.07 44.8708   1
 -16   8   6 1005.38 49.1271   1
  -6  15  -6 188.397 26.8239   4
  -9  -6  -6 127.865 25.0883   1
  15  -9  -6 138.786 21.1061   2
 -15   9   6 178.413 24.6017   1
   6 -15   6 177.019 20.9881   3
   9   6   6 167.408 22.2527   2
   6 -15   6 152.707 19.8160   1
  12  -9  -6 362.698 26.4863   2
  -9  -3  -6 363.479 33.2134   1
 -12   9   6 351.158 28.2745   1
   3 -12   6 344.900 21.0358   3
   9   3   6 410.849 30.8697   2
   3 -12   6 384.853 21.7034   1
  -9   0  -6 27.2233 14.3241   1
   0   9  -6 10.0528 11.1316   4
   9  -9  -6 20.0950 10.3411   2
   0  -9   6 8.71681 6.17980   3
  -9   9   6 25.2106 10.5047   1
  -9   9   6 5.25437 9.63927   2
   9   0   6 10.1325 13.1787   2
   0  -9   6 -2.9811 5.99122   1
  -9   3  -6 1035.84 43.3377   1
   6  -9  -6 1033.28 36.9047   2
  -9   3  -6 1084.94 44.5143   2
   3   6  -6 1017.70 39.2381   4
   9  -3   6 981.984 42.9518   2
  -6   9   6 1067.43 36.3890   1
   9  -3   6 1013.98 46.2400   7
   9  -3   6 1049.32 41.8316   1
  -3  -6   6 1036.54 22.4322   1
  -6   9   6 1106.10 38.1013   2
   3  -9  -6 21.6533 9.97550   1
  -9   6  -6 5.11101 11.2217   2
   3  -9  -6 16.1100 9.71570   2
   6   3  -6 34.3800 11.7404   4
  -6  -3   6 29.3271 6.71311   3
  -3   9   6 21.5447 10.2365   5
   9  -6   6 15.1029 11.3210   1
  -3   9   6 33.8010 10.4446   2
   9  -6   6 35.9552 12.2042   2
  -6  -3   6 4.39496 8.19796   1
  -9   9  -6 2226.03 61.2383   2
   0  -9  -6 2096.03 58.9268   1
   0   9   6 2208.94 58.5276   2
  -9   0   6 2134.79 52.8943   1
   0   9   6 2141.40 58.2876   5
   9  -9   6 2030.12 58.9893   1
  -9  12  -6 74.1755 15.7118   2
  -3  -9  -6 111.567 19.9310   1
  12  -3  -6 76.8996 12.7207   2
 -12   3   6 97.9878 16.1814   1
   9 -12   6 95.8906 17.1473   1
   3   9   6 71.7508 14.7169   2
   3   9   6 92.9701 20.4320   5
  15  -6  -6 1246.64 46.5637   2
  -6  -9  -6 1192.75 58.2005   1
  -9  15  -6 1190.58 40.6425   2
   6   9   6 1082.72 43.6686   2
 -15   6   6 1253.15 49.9897   1
   9 -15   6 1209.60 48.0928   1
  14 -10  -6 560.829 34.4118   2
  -4  14  -6 487.498 36.4299   4
  14 -10  -6 542.755 33.1248   2
 -10  -4  -6 548.514 39.4510   1
   4 -14   6 505.727 27.9454   3
   4 -14   6 477.738 27.0745   1
 -14  10   6 521.433 35.8406   1
  10   4   6 478.381 33.0625   2
  -1  11  -6 59.6173 17.5429   4
 -10  -1  -6 68.1373 18.2843   1
  11 -10  -6 73.9367 15.3120   2
 -11  10   6 57.0964 14.4452   1
   1 -11   6 67.9941 10.5063   3
  10   1   6 62.2011 17.3017   2
   1 -11   6 75.2254 11.1220   1
 -10   2  -6 47.9367 16.8469   1
 -10   2  -6 26.9444 16.3750   2
   2   8  -6 32.3567 13.1319   4
 -10   2  -6 11.4209 14.2136   1
   8 -10  -6 31.4038 11.0410   2
  -8  10   6 16.6612 9.86817   1
  -2  -8   6 30.8797 6.68900   1
  -8  10   6 38.2269 11.7666   2
  10  -2   6 6.64624 14.1467   2
  10  -2   6 35.9080 16.6574   7
   5   5  -6 287.843 23.4613   4
 -10   5  -6 354.244 29.5405   2
   5 -10  -6 349.005 23.0002   1
   5 -10  -6 321.655 23.7347   2
  10  -5   6 279.093 25.8672   1
  -5  10   6 289.880 22.0903   2
  10  -5   6 269.553 26.7507   7
  -5  -5   6 305.812 15.3843   1
  10  -5   6 349.640 29.2690   2
  -5  -5   6 302.938 18.4285   3
 -10   8  -6 14.4430 12.4549   2
   2 -10  -6 29.6130 11.7006   1
  10  -8   6 0.43904 11.7636   1
  -2  10   6 24.9015 10.2766   2
  -2  10   6 21.9069 11.1349   5
  -8  -2   6 22.4477 10.4601   1
  -1 -10  -6 8.62718 13.2187   1
 -10  11  -6 35.6776 13.8434   2
   1  10   6 37.2569 14.6585   5
  10 -11   6 43.0303 14.1237   1
 -11   1   6 37.6943 12.5029   1
   1  10   6 33.6372 11.8953   2
 -10  14  -6 473.016 30.9300   2
  14  -4  -6 551.981 26.0702   2
  -4 -10  -6 583.741 39.9073   1
  10 -14   6 552.709 34.2238   1
   4  10   6 526.545 31.0468   2
 -14   4   6 530.707 33.4870   1
  16 -11  -6 49.1888 17.5634   2
  -5  16  -6 45.1352 19.3353   4
 -11  -5  -6 83.1745 22.7239   1
  11   5   6 29.5436 15.0511   2
   5 -16   6 53.6031 14.9651   3
   5 -16   6 75.0420 16.3105   1
 -11  -2  -6 0.07073 15.4582   1
  -2  13  -6 26.4560 15.5382   4
  13 -11  -6 17.6329 13.4634   2
   2 -13   6 14.3613 10.2950   1
  11   2   6 12.6217 13.6052   2
   2 -13   6 11.6291 8.99757   3
 -11   1  -6 29.7597 17.4947   1
   1  10  -6 66.4391 17.5811   4
  10 -11  -6 79.3548 16.3223   2
 -11   1  -6 98.3126 21.1167   1
  11  -1   6 76.5264 18.3711   2
  -1 -10   6 43.8430 9.46404   1
 -10  11   6 54.4524 15.0094   2
   7 -11  -6 189.606 20.3398   2
   4   7  -6 262.262 25.6768   4
 -11   4  -6 219.228 26.9367   2
  11  -4   6 204.110 25.9506   2
  11  -4   6 226.593 27.8258   7
  -4  -7   6 222.959 13.2440   1
  -7  11   6 211.949 20.5325   2
   7   4  -6 42.7782 14.3108   4
   4 -11  -6 48.0149 13.9416   1
 -11   7  -6 66.2887 17.1081   2
  11  -7   6 30.9323 14.1833   2
  -4  11   6 66.4619 14.0971   2
  -7  -4   6 65.1000 13.6613   1
  -7  -4   6 53.5099 11.1025   3
  -4  11   6 53.7193 13.2544   5
  11  -7   6 51.2023 16.0612   1
   1 -11  -6 59.6384 14.3368   1
 -11  10  -6 23.7525 13.5977   2
  11 -10   6 34.0565 14.0939   1
  -1  11   6 22.5652 11.1314   2
 -10  -1   6 42.3643 13.2447   1
  -1  11   6 13.2442 12.0186   5
  -2 -11  -6 284.887 28.9614   1
 -11  13  -6 364.981 30.1421   2
   2  11   6 346.294 26.0997   2
   2  11   6 340.631 32.0106   5
  11 -13   6 316.659 28.3477   1
 -13   2   6 327.479 27.6694   1
 -11  16  -6 352.354 28.3660   2
  -5 -11  -6 368.520 38.7487   1
  11 -16   6 323.498 30.7131   1
   5  11   6 374.359 26.6408   2
 -16   5   6 384.544 34.0635   1
 -12  -3  -6 386.517 36.9288   1
  -3  15  -6 334.524 35.4288   4
  15 -12  -6 321.986 30.7052   2
  12   3   6 339.238 29.6658   2
   3 -15   6 377.113 25.6350   3
   3 -15   6 319.298 25.1494   1
   0  12  -6 313.471 32.0321   4
 -12   0  -6 363.889 36.1050   1
  12 -12  -6 362.374 30.0316   2
 -12   0  -6 402.138 36.3027   1
  12   0   6 389.080 32.1634   2
   0 -12   6 387.990 21.6748   1
 -12   3  -6 298.840 32.4767   1
   9 -12  -6 389.726 28.4722   2
   3   9  -6 355.626 32.0252   4
  12  -3   6 345.023 33.5848   2
  -3  -9   6 332.073 17.3742   1
  -9  12   6 335.391 27.2333   2
  12  -3   6 351.677 35.2085   7
   6   6  -6 277.038 26.6840   4
   6 -12  -6 288.368 24.9309   1
 -12   6  -6 261.240 28.1124   2
  -6  -6   6 265.086 19.7745   1
  -6  -6   6 265.647 21.7909   3
  -6  12   6 259.818 24.4168   2
  12  -6   6 255.001 29.1467   7
  12  -6   6 210.747 27.0331   2
   3 -12  -6 78.5199 16.4473   1
 -12   9  -6 98.1895 19.9700   2
  -9  -3   6 60.7135 15.6256   1
  -3  12   6 113.486 17.8744   5
  -3  12   6 80.4648 14.9850   2
  12  -9   6 99.1280 19.8000   1
   0 -12  -6 277.040 27.2393   1
 -12  12  -6 322.025 28.5496   2
   0  12   6 258.407 23.9148   2
   0  12   6 245.755 26.4908   5
  12 -12   6 266.100 27.9246   1
 -12   0   6 307.342 26.8551   1
 -12  15  -6 28.5165 15.4629   2
  -3 -12  -6 32.2231 17.8288   1
   3  12   6 16.0585 12.8940   2
 -15   3   6 35.6491 16.0704   1
  12 -15   6 14.9155 14.4011   1
 -13  -1  -6 -22.691 15.6887   1
  -1  14  -6 3.25756 15.7768   4
  14 -13  -6 -13.340 11.7043   2
 -13  -1  -6 1.94449 17.5669   1
  13   1   6 -8.3694 12.2700   2
   1 -14   6 6.26097 10.2364   1
  11 -13  -6 -20.118 11.7959   2
 -13   2  -6 36.9596 19.6898   1
   2  11  -6 7.92799 15.4361   4
  13  -2   6 15.6232 15.8375   2
 -11  13   6 21.3389 14.1716   2
  -2 -11   6 18.4305 9.42460   1
 -13   5  -6 798.792 47.8009   2
   5   8  -6 791.594 43.5326   4
   8 -13  -6 855.458 41.3938   2
  -8  13   6 818.526 38.8215   2
  13  -5   6 900.016 49.2075   2
  -5  -8   6 818.598 29.4083   1
  13  -5   6 808.943 48.9488   7
   5 -13  -6 53.9249 14.9060   1
 -13   8  -6 55.2552 18.2544   2
  -8  -5   6 33.0547 13.7113   1
  -5  13   6 42.2363 14.7095   5
  13  -8   6 24.0511 15.1721   2
  -5  13   6 52.6951 13.8120   2
 -13  11  -6 324.173 31.3302   2
   2 -13  -6 274.219 27.3300   1
  13 -11   6 298.647 30.7107   1
  -2  13   6 294.375 28.3420   5
  -2  13   6 275.014 24.6199   2
 -11  -2   6 262.136 25.6408   1
  -1 -13  -6 598.081 39.8101   1
 -13  14  -6 695.622 40.9170   2
   1  13   6 667.674 33.7265   2
 -14   1   6 688.258 39.5632   1
  13 -14   6 667.566 40.7692   1
   1  13  -6 -1.9890 16.1069   4
 -14   1  -6 2.06286 17.2734   1
  13 -14  -6 9.71315 14.8389   2
 -13  14   6 -3.0849 13.1073   2
  -1 -13   6 1.21614 10.3353   1
  14  -1   6 3.68165 14.5123   2
  10 -14  -6 471.808 33.9186   2
   4  10  -6 497.392 38.0800   4
  14  -4   6 517.942 41.6476   2
  -4 -10   6 479.260 23.9181   1
 -10  14   6 558.550 35.1340   2
   7   7  -6 891.161 46.3374   4
 -14   7  -6 789.185 47.6420   2
  -7  14   6 847.621 40.1780   2
  -7  -7   6 907.639 37.5984   1
  14  -7   6 864.329 49.3650   2
  14  -7   6 744.484 48.3705   7
 -14  10  -6 569.140 40.6439   2
   4 -14  -6 581.624 36.4068   1
  -4  14   6 512.634 33.7360   5
  -4  14   6 575.515 33.0954   2
 -10  -4   6 570.082 34.1046   1
 -14  13  -6 587.036 40.6647   2
   1 -14  -6 676.658 40.7367   1
  -1  14   6 587.637 33.2290   2
 -13  -1   6 697.629 39.5646   1
  12 -15  -6 334.259 33.1086   2
   3  12  -6 313.714 35.2067   4
  -3 -12   6 331.468 22.6441   1
  15  -3   6 324.245 33.4679   2
 -12  15   6 338.977 32.6527   2
   6   9  -6 190.990 28.3877   4
  -9  15   6 187.266 23.9932   2
  -6  -9   6 156.517 19.4417   1
  15  -6   6 157.679 29.7383   2
   6 -15  -6 1241.38 52.0762   1
 -15   9  -6 1232.12 58.3030   2
  -6  15   6 1131.47 47.4047   2
  -9  -6   6 1250.90 47.5157   1
  15  -9   6 1258.72 58.6343   2
 -15  12  -6 17.7965 17.3063   2
   3 -15  -6 26.5347 15.3286   1
 -12  -3   6 20.3023 16.7794   1
  -3  15   6 29.0852 13.8367   2
   5  11  -6 48.7817 22.0104   4
  16  -5   6 26.0359 20.0645   2
 -11  16   6 59.8438 18.2324   2
  -5 -11   6 41.6706 13.8789   1
 -16   8  -6 994.297 57.9927   2
  16  -8   6 1085.73 58.1881   2
  -8  16   6 1094.18 48.1549   2
  -8  -8   6 1153.14 45.6143   1
 -16  11  -6 355.788 38.6565   2
   5 -16  -6 322.789 32.1978   1
 -11  -5   6 372.277 32.4110   1
  -5  16   6 356.587 30.4152   2
  -1   0  -7 -3.3756 5.14973   2
   1  -1  -7 -3.3505 4.37414   2
   0   1  -7 -2.0090 2.69085   2
   1   0   7 -11.889 5.59888   1
   0  -1   7 6.86125 8.50971   7
   0  -1   7 -2.7680 4.70783   1
  -1   1   7 -4.6882 4.43527   5
  -1   1   7 -0.3468 4.76773   1
   1   0   7 7.25746 10.2175   7
  -2  -1  -7 398.953 20.6332   2
  -1   3  -7 389.285 19.7319   4
   3  -2  -7 379.337 14.1140   2
  -3   2   7 383.016 15.3186   1
   1  -3   7 399.414 15.0407   1
   2   1   7 391.891 20.5740   1
  -3   2   7 390.201 15.3172   6
   2   1   7 353.638 23.8705   2
   1  -3   7 396.105 17.8017   3
   0  -2  -7 11.6214 6.35886   2
  -2   2  -7 -0.6398 5.18592   2
   2  -2   7 10.3517 8.48946   3
   0   2   7 -0.7413 5.54492   5
  -2   0   7 1.38623 4.65614   6
   0   2   7 -1.7184 5.44457   1
   2  -2   7 -2.9177 6.91209   7
   2  -2   7 -4.4415 6.75619   1
  -2   0   7 2.25286 4.02327   1
   0   2   7 5.28778 7.74453   2
   5  -3  -7 587.898 19.4195   2
  -2   5  -7 579.049 25.0541   4
   5  -3  -7 584.949 19.4916   6
  -3  -2  -7 624.534 29.6610   2
   2  -5   7 581.347 21.6426   1
  -5   3   7 596.348 20.7826   1
   2  -5   7 601.913 20.6300   3
   3   2   7 559.107 28.3914   1
   3   2   7 608.886 30.1505   2
   1   2  -7 393.013 20.3274   4
  -3   1  -7 411.013 21.2449   2
   2  -3  -7 369.466 16.4569   2
   3  -1   7 380.039 23.0570   3
  -2   3   7 385.282 18.3319   2
  -2   3   7 390.193 16.9018   1
  -2   3   7 370.897 17.4468   6
   3  -1   7 380.740 24.7730   7
   3  -1   7 363.146 22.9081   2
   3  -1   7 408.927 23.1459   1
  -3   4  -7 2833.93 55.9758   2
  -3   4  -7 2867.24 62.6868   4
   4  -1  -7 2829.81 53.0988   7
  -1  -3  -7 2805.93 63.0223   2
   1   3   7 2878.46 66.3072   2
   3  -4   7 2977.76 63.3600   3
  -4   1   7 2901.37 53.7688   1
   1   3   7 2827.13 66.0070   6
   1   3   7 2901.35 62.5209   1
  -4   1   7 2870.70 54.2241   3
   1   3   7 2933.57 60.0027   5
   3  -4   7 2867.97 63.0303   1
  -3   7  -7 119.028 15.1493   4
   7  -4  -7 128.078 11.1722   6
  -4  -3  -7 107.304 17.1206   2
  -4  -3  -7 131.727 18.7733   1
   7  -4  -7 141.311 12.2351   2
   3  -7   7 140.314 12.1996   1
   4   3   7 121.111 17.3949   1
   3  -7   7 119.096 10.9160   3
   4   3   7 123.101 18.3600   2
  -7   4   7 136.386 12.9385   1
   0   4  -7 8.86764 7.55002   4
   4  -4  -7 11.5114 6.27757   6
  -4   0  -7 -2.0764 8.44441   2
   4  -4  -7 4.84074 5.76543   2
  -4   4   7 12.0764 6.31557   1
   4   0   7 -2.2341 9.72412   2
  -4   4   7 -7.1191 5.55166   2
   4   0   7 6.09185 11.3192   7
   0  -4   7 0.90672 2.94424   1
   4   0   7 -0.5478 9.60931   1
   0  -4   7 -8.8864 5.03240   3
   3   1  -7 2845.30 65.0419   4
   1  -4  -7 2875.12 61.7801   2
  -4   3  -7 2890.52 65.3347   2
  -1   4   7 2926.85 61.0498   1
  -3  -1   7 3011.35 48.4468   6
   4  -3   7 2838.42 66.9303   1
  -1   4   7 3045.17 64.5481   2
  -1   4   7 2815.26 62.7858   6
  -3  -1   7 3005.07 49.1323   1
   4  -3   7 2869.19 67.5853   3
  -1   4   7 2896.18 57.8898   5
   6  -2  -7 1885.17 37.7312   2
  -2  -4  -7 1788.40 50.2651   1
  -4   6  -7 1873.90 48.3746   4
  -2  -4  -7 1869.21 52.8890   2
   6  -2  -7 1840.21 37.4198   6
  -4   6  -7 1828.56 42.4903   2
   2   4   7 1860.50 52.5732   2
   2   4   7 1819.06 52.0378   6
  -6   2   7 1832.56 41.6827   3
  -6   2   7 1834.17 40.9994   1
   4  -6   7 1922.79 45.2735   1
   2   4   7 1837.27 48.9982   5
   4  -6   7 1802.79 44.5993   3
   2   4   7 1784.55 50.1757   1
  -4   9  -7 211.176 21.1206   4
  -5  -4  -7 255.435 26.3342   2
   9  -5  -7 217.279 16.6792   2
  -5  -4  -7 236.601 25.2177   1
   5   4   7 241.844 24.3554   2
   4  -9   7 210.074 15.4789   3
   4  -9   7 235.691 16.6265   1
  -9   5   7 225.483 18.3734   1
   5   4   7 217.022 23.2379   6
  -5  -1  -7 650.031 32.1663   2
   6  -5  -7 630.103 23.6306   2
  -5  -1  -7 628.001 31.5160   1
  -1   6  -7 649.398 28.3708   4
   1  -6   7 662.502 18.6650   1
   1  -6   7 637.509 18.0402   3
   5   1   7 630.272 33.8173   2
  -6   5   7 621.569 24.0534   1
   2   3  -7 541.881 25.1835   4
  -5   2  -7 600.057 28.6134   2
   3  -5  -7 642.611 23.6500   2
   5  -2   7 573.643 27.9751   2
  -3   5   7 567.059 23.8685   2
   5  -2   7 621.047 30.8924   7
  -3   5   7 562.978 22.5372   1
   5  -2   7 582.817 28.8299   3
   5  -2   7 586.831 29.4655   1
  -3   5   7 559.392 22.9098   6
  -5   5  -7 -3.3082 6.59115   4
   5   0  -7 2.99855 8.34651   4
   0  -5  -7 1.60785 7.34414   2
  -5   5  -7 -5.1303 7.94166   2
   0  -5  -7 -0.8879 7.47880   1
   0   5   7 -1.4008 7.07417   6
   5  -5   7 1.14196 7.96228   3
   0   5   7 -12.125 7.20470   2
   0   5   7 -7.4890 6.97811   1
   0   5   7 -2.9793 6.82704   5
   5  -5   7 9.47855 9.04749   1
  -5   0   7 7.23531 4.67665   1
  -5   0   7 6.61670 4.22218   3
  -3  -5  -7 143.534 19.8388   2
   8  -3  -7 141.093 11.8696   2
  -3  -5  -7 134.291 17.9381   1
  -5   8  -7 154.012 17.0434   4
  -5   8  -7 165.112 14.2866   2
  -8   3   7 141.179 13.5588   1
   3   5   7 112.535 16.9682   2
   3   5   7 138.374 18.1752   6
   5  -8   7 126.761 13.5877   1
   3   5   7 139.027 18.4503   5
   5  -8   7 146.579 13.9793   3
  -6  -5  -7 -2.7085 13.9966   1
  -5  11  -7 12.0690 11.5582   4
  11  -6  -7 2.60764 9.56231   2
   5 -11   7 -0.3277 8.01717   3
   6   5   7 21.9658 13.3891   2
   5 -11   7 -11.570 7.70028   1
 -11   6   7 5.20441 9.94908   1
  -6  -2  -7 22.3936 12.8117   2
   8  -6  -7 14.2189 8.08664   2
  -6  -2  -7 12.7698 12.3814   1
  -2   8  -7 11.4895 10.7311   4
   2  -8   7 14.4542 5.81748   3
   2  -8   7 20.1327 6.79599   1
  -8   6   7 4.56232 8.40586   1
   6   2   7 16.6913 12.6490   2
  -6   1  -7 578.003 30.4899   1
  -6   1  -7 627.843 31.5845   2
   5  -6  -7 646.207 24.6257   2
   1   5  -7 606.838 27.5663   4
  -5   6   7 598.408 25.5465   2
   6  -1   7 656.537 33.6730   2
  -5   6   7 634.246 24.6602   1
   6  -1   7 700.633 32.7581   1
   6  -1   7 623.773 34.9728   7
   2  -6  -7 1916.24 47.6237   1
  -6   4  -7 1869.06 52.2457   2
   4   2  -7 1829.92 49.6032   4
   2  -6  -7 1781.02 47.1328   2
  -4  -2   7 1817.79 33.1614   3
  -2   6   7 1837.85 48.1601   6
  -2   6   7 1778.64 44.4187   5
   6  -4   7 1808.45 52.0928   1
   6  -4   7 1875.58 49.9284   2
  -2   6   7 1840.80 46.0642   1
   6  -4   7 1806.02 52.2642   3
  -4  -2   7 1827.23 33.3060   1
  -2   6   7 1858.76 48.4443   2
  -1  -6  -7 1179.42 40.9079   2
  -6   7  -7 1101.12 34.9310   4
  -1  -6  -7 1129.65 38.2538   1
  -6   7  -7 1025.71 36.8778   2
   6  -7   7 1084.98 36.1548   1
   6  -7   7 1059.94 35.0477   3
   1   6   7 1086.04 38.6922   2
   1   6   7 1094.42 37.8908   5
   1   6   7 1061.75 38.4249   6
  -7   1   7 1028.55 29.3672   1
  -7   1   7 1020.60 29.0853   3
  -6  10  -7 1363.62 45.2013   4
  -6  10  -7 1351.17 37.9115   2
  10  -4  -7 1321.88 38.2807   2
  -4  -6  -7 1413.47 51.1166   1
   6 -10   7 1353.13 41.3155   1
   6 -10   7 1438.40 42.0087   3
   4   6   7 1287.98 48.4917   2
 -10   4   7 1282.66 40.7360   1
  -7  -6  -7 3.28028 16.1492   1
  -6  13  -7 15.9350 13.6880   4
  13  -7  -7 21.1905 11.9419   2
   7   6   7 19.9483 15.0244   2
   6 -13   7 -2.9694 9.49551   3
 -13   7   7 18.4285 13.0289   1
   6 -13   7 9.38403 10.4261   1
  -3  10  -7 1016.45 42.1945   4
  10  -7  -7 1017.06 36.6042   2
  -7  -3  -7 1039.58 44.8334   1
   7   3   7 1086.76 44.9351   2
 -10   7   7 1032.16 38.3105   1
   3 -10   7 1027.60 31.4014   1
   3 -10   7 1045.90 31.2677   3
  -7   0  -7 1.48377 11.0656   2
   0   7  -7 -2.0317 9.40491   4
   7  -7  -7 1.20364 7.38072   2
  -7   0  -7 12.4273 12.0253   1
   0  -7   7 8.51080 4.40474   3
   7   0   7 -2.6798 10.8864   2
   7   0   7 -6.8732 11.3714   1
   7   0   7 17.9929 12.9409   7
  -7   7   7 0.64718 8.29353   1
  -7   7   7 -1.7633 7.80898   2
   0  -7   7 -5.9863 3.59566   1
  -7   3  -7 146.897 18.3421   2
   4  -7  -7 156.042 15.3475   1
   4  -7  -7 120.868 14.1917   2
   3   4  -7 148.158 16.6990   4
  -4   7   7 147.981 14.7682   1
   7  -3   7 101.427 16.3808   2
   7  -3   7 164.338 19.6374   1
  -4   7   7 146.828 16.2813   2
   7  -3   7 118.615 17.5520   7
   1  -7  -7 1032.86 36.2857   1
   6   1  -7 1084.62 37.3258   4
   1  -7  -7 1104.77 37.4475   2
  -7   6  -7 1106.20 39.8741   2
  -7   6  -7 1081.64 32.4586   4
  -1   7   7 1117.02 36.7838   1
  -6  -1   7 1050.47 26.9333   1
  -1   7   7 1060.27 37.2646   2
  -1   7   7 1068.19 35.2329   5
   7  -6   7 1059.95 38.4135   3
  -1   7   7 1114.99 37.6660   6
  -6  -1   7 1086.70 26.5918   3
   7  -6   7 1024.62 37.9824   1
  -2  -7  -7 144.699 18.5256   1
  -7   9  -7 176.263 17.8247   4
  -7   9  -7 164.097 18.3323   2
   2   7   7 179.999 19.4372   2
   7  -9   7 167.851 18.4655   1
  -9   2   7 153.863 14.9151   1
   7  -9   7 161.938 17.0019   3
   2   7   7 189.817 21.8109   5
  12  -5  -7 693.881 30.8161   2
  -5  -7  -7 698.197 41.5334   1
  -7  12  -7 707.919 26.9387   2
  -7  12  -7 684.365 35.8483   4
   7 -12   7 766.156 33.0914   3
   5   7   7 696.036 37.2120   2
 -12   5   7 657.574 32.6574   1
   7 -12   7 707.603 32.0843   1
  15  -8  -7 39.4364 15.0162   2
  -8  -7  -7 41.5961 21.3990   1
  -7  15  -7 8.26314 15.7196   4
   8   7   7 2.17854 14.3429   2
   7 -15   7 5.70640 11.5129   1
 -15   8   7 9.50112 13.3676   1
  -8  -4  -7 30.6939 16.7713   1
  12  -8  -7 34.7395 12.5859   2
  -4  12  -7 33.3106 15.4613   4
 -12   8   7 52.9412 14.5670   1
   8   4   7 23.3258 15.0843   2
   4 -12   7 45.5473 10.6480   3
   4 -12   7 16.7442 9.80068   1
   9  -8  -7 152.273 17.1093   2
  -8  -1  -7 144.350 20.5727   1
  -8  -1  -7 139.200 21.6194   2
  -1   9  -7 154.713 20.1025   4
  -9   8   7 123.956 16.3136   1
   1  -9   7 147.005 11.6713   3
   8   1   7 155.475 21.5004   2
   1  -9   7 150.311 11.7705   1
   6  -8  -7 0.23608 7.79740   2
  -8   2  -7 25.7191 13.4768   2
  -8   2  -7 24.3826 14.0331   1
   2   6  -7 12.9752 9.70758   4
  -8   2  -7 2.20553 11.2707   1
  -6   8   7 6.90548 8.55015   2
  -2  -6   7 10.2676 3.45412   3
   8  -2   7 0.20005 11.5051   1
   8  -2   7 -5.8119 12.1663   7
  -6   8   7 20.4050 9.16249   1
   8  -2   7 -18.825 11.1435   2
   5   3  -7 157.598 17.9458   4
   3  -8  -7 154.090 16.2247   1
   3  -8  -7 154.154 16.6664   2
  -8   5  -7 131.254 18.7293   2
   8  -5   7 154.390 18.5927   2
   8  -5   7 147.907 19.5296   1
  -5  -3   7 135.701 8.44822   3
  -5  -3   7 159.282 11.9022   1
  -3   8   7 167.810 16.6455   1
  -3   8   7 141.692 16.4858   2
   0  -8  -7 1.40236 9.45710   1
  -8   8  -7 -4.3243 10.2960   2
   0  -8  -7 -5.2800 9.83230   2
   0   8   7 7.97379 9.96169   2
   0   8   7 -1.8427 9.38622   5
   8  -8   7 3.57534 9.40972   1
  -8   0   7 7.64385 7.08536   1
  -8  11  -7 14.9120 11.7532   4
  -3  -8  -7 7.30200 13.4326   1
  11  -3  -7 2.04775 8.23495   2
  -8  11  -7 15.4836 12.1812   2
   3   8   7 23.5069 13.0050   2
   3   8   7 -20.575 12.5523   5
   8 -11   7 14.3578 10.5428   1
 -11   3   7 5.29794 9.68163   1
  -8  14  -7 -5.6247 13.8654   4
  -6  -8  -7 -29.674 14.8612   1
  14  -6  -7 -13.133 11.4744   2
 -14   6   7 5.10085 12.0090   1
   6   8   7 -11.394 12.2256   2
   8 -14   7 1.70474 11.0726   1
  14  -9  -7 23.3523 13.2306   2
  -9  -5  -7 11.1940 17.0320   1
  -5  14  -7 29.9584 17.3583   4
 -14   9   7 5.78124 13.0544   1
   5 -14   7 0.32897 10.0530   1
   9   5   7 -8.3568 13.2265   2
   5 -14   7 8.90697 10.3760   3
  -2  11  -7 321.239 29.8241   4
  -9  -2  -7 364.425 31.7771   1
  11  -9  -7 390.178 26.5926   2
   9   2   7 343.701 30.4275   2
   2 -11   7 346.923 19.1506   1
 -11   9   7 375.908 26.6634   1
   2 -11   7 350.688 18.9076   3
   8  -9  -7 122.166 15.7508   2
  -9   1  -7 144.717 22.3816   2
   1   8  -7 175.836 21.1580   4
  -9   1  -7 128.791 20.4539   1
  -8   9   7 136.427 17.1785   2
  -1  -8   7 167.535 10.2794   1
   9  -1   7 172.339 23.5913   2
   9  -1   7 129.066 21.7165   7
  -8   9   7 151.897 17.0268   1
  -1  -8   7 162.821 10.3688   3
   5  -9  -7 222.044 19.6777   1
   4   5  -7 203.299 20.8299   4
   5  -9  -7 248.447 20.9599   2
  -9   4  -7 243.334 25.3243   2
   9  -4   7 173.844 22.6783   2
  -5   9   7 270.561 20.2086   1
  -4  -5   7 218.297 12.4511   3
   9  -4   7 212.978 23.4141   1
  -4  -5   7 227.083 8.68525   1
  -5   9   7 235.122 20.7846   2
   9  -4   7 191.700 23.9571   7
   2  -9  -7 180.101 18.7540   1
   2  -9  -7 142.663 18.1712   2
   7   2  -7 160.989 19.5009   4
  -9   7  -7 170.346 20.9484   2
  -7  -2   7 149.490 12.2338   3
  -2   9   7 144.429 17.1121   5
  -7  -2   7 180.544 14.3992   1
  -2   9   7 163.500 17.8511   2
   9  -7   7 136.205 19.3768   1
  -9  10  -7 1093.83 42.2312   2
  -1  -9  -7 1097.47 42.4619   1
   9 -10   7 1017.37 40.5005   1
   1   9   7 1022.74 40.2939   2
   1   9   7 989.365 41.6540   5
 -10   1   7 982.268 34.7188   1
  -9  13  -7 144.344 19.2301   2
  -4  -9  -7 94.9683 21.8756   1
  13  -4  -7 96.0803 13.5748   2
   4   9   7 109.968 19.3591   2
 -13   4   7 121.681 18.3340   1
   9 -13   7 104.491 17.9888   1
  -7  -9  -7 -9.6908 19.0422   1
  16  -7  -7 14.5141 15.0610   2
 -16   7   7 14.4566 15.7959   1
   9 -16   7 6.46862 12.3966   1
   7   9   7 5.61959 13.8684   2
  -6  16  -7 35.6031 18.8236   4
  16 -10  -7 24.8045 15.4973   2
 -10  -6  -7 31.5352 20.7154   1
   6 -16   7 22.7722 12.8523   1
   6 -16   7 33.9541 13.7031   3
  10   6   7 33.7520 15.7329   2
 -16  10   7 41.1184 17.8669   1
 -10  -3  -7 18.2427 15.2607   1
  13 -10  -7 44.1737 14.7696   2
  -3  13  -7 34.7723 16.1718   4
   3 -13   7 23.4407 10.4133   3
 -13  10   7 11.2945 13.3711   1
   3 -13   7 33.1589 10.9961   1
  10   3   7 17.0185 14.5652   2
 -10   0  -7 6.30447 14.4428   1
  10 -10  -7 -5.0865 9.86081   2
   0  10  -7 20.1410 13.8598   4
  10   0   7 -6.8553 13.3463   2
 -10  10   7 14.4598 11.1931   1
   0 -10   7 11.1640 7.18996   1
   0 -10   7 -1.6470 5.93966   3
 -10   3  -7 1041.36 47.1290   2
   3   7  -7 1014.01 42.0634   4
   7 -10  -7 1009.48 39.0642   2
  10  -3   7 1084.88 50.7463   7
  -3  -7   7 1013.54 23.3839   1
  10  -3   7 1053.41 48.7036   2
 -10   6  -7 1364.39 51.9406   2
   4 -10  -7 1342.21 46.5754   2
   4 -10  -7 1427.92 45.9259   1
   6   4  -7 1424.69 48.6826   4
  -6  -4   7 1308.09 37.1276   1
  10  -6   7 1505.13 52.1130   2
  -4  10   7 1324.03 45.0296   2
  -6  -4   7 1349.71 33.4127   3
  10  -6   7 1358.01 50.8811   1
 -10   9  -7 1029.34 43.5576   2
   1 -10  -7 1082.39 42.2133   1
  10  -9   7 1002.46 43.3452   1
  -1  10   7 981.357 40.0788   5
  -9  -1   7 1086.91 34.9478   1
  -1  10   7 1062.46 40.9312   2
 -10  12  -7 1185.66 45.6424   2
  -2 -10  -7 1145.65 48.9143   1
  10 -12   7 1149.28 45.9457   1
   2  10   7 1109.22 44.3967   2
 -12   2   7 1185.63 42.8019   1
   2  10   7 1176.77 50.3992   5
  -5 -10  -7 15.0437 19.1135   1
 -10  15  -7 30.1284 14.1103   2
 -15   5   7 37.9024 15.8055   1
   5  10   7 18.6608 14.4186   2
  10 -15   7 35.5029 14.4463   1
  15 -11  -7 856.473 43.0355   2
  -4  15  -7 915.022 49.6700   4
  15 -11  -7 857.803 43.4158   2
 -11  -4  -7 865.748 50.0042   1
   4 -15   7 925.223 36.8970   3
 -15  11   7 918.966 46.5601   1
  11   4   7 827.205 42.4988   2
   4 -15   7 810.820 36.1624   1
  -1  12  -7 -4.1338 13.7168   4
  12 -11  -7 5.86847 13.2175   2
 -11  -1  -7 3.01416 16.1184   1
 -12  11   7 12.9290 13.6498   1
   1 -12   7 -16.689 6.58151   3
  11   1   7 -5.7478 12.8524   2
   1 -12   7 0.80564 8.44736   1
 -11   2  -7 369.654 36.4492   1
   9 -11  -7 318.076 25.1981   2
 -11   2  -7 367.541 36.0425   1
   2   9  -7 329.811 29.6728   4
 -11   2  -7 327.709 32.7581   2
  11  -2   7 312.814 32.6034   7
  11  -2   7 352.850 32.8025   2
  -9  11   7 315.021 25.8557   2
  -2  -9   7 325.737 15.3068   1
   5   6  -7 -5.7483 11.1042   4
   6 -11  -7 13.6698 10.8329   2
 -11   5  -7 -12.928 12.9772   2
  -5  -6   7 6.71384 8.95938   3
  11  -5   7 0.44575 13.9421   2
  -5  -6   7 10.3366 7.28415   1
  -6  11   7 13.7988 10.6559   2
  11  -5   7 9.53188 14.1900   7
   3 -11  -7 -2.2144 10.3643   1
 -11   8  -7 4.45923 14.3079   2
  -3  11   7 -4.9513 9.49146   5
  11  -8   7 10.5334 13.7578   1
  -8  -3   7 3.49624 9.70239   1
  -3  11   7 7.28239 10.2747   2
 -11  11  -7 -18.474 12.3716   2
   0 -11  -7 10.1813 12.7780   1
 -11   0   7 9.28859 10.8387   1
   0  11   7 7.27143 10.5121   2
  11 -11   7 -4.1243 11.6696   1
   0  11   7 -8.8753 11.7780   5
  -3 -11  -7 63.7542 20.1637   1
 -11  14  -7 65.7817 17.2495   2
   3  11   7 73.2651 15.9288   2
  11 -14   7 29.1287 15.4645   1
 -14   3   7 58.6105 16.2112   1
  -2  14  -7 415.128 38.4026   4
  14 -12  -7 506.363 34.7109   2
 -12  -2  -7 526.553 40.8444   1
  12   2   7 446.020 33.7391   2
   2 -14   7 443.835 26.6420   1
   2 -14   7 462.694 26.0265   3
 -12   1  -7 4.30257 17.1018   1
 -12   1  -7 9.13954 16.5059   1
   1  11  -7 -2.2691 14.0852   4
  11 -12  -7 17.0716 12.8989   2
  12  -1   7 25.3035 16.8342   2
  -1 -11   7 3.47809 7.72771   1
 -12   4  -7 19.0411 17.6443   2
   8 -12  -7 12.6547 12.6758   2
   4   8  -7 51.4465 16.0706   4
  -4  -8   7 33.0609 8.40663   1
  -8  12   7 28.3505 13.1025   2
  12  -4   7 43.1059 19.2751   7
  12  -4   7 76.5481 20.7599   2
 -12   7  -7 689.037 42.3939   2
   5 -12  -7 721.905 35.9259   1
   7   5  -7 735.361 38.4850   4
  -5  12   7 723.693 34.6312   5
  12  -7   7 646.497 40.7986   7
  -7  -5   7 655.407 29.3355   3
  -5  12   7 691.145 34.6979   2
  12  -7   7 734.378 41.7198   2
  -7  -5   7 669.539 30.2349   1
   2 -12  -7 1126.04 45.8381   1
 -12  10  -7 1119.77 50.2670   2
  -2  12   7 1149.64 45.1651   2
  -2  12   7 1135.69 45.7496   5
 -10  -2   7 1184.37 41.3540   1
  12 -10   7 1196.08 50.7270   1
 -12  13  -7 27.4728 15.7053   2
  -1 -12  -7 71.3903 19.1193   1
 -13   1   7 25.1120 14.3258   1
   1  12   7 16.2899 13.2986   2
  12 -13   7 12.2939 15.7150   1
 -12  16  -7 41.0120 17.4963   2
  -4 -12  -7 75.7344 23.1872   1
   4  12   7 81.8873 17.3640   2
  12 -16   7 62.3347 18.4584   1
 -16   4   7 60.7991 18.5731   1
  13 -13  -7 5.89944 13.2632   2
 -13   0  -7 12.1943 18.2836   1
 -13   0  -7 -11.108 15.6774   1
   0  13  -7 -4.9276 15.1255   4
   0 -13   7 7.83349 9.05380   1
  13   0   7 -23.237 12.4789   2
   3  10  -7 -0.8675 15.9148   4
  10 -13  -7 44.4613 15.1453   2
  13  -3   7 29.1565 17.5553   2
  -3 -10   7 10.0166 8.16168   1
  13  -3   7 38.7541 19.4096   7
 -10  13   7 19.4957 13.9955   2
 -13   6  -7 18.5245 18.2763   2
   6   7  -7 -14.604 12.8191   4
  -7  13   7 27.1411 12.9317   2
  -6  -7   7 20.9091 10.6153   1
  13  -6   7 40.9508 19.4074   2
  13  -6   7 8.37545 15.8794   7
 -13   9  -7 144.570 23.7568   2
   4 -13  -7 106.032 19.1123   1
  -4  13   7 96.3031 16.9606   2
  -4  13   7 96.0685 18.3146   5
  -9  -4   7 134.277 18.4955   1
 -13  12  -7 6.11878 15.7560   2
   1 -13  -7 23.8858 15.8649   1
  -1  13   7 32.5879 14.0391   2
 -12  -1   7 21.0955 13.5622   1
  13 -12   7 18.3582 16.3749   1
 -13  15  -7 121.116 22.5277   2
  -2 -13  -7 100.204 23.9547   1
  13 -15   7 76.0961 20.4769   1
 -15   2   7 90.2446 20.2178   1
   2  13   7 104.752 18.4135   2
 -14  -1  -7 239.633 32.8243   1
 -14  -1  -7 263.006 34.5398   1
  15 -14  -7 305.141 31.7124   2
  -1  15  -7 338.369 37.6605   4
   1 -15   7 312.053 23.9921   1
  14   1   7 260.688 27.8453   2
  12 -14  -7 414.771 33.4749   2
   2  12  -7 430.291 39.7330   4
  14  -2   7 412.170 37.8360   2
  -2 -12   7 411.142 23.0375   1
 -12  14   7 421.612 34.4902   2
   5   9  -7 11.8871 16.3461   4
   9 -14  -7 9.67672 13.9854   2
 -14   5  -7 8.42687 19.9728   2
  -9  14   7 -2.7475 12.3991   2
  14  -5   7 11.4735 18.0375   2
  -5  -9   7 11.4632 9.93934   1
 -14   8  -7 -9.2325 16.2897   2
  -8  -6   7 4.84932 12.8109   1
  -6  14   7 -3.2618 11.3141   2
  -6  14   7 19.1654 13.4142   5
  14  -8   7 -17.215 16.7182   2
   3 -14  -7 28.3061 15.6022   1
 -14  11  -7 52.7478 19.1668   2
 -11  -3   7 54.9702 16.7747   1
  -3  14   7 32.0755 14.2662   2
   0 -14  -7 -0.4323 15.8218   1
 -14  14  -7 5.40804 15.4983   2
   0  14   7 5.81824 11.6570   2
 -14   0   7 -7.4946 13.5422   1
  14 -14   7 -15.970 15.7258   1
  14 -15  -7 312.517 33.3835   2
   1  14  -7 294.179 35.8139   4
  -1 -14   7 271.625 22.9914   1
  15  -1   7 261.003 29.2465   2
   4  11  -7 769.686 48.5531   4
  11 -15  -7 913.547 46.5895   2
 -11  15   7 806.088 44.0380   2
  15  -4   7 858.460 50.3495   2
  -4 -11   7 844.038 32.8022   1
 -15   7  -7 20.5426 19.4947   2
   7   8  -7 13.8956 17.7560   4
  -8  15   7 37.1289 15.0099   2
  15  -7   7 23.4614 18.6565   2
  -7  -8   7 11.7434 13.6982   1
 -15  10  -7 74.2173 22.3837   2
   5 -15  -7 20.7183 16.2081   1
 -10  -5   7 47.3761 16.4765   1
  -5  15   7 39.6055 15.7629   2
 -15  13  -7 105.244 24.1897   2
   2 -15  -7 98.7613 22.2881   1
 -13  -2   7 109.313 20.8081   1
  -2  15   7 145.418 20.6756   2
   6  10  -7 20.6895 19.7104   4
 -10  16   7 34.5522 16.0016   2
  16  -6   7 26.8784 19.3205   2
  -6 -10   7 19.7857 13.9576   1
 -16   9  -7 -8.1912 18.8542   2
  -7  16   7 11.8237 14.1101   2
  -9  -7   7 37.9457 15.9029   1
  16  -9   7 27.7793 21.8795   2
 -16  12  -7 53.8913 21.7816   2
   4 -16  -7 83.2921 21.4399   1
  -4  16   7 60.6693 17.0765   2
 -12  -4   7 58.2431 18.4628   1
  -1   1  -8 3433.95 62.8516   2
   0  -1  -8 3462.29 65.8613   2
   1   0  -8 3532.88 59.2114   2
  -1   0   8 3405.32 56.1516   5
   0   1   8 3404.28 66.2418   1
   1  -1   8 3377.40 65.8509   1
   1  -1   8 3525.17 78.4405   7
  -1   0   8 3372.47 62.1308   1
   0   1   8 3395.66 61.0925   5
   0   2  -8 2133.21 52.6414   4
   2  -2  -8 2112.59 43.7550   2
  -2   0  -8 2059.48 48.7128   2
  -2   2   8 2097.25 46.2687   6
   0  -2   8 2153.52 47.4202   7
   2   0   8 2057.59 49.6144   1
   2   0   8 2064.10 51.9482   3
  -2   2   8 2042.42 44.4019   1
   2   0   8 2118.74 59.0095   7
   0  -2   8 2093.06 40.0715   1
   2   0   8 2000.91 54.9049   2
  -2   3  -8 1418.60 28.4328   2
  -1  -2  -8 1322.81 37.9329   2
   3  -1  -8 1435.42 27.0673   2
  -2   3  -8 1428.59 40.4421   4
  -3   1   8 1359.68 31.2235   1
  -3   1   8 1397.30 31.4251   6
   1   2   8 1407.93 38.4692   1
   1   2   8 1376.89 43.0309   2
   2  -3   8 1422.80 40.1807   3
   1   2   8 1371.78 35.7701   5
   2  -3   8 1415.33 38.0468   1
   4  -3  -8 22.3513 6.67173   2
  -3  -1  -8 32.0752 11.3424   2
  -1   4  -8 48.7376 11.1876   4
   1  -4   8 35.2624 7.73549   1
  -4   3   8 36.9800 7.63839   1
   3   1   8 28.6216 12.5315   2
   3   1   8 23.1008 10.6941   1
   1  -4   8 31.6274 8.81334   3
  -3   2  -8 1391.50 37.0605   2
   1  -3  -8 1377.45 35.3410   2
   2   1  -8 1337.19 40.4074   4
  -1   3   8 1323.67 35.0939   1
   3  -2   8 1358.13 41.5331   1
   3  -2   8 1354.04 42.6531   3
  -1   3   8 1379.15 33.2967   5
  -1   3   8 1398.95 38.7327   2
  -2  -1   8 1402.82 27.2291   1
  -1   3   8 1379.04 38.3384   6
   3  -2   8 1360.10 42.7652   7
  -3   5  -8 3422.76 56.3663   2
  -2  -3  -8 3414.38 77.5053   2
   5  -2  -8 3365.45 60.2066   2
  -3   5  -8 3402.85 57.1185   2
  -3   5  -8 3337.05 74.6488   4
   2   3   8 3409.89 75.3832   1
  -5   2   8 3309.95 64.4579   1
   3  -5   8 3410.96 71.3201   3
  -5   2   8 3263.78 65.4084   3
   2   3   8 3397.08 71.8612   5
   2   3   8 3292.51 79.1952   2
   3  -5   8 3268.37 71.1864   1
   6  -4  -8 1203.38 32.7914   6
  -4  -2  -8 1117.70 42.2966   2
  -4  -2  -8 1169.35 42.6896   1
  -2   6  -8 1145.54 38.5521   4
   6  -4  -8 1164.08 31.6178   2
   2  -6   8 1182.57 31.4729   1
   2  -6   8 1193.45 30.2741   3
  -6   4   8 1124.71 32.9134   1
   4   2   8 1174.43 42.3051   1
  -4   1  -8 31.9164 10.7418   2
   3  -4  -8 40.6659 8.38468   2
   1   3  -8 45.9843 11.1569   4
   4  -1   8 10.7403 11.4271   7
   4  -1   8 39.5282 12.7164   3
  -3   4   8 28.5694 8.12917   6
   4  -1   8 41.3857 12.4300   1
   4  -1   8 55.7480 13.8887   2
  -3   4   8 42.6450 9.29998   2
  -3   4   8 56.6155 9.10458   1
  -4   4  -8 1814.90 44.6504   2
  -4   4  -8 1728.82 45.3543   4
   0  -4  -8 1674.29 45.0554   2
   4  -4   8 1669.95 47.9139   1
   0   4   8 1716.01 44.8062   1
  -4   0   8 1696.86 34.7190   1
   0   4   8 1721.39 42.8400   5
  -4   0   8 1673.29 35.3155   3
   4  -4   8 1702.27 48.1888   3
   0   4   8 1627.63 46.9691   6
   7  -3  -8 50.9071 7.67371   2
  -3  -4  -8 38.6202 14.0958   2
  -3  -4  -8 28.1613 12.0674   1
  -4   7  -8 57.5519 12.2272   4
   7  -3  -8 36.1792 7.28690   2
   3   4   8 48.2070 13.4474   5
   4  -7   8 48.1985 9.35541   3
   3   4   8 58.3110 14.4345   1
   3   4   8 33.2315 12.9163   6
   4  -7   8 50.2712 9.85713   1
   3   4   8 46.9154 13.7090   2
  -7   3   8 34.2627 7.99667   1
  -5  -3  -8 5943.73 126.441   1
  -3   8  -8 5983.44 124.081   4
   8  -5  -8 6112.81 112.552   2
  -5  -3  -8 6085.13 129.368   2
   3  -8   8 5927.49 108.187   1
   3  -8   8 6008.53 108.223   3
  -8   5   8 5889.20 113.878   1
   5   3   8 6027.11 129.781   2
  -5   0  -8 8639.31 165.684   2
   0   5  -8 8455.50 162.636   4
   5  -5  -8 8571.63 152.708   2
   5   0   8 8677.82 176.137   7
  -5   5   8 8740.89 152.305   1
   5   0   8 8612.28 163.243   1
   0  -5   8 8687.23 142.258   3
   0  -5   8 8714.08 139.642   1
   5   0   8 8905.97 168.893   2
   2  -5  -8 3320.29 70.7945   2
   3   2  -8 3237.91 74.7824   4
  -5   3  -8 3386.42 76.1939   2
   5  -3   8 3329.70 77.4569   1
  -2   5   8 3349.70 66.3967   5
   5  -3   8 3317.42 79.0007   3
  -2   5   8 3274.22 71.5987   6
  -2   5   8 3298.60 69.5813   1
  -2   5   8 3351.31 72.7709   2
   5  -3   8 3253.44 75.5498   2
   5  -3   8 3334.41 78.9808   7
  -1  -5  -8 2189.11 57.6377   1
  -1  -5  -8 2146.21 58.2155   2
  -5   6  -8 2184.97 54.9317   4
  -5   6  -8 2228.76 53.7701   2
   1   5   8 2154.90 58.9430   6
  -6   1   8 2165.65 45.9959   1
   5  -6   8 2174.82 54.8653   3
   1   5   8 2277.61 55.7338   5
   1   5   8 2313.01 57.1764   1
   5  -6   8 2198.03 55.6873   1
   1   5   8 2164.69 59.5013   2
  -6   1   8 2227.85 46.6180   3
  -5   9  -8 12.1117 10.6509   4
  -4  -5  -8 25.6842 14.0442   1
  -4  -5  -8 1.63233 12.8336   2
   9  -4  -8 60.8276 10.1245   2
  -9   4   8 36.7812 9.96203   1
   5  -9   8 19.6283 8.38116   3
   4   5   8 16.5266 12.9455   2
   5  -9   8 35.5195 9.81751   1
  10  -6  -8 1304.64 39.8797   2
  -4  10  -8 1210.81 45.9672   4
  -6  -4  -8 1280.93 51.2654   1
   6   4   8 1303.84 51.4451   2
   4 -10   8 1312.11 37.6473   1
 -10   6   8 1258.84 42.3955   1
   4 -10   8 1311.96 37.1643   3
  -1   7  -8 638.710 30.8250   4
   7  -6  -8 588.755 24.9948   2
  -6  -1  -8 621.366 33.2839   2
  -6  -1  -8 664.241 33.7738   1
   6   1   8 603.017 34.8127   2
  -7   6   8 624.443 26.3063   1
   6   1   8 587.748 32.4058   1
   1  -7   8 612.356 18.5491   3
   1  -7   8 593.415 18.4817   1
   2   4  -8 1203.50 40.2924   4
  -6   2  -8 1115.03 41.7141   2
   4  -6  -8 1139.63 35.5307   2
   6  -2   8 1144.29 46.2300   7
   6  -2   8 1163.67 43.8445   2
  -4   6   8 1233.29 36.4488   1
   6  -2   8 1240.69 44.6523   1
  -4   6   8 1193.95 37.2574   2
  -6   5  -8 2153.56 52.1345   4
  -6   5  -8 2165.13 57.4927   2
   1  -6  -8 2130.97 55.0323   2
   5   1  -8 2166.60 57.3701   4
   1  -6  -8 2139.06 54.8944   1
  -1   6   8 2186.37 51.8117   5
   6  -5   8 2060.72 58.1862   1
  -5  -1   8 2150.47 41.1657   1
  -1   6   8 2094.50 55.8995   6
  -1   6   8 2145.80 53.9888   1
  -5  -1   8 2110.91 41.2361   3
  -1   6   8 2213.08 56.8502   2
  -6   8  -8 867.973 32.0034   2
  -2  -6  -8 887.209 39.2884   2
  -6   8  -8 812.251 32.7468   4
  -2  -6  -8 827.758 37.4033   1
   6  -8   8 948.223 33.8265   1
   6  -8   8 879.094 32.5043   3
   2   6   8 867.110 38.2602   2
  -8   2   8 893.933 28.9070   1
   2   6   8 890.572 37.0633   5
  11  -5  -8 2657.63 62.6542   2
  -5  -6  -8 2707.39 80.8244   1
  -6  11  -8 2733.62 73.7189   4
   6 -11   8 2627.91 65.1105   1
   5   6   8 2786.60 78.6274   2
 -11   5   8 2842.00 69.2128   1
   6 -11   8 2853.21 66.5567   3
  -7  -5  -8 125.595 23.2568   1
  -5  12  -8 138.835 21.6953   4
  12  -7  -8 131.215 17.2464   2
   5 -12   8 142.538 16.6095   1
 -12   7   8 139.839 19.3027   1
   7   5   8 164.765 22.7437   2
   5 -12   8 103.553 15.1456   3
  -7  -2  -8 110.618 20.2648   2
  -7  -2  -8 175.303 22.7818   1
  -2   9  -8 120.827 18.4038   4
   9  -7  -8 115.952 14.6803   2
   2  -9   8 155.320 12.9162   1
  -9   7   8 121.926 15.4345   1
   2  -9   8 129.471 11.7573   3
   7   2   8 143.860 21.4831   2
   1   6  -8 638.539 30.6119   4
  -7   1  -8 653.047 35.0102   1
  -7   1  -8 666.313 34.6030   2
   6  -7  -8 601.648 26.4999   2
  -1  -6   8 604.456 14.3422   3
   7  -1   8 623.771 35.4032   2
   7  -1   8 551.675 35.7478   7
  -6   7   8 599.819 27.6167   2
  -6   7   8 668.036 27.1452   1
   7  -1   8 654.796 34.7151   1
   3  -7  -8 30.7099 9.93566   1
  -7   4  -8 59.8521 14.1734   2
   4   3  -8 46.6234 11.8594   4
   3  -7  -8 22.0499 9.34585   2
   7  -4   8 29.2129 12.6390   1
  -3   7   8 50.0042 10.2486   6
   7  -4   8 42.6143 13.4408   7
  -3   7   8 38.2768 10.5923   2
   7  -4   8 59.9108 13.8568   2
  -3   7   8 49.4115 10.9759   1
  -4  -3   8 46.8351 4.12586   3
   0  -7  -8 2122.49 58.4549   2
  -7   7  -8 1974.67 56.0196   2
  -7   7  -8 2008.17 51.9700   4
   0  -7  -8 2050.90 55.7207   1
  -7   0   8 2029.35 44.2952   1
   7  -7   8 1974.98 56.8375   1
   0   7   8 2056.63 57.7712   2
   7  -7   8 2090.36 57.1993   3
  -7   0   8 1993.28 44.2225   3
   0   7   8 2011.86 53.3996   5
   0   7   8 1935.98 57.2852   6
  -7  10  -8 442.778 24.5464   2
  -7  10  -8 459.290 26.6688   4
  10  -3  -8 428.303 17.3988   2
  -3  -7  -8 445.855 31.9434   1
   7 -10   8 430.457 25.3017   3
 -10   3   8 407.299 23.2774   1
   3   7   8 448.545 31.7475   5
   7 -10   8 384.787 25.0794   1
   3   7   8 454.231 30.7627   2
  -6  -7  -8 1012.18 52.3285   1
  13  -6  -8 937.746 37.1108   2
  -7  13  -8 988.934 43.6082   4
   7 -13   8 963.062 39.0045   3
   6   7   8 986.765 46.1630   2
 -13   6   8 922.424 40.9229   1
   7 -13   8 942.982 38.5639   1
  -8  -6  -8 119.044 24.9599   1
  -6  14  -8 152.841 24.2306   4
  14  -8  -8 95.3842 17.1144   2
   6 -14   8 144.003 17.9154   3
 -14   8   8 142.048 22.0553   1
   8   6   8 132.704 22.2493   2
   6 -14   8 98.1001 16.6283   1
  -3  11  -8 4588.91 110.107   4
  11  -8  -8 4477.52 98.0683   2
  -8  -3  -8 4585.85 109.656   1
   8   3   8 4320.85 108.612   2
 -11   8   8 4570.12 100.481   1
   3 -11   8 4417.53 88.8949   3
   3 -11   8 4531.18 88.4610   1
  -8   0  -8 1090.63 45.0713   1
   8  -8  -8 1014.41 36.7657   2
  -8   0  -8 1099.29 45.8393   2
   0   8  -8 997.043 41.1902   4
   0  -8   8 1054.21 25.4801   3
  -8   8   8 996.365 37.3262   1
   8   0   8 1109.29 46.6594   2
   0  -8   8 1017.30 24.7771   1
   3   5  -8 5638.00 122.239   4
  -8   3  -8 5900.08 125.646   2
   5  -8  -8 5990.82 117.672   2
   8  -3   8 6043.63 129.540   2
  -5   8   8 6007.27 115.684   1
   8  -3   8 5888.45 125.861   1
   8  -3   8 5829.69 134.830   7
  -5   8   8 5971.01 118.760   2
   6   2  -8 934.799 37.1050   4
  -8   6  -8 871.312 38.6755   2
   2  -8  -8 878.730 35.1424   2
   2  -8  -8 931.883 35.3113   1
  -6  -2   8 877.077 23.8523   1
  -6  -2   8 888.341 23.9172   1
  -2   8   8 892.119 33.5350   5
   8  -6   8 854.521 38.1106   1
  -2   8   8 860.861 34.7263   2
  -6  -2   8 867.907 22.8860   3
  -8   9  -8 1324.64 46.3323   2
  -1  -8  -8 1316.19 47.4289   1
   1   8   8 1244.02 45.9985   2
   1   8   8 1207.82 44.7436   5
   8  -9   8 1319.73 45.1976   1
  -9   1   8 1237.98 36.9225   1
  -4  -8  -8 658.966 40.9900   1
  -8  12  -8 631.445 34.4719   4
  -8  12  -8 660.152 28.3971   2
  12  -4  -8 630.041 25.1908   2
   8 -12   8 689.093 33.5862   1
 -12   4   8 685.248 32.2919   1
   4   8   8 635.463 37.3558   2
  15  -7  -8 673.287 34.5075   2
  -8  15  -8 718.733 41.6086   4
  -7  -8  -8 709.305 49.5333   1
   8 -15   8 677.165 35.9233   1
   7   8   8 694.076 40.0860   2
 -15   7   8 677.208 39.0477   1
  -9  -7  -8 416.861 40.6167   1
  -7  16  -8 439.349 39.0727   4
  16  -9  -8 471.632 32.9967   2
   7 -16   8 416.747 29.8117   1
   9   7   8 472.614 34.9784   2
 -16   9   8 548.040 38.5949   1
  13  -9  -8 39.8187 13.3578   2
  -9  -4  -8 35.1628 18.3545   1
  -4  13  -8 49.5361 18.8036   4
  13  -9  -8 23.0695 12.2836   2
   9   4   8 37.8006 17.1113   2
   4 -13   8 37.1104 10.4898   3
 -13   9   8 3.28670 12.9239   1
   4 -13   8 16.8920 10.3142   1
  -9  -1  -8 20.5366 15.7352   1
  10  -9  -8 23.5816 10.9690   2
  -1  10  -8 -3.3617 12.9395   4
   1 -10   8 2.03516 6.13159   3
 -10   9   8 9.74913 11.2779   1
   9   1   8 14.1433 13.6475   2
   1 -10   8 26.4895 7.72473   1
   2   7  -8 116.246 18.3798   4
   7  -9  -8 131.169 17.1650   2
  -9   2  -8 108.853 19.5813   2
   9  -2   8 118.803 21.2762   7
  -2  -7   8 115.878 7.48902   3
  -2  -7   8 123.963 7.06917   1
  -7   9   8 120.172 17.1647   2
  -7   9   8 125.921 16.0549   1
   9  -2   8 124.474 21.4759   2
   5   4  -8 19.5919 12.2102   4
  -9   5  -8 13.8689 12.9002   2
   4  -9  -8 25.0256 10.8349   2
  -5  -4   8 27.2855 5.37208   3
  -5  -4   8 36.4217 7.63635   1
   9  -5   8 22.2194 12.7431   7
   9  -5   8 47.8279 15.8552   1
   9  -5   8 34.1249 14.0797   2
  -4   9   8 18.9223 10.6567   2
   1  -9  -8 1320.17 45.6258   1
   1  -9  -8 1278.99 47.1045   2
  -9   8  -8 1264.64 47.7486   2
  -8  -1   8 1282.50 35.2080   1
   9  -8   8 1267.43 47.9677   1
  -1   9   8 1229.00 43.2239   5
  -1   9   8 1355.46 46.4680   2
  -2  -9  -8 691.334 38.9355   1
  -9  11  -8 710.306 35.4421   2
   2   9   8 732.131 39.6743   5
   9 -11   8 643.089 34.2664   1
   2   9   8 696.320 37.0240   2
 -11   2   8 672.457 30.2591   1
  -5  -9  -8 1107.32 56.3667   1
 -14   5   8 1028.00 44.9495   1
   5   9   8 1062.27 48.1493   2
   9 -14   8 1046.99 44.3526   1
 -10  -5  -8 255.555 32.5830   1
  15 -10  -8 229.176 25.9541   2
  -5  15  -8 210.835 30.1733   4
 -15  10   8 340.819 32.5657   1
   5 -15   8 276.591 24.3236   3
  10   5   8 272.535 29.5284   2
   5 -15   8 269.766 23.6629   1
 -10  -2  -8 1122.13 52.4566   1
  12 -10  -8 1150.56 45.0713   2
  -2  12  -8 1149.35 52.4909   4
 -12  10   8 1193.06 46.7921   1
  10   2   8 1011.57 48.2685   2
   2 -12   8 1142.02 35.2377   3
   2 -12   8 1158.18 35.2004   1
   9 -10  -8 1.95865 10.2501   2
 -10   1  -8 22.6862 15.8508   2
   1   9  -8 33.0474 14.0587   4
  10  -1   8 8.41228 14.1471   2
  -9  10   8 9.73129 10.7652   1
  -1  -9   8 12.1669 5.68593   3
  10  -1   8 18.9829 14.6292   7
  -1  -9   8 20.7960 6.38538   1
   4   6  -8 1317.72 48.2079   4
 -10   4  -8 1291.61 51.9659   2
   6 -10  -8 1320.25 45.9342   2
  10  -4   8 1355.66 54.2487   2
  -4  -6   8 1302.93 26.4230   1
  10  -4   8 1301.98 56.6739   7
  10  -4   8 1276.03 51.3438   1
  -6  10   8 1349.74 46.1959   2
 -10   7  -8 440.287 32.2547   2
   3 -10  -8 491.820 29.1453   1
   7   3  -8 400.398 29.2875   4
   3 -10  -8 470.302 29.0453   2
  10  -7   8 378.202 30.0325   1
  -7  -3   8 437.555 18.0914   3
  -7  -3   8 478.786 20.6334   1
  -3  10   8 482.715 27.4060   5
  -3  10   8 469.768 28.3478   2
 -10  10  -8 1928.03 63.3614   2
   0 -10  -8 2006.39 62.4520   1
   0  10   8 2149.96 62.7066   2
 -10   0   8 2070.25 52.6144   1
  10 -10   8 2113.16 64.7475   1
   0  10   8 2033.37 62.6765   5
  -3 -10  -8 1130.74 52.4966   1
 -10  13  -8 1013.75 43.1447   2
 -13   3   8 1081.35 42.1169   1
  10 -13   8 962.927 43.7594   1
   3  10   8 979.341 45.2090   2
  -6 -10  -8 979.394 57.6707   1
 -16   6   8 849.380 45.0481   1
  10 -16   8 851.646 43.2554   1
   6  10   8 883.675 43.1466   2
 -11  -3  -8 2123.16 75.0406   1
  -3  14  -8 1938.65 73.6126   4
  14 -11  -8 2039.76 65.1058   2
  11   3   8 1961.06 67.4915   2
 -14  11   8 2157.80 68.3343   1
   3 -14   8 2010.07 54.2430   1
   3 -14   8 2030.65 54.6145   3
 -11   0  -8 4573.61 120.092   1
  11 -11  -8 4149.45 99.9642   2
   0  11  -8 4184.48 110.222   4
 -11  11   8 4218.76 100.348   1
  11   0   8 4211.79 107.368   2
   0 -11   8 4162.56 81.3050   1
   0 -11   8 4161.03 81.5034   3
   3   8  -8 4334.16 106.455   4
   8 -11  -8 4360.24 99.6922   2
 -11   3  -8 4367.49 110.162   2
  11  -3   8 4474.14 113.588   2
  11  -3   8 4158.35 116.693   7
  -3  -8   8 4361.71 76.0267   1
  -8  11   8 4334.19 100.626   2
   6   5  -8 2900.50 78.1010   4
 -11   6  -8 2645.64 81.1701   2
   5 -11  -8 2751.81 74.2212   2
  11  -6   8 2623.33 79.3621   1
  11  -6   8 2803.88 82.4121   2
  -6  -5   8 2720.11 57.6677   3
  11  -6   8 2822.94 84.3616   7
  -6  -5   8 2661.09 59.2063   1
  -5  11   8 2727.83 73.1476   2
 -11   9  -8 682.286 40.1362   2
   2 -11  -8 710.423 36.6346   1
  -2  11   8 665.309 34.8352   5
  -2  11   8 690.201 35.0769   2
  11  -9   8 703.814 40.4188   1
  -9  -2   8 698.436 28.4147   1
  -1 -11  -8 129.287 22.1187   1
 -11  12  -8 87.7789 20.1868   2
  11 -12   8 86.1341 19.0299   1
   1  11   8 96.8263 20.9087   5
 -12   1   8 77.0775 15.8308   1
   1  11   8 97.4284 18.5382   2
  -4 -11  -8 -4.0888 16.7774   1
 -11  15  -8 34.4920 14.8109   2
   4  11   8 27.3064 15.2008   2
 -15   4   8 36.2945 15.7696   1
  11 -15   8 29.9903 14.1035   1
  13 -12  -8 91.6589 19.2599   2
  -1  13  -8 92.9184 22.2708   4
 -12  -1  -8 87.8082 22.4705   1
  12   1   8 100.269 20.1072   2
   1 -13   8 97.1970 13.9456   1
   1 -13   8 93.1747 13.3036   3
   2  10  -8 1137.87 51.2828   4
  10 -12  -8 1117.91 46.0513   2
  12  -2   8 1073.53 52.5661   2
  -2 -10   8 1139.87 30.4389   1
 -10  12   8 1119.89 48.6090   2
  12  -2   8 1080.92 54.7798   7
   5   7  -8 128.396 21.0585   4
   7 -12  -8 151.801 20.6384   2
 -12   5  -8 139.461 24.7562   2
  -7  12   8 135.273 19.8051   2
  12  -5   8 110.576 24.5547   2
  12  -5   8 94.6339 22.3055   7
  -5  -7   8 147.368 12.4749   1
   4 -12  -8 654.795 40.0633   1
 -12   8  -8 593.353 40.8461   2
  12  -8   8 728.198 42.2790   1
  -8  -4   8 644.462 28.1029   1
  -4  12   8 627.436 34.9116   2
  -4  12   8 655.597 34.7248   5
 -12  11  -8 172.320 24.7328   2
   1 -12  -8 106.479 20.0231   1
  -1  12   8 82.9807 17.3175   2
  12 -11   8 105.626 21.2997   1
  -1  12   8 113.913 20.4958   5
 -11  -1   8 80.9460 15.2839   1
  -2 -12  -8 230.504 29.9305   1
 -12  14  -8 171.912 23.9899   2
 -14   2   8 155.859 21.8087   1
   2  12   8 168.096 22.2607   2
  12 -14   8 127.020 22.1742   1
  15 -13  -8 399.203 34.4926   2
  -2  15  -8 313.256 36.1706   4
   2 -15   8 429.894 26.5881   1
  13   2   8 420.831 33.9323   2
   1  12  -8 94.7555 23.1350   4
  12 -13  -8 103.236 20.0973   2
  -1 -12   8 93.6729 12.8915   1
  13  -1   8 108.462 22.5182   2
   4   9  -8 29.8199 17.5429   4
   9 -13  -8 25.7061 14.1255   2
 -13   4  -8 21.5649 17.5788   2
  13  -4   8 28.3449 19.3303   2
  -4  -9   8 46.0911 9.29398   1
  -9  13   8 27.7278 13.4765   2
  13  -4   8 57.4111 20.8816   7
   7   6  -8 992.197 48.3300   4
 -13   7  -8 1016.27 52.2233   2
  -6  13   8 937.942 41.4458   5
  13  -7   8 928.236 52.3647   7
  -6  13   8 963.831 42.4600   2
  13  -7   8 862.319 49.8495   2
  -7  -6   8 966.037 35.5231   1
   3 -13  -8 1076.98 46.5923   1
 -13  10  -8 1095.09 53.2391   2
  -3  13   8 1070.21 46.1482   5
  13 -10   8 995.597 51.5584   1
  -3  13   8 1045.38 45.6642   2
 -10  -3   8 1070.48 39.1343   1
 -13  13  -8 2841.53 86.1534   2
   0 -13  -8 2903.89 86.7583   1
   0  13   8 2895.90 81.6341   2
  13 -13   8 3105.33 90.1051   1
 -13   0   8 2988.41 77.2682   1
   0  14  -8 13.4656 18.3782   4
  14 -14  -8 8.14355 14.2811   2
   0 -14   8 0.04785 10.1659   1
  14   0   8 10.9861 14.9173   2
  11 -14  -8 1931.58 65.4356   2
   3  11  -8 1969.87 73.3525   4
  -3 -11   8 2003.94 48.6026   1
  14  -3   8 1886.32 72.1467   2
 -11  14   8 1975.25 67.0964   2
 -14   6  -8 112.941 25.8966   2
   6   8  -8 121.851 23.3758   4
   8 -14  -8 93.0664 21.3967   2
  -8  14   8 119.055 19.6378   2
  -6  -8   8 100.086 15.7616   1
  14  -6   8 70.9452 22.6757   2
 -14   9  -8 1142.40 56.7390   2
  -9  -5   8 1030.86 40.1032   1
  -5  14   8 1055.76 46.0414   2
   2 -14  -8 195.242 26.6043   1
 -14  12  -8 137.113 26.0502   2
 -12  -2   8 179.126 21.4537   1
  14 -12   8 142.100 26.5522   1
  -2  14   8 134.804 21.2042   2
   2  13  -8 491.486 45.2432   4
  13 -15  -8 458.589 36.3337   2
  15  -2   8 376.096 36.5239   2
  -2 -13   8 412.996 23.8778   1
   5  10  -8 221.644 31.7396   4
  10 -15  -8 291.457 30.7337   2
  -5 -10   8 250.876 20.6656   1
  15  -5   8 244.029 34.9751   2
 -10  15   8 253.520 28.7441   2
 -15   8  -8 705.232 49.5163   2
  15  -8   8 724.606 49.6934   2
  -7  15   8 692.778 38.8944   2
  -8  -7   8 690.533 34.5045   1
 -15  11  -8 64.2958 22.3751   2
 -11  -4   8 11.1703 14.8149   1
  -4  15   8 -6.5393 12.3317   2
 -16   7  -8 436.824 44.0552   2
   7   9  -8 489.023 44.0755   4
  -7  -9   8 487.680 31.8525   1
  16  -7   8 537.925 48.4082   2
  -9  16   8 482.842 35.6218   2
 -16  10  -8 883.102 53.8999   2
  -6  16   8 822.987 43.8362   2
 -10  -6   8 883.110 40.5865   1
   0   0  -9 4.34507 4.62587   2
   0   0   9 2.81497 5.37692   1
   0   0   9 17.0662 5.87140   5
  -1   2  -9 1084.82 21.7548   2
   2  -1  -9 1085.45 24.6739   2
  -1  -1  -9 1121.76 31.8294   2
  -1   2  -9 1111.24 21.8849   2
   1  -2   9 1026.95 28.6297   1
  -2   1   9 1127.99 28.2654   1
   1  -2   9 1023.68 30.9804   3
  -2   1   9 1130.57 30.4565   6
   1   1   9 1043.65 32.6521   1
   1   1   9 1096.95 30.6320   5
   1  -2   9 1122.51 36.0936   7
   1   1   9 1112.50 39.0101   2
   1  -2  -9 1063.75 29.1001   2
  -2   1  -9 1062.93 29.5858   2
   2  -1   9 1082.22 34.8339   3
  -1   2   9 1145.28 34.3311   6
  -1  -1   9 1043.11 25.2132   1
  -1   2   9 1051.24 26.9329   5
   2  -1   9 1056.25 32.8234   1
  -1   2   9 1053.39 29.8270   1
   2  -1   9 1112.21 40.8408   7
  -2   4  -9 1941.38 51.9091   4
   4  -2  -9 2025.74 39.2926   2
  -2  -2  -9 1900.00 51.5941   2
   2   2   9 1941.03 51.4821   1
   2  -4   9 1844.42 49.1357   3
  -4   2   9 2004.83 42.3021   6
  -4   2   9 2001.84 44.3958   3
   2  -4   9 1890.36 48.6629   1
  -4   2   9 1940.22 43.3106   1
   2   2   9 2028.73 54.1668   3
   2   2   9 1910.75 48.8855   5
   2   2   9 1953.55 57.2888   2
  -3   0  -9 14.0437 9.29793   2
   0   3  -9 5.76276 8.54016   4
   3  -3  -9 -2.8581 5.06118   2
   0  -3   9 0.48947 4.48382   1
  -3   3   9 5.78633 6.08944   6
   3   0   9 2.84456 10.9037   2
   3   0   9 8.51396 9.20954   1
   3   0   9 -6.3533 9.14155   3
  -3   3   9 5.99963 6.20528   1
   3   0   9 4.63938 10.9879   7
   0  -3  -9 4.74312 6.88254   2
  -3   3  -9 -3.9587 5.98234   2
   0   3   9 2.18896 7.29392   5
  -3   0   9 4.19494 4.54042   1
   3  -3   9 14.8165 8.56456   7
   0   3   9 -1.9917 7.66294   6
   3  -3   9 2.33715 9.93999   3
  -3   0   9 10.1257 4.79725   6
   0   3   9 2.29524 7.05856   1
   0   3   9 -4.9097 7.91958   2
   3  -3   9 0.89793 9.04070   1
  -3  -3  -9 123.056 17.6782   1
   6  -3  -9 136.330 10.4911   2
  -3  -3  -9 107.155 17.8198   2
  -3   6  -9 128.331 15.9845   4
   3  -6   9 125.125 14.6772   1
   3   3   9 144.083 19.5165   2
   3  -6   9 132.670 13.7621   3
   3   3   9 122.891 17.6785   1
  -6   3   9 147.005 13.5368   1
  -4  -1  -9 5.04237 10.6271   2
  -1   5  -9 11.7698 8.87628   4
   5  -4  -9 5.51484 6.27458   2
   4   1   9 -3.2857 11.6251   2
   4   1   9 17.7029 11.7536   1
  -5   4   9 15.6262 7.68349   1
   1  -5   9 -0.5736 7.39380   1
   1  -5   9 1.38811 7.22684   3
   2   2  -9 1991.96 54.0335   4
   2  -4  -9 1927.25 47.3777   2
  -4   2  -9 1937.35 51.7380   2
  -2   4   9 2021.84 51.6001   2
  -2  -2   9 1994.08 35.6495   1
  -2   4   9 1957.79 44.3084   5
  -2   4   9 1931.03 49.2004   6
   4  -2   9 1994.33 58.8729   7
   4  -2   9 2170.73 58.6541   3
   4  -2   9 1910.39 54.8357   1
  -2   4   9 1962.56 47.7417   1
  -1  -4  -9 1310.85 41.6478   2
  -4   5  -9 1305.67 40.3225   4
  -1  -4  -9 1356.51 46.4531   1
  -4   5  -9 1275.97 32.4926   2
   1   4   9 1171.48 42.8420   6
   1   4   9 1294.60 40.6274   1
   1   4   9 1283.71 38.4930   5
  -5   1   9 1274.79 31.0756   1
   4  -5   9 1250.47 41.0290   3
   1   4   9 1317.08 44.6612   2
  -5   1   9 1266.65 31.5448   3
   4  -5   9 1240.57 41.1940   1
  -4  -4  -9 45.4156 15.8520   1
   8  -4  -9 39.6196 8.69634   2
  -4   8  -9 46.4892 12.6775   4
   8  -4  -9 26.3892 7.72376   2
  -4  -4  -9 13.6823 12.8713   2
   4   4   9 27.1472 14.6968   2
   4  -8   9 34.4330 9.97600   1
  -8   4   9 28.6122 9.31850   1
   4  -8   9 46.9286 9.41299   3
   7  -5  -9 860.476 28.4700   2
  -2   7  -9 793.361 34.6046   4
  -5  -2  -9 870.617 38.4614   1
  -5  -2  -9 764.610 37.7771   2
   2  -7   9 821.153 25.1397   3
   5   2   9 872.739 39.0107   1
   5   2   9 905.753 41.7432   2
  -7   5   9 854.859 30.2017   1
   2  -7   9 865.199 26.0855   1
  -5   1  -9 10.9912 10.0194   2
   1   4  -9 13.0563 9.58640   4
   4  -5  -9 6.13628 6.48835   2
   5  -1   9 0.89569 12.0000   7
   5  -1   9 10.6501 11.6080   1
  -4   5   9 2.23674 6.88105   6
   5  -1   9 20.8990 12.1362   2
  -4   5   9 3.45311 7.28583   1
   4   1  -9 1178.59 41.3095   4
   1  -5  -9 1244.57 39.3137   2
  -5   4  -9 1365.80 41.9693   2
   5  -4   9 1359.49 44.1590   7
   5  -4   9 1270.23 44.2644   3
  -1   5   9 1343.32 41.8066   6
  -4  -1   9 1263.44 28.1638   3
  -4  -1   9 1278.32 27.1402   1
   5  -4   9 1235.98 43.8610   1
  -1   5   9 1349.24 38.9308   1
  -1   5   9 1303.59 36.9577   5
  -1   5   9 1322.10 42.5329   2
  -5   7  -9 152.859 12.4025   2
  -2  -5  -9 169.564 20.8896   2
  -5   7  -9 162.900 18.0098   4
  -2  -5  -9 189.263 21.4955   1
   5  -7   9 142.722 16.2882   1
   2   5   9 181.884 20.6230   1
   5  -7   9 168.131 17.0171   3
  -7   2   9 169.432 14.0047   1
   2   5   9 132.484 19.0035   2
   2   5   9 138.643 18.4462   6
   2   5   9 164.988 19.6895   5
  -5  10  -9 64.3220 14.9718   4
  -5  -5  -9 43.7729 16.8793   1
  -5  -5  -9 80.1734 18.7732   2
  10  -5  -9 67.4797 11.3842   2
 -10   5   9 68.8776 13.1819   1
   5 -10   9 51.7576 11.5070   3
   5   5   9 125.519 21.1255   2
   5 -10   9 54.0137 11.6002   1
  -6  -3  -9 422.293 31.7319   1
   9  -6  -9 432.735 22.8519   2
  -3   9  -9 419.966 28.6403   4
  -6  -3  -9 429.877 31.9691   2
   3  -9   9 424.722 19.8813   1
  -9   6   9 389.651 23.9931   1
   6   3   9 454.444 33.2177   2
   3  -9   9 425.796 19.6995   3
  -6   0  -9 -9.4217 10.3352   2
   6  -6  -9 -0.4367 7.22158   2
   0   6  -9 4.45800 9.29078   4
   6   0   9 1.32063 11.2812   2
   6   0   9 -13.789 9.88175   1
   0  -6   9 4.48839 4.43577   3
   0  -6   9 8.31162 6.85443   1
  -6   6   9 3.23742 8.09007   1
   3  -6  -9 111.228 13.6597   2
  -6   3  -9 136.937 17.7248   2
   3   3  -9 119.950 15.9363   4
  -3   6   9 128.070 14.2437   6
  -3   6   9 121.455 14.2141   1
   6  -3   9 134.772 18.8247   1
   6  -3   9 164.582 21.2368   3
   6  -3   9 133.944 18.9808   7
  -3   6   9 118.500 15.5659   2
   0  -6  -9 7.07422 10.0910   1
  -6   6  -9 -8.6807 9.00321   2
   0  -6  -9 4.10474 9.18927   2
  -6   6  -9 -6.8129 7.99145   4
   6  -6   9 -3.5965 10.0713   1
  -6   0   9 -0.5077 5.15536   3
   6  -6   9 5.87742 9.62939   3
   0   6   9 5.89352 10.4205   2
   0   6   9 -3.0222 9.31154   1
   0   6   9 9.64017 9.47496   6
  -6   0   9 1.55692 5.56184   1
   0   6   9 3.66609 8.86919   5
  -3  -6  -9 24.0713 14.2461   1
  -3  -6  -9 3.25530 13.7007   2
  -6   9  -9 10.8650 7.43399   2
  -6   9  -9 5.70046 11.1968   4
  -9   3   9 19.1037 9.05771   1
   6  -9   9 5.03667 8.27578   3
   3   6   9 21.9068 13.5427   2
   6  -9   9 18.1915 10.0436   1
   3   6   9 21.8330 14.1525   5
  12  -6  -9 621.622 28.1707   2
  -6  12  -9 631.117 36.8295   4
  -6  -6  -9 660.475 43.4945   1
 -12   6   9 662.315 33.1259   1
   6 -12   9 630.473 30.3372   1
   6 -12   9 632.888 30.0141   3
   6   6   9 633.652 40.0213   2
  -4  11  -9 76.4770 18.1560   4
  11  -7  -9 28.6298 11.3223   2
  -7  -4  -9 30.7266 17.4069   1
   4 -11   9 60.8844 11.7551   1
   7   4   9 74.9327 19.6287   2
   4 -11   9 69.2089 11.7931   3
 -11   7   9 48.3489 14.3525   1
  -7  -1  -9 64.7800 16.9705   2
  -1   8  -9 54.1827 14.5571   4
   8  -7  -9 53.4333 11.5585   2
   1  -8   9 80.5549 8.67236   3
  -8   7   9 50.6020 11.9188   1
   7   1   9 108.063 20.3779   2
   1  -8   9 76.1886 8.89884   1
   5  -7  -9 879.747 32.5168   2
  -7   2  -9 871.818 38.0882   2
   2   5  -9 852.865 36.4430   4
   7  -2   9 889.893 41.7875   2
  -5   7   9 907.864 34.7362   2
  -5   7   9 848.886 32.5980   1
   7  -2   9 790.291 42.5476   7
   7  -2   9 852.898 40.0492   1
   2  -7  -9 160.961 18.0170   2
   5   2  -9 134.336 17.7762   4
  -7   5  -9 168.969 19.7093   2
  -2   7   9 187.781 18.3361   1
  -2   7   9 183.932 18.9319   2
  -5  -2   9 162.261 8.99333   3
  -5  -2   9 159.747 9.13164   1
  -2   7   9 155.508 18.0209   6
   7  -5   9 161.411 20.5448   1
  -2   7   9 176.682 17.1102   5
  -1  -7  -9 5.44271 11.2459   1
  -7   8  -9 5.86702 9.63309   4
  -7   8  -9 -6.2073 9.93481   2
  -1  -7  -9 2.94920 11.5222   2
   1   7   9 -0.3321 11.2875   2
   1   7   9 7.34914 10.7664   5
   7  -8   9 -0.2858 9.05879   3
  -8   1   9 -4.6017 6.63080   1
   7  -8   9 0.84569 10.8574   1
  -7  11  -9 1750.69 55.5426   4
  -4  -7  -9 1680.28 62.4742   1
  11  -4  -9 1656.80 39.6269   2
  -7  11  -9 1606.12 36.4421   2
   7 -11   9 1783.12 51.5617   1
   7 -11   9 1687.70 50.8089   3
 -11   4   9 1598.83 49.4494   1
   4   7   9 1609.67 60.1223   2
  14  -7  -9 462.168 28.6303   2
  -7  14  -9 517.174 36.1933   4
  -7  -7  -9 443.241 41.0215   1
   7   7   9 481.729 37.4693   2
   7 -14   9 477.190 29.9373   3
   7 -14   9 439.348 28.6975   1
 -14   7   9 430.108 32.6959   1
  13  -8  -9 103.516 17.3284   2
  -8  -5  -9 104.006 23.7862   1
  -5  13  -9 90.8659 20.5125   4
 -13   8   9 80.3900 17.8542   1
   5 -13   9 92.5863 14.9860   1
   5 -13   9 83.4014 14.4226   3
   8   5   9 58.5496 18.0014   2
  10  -8  -9 7.78445 9.99351   2
  -2  10  -9 -9.2797 11.2789   4
  -8  -2  -9 3.01042 14.1358   1
  -8  -2  -9 11.6098 13.7667   2
 -10   8   9 1.98737 10.3363   1
   2 -10   9 12.0844 7.93417   1
   8   2   9 2.73463 13.6944   2
   2 -10   9 6.48265 6.25622   3
   1   7  -9 87.0797 15.8864   4
   7  -8  -9 78.1674 13.2975   2
  -8   1  -9 50.2616 15.7484   2
  -7   8   9 62.6342 13.0767   1
   8  -1   9 56.7984 17.0339   2
  -1  -7   9 78.8652 6.08056   1
  -1  -7   9 69.5861 6.12771   3
   8  -1   9 51.5287 17.6272   7
   8  -1   9 38.8165 15.1305   1
   4  -8  -9 47.8118 12.2115   2
   4   4  -9 40.3498 13.1300   4
  -8   4  -9 -3.5895 11.5277   2
   8  -4   9 -8.1695 12.1897   1
   8  -4   9 54.0469 16.1840   7
  -4   8   9 48.2985 12.3799   1
  -4   8   9 21.2895 10.7108   2
   1  -8  -9 4.00737 10.4890   2
  -8   7  -9 -4.3483 10.2939   2
   7   1  -9 1.41835 11.2195   4
   1  -8  -9 4.38525 10.5878   1
  -1   8   9 12.1592 11.3835   2
  -7  -1   9 7.52754 6.16550   1
   8  -7   9 24.9883 12.7787   1
  -7  -1   9 0.18475 5.51376   3
  -1   8   9 -3.9449 9.11772   5
  -2  -8  -9 22.4015 15.6908   1
  -8  10  -9 9.56924 11.1396   2
   2   8   9 27.2141 15.0521   2
   2   8   9 8.40542 12.3798   5
   8 -10   9 26.2532 12.1451   3
 -10   2   9 35.7473 10.7247   1
   8 -10   9 14.1873 11.7300   1
  -5  -8  -9 18.2621 18.4573   1
  -8  13  -9 26.1815 14.7949   4
   8 -13   9 27.9667 13.2341   1
 -13   5   9 6.37313 11.0049   1
   5   8   9 50.4026 18.1407   2
  -8  -8  -9 19.6664 21.5175   1
  16  -8  -9 22.8797 13.8679   2
  -8  16  -9 -7.9056 16.5993   4
   8   8   9 -0.5119 15.1922   2
 -16   8   9 -2.9660 15.5582   1
   8 -16   9 1.49007 12.8978   1
  15  -9  -9 115.145 19.3576   2
  -9  -6  -9 97.6575 24.2036   1
  -6  15  -9 126.683 24.4083   4
   6 -15   9 88.6359 16.1130   3
   6 -15   9 114.017 17.7345   1
   9   6   9 168.098 24.6174   2
 -15   9   9 98.1428 21.3928   1
  -9  -3  -9 47.6976 18.4606   1
  -3  12  -9 81.8674 19.5060   4
  12  -9  -9 76.3088 15.3462   2
   3 -12   9 60.9384 12.1065   1
 -12   9   9 59.2088 15.6661   1
   3 -12   9 56.2753 10.8904   3
   9   3   9 65.6995 18.8503   2
  -9   0  -9 -1.1306 12.3941   2
   0   9  -9 8.43422 12.5591   4
   9  -9  -9 7.39135 9.53838   2
   0  -9   9 10.2295 6.08967   1
   0  -9   9 5.93551 5.15186   3
  -9   9   9 -1.3093 10.2032   1
   9   0   9 -0.2101 14.5591   2
   6  -9  -9 412.404 25.8565   2
  -9   3  -9 384.074 29.6286   2
   3   6  -9 424.238 28.5233   4
  -6   9   9 415.763 25.5730   1
   9  -3   9 435.161 31.6732   1
   9  -3   9 388.081 35.8927   7
   9  -3   9 422.313 35.4442   2
  -6   9   9 476.637 28.2032   2
  -9   6  -9 30.7712 14.1023   2
   3  -9  -9 11.3362 10.7428   2
   6   3  -9 14.4997 12.1746   4
  -3   9   9 30.6677 12.1771   2
  -3   9   9 13.4041 10.7479   5
  -6  -3   9 27.3460 7.17495   1
   9  -6   9 7.84119 12.7095   7
  -6  -3   9 19.6654 6.59810   1
  -6  -3   9 33.9228 5.91055   3
   9  -6   9 41.1737 14.9366   1
  -9   9  -9 14.5617 12.0524   2
   0  -9  -9 1.74867 12.4936   1
   0  -9  -9 11.7068 14.2784   2
   0   9   9 -17.371 10.6153   2
  -9   0   9 6.97131 7.93813   1
   0   9   9 -10.446 10.8812   5
   9  -9   9 -11.316 11.0607   1
  -9  12  -9 783.489 33.3918   2
  -3  -9  -9 730.483 44.3941   1
   3   9   9 814.778 43.3364   2
   9 -12   9 801.428 37.7336   1
 -12   3   9 737.411 33.7640   1
  -6  -9  -9 680.402 50.7463   1
 -15   6   9 664.665 38.8368   1
   6   9   9 647.315 41.1194   2
   9 -15   9 693.995 37.7979   1
  14 -10  -9 430.491 31.0414   2
  -4  14  -9 464.958 37.8671   4
 -10  -4  -9 528.325 40.0464   1
  14 -10  -9 410.799 30.3376   2
  10   4   9 519.986 37.3545   2
 -14  10   9 455.877 34.4410   1
   4 -14   9 443.609 26.3513   1
   4 -14   9 467.620 26.0017   3
  11 -10  -9 720.485 35.8957   2
  -1  11  -9 673.201 40.0616   4
   1 -11   9 733.425 25.2842   3
  10   1   9 705.032 41.3495   2
 -11  10   9 734.830 37.5132   1
   1 -11   9 690.009 25.0042   1
 -10   2  -9 5.16755 13.1652   2
   8 -10  -9 -6.9540 9.98934   2
   2   8  -9 21.4472 14.5426   4
  -2  -8   9 10.7258 4.98165   1
  10  -2   9 12.5359 15.8649   2
  -2  -8   9 1.44632 4.53284   3
  10  -2   9 19.5202 16.0217   7
  -8  10   9 -3.5236 10.4596   1
   5   5  -9 73.8855 17.4742   4
 -10   5  -9 72.1126 18.0166   2
   5 -10  -9 77.5438 15.9920   2
  -5  -5   9 74.5486 8.88246   1
  10  -5   9 66.0370 19.2725   7
  10  -5   9 65.7577 18.4017   1
  -5  -5   9 82.3991 7.78669   3
  -5  10   9 91.9916 15.9045   2
   2 -10  -9 21.4678 14.7097   1
   8   2  -9 28.4595 15.0303   4
   2 -10  -9 22.2150 12.7525   2
 -10   8  -9 32.3050 15.0915   2
  -8  -2   9 25.5386 8.97822   1
  -2  10   9 21.8683 12.4853   2
  -2  10   9 6.23138 11.5050   5
  10  -8   9 35.3874 15.7596   1
 -10  11  -9 129.669 20.6847   2
  -1 -10  -9 122.606 22.5031   1
   1  10   9 123.018 20.8567   2
   1  10   9 171.747 24.6933   5
 -11   1   9 138.121 17.1858   1
  10 -11   9 132.987 20.9984   1
 -10  14  -9 436.236 24.7364   2
  -4 -10  -9 450.750 40.8448   1
  10 -14   9 375.318 30.7766   1
 -14   4   9 406.965 30.0338   1
   4  10   9 414.774 33.9679   2
  13 -11  -9 35.6700 14.5396   2
  -2  13  -9 29.4294 17.9957   4
   2 -13   9 41.4557 11.1928   1
  11   2   9 55.5338 16.9747   2
 -13  11   9 35.9985 16.6473   1
   2 -13   9 12.0881 9.85504   3
  10 -11  -9 726.461 36.5266   2
 -11   1  -9 717.278 43.1612   2
   1  10  -9 710.460 41.7935   4
 -10  11   9 709.194 36.4037   1
  11  -1   9 708.046 43.4933   2
  -1 -10   9 735.772 22.9298   1
  -1 -10   9 722.494 22.8300   3
   4   7  -9 80.0928 18.6263   4
   7 -11  -9 74.0412 15.9725   2
 -11   4  -9 46.9817 17.5046   2
  -7  11   9 64.3273 15.6551   2
  11  -4   9 65.4190 20.6680   7
  11  -4   9 51.7713 19.6215   2
   4 -11  -9 1650.36 56.3195   2
 -11   7  -9 1669.56 60.9032   2
   7   4  -9 1695.23 59.8246   4
  -7  -4   9 1651.54 41.0544   1
  11  -7   9 1734.31 63.2705   1
  -4  11   9 1587.33 52.0702   5
  11  -7   9 1739.34 64.6461   7
  -4  11   9 1669.57 55.4985   2
  -7  -4   9 1733.15 39.7670   3
   1 -11  -9 153.006 21.8836   1
 -11  10  -9 121.505 21.7594   2
  11 -10   9 97.2807 20.5496   1
  -1  11   9 99.6929 18.5095   2
 -10  -1   9 101.233 14.1903   1
  -1  11   9 138.226 20.0209   5
  -2 -11  -9 403.897 37.4213   1
 -11  13  -9 417.143 30.0948   2
  11 -13   9 413.823 33.6416   1
 -13   2   9 378.256 27.6679   1
   2  11   9 403.245 32.5568   2
  -3  15  -9 643.809 44.9605   4
  15 -12  -9 613.245 37.8471   2
   3 -15   9 578.459 29.7958   3
   3 -15   9 601.054 30.1833   1
  12   3   9 601.833 38.9214   2
   0  12  -9 -0.0423 15.2383   4
  12 -12  -9 -6.2760 12.9488   2
   0 -12   9 1.53760 7.94722   1
  12   0   9 -2.9664 15.4255   2
   3   9  -9 67.4114 19.1906   4
   9 -12  -9 33.2704 14.6378   2
 -12   3  -9 62.1305 19.4836   2
  -9  12   9 61.7830 16.3694   2
  12  -3   9 81.1072 21.9552   2
  12  -3   9 60.3052 21.1366   7
  -3  -9   9 53.2655 7.95912   1
 -12   6  -9 698.229 42.1805   2
   6 -12  -9 661.478 36.4776   2
   6   6  -9 567.954 38.1747   4
  -6  12   9 597.287 34.7866   2
  -6  -6   9 605.637 24.8726   3
  -6  -6   9 592.217 26.5597   1
  12  -6   9 676.908 44.8768   7
 -12   9  -9 752.738 44.6689   2
  -3  12   9 816.898 39.2619   5
  -3  12   9 757.004 39.2234   2
  -9  -3   9 838.733 30.9358   1
  12  -9   9 848.009 46.7146   1
   0 -12  -9 1.04287 15.7543   1
 -12  12  -9 -1.1235 15.1923   2
   0  12   9 0.01873 12.5184   2
  12 -12   9 -5.0461 15.2499   1
 -12   0   9 -5.1840 11.5418   1
  -3 -12  -9 47.3838 22.9560   1
 -12  15  -9 16.2688 13.4673   2
   3  12   9 42.4926 17.2384   2
  12 -15   9 36.4127 17.5054   1
 -15   3   9 33.4345 15.8147   1
  14 -13  -9 4.27936 13.3787   2
  -1  14  -9 29.0083 19.1456   4
  13   1   9 -4.5714 13.9582   2
   1 -14   9 22.2334 10.7871   1
   2  11  -9 36.9955 19.1272   4
  11 -13  -9 35.4264 15.7597   2
  13  -2   9 46.9125 19.6583   2
  -2 -11   9 46.1929 9.56350   1
 -13   5  -9 88.4456 21.9297   2
   5   8  -9 128.459 23.5617   4
   8 -13  -9 140.325 22.6171   2
  -5  -8   9 96.7385 11.9109   1
  -8  13   9 78.5682 17.8894   2
  13  -5   9 92.1406 25.2537   7
  13  -5   9 86.6026 23.2198   2
 -13   8  -9 -2.6293 15.9422   2
  -5  13   9 10.3905 13.0970   5
  13  -8   9 24.5724 17.1368   7
  -8  -5   9 33.4658 11.8180   1
  -5  13   9 18.6770 13.7775   2
 -13  11  -9 421.280 38.1152   2
  -2  13   9 355.547 31.5698   2
 -11  -2   9 402.855 26.0197   1
  13 -11   9 459.476 40.1365   1
  -1 -13  -9 141.150 26.9619   1
 -13  14  -9 106.733 21.6317   2
  13 -14   9 111.330 24.0586   1
   1  13   9 111.760 21.6248   2
 -14   1   9 89.6645 19.0080   1
  13 -14  -9 18.2704 15.7568   2
   1  13  -9 4.37267 17.4915   4
  14  -1   9 8.38976 15.5287   2
  -1 -13   9 12.4364 9.88964   1
 -14   4  -9 495.347 44.7332   2
  10 -14  -9 549.605 36.4078   2
   4  10  -9 518.747 40.6080   4
  14  -4   9 467.156 42.4518   2
 -10  14   9 472.738 35.2029   2
  -4 -10   9 498.039 21.6708   1
   7   7  -9 464.348 41.0271   4
 -14   7  -9 437.135 39.5823   2
  -7  -7   9 489.719 27.7629   1
  -7  14   9 501.595 34.4659   2
 -14  10  -9 445.132 41.2404   2
 -10  -4   9 432.713 27.1156   1
  -4  14   9 380.777 31.5742   2
 -14  13  -9 96.1979 23.8214   2
  14 -13   9 111.465 25.9533   1
  -1  14   9 116.188 22.4655   2
 -13  -1   9 130.609 19.7732   1
  12 -15  -9 661.118 41.8828   2
   3  12  -9 558.433 45.7144   4
  15  -3   9 612.970 45.7376   2
  -3 -12   9 642.120 26.9320   1
 -15   6  -9 104.216 26.3646   2
   9 -15  -9 97.3715 22.1293   2
   6   9  -9 138.035 26.8998   4
  15  -6   9 128.338 29.1597   2
  -6  -9   9 119.540 17.5479   1
  -9  15   9 84.2961 19.8268   2
 -15   9  -9 580.230 46.1072   2
  -6  15   9 724.028 40.6949   2
  -9  -6   9 624.110 31.1732   1
 -15  12  -9 -19.493 15.9695   2
 -12  -3   9 57.8277 15.9844   1
  -3  15   9 27.9967 14.7965   2
 -16   8  -9 -28.122 15.2794   2
  16  -8   9 -11.597 20.1290   2
  -8  16   9 -4.8877 13.4715   2
  -8  -8   9 -1.1166 13.5528   1
   1  -1 -10 2346.11 47.1285   2
   0   1 -10 2355.97 41.4447   2
   0   1 -10 2346.60 40.9327   2
  -1   0 -10 2278.52 49.7615   2
   0  -1  10 2348.80 60.6225   7
  -1   1  10 2293.41 44.7783   5
   0  -1  10 2353.26 49.1614   1
  -1   1  10 2218.59 49.5487   1
   1   0  10 2318.69 53.5069   1
  -2  -1 -10 83.8314 12.3273   2
  -1   3 -10 98.4590 14.9781   4
   3  -2 -10 78.7850 7.97099   2
  -3   2  10 79.2312 9.80846   1
  -3   2  10 80.2636 10.2861   6
   2   1  10 70.6869 15.6686   2
   1  -3  10 65.8651 9.70539   1
   2   1  10 83.1927 12.8545   3
   1  -3  10 92.5058 12.1791   3
   2   1  10 80.7362 13.3578   1
  -2   2 -10 249.323 12.8989   2
   0  -2 -10 295.958 17.0072   2
   0   2  10 235.605 15.7595   5
  -2   0  10 245.804 13.0779   1
   2  -2  10 228.303 18.9704   3
   0   2  10 255.974 17.1043   1
   2  -2  10 289.931 18.9961   1
   2  -2  10 266.052 22.9782   7
  -2   0  10 255.857 15.2045   6
  -2   5 -10 335.480 22.8393   4
  -3  -2 -10 372.225 25.6688   2
   5  -3 -10 340.865 14.9965   2
  -5   3  10 345.580 18.0092   1
   3   2  10 340.542 25.2787   1
   2  -5  10 316.121 21.2533   1
   3   2  10 370.186 28.8009   2
   2  -5  10 321.192 20.9477   3
   1   2 -10 60.1268 13.0250   4
   2  -3 -10 71.4707 9.75297   2
  -3   1 -10 76.3167 12.0063   2
  -2   3  10 92.2257 12.0867   6
   3  -1  10 82.0447 14.7798   3
  -2   3  10 80.8474 10.6408   1
   3  -1  10 87.7553 14.1354   1
  -1  -2  10 93.2851 8.23709   1
   3  -1  10 65.2872 15.2887   7
  -2   3  10 82.3422 10.2255   5
  -1  -3 -10 48.6918 11.0500   2
  -3   4 -10 77.1236 7.23144   2
  -3   4 -10 83.8427 13.9257   4
   1   3  10 60.1401 12.0389   5
   3  -4  10 62.3156 13.4178   3
  -4   1  10 72.1458 8.99012   1
   1   3  10 64.0064 14.4514   2
  -4   1  10 79.0384 9.11734   3
   1   3  10 84.4837 15.1988   6
   1   3  10 49.3021 11.6864   1
   3  -4  10 74.2857 14.2458   1
  -3   7 -10 66.0594 14.5615   4
  -4  -3 -10 49.7946 15.5873   2
   7  -4 -10 68.6760 9.14948   2
   3  -7  10 100.537 13.4548   1
   4   3  10 52.1871 15.9764   2
  -7   4  10 59.2616 10.7776   1
   4   3  10 62.6890 16.3711   1
   3  -7  10 64.8963 10.3196   3
   0   4 -10 1201.81 41.7936   4
  -4   0 -10 1133.15 42.3533   2
   4  -4 -10 1192.83 33.2176   2
   0  -4  10 1229.87 31.8300   3
   0  -4  10 1218.74 27.8483   1
  -4   4  10 1205.16 35.1103   1
   4   0  10 1187.75 45.6352   2
  -4   4  10 1217.67 35.1262   6
   4   0  10 1165.80 43.6321   1
   1  -4 -10 86.8126 11.9819   2
  -4   3 -10 78.9482 12.2218   2
  -1   4  10 69.4296 12.4241   6
  -1   4  10 74.9042 11.0254   5
   4  -3  10 76.1289 14.7113   1
   4  -3  10 63.5490 14.8824   7
  -3  -1  10 73.6321 7.15759   1
  -1   4  10 67.8119 11.5720   1
  -1   4  10 95.2361 14.8891   2
   4  -3  10 88.2000 16.0860   3
  -4   6 -10 945.264 36.3252   4
  -2  -4 -10 898.534 38.5915   2
   2   4  10 974.563 36.9062   5
  -6   2  10 898.924 28.1512   1
   2   4  10 908.452 40.0900   6
   2   4  10 954.693 38.1983   1
   4  -6  10 927.744 34.7393   3
   2   4  10 844.571 40.2139   2
   4  -6  10 913.305 35.6779   1
  -5  -4 -10 86.3489 19.2199   2
  -4   9 -10 117.665 19.0697   4
   9  -5 -10 97.5374 12.2496   2
   9  -5 -10 110.401 12.3762   2
   5   4  10 111.250 21.4212   2
   4  -9  10 104.934 13.4570   1
   4  -9  10 76.2659 11.3765   3
  -9   5  10 108.139 14.7297   1
   6  -5 -10 972.023 30.9139   2
  -5  -1 -10 968.429 41.8255   2
  -1   6 -10 1008.59 39.5804   4
   5   1  10 990.325 42.0735   1
   1  -6  10 1040.56 29.2420   3
   1  -6  10 1011.52 30.5154   1
   5   1  10 1054.69 44.4845   2
  -6   5  10 1013.61 33.6790   1
   3  -5 -10 324.090 19.4927   2
  -5   2 -10 335.826 23.9989   2
   2   3 -10 368.078 24.5738   4
   5  -2  10 395.712 28.5516   3
  -3   5  10 331.672 19.9368   1
   5  -2  10 318.174 25.6288   1
   5  -2  10 371.123 29.2578   7
  -2  -3  10 351.052 10.3892   1
  -3   5  10 312.272 20.1655   6
   0  -5 -10 67.7694 13.2276   2
  -5   5 -10 62.8936 11.5691   2
  -5   5 -10 59.4010 13.0725   4
   5  -5  10 81.8219 15.7203   1
   0   5  10 67.1192 13.1411   6
   0   5  10 72.3793 14.6620   2
   5  -5  10 60.6008 14.2875   3
   0   5  10 82.2567 14.1914   1
   0   5  10 57.7135 11.6981   5
  -5   0  10 72.1502 8.29014   1
  -5   0  10 81.6615 8.58972   3
  -3  -5 -10 782.724 39.2818   2
  -5   8 -10 783.408 35.5243   4
   5  -8  10 802.498 32.4947   1
   3   5  10 789.982 40.5647   2
  -8   3  10 749.604 28.4047   1
   5  -8  10 757.978 30.6870   3
  -5  11 -10 30.2376 15.1965   4
  -6  -5 -10 39.1597 18.9485   1
  11  -6 -10 20.3662 10.4106   2
   5 -11  10 29.1392 10.5614   3
   5 -11  10 25.4772 10.7963   1
   6   5  10 49.4691 18.6362   2
 -11   6  10 19.7451 11.6956   1
  -6  -2 -10 265.123 26.3056   2
   8  -6 -10 288.976 19.2887   2
  -2   8 -10 268.753 24.8708   4
   6   2  10 255.434 27.2750   2
   2  -8  10 265.496 15.0169   3
  -8   6  10 308.034 21.3393   1
   2  -8  10 281.088 16.4279   1
   1   5 -10 1040.63 41.0215   4
   5  -6 -10 988.591 33.3942   2
  -6   1 -10 1111.17 42.2915   2
   6  -1  10 1049.27 44.7408   2
   6  -1  10 1009.08 46.5605   7
  -5   6  10 979.817 34.6094   1
  -1  -5  10 1003.91 19.8623   1
   6  -1  10 1051.95 42.8246   1
  -1  -5  10 985.606 25.4555   3
   4   2 -10 878.290 37.3341   4
  -6   4 -10 993.941 37.8430   2
   2  -6 -10 898.367 34.0826   2
   6  -4  10 1020.03 42.2923   7
  -2   6  10 936.697 36.6711   2
  -2   6  10 896.293 33.8604   1
  -4  -2  10 907.772 21.6913   3
  -4  -2  10 906.945 20.4951   1
   6  -4  10 885.107 39.6201   1
  -2   6  10 949.701 32.5620   5
  -2   6  10 915.125 35.5204   6
  -1  -6 -10 1471.16 50.0409   2
  -6   7 -10 1392.40 45.1375   4
  -6   7 -10 1442.87 40.1102   2
   1   6  10 1442.79 49.3057   1
   1   6  10 1333.75 50.4050   2
   1   6  10 1426.44 46.3541   5
   6  -7  10 1395.14 46.7278   1
  -7   1  10 1373.11 36.1608   1
   6  -7  10 1417.44 46.9990   3
  -4  -6 -10 996.725 48.5484   2
  -6  10 -10 1009.21 42.3344   4
  10  -4 -10 949.758 25.8436   2
  -4  -6 -10 1037.51 49.0962   1
   6 -10  10 966.546 35.6657   3
   6 -10  10 944.467 36.3620   1
 -10   4  10 858.370 33.9219   1
   4   6  10 875.855 46.1643   2
  -6  13 -10 12.2369 15.4004   4
  13  -7 -10 -1.1694 10.1177   2
  -7  -6 -10 23.9154 19.0893   1
   6 -13  10 -1.1397 10.6581   1
   6 -13  10 15.2979 10.7671   3
   7   6  10 28.9154 16.8077   2
 -13   7  10 -7.2814 11.2076   1
  10  -7 -10 45.1422 11.9030   2
  -7  -3 -10 47.1869 17.5649   2
  -3  10 -10 11.7660 13.2353   4
 -10   7  10 57.6090 13.7206   1
   7   3  10 39.4588 16.9405   2
   3 -10  10 57.2660 10.2997   3
   3 -10  10 51.3225 10.6253   1
   7  -7 -10 355.109 22.0961   2
  -7   0 -10 403.688 29.1278   2
   0   7 -10 405.682 28.2869   4
   0  -7  10 395.925 15.1115   1
   7   0  10 444.624 30.5298   1
   0  -7  10 389.307 14.2048   3
   7   0  10 404.375 31.4399   2
  -7   7  10 398.171 23.5909   1
  -7   3 -10 52.4162 14.3054   2
   4  -7 -10 50.8621 11.7878   2
   3   4 -10 44.4876 13.1506   4
  -4   7  10 47.7330 12.4751   2
   7  -3  10 64.5715 17.6641   1
  -4   7  10 53.8124 12.2688   1
   7  -3  10 63.6104 17.9155   7
   1  -7 -10 1429.58 47.4196   2
   6   1 -10 1435.01 49.8178   4
  -7   6 -10 1450.26 46.1167   2
   7  -6  10 1318.12 49.2196   1
  -1   7  10 1463.77 44.5444   5
  -1   7  10 1456.01 46.7238   1
  -1   7  10 1394.09 48.7690   2
  -6  -1  10 1390.47 32.3997   1
  -6  -1  10 1419.82 33.0778   3
   7  -6  10 1438.28 51.0265   3
  -2  -7 -10 252.611 28.1016   1
  -2  -7 -10 297.905 30.1920   2
  -7   9 -10 253.564 23.5708   4
  -7   9 -10 211.639 17.6867   2
   2   7  10 189.036 24.6634   2
   2   7  10 214.118 24.8386   5
   7  -9  10 271.098 23.9539   1
   7  -9  10 236.422 22.0692   3
  -9   2  10 242.024 18.5210   1
  -7  12 -10 342.188 30.1089   4
  -5  -7 -10 313.203 34.5792   1
   7 -12  10 307.088 24.7034   1
 -12   5  10 310.069 24.9034   1
   7 -12  10 301.893 24.2257   3
   5   7  10 347.889 34.4693   2
  -7  15 -10 191.856 27.2892   4
  15  -8 -10 226.532 22.6793   2
 -15   8  10 157.708 24.0014   1
   8   7  10 204.163 27.7488   2
   7 -15  10 189.770 22.0204   3
   7 -15  10 230.542 23.7552   1
  12  -8 -10 462.513 27.4946   2
  12  -8 -10 549.836 28.9892   2
  -4  12 -10 569.645 37.5132   4
   8   4  10 585.597 39.8094   2
   4 -12  10 542.294 26.5914   1
 -12   8  10 556.607 32.8397   1
   4 -12  10 538.300 25.7423   3
   9  -8 -10 27.1925 11.1522   2
  -8  -1 -10 51.4484 16.0679   2
  -1   9 -10 19.6679 14.1152   4
   1  -9  10 25.5702 6.92241   3
   8   1  10 17.6624 15.8607   2
  -9   8  10 35.8421 12.6640   1
   1  -9  10 29.9959 7.92382   1
   2   6 -10 313.874 28.1327   4
   6  -8 -10 297.232 21.9160   2
  -8   2 -10 312.230 28.3956   2
   8  -2  10 281.374 30.5877   7
   8  -2  10 270.857 29.0844   2
  -6   8  10 279.504 22.5837   1
   8  -2  10 278.105 27.1470   1
  -8   5 -10 850.824 37.4827   2
   3  -8 -10 781.226 34.0275   2
   5   3 -10 795.378 37.4606   4
  -5  -3  10 784.072 18.9911   3
   8  -5  10 813.538 40.0645   1
  -3   8  10 791.720 35.7856   2
  -3   8  10 780.197 34.2227   1
  -3   8  10 776.072 32.3211   5
   8  -5  10 712.816 39.9113   7
  -5  -3  10 769.894 18.6648   1
  -8   8 -10 3139.10 75.9406   2
   0  -8 -10 3092.90 81.9491   2
  -8   0  10 3095.34 63.9332   1
   8  -8  10 3049.35 81.3383   1
   0   8  10 3087.85 77.1866   5
   0   8  10 3126.86 82.0039   2
  -3  -8 -10 27.8492 17.8050   1
  -8  11 -10 66.3113 11.2091   2
   3   8  10 20.4223 15.3459   2
   8 -11  10 92.0773 16.3705   3
 -11   3  10 79.1896 14.4342   1
   8 -11  10 70.1745 16.2264   1
  -6  -8 -10 385.144 40.2754   1
  -8  14 -10 375.122 34.1490   4
   6   8  10 360.253 34.8244   2
 -14   6  10 380.826 30.1503   1
   8 -14  10 342.660 28.0808   1
  14  -9 -10 6.25506 12.7353   2
  -5  14 -10 -25.091 14.8412   4
   5 -14  10 2.47160 9.62866   3
   5 -14  10 11.0780 11.1727   1
 -14   9  10 -6.2674 12.7615   1
   9   5  10 1.04774 14.7302   2
  11  -9 -10 199.352 21.6106   2
  -2  11 -10 186.864 25.8237   4
   2 -11  10 192.789 15.6813   3
 -11   9  10 211.610 23.7295   1
   9   2  10 170.369 24.5642   2
   2 -11  10 203.640 16.3900   1
   1   8 -10 31.4381 14.4994   4
  -9   1 -10 8.24218 13.3146   2
   8  -9 -10 23.5573 11.0434   2
   9  -1  10 33.7189 15.4632   2
  -1  -8  10 32.9989 5.71708   3
  -1  -8  10 19.7568 5.68764   1
   9  -1  10 27.4198 16.8168   7
  -8   9  10 25.1576 11.7676   1
  -9   4 -10 107.609 18.9895   2
   4   5 -10 92.1421 17.7565   4
   5  -9 -10 79.4754 14.5391   2
   9  -4  10 79.9876 20.2586   7
   9  -4  10 137.677 21.4373   1
  -5   9  10 104.072 17.0924   2
  -5   9  10 98.9784 16.4818   1
   2  -9 -10 229.878 23.8517   2
   7   2 -10 254.059 26.4865   4
  -9   7 -10 222.738 23.4504   2
  -7  -2  10 247.082 13.9741   1
  -2   9  10 261.715 24.3351   2
  -7  -2  10 240.460 13.5326   3
  -2   9  10 238.250 22.1337   5
   9  -7  10 240.708 26.6611   1
  -9  10 -10 311.774 25.2624   2
   1   9  10 395.107 33.4626   2
   9 -10  10 283.587 28.2175   1
 -10   1  10 318.087 21.2749   1
   1   9  10 330.904 30.5358   5
  -4  -9 -10 38.4618 20.7257   1
   9 -13  10 72.5967 16.6143   1
 -13   4  10 73.7464 16.0028   1
   4   9  10 71.8286 21.0139   2
  -3  13 -10 102.426 22.1256   4
  13 -10 -10 61.6043 15.6602   2
  10   3  10 86.9912 20.7382   2
 -13  10  10 104.492 20.0755   1
   3 -13  10 90.5866 13.4701   3
   3 -13  10 116.613 15.0790   1
  10 -10 -10 15.8265 11.7536   2
   0  10 -10 6.68179 13.4719   4
 -10   0 -10 30.2927 16.3983   2
 -10  10  10 13.7366 12.6309   1
   0 -10  10 3.57222 6.12812   3
  10   0  10 27.1168 16.1702   2
   0 -10  10 -0.4853 6.61784   1
 -10   3 -10 76.7968 18.5661   2
   3   7 -10 33.9213 15.4806   4
   7 -10 -10 26.6817 12.7296   2
  -7  10  10 31.6254 12.7881   1
  10  -3  10 59.7617 21.1092   7
  10  -3  10 24.0331 18.5143   2
   6   4 -10 941.065 43.6687   4
   4 -10 -10 980.215 41.1866   2
 -10   6 -10 911.911 43.4088   2
  -6  -4  10 988.533 23.8130   3
  -6  -4  10 938.679 24.2637   1
  -4  10  10 914.219 38.2788   5
  10  -6  10 1031.62 48.0479   1
  10  -6  10 874.988 47.4659   7
  -4  10  10 946.270 41.4589   2
   1 -10 -10 321.154 30.0813   2
 -10   9 -10 354.795 28.4654   2
  -1  10  10 252.810 25.0203   5
  -1  10  10 298.152 28.8688   2
  10  -9  10 290.608 30.6808   1
  -9  -1  10 258.084 18.5366   1
  -2 -10 -10 826.446 47.6874   1
 -10  12 -10 859.800 36.7051   2
   2  10  10 855.150 47.0842   5
 -12   2  10 855.244 35.6270   1
  10 -12  10 694.640 40.3363   1
   2  10  10 813.503 44.5631   2
  -5 -10 -10 33.9127 22.8446   1
 -15   5  10 -13.198 12.3719   1
  10 -15  10 3.41770 13.4752   1
   5  10  10 9.41091 15.2548   2
  15 -11 -10 57.3347 17.3624   2
  -4  15 -10 72.3732 22.8443   4
  15 -11 -10 102.904 19.1580   2
   4 -15  10 108.504 16.8170   1
   4 -15  10 73.9820 14.5941   3
  11   4  10 92.9705 20.8885   2
 -15  11  10 89.8155 21.1798   1
  -1  12 -10 373.586 36.5100   4
  12 -11 -10 293.009 27.4852   2
  11   1  10 293.113 30.7873   2
 -12  11  10 302.666 29.2530   1
   1 -12  10 349.144 18.9502   3
   1 -12  10 342.322 19.3942   1
 -11   2 -10 137.015 23.5758   2
   2   9 -10 194.542 25.3997   4
   9 -11 -10 173.652 20.9542   2
  11  -2  10 176.946 27.6553   2
  -9  11  10 145.582 20.2919   1
  11  -2  10 173.222 27.4911   7
 -11   5 -10 15.6966 14.3403   2
   5   6 -10 76.8605 18.8637   4
   6 -11 -10 25.0959 12.7505   2
  -6  11  10 31.3336 14.0516   2
  -5  -6  10 20.3499 7.29112   3
  11  -5  10 34.9390 17.8988   1
  11  -5  10 59.3338 20.3022   7
   3 -11 -10 56.5757 16.3333   2
 -11   8 -10 18.9489 14.4678   2
   8   3 -10 72.5689 19.1078   4
  11  -8  10 99.5238 21.5066   1
  -8  -3  10 71.3956 11.0948   1
  -3  11  10 60.1618 16.5911   2
  -8  -3  10 56.4957 9.63525   3
  -3  11  10 80.6072 16.6002   5
 -11  11 -10 62.9903 17.8415   2
   0  11  10 38.9923 16.7994   2
  11 -11  10 48.6882 18.5498   1
   0  11  10 36.3872 16.3504   5
 -11   0  10 73.7528 13.8320   1
 -11  14 -10 6.53534 12.0787   2
  -3 -11 -10 59.7354 22.9640   1
   3  11  10 1.30464 13.5994   2
  11 -14  10 36.6446 16.9157   1
 -14   3  10 18.3598 13.6975   1
  -2  14 -10 107.512 26.4649   4
  14 -12 -10 157.076 23.0243   2
   2 -14  10 162.105 17.6347   3
   2 -14  10 203.864 19.2466   1
  12   2  10 140.514 24.3983   2
  11 -12 -10 300.578 27.9925   2
   1  11 -10 322.102 34.5052   4
  -1 -11  10 319.410 16.9799   1
  12  -1  10 260.029 31.2869   2
 -12   4 -10 529.747 38.7034   2
   8 -12 -10 524.181 33.5075   2
   4   8 -10 494.649 36.3349   4
  -8  12  10 543.821 34.9652   2
  12  -4  10 557.829 44.4763   7
  12  -4  10 525.504 43.7090   2
 -12   7 -10 323.493 31.8223   2
   7   5 -10 330.393 33.2428   4
   5 -12 -10 296.758 29.1444   2
  12  -7  10 280.855 32.7002   1
  12  -7  10 313.139 35.1417   7
  -7  -5  10 312.485 18.2238   1
  -5  12  10 315.582 28.8918   2
  -5  12  10 283.965 26.4318   5
  -7  -5  10 313.202 18.1011   3
 -12  10 -10 825.765 43.4230   2
  12 -10  10 769.029 47.5424   1
  -2  12  10 847.603 42.8512   2
 -10  -2  10 831.478 31.2199   1
  -2  12  10 835.005 41.2633   5
 -12  13 -10 134.809 21.1756   2
 -13   1  10 111.189 17.6874   1
  12 -13  10 107.092 22.1476   1
   1  12  10 91.1961 21.1602   2
  13 -13 -10 378.587 33.3983   2
   0  13 -10 410.517 40.2821   4
  13   0  10 390.223 36.4100   2
   0 -13  10 415.507 22.3289   1
  10 -13 -10 58.9231 16.1395   2
 -13   3 -10 150.090 25.4571   2
   3  10 -10 52.7134 20.2623   4
  13  -3  10 67.0606 22.7888   2
   7 -13 -10 3.06907 13.3547   2
 -13   6 -10 -0.7800 16.2297   2
   6   7 -10 16.1295 16.8839   4
  -7  13  10 0.65043 12.4090   2
 -13   9 -10 62.2040 20.0059   2
  -4  13  10 86.8696 19.2780   2
  13  -9  10 25.0378 18.5563   1
  -9  -4  10 116.487 14.4812   1
 -13  12 -10 120.358 21.9618   2
  13 -12  10 124.459 24.9166   1
  -1  13  10 91.0127 19.7868   2
 -12  -1  10 110.911 17.9518   1
  12 -14 -10 187.735 25.4772   2
   2  12 -10 191.735 30.2099   4
  14  -2  10 130.172 26.0846   2
  -2 -12  10 198.616 16.0239   1
   5   9 -10 1.11706 16.2119   4
   9 -14 -10 12.7847 13.9485   2
 -14   5 -10 -15.204 15.4741   2
  14  -5  10 -10.014 18.4506   2
  -9  14  10 -2.4480 13.4354   2
 -14   8 -10 312.160 35.1177   2
  -6  14  10 397.055 32.8318   2
  -8  -6  10 373.639 23.0878   1
 -14  11 -10 33.1895 16.3755   2
  14 -11  10 29.0428 21.3385   1
  -3  14  10 13.5221 15.3638   2
 -11  -3  10 -7.1782 11.0196   1
  11 -15 -10 74.4566 20.3450   2
   4  11 -10 37.2055 20.9188   4
  15  -4  10 45.0420 21.6358   2
   8 -15 -10 162.684 28.3044   2
 -15   7 -10 142.867 27.0106   2
   7   8 -10 269.354 33.7533   4
  -8  15  10 196.846 26.1610   2
 -15  10 -10 8.63350 15.7182   2
 -10  -5  10 1.25443 12.0374   1
  -5  15  10 29.9549 16.4712   2
   0  -1 -11 5.67988 6.22596   2
   1   0 -11 -1.3719 3.56377   2
  -1   1 -11 5.82162 4.95608   2
  -1   0  11 1.10209 6.13237   1
   0   1  11 4.03430 6.91597   5
   0   1  11 8.75438 7.55482   1
   1  -1  11 -19.455 9.18326   7
   1  -1  11 -6.7592 6.60621   1
  -2   0 -11 -1.2494 6.65262   2
   2  -2 -11 -1.1080 5.21324   2
  -2   2  11 -1.6937 7.05734   6
  -2   2  11 1.14967 6.52157   1
   2   0  11 12.1788 9.29304   1
   0  -2  11 3.94553 6.04227   1
  -2   2  11 2.86920 5.92887   5
   2   0  11 4.43408 9.00770   3
  -2   3 -11 1698.01 30.5866   2
  -1  -2 -11 1616.36 45.2733   2
   1   2  11 1698.67 47.4534   1
   1   2  11 1638.21 43.1331   5
  -3   1  11 1617.33 39.7627   6
   2  -3  11 1722.07 48.6140   3
  -3   1  11 1588.40 38.9662   1
   2  -3  11 1638.06 45.5682   1
  -3  -1 -11 26.5585 11.3049   2
   4  -3 -11 13.6131 6.25699   2
  -1   4 -11 9.25875 10.3123   4
   1  -4  11 9.86343 8.71137   1
  -4   3  11 11.7596 7.45638   1
   3   1  11 25.2417 11.8003   1
   1  -4  11 -4.4944 8.78976   3
  -4   3  11 21.9702 7.92223   6
  -3   2 -11 1701.63 42.1357   2
   1  -3 -11 1690.70 43.6905   2
   3  -2  11 1599.54 49.5108   1
  -1   3  11 1721.92 41.3524   5
  -1   3  11 1734.86 49.5148   6
  -1   3  11 1656.48 44.7826   1
   3  -2  11 1662.47 55.4096   7
   3  -2  11 1667.38 51.2063   3
  -2  -1  11 1667.10 36.7548   1
  -2  -3 -11 188.924 20.2622   2
  -3   5 -11 172.023 19.6672   4
   3  -5  11 167.428 18.7363   1
   2   3  11 162.971 19.9387   1
   2   3  11 194.250 19.4467   5
   2   3  11 176.991 22.0258   2
   3  -5  11 180.121 18.8070   3
  -5   2  11 153.196 13.4662   1
  -2   6 -11 24.4981 11.9379   4
   6  -4 -11 20.8385 7.42111   2
  -4  -2 -11 20.3350 13.3544   2
   2  -6  11 31.1233 9.73503   3
   4   2  11 27.8952 14.5834   2
   4   2  11 62.1733 17.1087   1
   2  -6  11 19.4012 10.6969   1
  -6   4  11 18.8072 8.96845   1
   1   3 -11 19.1141 12.0680   4
  -4   1 -11 18.8998 10.8237   2
   3  -4 -11 8.19366 6.80321   2
  -1  -3  11 17.0239 5.80100   1
  -3   4  11 9.77430 7.95613   1
   4  -1  11 5.86398 12.6000   7
   4  -1  11 0.49690 11.0235   1
   4  -1  11 15.7803 12.2855   3
  -3   4  11 10.1378 8.42478   6
  -4   4 -11 9.00959 6.91419   2
   0  -4 -11 -5.3401 7.84137   2
   0   4  11 -1.4304 10.3763   2
   4  -4  11 14.8637 11.5903   1
   0   4  11 -2.9197 8.68963   5
   4  -4  11 -17.091 10.2129   3
   0   4  11 14.1531 10.2111   1
   4  -4  11 1.42262 10.2187   7
   0   4  11 5.53336 9.85689   6
  -4   0  11 2.08299 5.42281   1
  -3  -4 -11 1242.77 48.0910   2
  -4   7 -11 1143.39 43.6867   4
   4  -7  11 1267.16 42.0997   1
   4  -7  11 1229.64 39.9626   3
   3   4  11 1191.08 50.2235   2
  -7   3  11 1201.60 35.6854   1
   3   4  11 1161.73 48.0665   1
   8  -5 -11 143.029 13.4287   2
  -3   8 -11 133.763 19.6359   4
  -5  -3 -11 153.291 22.9092   2
   3  -8  11 132.286 14.7503   1
   5   3  11 120.347 20.6330   2
  -8   5  11 121.587 15.3080   1
   3  -8  11 119.457 13.1226   3
   5  -5 -11 7.98988 7.00693   2
   0   5 -11 6.23582 10.1684   4
  -5   0 -11 6.57820 11.6122   2
   5   0  11 6.22038 12.9236   1
   0  -5  11 7.71742 7.63144   3
  -5   5  11 2.41306 8.29016   1
   0  -5  11 -10.318 6.88047   1
   2  -5 -11 148.310 15.7821   2
   3   2 -11 159.746 20.1015   4
  -5   3 -11 168.418 18.3550   2
  -2   5  11 165.620 17.3569   6
   5  -3  11 201.877 23.0693   3
  -2   5  11 172.053 15.6668   5
  -2   5  11 189.383 17.6771   1
   5  -3  11 148.371 21.0302   7
   5  -3  11 189.054 21.0803   1
  -3  -2  11 193.554 9.97510   1
  -5   6 -11 303.640 16.3014   2
  -1  -5 -11 382.365 26.4952   2
  -5   6 -11 315.399 23.8048   4
   5  -6  11 327.799 26.8740   1
   1   5  11 306.136 24.4305   1
   5  -6  11 300.274 24.5799   3
   1   5  11 317.791 28.7666   2
  -6   1  11 272.897 16.2729   1
   1   5  11 319.596 25.4134   5
  -5   9 -11 224.402 24.3627   4
   9  -4 -11 239.750 13.2263   2
  -4  -5 -11 177.128 24.5103   2
   5  -9  11 235.005 19.9338   3
   5  -9  11 234.997 21.0854   1
   4   5  11 172.238 25.3325   2
  -9   4  11 250.240 20.5129   1
  -6  -4 -11 -2.2877 14.7456   2
  10  -6 -11 4.35788 8.37911   2
  -4  10 -11 -9.2992 12.5139   4
  10  -6 -11 -8.8056 7.57464   2
 -10   6  11 -6.0574 9.72174   1
   4 -10  11 -5.6841 8.50977   1
   6   4  11 -5.3553 14.6520   2
   4 -10  11 0.06578 8.01035   3
   7  -6 -11 1534.20 43.6235   2
  -1   7 -11 1586.19 54.0578   4
  -6  -1 -11 1574.80 55.8701   2
   6   1  11 1563.16 55.0321   1
   1  -7  11 1547.93 39.8024   1
  -7   6  11 1530.58 46.3675   1
   1  -7  11 1583.67 37.2578   3
   6   1  11 1686.77 59.2534   2
   2   4 -11 21.4152 12.5007   4
  -6   2 -11 9.64178 11.6599   2
   4  -6 -11 12.7351 8.74780   2
  -4   6  11 27.2354 9.80107   6
  -2  -4  11 33.1594 4.44210   1
   6  -2  11 24.1868 13.8601   1
  -4   6  11 21.3616 9.95100   1
   6  -2  11 43.4620 16.1398   7
   1  -6 -11 337.904 23.4407   2
  -6   5 -11 347.807 23.1905   2
   6  -5  11 334.630 28.6557   1
  -1   6  11 288.516 25.8746   2
  -5  -1  11 304.465 13.7220   1
   6  -5  11 302.738 26.6783   3
  -1   6  11 280.721 21.3799   5
   6  -5  11 350.130 27.4816   7
  -5  -1  11 310.664 14.0447   3
  -1   6  11 309.966 23.3725   1
  -6   8 -11 40.4691 7.38663   2
  -2  -6 -11 37.6582 15.2459   2
  -6   8 -11 52.6248 14.1032   4
   6  -8  11 28.6150 13.1915   1
   6  -8  11 42.7563 13.7229   3
  -8   2  11 33.5018 9.91005   1
   2   6  11 31.5138 15.4824   2
   2   6  11 60.1060 15.9719   5
  -6  11 -11 7.67937 12.9942   4
 -11   5  11 0.17546 10.5700   1
   6 -11  11 4.28091 9.90127   3
   6 -11  11 -4.6091 10.3054   1
   5   6  11 15.2420 16.3126   2
  12  -7 -11 250.771 20.7363   2
  -5  12 -11 206.956 27.0113   4
   5 -12  11 196.775 18.7379   3
 -12   7  11 204.894 23.0643   1
   5 -12  11 255.103 21.1933   1
   7   5  11 252.903 31.1420   2
  -2   9 -11 2009.82 64.8880   4
   9  -7 -11 2017.82 53.4843   2
  -7  -2 -11 1945.10 66.2233   2
   2  -9  11 2014.11 46.6433   1
   2  -9  11 1983.86 45.8668   3
   7   2  11 1903.52 67.5289   2
  -9   7  11 1981.90 56.8483   1
  -7   1 -11 1511.85 54.1231   2
   6  -7 -11 1595.62 46.1371   2
   1   6 -11 1420.82 52.9786   4
  -1  -6  11 1545.71 33.0209   1
   7  -1  11 1527.10 59.5186   7
  -6   7  11 1641.17 48.0113   1
   7  -1  11 1577.61 58.1456   2
  -1  -6  11 1566.41 33.2163   3
   7  -1  11 1608.33 55.0544   1
   3  -7 -11 1206.83 41.9529   2
   4   3 -11 1261.43 47.4558   4
  -7   4 -11 1180.49 44.3870   2
   7  -4  11 1191.05 48.8312   1
  -3   7  11 1224.56 42.2468   1
  -4  -3  11 1200.82 25.8135   3
   7  -4  11 1251.33 52.8837   7
  -4  -3  11 1257.33 24.8567   1
  -3   7  11 1233.81 39.4809   5
  -7   7 -11 19.8339 12.1537   4
  -7   7 -11 12.5419 10.3850   2
   0  -7 -11 1.44940 10.9438   2
   0   7  11 9.59789 12.7167   2
   7  -7  11 -18.230 10.2010   3
  -7   0  11 1.62350 6.03023   1
   0   7  11 2.46501 11.0047   5
   7  -7  11 -14.491 10.9742   1
  -3  -7 -11 68.4594 20.1525   2
  -7  10 -11 64.7899 16.2359   4
 -10   3  11 69.7125 12.9122   1
   3   7  11 99.6499 22.0643   2
   7 -10  11 45.8517 14.2594   1
   7 -10  11 89.0144 15.4930   3
  -7  13 -11 461.650 34.6865   4
   7 -13  11 520.212 29.7283   3
   6   7  11 485.134 40.1321   2
   7 -13  11 427.048 29.0916   1
 -13   6  11 520.014 32.4736   1
  14  -8 -11 -13.025 10.4168   2
  -6  14 -11 20.8061 16.8169   4
   6 -14  11 25.1392 11.9927   3
   8   6  11 19.8103 17.4511   2
   6 -14  11 3.91792 11.3897   1
 -14   8  11 1.79785 13.3084   1
  -8  -3 -11 25.2344 17.5516   2
  -3  11 -11 65.5175 18.4502   4
  11  -8 -11 37.2344 12.4134   2
   3 -11  11 30.3684 9.46135   3
   8   3  11 28.2251 16.1612   2
 -11   8  11 32.7480 13.5185   1
   3 -11  11 45.8976 10.5879   1
   0   8 -11 -15.798 10.9728   4
   8  -8 -11 -6.5117 8.58433   2
  -8   0 -11 -12.568 12.3285   2
   8   0  11 6.31618 14.8575   2
  -8   8  11 -6.1387 9.27310   1
   0  -8  11 12.1424 5.60588   3
   0  -8  11 11.1468 6.37400   1
   5  -8 -11 118.221 16.8795   2
  -8   3 -11 119.882 19.2057   2
   3   5 -11 135.329 20.2285   4
   8  -3  11 143.503 23.6796   7
  -5   8  11 132.910 17.4187   1
   8  -3  11 101.033 20.1514   1
   2  -8 -11 49.2447 14.1785   2
   6   2 -11 41.2962 15.4307   4
  -8   6 -11 51.5523 14.1463   2
  -6  -2  11 47.7276 7.28880   1
  -2   8  11 26.5082 14.0747   2
   8  -6  11 34.5486 15.9475   7
   8  -6  11 35.8278 15.8365   1
  -6  -2  11 36.0690 6.81545   3
  -2   8  11 17.3682 11.0920   5
  -2   8  11 31.5945 12.9361   1
  -1  -8 -11 109.808 21.8661   2
  -8   9 -11 108.192 15.3775   2
   1   8  11 97.6770 19.0929   5
   1   8  11 126.706 22.2866   2
  -9   1  11 102.296 13.5543   1
   8  -9  11 67.2231 16.7341   1
 -12   4  11 110.125 17.0675   1
   8 -12  11 116.916 18.3693   1
   8 -12  11 134.322 19.3428   3
   4   8  11 154.008 24.4230   2
  -8  15 -11 15.8680 17.6597   4
 -15   7  11 10.9510 14.9431   1
   8 -15  11 20.1718 14.2954   1
   7   8  11 45.6085 19.3916   2
  13  -9 -11 353.273 26.3634   2
  -4  13 -11 323.216 34.1616   4
  13  -9 -11 283.333 25.2329   2
   4 -13  11 289.279 21.4250   3
   4 -13  11 316.152 23.2911   1
   9   4  11 374.791 36.6177   2
 -13   9  11 324.303 29.6773   1
  -1  10 -11 760.680 43.0221   4
  -9  -1 -11 804.358 43.8187   2
  10  -9 -11 822.907 35.8494   2
   1 -10  11 874.659 26.4739   1
   9   1  11 898.225 46.6354   2
 -10   9  11 764.619 37.9169   1
   1 -10  11 843.568 25.4397   3
   2   7 -11 1933.08 64.3088   4
   7  -9 -11 1847.08 55.4964   2
  -9   2 -11 1955.14 63.8020   2
   9  -2  11 1951.37 71.3554   7
  -7   9  11 1890.78 57.5455   1
   9  -2  11 2066.53 69.4285   2
   9  -2  11 1822.45 63.5834   1
  -9   5 -11 226.853 24.0052   2
   4  -9 -11 225.998 22.8599   2
   5   4 -11 225.613 25.5142   4
  -4   9  11 219.374 21.5899   5
  -5  -4  11 237.130 9.35681   3
   9  -5  11 196.084 25.0646   1
   9  -5  11 226.658 29.4508   7
  -4   9  11 247.484 23.4056   1
  -4   9  11 245.984 24.4929   2
   1  -9 -11 114.184 19.5884   2
  -9   8 -11 102.273 18.0436   2
  -1   9  11 89.2124 19.1225   2
   9  -8  11 107.034 20.8754   1
  -1   9  11 116.295 18.6668   5
  -8  -1  11 95.1293 11.4687   1
  -9  11 -11 268.041 20.0289   2
   2   9  11 238.091 29.4226   2
   9 -11  11 240.303 27.0401   1
 -11   2  11 271.577 22.9920   1
   2   9  11 248.456 30.3053   5
   5   9  11 187.027 28.3447   2
 -14   5  11 210.392 24.2638   1
   9 -14  11 203.085 24.1106   1
  15 -10 -11 405.786 30.0414   2
  -5  15 -11 404.064 39.8263   4
   5 -15  11 349.123 24.8723   3
  10   5  11 435.632 38.0346   2
 -15  10  11 354.748 34.1140   1
   5 -15  11 363.991 26.7749   1
  12 -10 -11 35.4565 13.9384   2
  -2  12 -11 54.8238 19.2796   4
 -12  10  11 41.4974 16.9868   1
   2 -12  11 30.5164 9.16651   3
  10   2  11 19.3167 16.8194   2
   2 -12  11 19.4881 9.87761   1
   9 -10 -11 767.947 36.7516   2
   1   9 -11 811.625 43.3844   4
 -10   1 -11 819.840 43.1849   2
  -9  10  11 873.456 39.1081   1
  10  -1  11 762.353 45.7485   2
  -1  -9  11 822.734 21.2671   3
   6 -10 -11 2.03787 10.3755   2
   4   6 -11 20.2744 14.8942   4
 -10   4 -11 -3.9136 12.9236   2
  10  -4  11 -16.763 13.9736   1
  10  -4  11 -21.935 15.2702   7
  -6  10  11 -6.4336 11.4091   1
   7   3 -11 44.8663 17.0613   4
 -10   7 -11 57.4302 16.2882   2
   3 -10 -11 65.8735 16.2807   2
  10  -7  11 68.0511 19.5607   7
  -7  -3  11 62.6525 8.37377   3
  10  -7  11 53.2590 20.0465   1
  -3  10  11 80.6008 16.5628   5
  -7  -3  11 87.2603 9.41962   1
  -3  10  11 60.7545 16.2198   2
 -10  10 -11 -1.1734 11.8424   2
   0  10  11 -13.494 13.4066   5
   0  10  11 -7.3767 14.1511   2
  10 -10  11 -9.2005 13.7803   1
 -10   0  11 2.66607 8.82625   1
 -13   3  11 15.6095 12.7310   1
  10 -13  11 16.7297 14.3796   1
   3  10  11 -0.7032 16.5425   2
  14 -11 -11 -2.5586 12.2023   2
  -3  14 -11 -27.413 14.7040   4
 -14  11  11 6.36019 15.4196   1
   3 -14  11 -3.4872 8.82195   3
  11   3  11 19.8279 16.8302   2
   3 -14  11 3.93411 9.52988   1
   0  11 -11 12.2445 15.0909   4
  11 -11 -11 9.35197 11.8515   2
 -11   0 -11 -5.6750 15.6256   2
   0 -11  11 -1.1661 7.03205   1
   0 -11  11 -6.7983 5.92380   3
  11   0  11 -5.8196 13.6623   2
 -11  11  11 -16.814 11.9366   1
   3   8 -11 4.63924 15.6641   4
 -11   3 -11 26.2921 14.6023   2
   8 -11 -11 26.6604 13.5585   2
  11  -3  11 58.1698 20.7568   7
  11  -3  11 17.5402 18.0599   2
   5 -11 -11 0.38244 12.4905   2
   6   5 -11 20.1695 16.1111   4
 -11   6 -11 -13.336 12.5439   2
  11  -6  11 -2.0140 15.9067   1
  -6  -5  11 1.10817 5.45637   3
  -5  11  11 -6.7476 11.3432   2
  11  -6  11 -0.3824 16.6315   7
  -5  11  11 -7.4547 11.3251   5
 -11   9 -11 215.379 25.4385   2
   2 -11 -11 204.763 27.1991   2
  -2  11  11 270.737 27.8403   2
  -2  11  11 254.784 26.5573   5
  -9  -2  11 261.557 18.0059   1
  11  -9  11 241.710 30.8549   1
 -11  12 -11 194.722 22.1554   2
  11 -12  11 138.500 24.0277   1
   1  11  11 187.337 27.0827   2
 -12   1  11 178.013 19.1804   1
  13 -12 -11 461.788 34.2023   2
  -1  13 -11 389.955 38.5847   4
  12   1  11 502.376 39.0388   2
   1 -13  11 457.118 22.7153   1
 -13  12  11 451.144 35.4319   1
   1 -13  11 457.565 22.6268   3
 -12   2 -11 -4.6467 14.2564   2
   2  10 -11 37.0211 18.5361   4
  10 -12 -11 5.43264 12.4780   2
  12  -2  11 38.8217 19.6395   2
   5   7 -11 222.843 28.5636   4
 -12   5 -11 157.518 24.1563   2
   7 -12 -11 274.807 26.8833   2
  -7  12  11 246.989 27.2237   2
  12  -5  11 203.005 32.9287   7
   8   4 -11 150.372 26.3719   4
 -12   8 -11 126.428 22.2183   2
   4 -12 -11 120.374 21.1471   2
  -4  12  11 91.3151 19.8079   2
  12  -8  11 135.540 25.8268   1
  -8  -4  11 128.160 12.8931   1
  -4  12  11 117.036 20.3796   5
  -8  -4  11 131.910 12.7227   3
  12  -8  11 103.429 24.3654   7
 -12  11 -11 187.875 24.6276   2
 -11  -1  11 214.710 18.8230   1
  12 -11  11 210.887 29.0966   1
  -1  12  11 177.780 26.2846   2
 -12  14 -11 112.877 16.7668   2
  12 -14  11 113.139 23.4286   1
 -14   2  11 106.755 18.7971   1
   2  12  11 103.679 23.2373   2
   1  12 -11 458.054 43.0336   4
  12 -13 -11 419.292 33.6588   2
  13  -1  11 447.647 40.0161   2
  -1 -12  11 408.803 20.5577   1
 -13   4 -11 244.615 30.6302   2
   9 -13 -11 293.284 29.5359   2
   4   9 -11 327.390 34.6836   4
  13  -4  11 333.520 38.2445   2
 -13   7 -11 461.963 37.7156   2
   7   6 -11 538.671 40.0720   4
   6 -13 -11 450.306 35.1999   2
  -7  -6  11 458.168 21.7471   3
  -6  13  11 421.953 36.4131   2
 -13  10 -11 1.81092 14.5277   2
 -10  -3  11 16.3243 10.4618   1
  13 -10  11 -11.093 17.2903   1
  -3  13  11 -6.0466 13.4222   2
 -13  13 -11 40.0974 16.1477   2
 -13   0  11 -10.204 10.8846   1
  13 -13  11 8.33740 18.2276   1
   0  13  11 -10.265 14.0140   2
 -14   3 -11 6.79028 17.2873   2
  11 -14 -11 -23.027 12.1341   2
   3  11 -11 -3.0548 16.8156   4
  14  -3  11 -10.049 16.0777   2
   8 -14 -11 12.9547 14.5757   2
   6   8 -11 16.4481 18.1046   4
 -14   6 -11 -7.4067 15.4322   2
  -8  14  11 -24.803 11.0101   2
 -14   9 -11 242.954 31.6269   2
  -9  -5  11 238.995 19.2816   1
  -5  14  11 172.418 25.0321   2
 -14  12 -11 112.543 23.8522   2
  14 -12  11 108.909 27.2730   1
 -12  -2  11 134.943 17.9580   1
  -2  14  11 162.890 26.0912   2
  10 -15 -11 415.491 36.3633   2
 -15   5 -11 394.841 39.5753   2
   5  10 -11 332.638 39.3554   4
  15  -5  11 441.353 43.4877   2
 -10  15  11 372.883 36.2500   2
 -15   8 -11 38.2227 19.8440   2
  -7  15  11 30.9078 17.0669   2
   0   0 -12 5241.90 91.7344   2
   0   0  12 5028.78 98.7225   1
   2  -1 -12 247.863 11.0926   2
  -1  -1 -12 231.482 17.0216   2
  -2   1  12 242.731 16.2806   1
   1  -2  12 242.009 17.5902   1
   1   1  12 250.711 20.1652   1
  -2   1  12 223.759 17.8532   6
   1  -2  12 278.933 19.8650   3
  -2   1 -12 268.824 15.8942   2
   1  -2 -12 239.197 15.6027   2
   2  -1  12 267.488 21.6650   1
  -1   2  12 229.775 18.3308   1
  -1   2  12 295.372 22.1356   6
   2  -1  12 290.354 22.2848   3
  -1  -1  12 261.150 15.5883   1
   4  -2 -12 530.651 14.9563   2
  -2  -2 -12 534.010 27.8523   2
   2  -4  12 532.219 28.5016   3
  -4   2  12 540.196 22.4339   1
   2   2  12 539.172 29.7839   1
   2  -4  12 506.305 27.3995   1
   3  -3 -12 7120.34 126.300   2
  -3   0 -12 7092.18 137.217   2
  -3   3  12 7257.45 131.952   6
   3   0  12 6953.54 141.218   1
   3   0  12 7197.83 144.663   3
   0  -3  12 7212.40 124.781   1
  -3   3  12 6956.56 130.265   1
   0  -3  12 7154.60 128.846   3
   0  -3 -12 2602.67 63.0849   2
  -3   3 -12 2717.99 54.1902   2
   0   3  12 2703.09 60.1648   5
   3  -3  12 2751.86 71.0581   3
   0   3  12 2710.60 71.0490   6
   0   3  12 2699.14 65.4650   1
  -3   0  12 2548.92 54.5270   1
   3  -3  12 2636.53 68.2134   1
  -3   6 -12 2619.54 71.1516   4
   6  -3 -12 2516.44 46.6402   2
  -3  -3 -12 2529.88 71.9799   2
   3   3  12 2564.94 72.7974   1
  -6   3  12 2469.62 58.5055   1
   3   3  12 2498.47 76.3181   2
   3  -6  12 2517.55 64.4445   3
   3  -6  12 2501.25 64.6574   1
   5  -4 -12 496.551 20.5354   2
  -4  -1 -12 489.809 30.6115   2
  -1   5 -12 435.378 29.2104   4
  -5   4  12 457.966 23.3832   1
   1  -5  12 491.768 25.4568   3
   4   1  12 473.793 32.5221   1
   1  -5  12 517.812 25.2790   1
   2  -4 -12 521.619 24.1435   2
  -4   2 -12 517.888 25.8520   2
   4  -2  12 580.164 32.7387   3
  -2  -2  12 516.230 18.1875   1
   4  -2  12 499.345 34.0916   7
  -2   4  12 505.740 27.0633   6
  -2   4  12 521.227 25.6225   1
  -2   4  12 560.593 23.5523   5
   4  -2  12 490.475 30.3365   1
  -1  -4 -12 273.002 22.5397   2
  -4   5 -12 277.276 11.4982   2
  -5   1  12 288.196 16.5106   1
   1   4  12 248.041 23.1338   1
   4  -5  12 298.179 25.7463   1
   1   4  12 280.023 23.0852   5
   4  -5  12 245.072 23.2006   3
  -4  -4 -12 414.076 32.5254   2
   8  -4 -12 372.885 15.0965   2
  -4   8 -12 357.514 28.1175   4
   4  -8  12 410.158 25.3250   1
   4   4  12 415.284 35.6003   2
   4  -8  12 374.697 22.9705   3
  -8   4  12 380.279 22.4660   1
  -2   7 -12 219.585 25.1194   4
  -5  -2 -12 205.317 24.4287   2
   7  -5 -12 226.418 16.2350   2
   5   2  12 218.422 26.8339   2
   5   2  12 193.208 24.6888   1
   2  -7  12 208.724 19.5207   1
   2  -7  12 242.471 17.4005   3
  -7   5  12 182.590 17.9097   1
  -5   1 -12 445.502 29.1632   2
   4  -5 -12 443.169 22.4642   2
   1   4 -12 383.462 28.2633   4
   5  -1  12 413.771 32.6393   7
  -4   5  12 449.873 24.6864   1
  -4   5  12 473.636 24.6037   6
  -1  -4  12 449.215 16.1729   1
   5  -1  12 500.317 32.0128   1
   1  -5 -12 323.534 22.4071   2
  -5   4 -12 256.765 19.8409   2
   5  -4  12 311.759 27.2434   3
  -1   5  12 282.814 22.5014   1
   5  -4  12 290.255 26.3966   1
   5  -4  12 310.603 28.9237   7
  -4  -1  12 282.113 14.0616   1
  -1   5  12 280.984 20.3513   5
  -5   7 -12 2213.48 64.3584   4
  -2  -5 -12 2090.52 66.0457   2
   2   5  12 2133.25 66.0668   1
   5  -7  12 2030.48 61.5469   1
   2   5  12 2203.15 63.8623   5
  -7   2  12 2208.40 51.3088   1
   2   5  12 2234.68 70.7852   2
   5  -7  12 2180.68 62.0228   3
  10  -5 -12 1687.25 40.5360   2
  -5  10 -12 1754.07 61.0425   4
  -5  -5 -12 1757.75 65.7235   2
   5 -10  12 1720.37 51.1466   1
   5   5  12 1772.12 67.0733   2
   5 -10  12 1744.57 49.2654   3
 -10   5  12 1718.27 51.1626   1
   9  -6 -12 94.9907 12.9291   2
  -3   9 -12 84.7111 19.4356   4
  -6  -3 -12 132.852 22.4483   2
   6   3  12 73.7008 19.5861   2
   3  -9  12 99.2605 13.9469   1
   3  -9  12 79.4170 11.5409   3
  -9   6  12 80.2650 14.9535   1
  -6   0 -12 1599.65 55.7538   2
   0   6 -12 1478.16 53.8944   4
   6  -6 -12 1528.83 43.8633   2
   0  -6  12 1568.85 40.5461   1
   6   0  12 1555.45 55.3126   1
  -6   6  12 1561.69 47.3556   1
   0  -6  12 1610.98 39.4060   3
   3   3 -12 2482.24 72.2992   4
   3  -6 -12 2454.65 62.8886   2
  -6   3 -12 2569.95 69.1460   2
   6  -3  12 2538.13 78.5808   7
  -3   6  12 2501.34 64.1788   1
   6  -3  12 2583.07 72.6692   1
  -3   6  12 2632.45 60.4395   5
  -3  -3  12 2523.47 46.7521   1
  -6   6 -12 1643.21 44.2897   2
   0  -6 -12 1618.39 53.1607   2
   6  -6  12 1571.93 55.6620   3
   0   6  12 1589.30 52.4101   1
   6  -6  12 1600.10 55.1278   1
   0   6  12 1602.29 57.4646   2
   0   6  12 1628.05 49.9399   5
  -6   0  12 1581.75 38.4733   1
  -3  -6 -12 2318.99 74.9606   2
  -6   9 -12 2348.81 68.9707   4
   6  -9  12 2395.82 64.3555   3
  -9   3  12 2278.07 58.1177   1
   6  -9  12 2285.36 64.4173   1
   3   6  12 2310.07 77.5057   2
  -6  12 -12 215.542 26.9934   4
   6   6  12 183.419 29.9811   2
 -12   6  12 252.147 24.2538   1
   6 -12  12 241.184 22.3291   3
   6 -12  12 225.659 22.3074   1
  -7  -4 -12 92.8170 23.0333   2
  11  -7 -12 97.9475 13.9323   2
  -4  11 -12 107.028 22.1207   4
  11  -7 -12 131.019 15.6309   2
   4 -11  12 149.697 16.0531   3
   4 -11  12 145.739 16.8855   1
   7   4  12 126.236 24.8415   2
 -11   7  12 116.950 18.1497   1
  -1   8 -12 1439.47 55.1832   4
  -7  -1 -12 1392.23 55.2105   2
   8  -7 -12 1425.41 43.5372   2
   7   1  12 1484.51 58.4174   2
   1  -8  12 1421.66 36.5965   1
   1  -8  12 1412.44 34.9635   3
  -8   7  12 1399.87 45.9415   1
   5  -7 -12 204.381 19.6035   2
  -7   2 -12 232.364 23.8065   2
   2   5 -12 185.259 23.1650   4
   7  -2  12 209.662 23.7603   1
  -5   7  12 192.514 20.1477   1
  -2  -5  12 223.828 9.41318   1
   7  -2  12 218.775 28.0426   7
  -2  -5  12 230.516 12.6967   3
   2  -7 -12 2144.41 61.4733   2
  -7   5 -12 2287.75 61.7569   2
  -2   7  12 2186.71 61.5126   1
   7  -5  12 2075.86 66.7453   1
   7  -5  12 2133.21 71.2833   7
  -2   7  12 2211.79 57.5907   5
  -5  -2  12 2151.99 43.8548   3
  -5  -2  12 2151.80 43.1799   1
  -7   8 -12 147.287 14.2679   2
  -7   8 -12 162.722 20.5353   4
  -1  -7 -12 181.764 24.3769   2
  -8   1  12 160.085 15.2062   1
   1   7  12 161.040 24.9971   2
   1   7  12 166.022 22.5950   5
   7  -8  12 140.154 20.9697   3
   7  -8  12 147.855 21.5570   1
  -7  11 -12 367.752 31.8877   4
  -4  -7 -12 352.829 35.9875   2
 -11   4  12 409.768 26.4821   1
   7 -11  12 317.527 27.3659   1
   4   7  12 286.721 33.4258   2
   7 -11  12 401.653 27.3003   3
  -7  14 -12 114.125 24.2830   4
   7 -14  12 148.966 19.9639   3
   7   7  12 88.8279 23.4992   2
   7 -14  12 123.073 18.9013   1
 -14   7  12 108.530 20.6251   1
  -5  13 -12 4094.86 111.211   4
  13  -8 -12 3960.66 88.4663   2
   5 -13  12 4142.31 90.7147   1
   5 -13  12 4119.29 90.0352   3
   8   5  12 4146.20 111.152   2
 -13   8  12 4063.82 99.5692   1
  -8  -2 -12 1437.22 58.7796   2
  10  -8 -12 1471.40 46.5417   2
  -2  10 -12 1462.48 58.5669   4
   8   2  12 1483.61 59.9764   2
   2 -10  12 1449.71 38.1017   3
   2 -10  12 1444.42 38.9672   1
 -10   8  12 1487.90 50.8816   1
   1   7 -12 1481.09 55.9188   4
   7  -8 -12 1417.29 46.4321   2
  -8   1 -12 1375.99 52.9536   2
   8  -1  12 1516.35 56.0844   1
  -7   8  12 1371.32 47.8094   1
  -1  -7  12 1457.91 35.7013   1
  -1  -7  12 1440.00 30.5238   3
   4  -8 -12 369.975 26.2503   2
   4   4 -12 400.898 30.9559   4
  -8   4 -12 391.525 28.1298   2
  -4  -4  12 381.822 11.6265   3
  -4   8  12 399.300 27.6074   1
   8  -4  12 421.197 33.3468   1
   8  -4  12 376.555 34.9483   7
  -4   8  12 387.859 24.7457   5
   1  -8 -12 137.475 20.8716   2
  -8   7 -12 149.199 18.2327   2
   8  -7  12 147.649 23.0132   1
  -7  -1  12 162.237 13.0941   1
  -1   8  12 124.171 18.7157   5
  -1   8  12 139.194 22.1176   2
  -8  10 -12 1327.10 33.4179   2
  -2  -8 -12 1199.84 57.1271   2
   8 -10  12 1335.77 52.1176   1
 -10   2  12 1317.51 41.1912   1
   2   8  12 1315.57 57.4527   2
   2   8  12 1312.63 54.7735   5
   8 -13  12 761.264 38.5365   3
 -13   5  12 729.531 37.2547   1
   5   8  12 740.859 47.1543   2
   8 -13  12 731.696 37.0864   1
  12  -9 -12 75.5490 15.3680   2
  -3  12 -12 101.602 22.5393   4
   9   3  12 81.2686 20.3917   2
   3 -12  12 50.6300 11.5425   3
   3 -12  12 88.9904 13.5348   1
 -12   9  12 86.7796 18.8772   1
  -9   0 -12 2201.36 71.4140   2
   9  -9 -12 2242.34 62.4107   2
   0   9 -12 2254.07 74.0136   4
   9   0  12 2237.83 75.1512   2
   0  -9  12 2206.45 45.1035   3
   0  -9  12 2244.27 46.3396   1
  -9   9  12 2215.08 64.0293   1
  -9   3 -12 95.9692 18.4078   2
   3   6 -12 68.3447 17.3682   4
   6  -9 -12 108.656 16.4371   2
   9  -3  12 85.4057 22.1161   7
   9  -3  12 113.277 21.9896   1
  -6   9  12 114.019 17.9168   1
   6   3 -12 2374.79 74.3045   4
  -9   6 -12 2246.06 66.3844   2
   3  -9 -12 2339.32 67.9129   2
  -6  -3  12 2369.29 45.5374   1
   9  -6  12 2312.65 78.7316   7
   9  -6  12 2314.27 73.2745   1
  -6  -3  12 2322.23 45.4501   3
  -3   9  12 2393.72 71.0097   2
  -3   9  12 2205.43 62.4589   5
   0  -9 -12 2.44658 14.2870   2
  -9   9 -12 2.09797 11.3760   2
   0   9  12 3.97427 15.9289   2
   0   9  12 30.8797 15.4938   5
  -9   0  12 9.06218 8.67069   1
   9  -9  12 9.64435 15.4923   1
   9 -12  12 346.055 31.7339   1
   3   9  12 367.147 36.7786   2
 -12   3  12 355.200 25.8244   1
  14 -10 -12 152.589 20.4247   2
  14 -10 -12 203.579 22.3673   2
  -4  14 -12 180.820 28.8286   4
   4 -14  12 229.702 20.7851   1
   4 -14  12 226.367 20.1687   3
  10   4  12 200.191 29.0855   2
 -14  10  12 211.243 27.3649   1
  -1  11 -12 290.812 32.4629   4
 -10  -1 -12 282.947 31.4189   2
  11 -10 -12 273.631 24.7860   2
 -11  10  12 297.914 27.9100   1
   1 -11  12 306.188 16.5647   3
   1 -11  12 306.663 18.0902   1
  10   1  12 312.842 33.2904   2
   8 -10 -12 1360.40 49.4385   2
   2   8 -12 1423.68 57.2824   4
 -10   2 -12 1338.30 54.6754   2
  10  -2  12 1395.87 61.8920   7
  -8  10  12 1390.22 50.3794   1
   5   5 -12 1794.17 64.6817   4
   5 -10 -12 1720.51 57.3576   2
 -10   5 -12 1702.11 59.0414   2
  -5  10  12 1780.20 55.0870   5
  10  -5  12 1765.57 65.3931   1
  10  -5  12 1815.33 72.5385   7
 -10   8 -12 1376.08 49.5097   2
   2 -10 -12 1330.99 53.7683   2
  10  -8  12 1399.27 59.8653   7
  -8  -2  12 1326.58 35.3158   1
  10  -8  12 1441.61 60.0186   1
  -2  10  12 1314.15 54.9758   2
  -2  10  12 1391.16 50.3024   5
 -10  11 -12 999.633 37.2731   2
   1  10  12 1001.39 51.7589   2
  10 -11  12 945.453 48.3732   1
 -11   1  12 1021.00 37.4307   1
  10 -14  12 146.655 22.9594   1
   4  10  12 160.515 28.3534   2
 -14   4  12 168.326 22.7040   1
  13 -11 -12 605.024 35.1394   2
  -2  13 -12 608.916 43.6533   4
  11   2  12 567.227 41.1895   2
 -13  11  12 581.762 39.0461   1
   2 -13  12 613.660 26.2925   3
   2 -13  12 587.762 26.6491   1
  10 -11 -12 289.931 27.4507   2
 -11   1 -12 321.034 31.7378   2
   1  10 -12 277.369 33.2002   4
  11  -1  12 277.578 32.4856   2
 -10  11  12 283.482 27.7900   1
  -1 -10  12 298.275 13.6081   3
 -11   4 -12 136.844 22.7616   2
   4   7 -12 155.515 25.4062   4
   7 -11 -12 129.724 20.8254   2
  11  -4  12 63.5259 23.5086   7
   7   4 -12 312.679 32.6524   4
   4 -11 -12 333.669 30.5451   2
 -11   7 -12 328.680 30.2338   2
  -4  11  12 363.997 29.5912   5
  -7  -4  12 379.510 15.5295   3
  -4  11  12 347.586 31.9631   2
  11  -7  12 399.217 40.7882   7
  11  -7  12 296.457 33.3282   1
   1 -11 -12 937.579 52.0849   2
 -11  10 -12 970.716 41.9281   2
 -10  -1  12 995.291 33.5563   1
  11 -10  12 938.748 51.2065   1
  -1  11  12 945.833 48.8108   2
   2  11  12 1922.70 74.1267   2
 -13   2  12 2066.87 59.6755   1
  11 -13  12 1889.04 68.9970   1
   0  12 -12 150.503 27.1652   4
  12 -12 -12 163.356 23.1709   2
  12   0  12 161.094 26.5541   2
   0 -12  12 172.524 14.4763   1
 -12  12  12 191.348 28.8690   1
   0 -12  12 180.019 14.3988   3
   3   9 -12 93.6366 22.5362   4
 -12   3 -12 96.0876 20.8341   2
   9 -12 -12 95.7495 18.7129   2
  12  -3  12 93.6128 25.0065   2
   6   6 -12 245.910 30.9399   4
 -12   6 -12 205.927 26.6082   2
   6 -12 -12 210.764 26.0628   2
  -6  12  12 219.456 25.0411   5
  -6  12  12 167.639 25.2438   2
   3 -12 -12 338.521 33.9344   2
 -12   9 -12 354.071 31.8701   2
  -9  -3  12 392.711 20.3888   1
  12  -9  12 362.748 38.1589   7
  -3  12  12 365.462 33.5514   2
  12  -9  12 368.663 38.5843   1
 -12  12 -12 213.112 23.4942   2
  12 -12  12 204.284 30.6474   1
   0  12  12 180.003 28.1943   2
 -12   0  12 226.624 20.6760   1
 -13   2 -12 602.137 42.4921   2
  11 -13 -12 641.305 39.4570   2
   2  11 -12 630.393 45.8418   4
  13  -2  12 529.218 43.8354   2
 -13   5 -12 3959.28 106.645   2
   8 -13 -12 4018.41 103.389   2
   5   8 -12 4071.45 113.962   4
   5 -13 -12 787.975 44.6167   2
 -13   8 -12 698.279 42.8429   2
  -5  13  12 790.072 45.2587   2
  -8  -5  12 679.811 25.7959   3
 -13  11 -12 1866.24 64.6098   2
 -11  -2  12 1960.72 52.0136   1
  13 -11  12 2059.23 79.5674   1
  -2  13  12 1922.63 71.3881   2
 -14   4 -12 227.683 30.4295   2
   4  10 -12 194.378 29.7901   4
  10 -14 -12 172.609 25.9504   2
  14  -4  12 190.079 32.6797   2
 -14   7 -12 162.684 27.1187   2
   7 -14 -12 153.298 23.4822   2
   7   7 -12 157.472 29.5725   4
  -7  14  12 100.306 21.3283   2
 -14  10 -12 167.076 25.1301   2
 -10  -4  12 222.709 18.6101   1
  -4  14  12 210.797 28.6237   2
  -1   0 -13 -2.9822 6.18478   2
   1  -1 -13 -2.6884 5.03374   2
   0  -1  13 9.84027 8.43394   1
   1   0  13 -0.6067 8.56151   1
  -1   1  13 -5.9300 8.60863   6
   1   0  13 -13.542 8.04297   3
  -1   1  13 -12.066 6.40062   1
   3  -2 -13 81.2137 8.40123   2
  -2  -1 -13 63.3970 13.2362   2
   1  -3  13 61.9995 13.5171   3
   1  -3  13 83.3553 13.2105   1
  -3   2  13 77.3254 11.9085   1
   2   1  13 68.0370 15.0014   1
   0  -2 -13 2.91988 7.55365   2
  -2   2 -13 1.03936 4.99510   2
   2  -2  13 5.22308 10.5795   1
   2  -2  13 -9.4427 9.58761   3
   0   2  13 19.3489 11.8057   6
  -2   0  13 -1.2081 6.98836   1
   0   2  13 -1.2369 9.16148   1
   5  -3 -13 447.019 15.8639   2
  -2   5 -13 424.763 29.0916   4
  -3  -2 -13 448.135 29.4548   2
   2  -5  13 452.916 27.5143   3
   3   2  13 411.213 31.0897   1
  -5   3  13 457.559 23.1098   1
   2  -5  13 445.524 27.7873   1
   2  -3 -13 79.3674 11.1928   2
  -3   1 -13 58.0937 11.2859   2
  -2   3  13 85.0400 13.1743   1
   3  -1  13 73.5086 16.1689   1
  -1  -2  13 92.9611 10.9467   1
   3  -1  13 86.5695 17.0206   3
  -2   3  13 82.4688 13.8701   6
  -1  -3 -13 865.136 35.1083   2
   3  -4  13 842.420 37.8547   3
   1   3  13 845.610 34.5944   5
  -4   1  13 840.839 28.1608   1
   1   3  13 857.912 36.4113   1
   3  -4  13 898.627 38.4103   1
  -4  -3 -13 32.1286 15.6084   2
  -3   7 -13 22.6061 13.9345   4
   7  -4 -13 23.9771 6.51766   2
   4   3  13 14.4168 16.0454   1
   3  -7  13 29.6720 12.0905   3
   3  -7  13 8.50086 12.7732   1
  -7   4  13 30.3509 10.6719   1
  -4   0 -13 -10.398 9.82037   2
   0   4 -13 -2.1115 12.0886   4
   4  -4 -13 0.03757 7.30456   2
   0  -4  13 10.9153 8.17312   1
   4   0  13 12.5426 13.6889   1
  -4   4  13 6.51305 8.75252   1
   0  -4  13 -11.103 8.64507   3
  -4   3 -13 864.853 29.7486   2
   1  -4 -13 856.825 33.2742   2
  -3  -1  13 853.502 25.9200   1
   4  -3  13 979.517 42.5909   3
  -1   4  13 875.964 32.0014   5
  -1   4  13 849.574 39.0450   6
   4  -3  13 852.898 39.7672   1
  -1   4  13 892.140 35.3509   1
  -4   6 -13 1978.14 61.6623   4
  -2  -4 -13 1939.36 61.1427   2
   4  -6  13 1978.91 59.2331   1
   2   4  13 1946.70 62.4842   1
   4  -6  13 1973.94 59.1752   3
  -6   2  13 1972.80 49.0526   1
  -4   9 -13 312.900 30.6853   4
  -5  -4 -13 276.771 30.2745   2
   9  -5 -13 282.042 15.3434   2
   4  -9  13 281.890 22.9394   1
   5   4  13 302.463 33.5175   2
   4  -9  13 311.171 21.6042   3
  -9   5  13 283.497 22.9218   1
  -5  -1 -13 19.4287 14.2128   2
  -1   6 -13 1.39798 11.7470   4
   6  -5 -13 12.6495 8.38440   2
   5   1  13 59.2740 17.3479   1
   1  -6  13 27.3841 12.5000   1
   1  -6  13 18.6437 9.65538   3
  -6   5  13 33.8758 11.3685   1
  -5   2 -13 466.318 27.9352   2
   3  -5 -13 380.849 23.0757   2
  -2  -3  13 416.597 16.9105   1
  -3   5  13 444.709 26.3582   6
  -3   5  13 469.545 23.6548   5
   5  -2  13 385.850 33.9210   7
  -3   5  13 435.349 25.6295   1
   5  -2  13 467.032 31.5757   1
  -5   5 -13 14.9054 7.89024   2
   0  -5 -13 9.25838 11.4323   2
  -5   0  13 -7.8944 6.55369   1
   0   5  13 -4.0884 10.8597   1
   5  -5  13 2.01310 12.4439   3
   5  -5  13 6.34042 13.5942   1
   0   5  13 3.37915 11.6634   5
  -3  -5 -13 134.192 23.0404   2
  -5   8 -13 99.3757 19.4272   4
   3   5  13 94.1564 22.1631   2
  -8   3  13 108.650 14.1968   1
   5  -8  13 107.199 17.4645   3
   5  -8  13 88.1777 17.4390   1
  -6  -5 -13 101.491 23.3565   2
  -5  11 -13 132.999 24.0837   4
   6   5  13 93.9459 23.4708   2
   5 -11  13 148.462 18.5340   1
   5 -11  13 144.487 17.2605   3
 -11   6  13 128.390 18.8311   1
  -2   8 -13 31.4049 15.6196   4
  -6  -2 -13 53.2263 17.9945   2
   8  -6 -13 44.4565 10.5583   2
   2  -8  13 35.3272 9.75611   3
   6   2  13 28.7580 16.7173   2
   2  -8  13 54.2437 12.4260   1
  -8   6  13 43.4211 12.4257   1
   1   5 -13 3.18475 11.5920   4
  -6   1 -13 25.0681 14.5947   2
   5  -6 -13 27.7932 10.0660   2
  -1  -5  13 26.2057 7.59088   1
  -1  -5  13 19.0904 9.62215   3
  -5   6  13 16.8457 10.6555   1
   6  -1  13 22.3784 14.7125   1
  -6   4 -13 2005.00 56.5857   2
   2  -6 -13 2016.32 57.4839   2
  -4  -2  13 1976.34 42.4223   1
   6  -4  13 2140.06 70.9572   7
  -2   6  13 2044.65 54.2566   5
   6  -4  13 2074.84 64.8317   1
  -2   6  13 1972.60 58.0485   1
  -6   7 -13 301.739 14.5160   2
  -1  -6 -13 277.224 27.5852   2
   1   6  13 282.585 30.0174   2
   6  -7  13 300.168 29.2654   3
  -7   1  13 268.560 17.9488   1
   1   6  13 334.427 30.0373   1
   6  -7  13 309.627 28.4620   1
   1   6  13 297.754 27.2231   5
  -6  10 -13 1678.24 59.8831   4
  -4  -6 -13 1626.41 65.2072   2
   4   6  13 1751.31 68.9017   2
   6 -10  13 1651.62 53.9909   1
   6 -10  13 1643.65 52.5623   3
 -10   4  13 1731.57 50.4144   1
  -6  13 -13 13.9851 16.8459   4
   6 -13  13 -2.7153 10.9452   1
   6 -13  13 -6.9250 9.89669   3
 -13   7  13 18.1423 13.1211   1
   7   6  13 9.66110 18.8670   2
  -7  -3 -13 65.1863 20.1319   2
  10  -7 -13 84.5272 12.9975   2
  -3  10 -13 96.7681 21.2468   4
   7   3  13 55.2745 21.2590   2
   3 -10  13 70.5460 11.3939   3
 -10   7  13 71.3296 15.6697   1
   3 -10  13 55.3854 12.4014   1
   0   7 -13 0.76206 11.6334   4
   7  -7 -13 8.84776 9.27019   2
  -7   0 -13 26.6690 15.8807   2
  -7   7  13 0.10443 10.5519   1
   0  -7  13 -9.2736 8.62338   1
   7   0  13 -29.966 11.3315   1
   0  -7  13 8.65616 6.92403   3
   4  -7 -13 17.4671 10.2930   2
  -7   3 -13 10.7738 13.0476   2
   3   4 -13 18.1992 14.2729   4
  -4   7  13 34.9128 12.2700   1
   7  -3  13 66.2462 18.0782   1
  -4   7  13 9.80554 10.8520   5
  -3  -4  13 37.9673 6.36465   1
   7  -3  13 42.7318 17.1983   7
   1  -7 -13 296.399 26.3685   2
  -7   6 -13 282.075 22.7025   2
  -1   7  13 340.129 28.8226   1
  -1   7  13 324.196 26.5851   5
  -6  -1  13 232.138 15.0482   1
   7  -6  13 333.857 30.7272   1
  -6  -1  13 291.320 16.3487   3
  -2  -7 -13 118.948 22.5467   2
  -7   9 -13 108.165 19.4248   4
   2   7  13 113.890 21.9188   5
   7  -9  13 139.189 21.0701   1
  -9   2  13 134.401 15.7709   1
   2   7  13 162.730 26.9254   2
   7  -9  13 83.9679 18.3810   3
  -7  12 -13 66.5192 19.5870   4
   7 -12  13 60.9441 17.2381   1
   5   7  13 129.128 26.3739   2
 -12   5  13 86.4085 16.5826   1
   7 -12  13 82.3621 16.9312   3
  12  -8 -13 125.667 15.8792   2
  12  -8 -13 137.501 16.4292   2
  -8  -4 -13 98.4393 23.2681   2
  -4  12 -13 120.034 23.2652   4
   4 -12  13 105.912 15.6277   1
   4 -12  13 117.550 15.3708   3
   8   4  13 142.356 26.0357   2
 -12   8  13 109.408 19.6542   1
  -8  -1 -13 50.5243 17.9309   2
  -1   9 -13 86.3164 21.1177   4
   9  -8 -13 81.2395 14.3344   2
   8   1  13 70.2870 19.7160   2
   1  -9  13 78.5098 11.2370   1
  -9   8  13 102.283 16.8888   1
   1  -9  13 87.7611 10.4344   3
   2   6 -13 42.2974 16.9412   4
  -8   2 -13 73.6600 17.2047   2
   6  -8 -13 42.8741 12.6953   2
   8  -2  13 23.5475 16.2165   1
   8  -2  13 44.8715 19.0600   7
  -6   8  13 42.4823 13.5206   1
  -2  -6  13 46.0591 8.20289   3
   5   3 -13 82.7371 20.3419   4
   3  -8 -13 88.2053 17.3190   2
  -8   5 -13 84.6384 16.7665   2
   8  -5  13 81.1183 19.6677   1
   8  -5  13 135.906 25.4833   7
  -5  -3  13 111.371 9.29409   1
  -5  -3  13 107.105 8.85297   3
  -3   8  13 83.0088 17.6009   1
  -3   8  13 87.3516 16.3682   5
  -8   8 -13 10.5647 10.0552   2
   0  -8 -13 16.6165 13.4355   2
   8  -8  13 4.44064 15.2712   1
  -8   0  13 -8.1675 7.12619   1
   0   8  13 16.0001 13.9042   5
   0   8  13 28.3940 17.1554   2
  -3  -8 -13 6.95743 16.7159   2
   8 -11  13 39.0888 15.9925   1
 -11   3  13 46.4479 13.3010   1
   8 -11  13 46.5963 15.8250   3
   3   8  13 69.7023 21.8875   2
 -14   6  13 -13.670 11.8266   1
   6   8  13 37.1849 19.3372   2
   8 -14  13 15.1854 13.0864   3
   8 -14  13 -22.882 11.1571   1
  -5  14 -13 47.0028 20.4738   4
  14  -9 -13 -2.4649 11.2152   2
   9   5  13 26.4661 18.0916   2
   5 -14  13 15.2771 11.6986   1
   5 -14  13 12.7065 10.7254   3
 -14   9  13 3.02078 14.9793   1
  -2  11 -13 -8.8969 15.2910   4
  11  -9 -13 0.95149 10.4231   2
  -9  -2 -13 13.1827 17.0512   2
   9   2  13 13.7278 16.9599   2
   2 -11  13 9.20679 8.74258   1
   2 -11  13 22.8033 8.53144   3
 -11   9  13 16.1970 13.4415   1
   8  -9 -13 69.5867 15.3755   2
  -9   1 -13 91.9668 19.6141   2
   1   8 -13 64.9732 19.5226   4
  -1  -8  13 78.1208 7.58556   3
  -8   9  13 83.3776 17.2446   1
   4   5 -13 294.420 31.4086   4
   5  -9 -13 280.518 25.5711   2
  -9   4 -13 281.033 26.7623   2
  -5   9  13 354.919 28.3346   1
   9  -4  13 284.056 33.7977   7
  -5   9  13 276.069 24.6867   5
   9  -4  13 312.086 31.4965   1
  -9   7 -13 101.379 17.6841   2
   2  -9 -13 156.414 22.2140   2
  -7  -2  13 127.264 11.5509   1
  -2   9  13 120.646 19.1557   5
  -2   9  13 96.0214 21.6520   2
   9  -7  13 108.638 22.4698   1
  -7  -2  13 130.424 11.5291   3
  -1  -9 -13 339.998 34.4677   2
  -9  10 -13 347.411 21.0241   2
 -10   1  13 323.722 22.3858   1
   1   9  13 298.688 31.7434   5
   9 -10  13 362.982 34.5634   1
   1   9  13 324.239 35.8474   2
   4   9  13 27.2110 20.6107   2
 -13   4  13 64.5963 16.2313   1
   9 -13  13 48.8742 17.0613   1
  -3  13 -13 -8.7956 16.6301   4
  13 -10 -13 66.2504 15.7587   2
   3 -13  13 54.9350 11.2756   3
   3 -13  13 62.7621 13.0593   1
  10   3  13 16.0998 17.4947   2
 -13  10  13 27.4088 16.9709   1
   0  10 -13 1.05268 15.5422   4
 -10   0 -13 6.15251 14.1728   2
  10 -10 -13 -11.180 10.5023   2
  10   0  13 1.27188 16.5967   2
 -10  10  13 -0.8019 13.3898   1
   0 -10  13 1.06016 5.96349   3
   3   7 -13 94.2248 21.7281   4
 -10   3 -13 66.8716 18.1253   2
   7 -10 -13 65.7070 16.4683   2
  -7  10  13 89.1481 18.3898   1
  10  -3  13 38.1062 19.9473   7
  10  -3  13 76.1812 22.6110   1
   4 -10 -13 1618.59 57.9216   2
   6   4 -13 1625.74 64.8247   4
 -10   6 -13 1606.60 57.1497   2
  -6  -4  13 1690.00 34.6933   3
  10  -6  13 1811.82 72.8844   7
  -4  10  13 1721.64 55.0999   5
  10  -6  13 1671.51 64.2113   1
   1 -10 -13 349.714 33.7954   2
 -10   9 -13 349.230 26.5672   2
  -1  10  13 285.968 28.5043   5
  10  -9  13 317.207 33.8920   1
  -1  10  13 404.580 37.1035   2
  -9  -1  13 343.436 20.3942   1
 -12   2  13 1634.18 51.0359   1
   2  10  13 1654.52 69.9750   2
  10 -12  13 1612.71 63.7009   1
  -1  12 -13 239.891 32.7865   4
  12 -11 -13 221.486 24.8172   2
 -11  -1 -13 232.392 30.1943   2
  11   1  13 244.391 31.2825   2
   1 -12  13 243.496 16.1993   3
 -12  11  13 287.074 29.4056   1
   1 -12  13 267.346 17.9453   1
   9 -11 -13 -1.7102 11.5773   2
   2   9 -13 38.0502 19.2729   4
 -11   2 -13 -1.5893 14.6492   2
  -9  11  13 -1.9766 12.6984   1
   6 -11 -13 98.3578 19.2916   2
 -11   5 -13 122.307 21.7664   2
   5   6 -13 142.110 24.6173   4
  -6  11  13 132.594 21.0818   5
  11  -5  13 102.487 23.2327   1
  11  -5  13 120.262 27.1366   7
 -11   8 -13 58.6850 16.7651   2
   3 -11 -13 42.4856 16.6681   2
  11  -8  13 22.2067 19.1323   7
  -8  -3  13 25.6721 8.37060   1
  -3  11  13 56.7727 17.5533   5
  11  -8  13 49.8246 21.1117   1
  -8  -3  13 38.0220 9.13307   3
  -3  11  13 15.5632 15.7946   2
 -11  11 -13 -16.099 10.2125   2
  11 -11  13 -9.8714 15.6603   1
   0  11  13 -4.9535 15.6239   2
 -11   0  13 12.4829 10.7682   1
  11 -12 -13 217.804 25.4917   2
   1  11 -13 267.593 34.2116   4
 -12   1 -13 251.872 30.3643   2
  12  -1  13 206.852 30.6515   2
 -12   4 -13 129.260 23.4337   2
   8 -12 -13 120.375 21.0845   2
   4   8 -13 156.122 26.7105   4
   7   5 -13 82.1835 23.3814   4
 -12   7 -13 107.618 20.8153   2
   5 -12 -13 115.707 21.0665   2
  12  -7  13 72.0858 23.2000   1
  -5  12  13 88.6552 21.2078   2
  -7  -5  13 77.3971 8.83495   3
   2 -12 -13 1617.04 66.2492   2
 -12  10 -13 1588.17 56.4823   2
  -2  12  13 1709.33 67.5975   2
  12 -10  13 1578.22 69.1355   1
 -10  -2  13 1753.08 45.1488   1
  10 -13 -13 29.4690 16.2901   2
 -13   3 -13 35.5443 18.9346   2
   3  10 -13 89.0698 24.3393   4
   6   7 -13 12.7412 18.2964   4
 -13   6 -13 -9.4118 13.9865   2
   7 -13 -13 -1.7952 13.5747   2
   4 -13 -13 57.7786 20.8578   2
 -13   9 -13 89.7210 18.7944   2
  -4  13  13 59.3215 19.7632   2
  13  -9  13 29.7214 21.3609   1
   9 -14 -13 8.46898 15.7245   2
   5   9 -13 -3.5372 17.9312   4
 -14   5 -13 1.55936 16.1067   2
 -14   8 -13 -24.697 12.8249   2
   6 -14 -13 3.59338 15.5909   2
  -6  14  13 15.2024 16.9118   2
  -1   1 -14 235.655 12.1155   2
   0  -1 -14 202.590 15.1678   2
   1  -1  14 221.978 21.8333   3
   0   1  14 217.427 20.8795   1
   1  -1  14 229.149 20.7374   1
  -1   0  14 226.106 18.6303   1
   2  -2 -14 -1.8430 5.66212   2
  -2   0 -14 13.7174 8.88457   2
   0  -2  14 -6.4761 8.23658   3
   0  -2  14 2.67432 8.61421   1
   2   0  14 10.5368 11.3603   3
  -2   2  14 15.0520 9.34438   1
   2   0  14 37.0389 13.4505   1
  -1  -2 -14 539.369 27.3114   2
  -3   1  14 553.909 24.2806   1
   1   2  14 506.734 29.7158   1
   2  -3  14 555.023 31.0287   3
   2  -3  14 538.566 30.0582   1
   4  -3 -14 904.920 25.3996   2
  -3  -1 -14 920.921 38.0281   2
   1  -4  14 865.068 33.9815   1
   1  -4  14 965.621 36.8836   3
  -4   3  14 923.833 33.8149   1
   3   1  14 916.656 43.5501   1
  -3   2 -14 588.851 23.1287   2
   1  -3 -14 597.590 26.0183   2
  -1   3  14 584.350 33.0084   6
  -1   3  14 530.832 28.7128   1
   3  -2  14 551.512 33.1749   3
  -2  -1  14 537.428 23.3043   1
   3  -2  14 531.825 32.6106   1
  -2  -3 -14 0.46901 11.8561   2
   3  -5  14 10.9319 13.3347   3
   3  -5  14 17.2378 13.7875   1
  -5   2  14 11.0914 8.74901   1
   2   3  14 20.7552 14.1058   1
   6  -4 -14 158.877 12.7114   2
  -2   6 -14 171.644 24.1720   4
  -4  -2 -14 143.504 21.9249   2
  -6   4  14 190.831 18.9631   1
   4   2  14 144.304 24.4391   1
   2  -6  14 196.098 21.4868   1
   2  -6  14 155.073 18.3957   3
   3  -4 -14 997.436 32.2408   2
  -4   1 -14 908.935 36.4573   2
  -3   4  14 885.716 35.0553   1
  -1  -3  14 932.400 29.2702   1
   4  -1  14 917.431 43.4748   1
  -3   4  14 952.523 37.3088   6
   0  -4 -14 142.066 17.9446   2
  -4   4 -14 139.431 11.0985   2
   4  -4  14 176.325 23.4424   3
  -4   0  14 156.781 14.4187   1
   4  -4  14 129.904 21.1225   1
   0   4  14 159.341 19.8903   1
  -4   7 -14 851.859 42.3133   4
  -3  -4 -14 777.813 41.8444   2
   3   4  14 819.311 45.2151   1
  -7   3  14 806.596 31.7158   1
   4  -7  14 843.611 38.3714   3
   4  -7  14 798.702 38.7671   1
   8  -5 -14 151.699 11.8194   2
  -5  -3 -14 100.131 20.7201   2
  -3   8 -14 157.607 24.7609   4
   3  -8  14 129.824 16.1528   3
  -8   5  14 119.277 15.9698   1
   3  -8  14 142.653 18.2109   1
  -5   0 -14 2292.58 68.3557   2
   0   5 -14 2462.59 73.7995   4
   5  -5 -14 2324.88 55.5634   2
   0  -5  14 2376.81 56.2723   1
  -5   5  14 2303.47 61.2892   1
   0  -5  14 2285.75 58.2531   3
   5   0  14 2233.24 72.0421   1
   2  -5 -14 16.4639 10.3328   2
  -5   3 -14 46.7175 12.2774   2
  -2   5  14 24.0131 12.3007   1
  -3  -2  14 21.3965 8.04674   1
   5  -3  14 28.0659 15.6228   1
  -1  -5 -14 238.239 24.9722   2
   5  -6  14 218.607 24.6833   1
   5  -6  14 183.482 23.9317   3
   1   5  14 214.847 25.3324   1
   1   5  14 190.462 22.7223   5
  -6   1  14 219.297 17.3703   1
  -5   9 -14 574.345 37.2657   4
  -4  -5 -14 459.668 37.7372   2
  -9   4  14 555.341 28.8289   1
   4   5  14 566.201 42.8001   2
   5  -9  14 606.438 33.3847   1
   5  -9  14 568.502 30.8280   3
  -4  10 -14 92.6600 21.2496   4
  -6  -4 -14 55.4912 20.2846   2
   4 -10  14 54.2529 12.2647   3
   4 -10  14 90.3446 15.9601   1
   6   4  14 70.6569 22.5440   2
 -10   6  14 73.0078 16.0473   1
  -6  -1 -14 174.855 24.4174   2
  -1   7 -14 126.497 22.5900   4
   7  -6 -14 175.413 16.9621   2
  -7   6  14 160.393 19.4260   1
   6   1  14 222.192 27.3261   1
   1  -7  14 163.547 18.6019   1
   1  -7  14 182.182 16.7262   3
  -6   2 -14 179.692 22.1822   2
   4  -6 -14 164.101 17.6186   2
   2   4 -14 159.218 23.7913   4
   6  -2  14 210.194 25.8729   1
   6  -2  14 170.427 25.3240   7
  -4   6  14 182.689 20.1933   1
  -2  -4  14 166.386 13.0130   1
  -6   5 -14 187.744 17.3375   2
   1  -6 -14 206.507 22.1023   2
   6  -5  14 168.760 24.4234   3
  -5  -1  14 209.844 14.6777   1
   6  -5  14 225.205 26.0451   1
  -1   6  14 201.307 23.0944   1
  -1   6  14 194.445 21.7199   5
  -6   8 -14 -1.9609 13.4776   4
  -2  -6 -14 21.3330 16.0698   2
   6  -8  14 28.2274 14.2324   3
  -8   2  14 18.4571 9.99219   1
   6  -8  14 40.4802 16.4518   1
  -5  -6 -14 408.665 39.0472   2
  -6  11 -14 415.699 34.3402   4
 -11   5  14 382.957 27.3362   1
   5   6  14 459.732 44.1046   2
   6 -11  14 343.780 28.0445   1
   6 -11  14 395.949 26.9587   3
  -5  12 -14 184.983 27.5568   4
  -7  -5 -14 130.564 26.4488   2
   7   5  14 149.757 27.4974   2
   5 -12  14 165.992 18.6310   3
   5 -12  14 158.887 19.8606   1
 -12   7  14 134.287 21.6291   1
   9  -7 -14 818.459 31.8419   2
  -7  -2 -14 852.821 45.7314   2
  -2   9 -14 783.424 44.6009   4
   2  -9  14 805.764 28.6703   3
  -9   7  14 869.261 37.7246   1
   2  -9  14 847.595 30.7748   1
  -7   1 -14 115.137 20.7107   2
   6  -7 -14 175.111 18.3146   2
   1   6 -14 144.416 23.1167   4
  -6   7  14 184.352 21.0369   1
  -1  -6  14 197.542 16.3012   1
  -1  -6  14 147.525 14.8857   3
   7  -1  14 140.927 22.2052   1
   3  -7 -14 794.290 36.5839   2
  -7   4 -14 860.006 37.8549   2
  -3   7  14 803.524 34.5074   5
   7  -4  14 880.678 43.7851   1
  -3   7  14 719.717 36.3006   1
  -4  -3  14 804.873 22.9859   1
   7  -4  14 762.894 47.5605   7
  -7   7 -14 61.1225 11.0880   2
   0  -7 -14 20.8991 14.2132   2
  -7   0  14 46.4722 10.2467   1
   7  -7  14 74.0719 19.1597   1
   0   7  14 48.3798 17.0928   5
  -7  10 -14 63.4004 18.7125   4
  -3  -7 -14 50.3912 20.0950   2
   7 -10  14 17.5090 15.9693   1
 -10   3  14 20.0469 11.8215   1
   7 -10  14 10.0927 13.1958   3
   3   7  14 25.6788 19.3382   2
  -7  13 -14 140.491 25.1082   4
 -13   6  14 129.911 20.4379   1
   6   7  14 145.331 27.6356   2
   7 -13  14 115.969 19.9230   1
   7 -13  14 138.189 19.9099   3
  -8  -3 -14 634.235 42.8032   2
  -3  11 -14 613.079 42.2969   4
  11  -8 -14 610.562 28.4123   2
   3 -11  14 609.377 27.9926   1
 -11   8  14 663.892 36.3658   1
   3 -11  14 586.408 25.8312   3
   8   3  14 691.634 45.4008   2
   0   8 -14 24.7588 15.4622   4
  -8   0 -14 39.5192 17.1354   2
   8  -8 -14 30.8153 12.2694   2
   0  -8  14 11.5755 6.97540   3
   0  -8  14 60.4198 10.6849   1
  -8   8  14 60.1475 15.6353   1
  -8   3 -14 101.863 19.6477   2
   3   5 -14 154.222 24.3408   4
   5  -8 -14 139.504 18.9218   2
   8  -3  14 114.822 25.9619   7
   8  -3  14 112.482 21.1544   1
  -5   8  14 157.782 20.4739   1
  -5   8  14 123.830 17.9330   5
  -8   6 -14 29.7034 13.8139   2
   2  -8 -14 30.1243 14.0731   2
   8  -6  14 11.6014 15.4800   1
  -6  -2  14 22.6806 7.60168   1
  -2   8  14 50.2085 17.1388   1
  -6  -2  14 39.7569 8.08891   3
  -2   8  14 19.3429 12.6525   5
  -1  -8 -14 469.379 37.7102   2
   1   8  14 426.608 35.8920   5
   8  -9  14 488.945 37.1509   1
  -9   1  14 460.965 24.2270   1
   1   8  14 414.057 38.5959   2
   8 -12  14 110.465 20.5984   1
   4   8  14 123.151 25.6381   2
 -12   4  14 77.5687 16.9741   1
   8 -12  14 110.889 19.6491   3
  -4  13 -14 421.981 41.1158   4
  13  -9 -14 371.412 25.6329   2
   4 -13  14 436.776 24.7619   3
   9   4  14 393.843 38.5172   2
   4 -13  14 422.610 25.9716   1
 -13   9  14 438.847 34.3901   1
  -9  -1 -14 511.767 39.0251   2
  -1  10 -14 500.373 39.3234   4
  10  -9 -14 569.338 30.6072   2
   9   1  14 535.564 41.5741   2
   1 -10  14 503.422 20.7238   3
 -10   9  14 486.772 32.8065   1
   1 -10  14 499.500 22.1109   1
  -9   2 -14 807.911 42.0745   2
   2   7 -14 741.578 43.9870   4
   7  -9 -14 855.141 37.9103   2
  -7   9  14 829.766 40.3096   1
   9  -2  14 867.492 45.6587   1
   5   4 -14 599.546 40.4515   4
   4  -9 -14 547.720 34.1442   2
  -9   5 -14 556.538 33.9193   2
   9  -5  14 578.980 40.9738   1
  -4   9  14 625.945 33.6800   5
   9  -5  14 577.271 45.7852   7
  -4   9  14 625.121 36.1951   1
  -5  -4  14 604.380 17.2678   3
   1  -9 -14 418.207 34.4290   2
  -9   8 -14 388.761 26.3259   2
   9  -8  14 454.486 38.4776   1
  -1   9  14 460.622 32.2257   5
  -8  -1  14 421.142 21.1781   1
  -1   9  14 437.559 39.0100   2
  -2  -9 -14 -28.817 15.2593   2
   9 -11  14 25.8111 16.9826   1
   2   9  14 -24.697 15.4823   2
 -11   2  14 11.7566 11.8612   1
  12 -10 -14 36.5175 13.5956   2
  -2  12 -14 10.4664 19.0375   4
 -10  -2 -14 55.0356 19.2147   2
   2 -12  14 34.3255 9.95956   3
 -12  10  14 52.7251 17.6602   1
  10   2  14 57.7987 19.4926   2
   2 -12  14 33.3547 11.0581   1
 -10   1 -14 493.032 36.6043   2
   1   9 -14 496.839 38.5456   4
   9 -10 -14 467.875 30.7966   2
  -1  -9  14 494.470 15.6228   3
  -9  10  14 476.221 33.6091   1
   4   6 -14 62.8584 19.5834   4
 -10   4 -14 34.7317 16.1461   2
   6 -10 -14 63.8611 15.7275   2
  -6  10  14 57.1732 17.7675   1
  10  -4  14 50.1413 23.0484   7
  10  -4  14 79.8055 21.6817   1
  -6  10  14 80.2218 16.6664   5
 -10   7 -14 35.6415 15.1708   2
   3 -10 -14 22.8091 15.4038   2
  -7  -3  14 24.8399 7.67921   1
  -3  10  14 57.3590 16.3240   5
  -7  -3  14 20.4663 7.35615   3
  10  -7  14 44.7785 18.8058   1
 -10  10 -14 67.9181 13.9103   2
   0 -10 -14 64.7837 21.7800   2
   0  10  14 25.5806 20.9019   2
  10 -10  14 71.2001 21.1038   1
 -10   0  14 38.6414 12.0884   1
 -13   3  14 30.0518 14.8026   1
   3  10  14 27.2385 20.3858   2
  10 -13  14 25.8006 18.4119   1
   0  11 -14 416.566 41.8222   4
  11 -11 -14 446.591 32.3277   2
 -11   0 -14 575.529 41.2933   2
 -11  11  14 577.495 38.4215   1
  11   0  14 593.595 43.7912   2
   0 -11  14 520.941 19.3277   3
   3   8 -14 597.973 43.1576   4
 -11   3 -14 557.220 37.5419   2
   8 -11 -14 618.615 36.5076   2
  -8  11  14 561.922 37.1906   1
   5 -11 -14 390.328 33.4858   2
   6   5 -14 288.219 34.5238   4
 -11   6 -14 354.888 30.8800   2
  11  -6  14 331.553 35.5908   1
  -5  11  14 370.170 31.0501   5
   2 -11 -14 30.0989 16.9124   2
 -11   9 -14 2.51505 12.6632   2
  11  -9  14 -26.069 14.0153   1
  -9  -2  14 4.78113 8.70977   1
  -2  11  14 8.46423 16.1302   2
  11 -12  14 132.967 26.9059   1
 -12   1  14 134.396 18.4319   1
   1  11  14 126.987 26.6229   2
   2  10 -14 39.2970 20.1998   4
 -12   2 -14 46.6682 18.0714   2
  10 -12 -14 53.6293 17.4439   2
   7 -12 -14 126.193 22.4067   2
 -12   5 -14 163.604 23.7487   2
   5   7 -14 180.775 28.9995   4
   4 -12 -14 129.531 23.5593   2
 -12   8 -14 76.6535 19.2887   2
  12  -8  14 137.849 27.2554   1
  -8  -4  14 80.4077 9.98056   3
  -4  12  14 110.443 23.0843   2
 -12  11 -14 138.602 19.8399   2
  12 -11  14 126.565 27.5801   1
 -11  -1  14 154.239 17.4599   1
  -1  12  14 89.0013 23.9490   2
 -13   4 -14 344.395 33.8657   2
   9 -13 -14 408.461 33.7985   2
   4   9 -14 445.727 42.2900   4
   7   6 -14 145.815 28.2808   4
 -13   7 -14 118.544 22.4581   2
   6 -13 -14 141.164 24.0123   2
 -13  10 -14 12.9621 14.9007   2
   3 -13 -14 42.4970 20.4461   2
 -10  -3  14 23.5788 10.6733   1
  13 -10  14 58.6717 24.3759   1
  -3  13  14 18.8775 18.9164   2
   0   0 -15 -5.9147 4.91099   2
   0   0  15 3.28793 9.94426   1
  -1  -1 -15 1212.93 37.3786   2
   1  -2  15 1188.55 41.7830   1
  -2   1  15 1224.53 39.2198   1
   1  -2  15 1197.70 43.7148   3
   1   1  15 1118.36 44.2962   1
   1  -2 -15 1243.30 35.1324   2
  -2   1 -15 1198.95 33.3841   2
  -1   2  15 1179.60 42.0694   1
   2  -1  15 1308.30 48.8605   3
   2  -1  15 1203.17 46.0745   1
  -1   2  15 1275.03 48.0031   6
  -1  -1  15 1148.49 37.9009   1
  -2  -2 -15 71.7398 15.0991   2
   2   2  15 82.1562 18.3007   1
  -4   2  15 62.1761 12.1347   1
   2  -4  15 87.9305 17.4357   1
   2  -4  15 75.2560 16.5894   3
   3  -3 -15 -6.2068 6.61376   2
  -3   0 -15 -2.3810 9.31756   2
   3   0  15 -1.3225 13.4526   1
  -3   3  15 -17.964 8.23029   1
   0  -3  15 11.5452 9.75909   1
   0  -3  15 -0.9238 10.5451   3
  -3   3 -15 6.68772 5.14673   2
   0  -3 -15 7.93407 9.83448   2
   3  -3  15 11.3791 13.3397   3
   0   3  15 2.76043 11.6007   1
  -3   0  15 0.56653 8.21480   1
   3  -3  15 -6.6600 12.6897   1
  -3  -3 -15 12.2879 12.6082   2
   3   3  15 -22.321 13.4326   1
  -6   3  15 2.06622 8.72353   1
   3  -6  15 -10.427 11.1993   3
   3  -6  15 6.62430 14.2121   1
  -4  -1 -15 52.3597 15.5764   2
   5  -4 -15 26.1892 8.22200   2
  -5   4  15 23.0963 11.4440   1
   4   1  15 36.3052 18.5076   1
   1  -5  15 23.4744 13.3997   3
   1  -5  15 44.8061 14.0718   1
  -4   2 -15 54.0765 12.3630   2
   2  -4 -15 65.5171 12.5291   2
   4  -2  15 65.8641 18.1078   1
  -2   4  15 49.6983 14.3532   1
  -2  -2  15 71.5908 11.3690   1
  -1  -4 -15 831.130 38.8583   2
  -5   1  15 857.912 31.0703   1
   4  -5  15 882.176 41.9007   1
   4  -5  15 874.604 41.2403   3
   1   4  15 855.934 42.3433   1
  -4   8 -15 48.6897 17.5770   4
  -4  -4 -15 74.5323 19.7784   2
   4  -8  15 48.5258 14.5766   3
  -8   4  15 64.3182 13.9224   1
   4  -8  15 50.0665 17.0296   1
   7  -5 -15 889.778 26.8109   2
  -5  -2 -15 811.394 44.8948   2
  -2   7 -15 844.748 45.4870   4
  -7   5  15 933.792 37.4972   1
   2  -7  15 944.307 36.1867   3
   5   2  15 944.987 49.5628   1
   2  -7  15 888.067 37.6746   1
  -5   1 -15 49.0410 15.1915   2
   4  -5 -15 24.7894 10.1777   2
   5  -1  15 23.1763 16.3086   1
  -1  -4  15 47.9651 10.7173   1
  -4   5  15 35.7284 12.7105   1
  -1  -4  15 46.7252 11.5181   3
  -5   4 -15 853.438 29.5162   2
   1  -5 -15 929.989 37.8151   2
  -4  -1  15 876.432 28.8249   1
   5  -4  15 952.468 44.7813   3
  -1   5  15 805.450 39.7510   1
   5  -4  15 841.506 42.6955   1
  -2  -5 -15 0.52436 13.7069   2
   5  -7  15 19.7910 15.5774   1
   2   5  15 7.74081 15.6080   1
  -7   2  15 -0.4940 8.43151   1
   5  -7  15 16.3581 14.3228   3
  -5  -5 -15 -15.998 13.8048   2
  -5  10 -15 -1.3449 13.5268   4
   5 -10  15 3.46082 12.6909   1
   5 -10  15 -10.887 10.5682   3
 -10   5  15 -9.5222 9.98900   1
   5   5  15 27.3519 20.0877   2
   9  -6 -15 513.947 22.0638   2
  -3   9 -15 506.223 37.9622   4
  -6  -3 -15 597.257 39.6429   2
   9  -6 -15 535.233 22.1149   2
   3  -9  15 545.245 27.0710   3
  -9   6  15 506.658 29.9632   1
   3  -9  15 514.487 28.7174   1
   6  -6 -15 -4.7189 8.24789   2
   0   6 -15 -8.7679 13.4534   4
  -6   0 -15 9.27360 13.9701   2
   0  -6  15 -4.5649 11.3270   1
  -6   6  15 -6.1384 10.3772   1
   0  -6  15 -11.741 9.84097   3
   6   0  15 -6.5929 14.5758   1
   3  -6 -15 -1.0561 10.2869   2
  -6   3 -15 2.26957 11.5530   2
   6  -3  15 17.8526 17.6769   7
  -3   6  15 -15.459 9.78002   1
  -3  -3  15 8.03828 7.34598   1
   6  -3  15 12.8575 14.6002   1
   0  -6 -15 12.3283 12.9669   2
  -6   6 -15 -1.3603 6.30082   2
   6  -6  15 -8.3178 14.2420   1
   0   6  15 -4.7267 12.7970   1
   6  -6  15 7.80551 14.3993   3
  -6   0  15 -0.7849 7.18111   1
  -3  -6 -15 15.4431 16.9145   2
  -6   9 -15 56.9556 19.8014   4
   6  -9  15 31.4032 14.8545   3
   6  -9  15 26.9549 14.8873   1
  -9   3  15 27.6619 11.8495   1
  -6  -6 -15 228.742 31.3849   2
  -6  12 -15 154.755 26.1573   4
   6 -12  15 178.999 22.4518   1
   6 -12  15 198.339 21.8601   3
   6   6  15 198.051 30.3964   2
 -12   6  15 158.212 21.6299   1
  -7  -4 -15 35.9107 18.6781   2
  -4  11 -15 22.8706 18.1280   4
   7   4  15 43.7052 20.7161   2
   4 -11  15 34.1163 13.1618   1
 -11   7  15 24.8135 13.7247   1
   4 -11  15 46.9772 11.8576   3
  -7  -1 -15 -12.256 13.2576   2
   8  -7 -15 -13.373 8.42471   2
  -1   8 -15 5.20480 14.3865   4
   1  -8  15 -4.0333 10.4381   1
  -8   7  15 1.71090 12.2925   1
   1  -8  15 2.35535 7.96172   3
  -7   2 -15 923.976 43.6234   2
   5  -7 -15 861.711 35.9491   2
   2   5 -15 892.105 47.6017   4
  -2  -5  15 887.901 30.4420   3
  -5   7  15 976.826 40.7756   1
   7  -2  15 856.693 45.1794   1
  -2  -5  15 871.826 26.5195   1
   2  -7 -15 -3.7100 11.2757   2
  -7   5 -15 15.4836 11.6556   2
  -5  -2  15 3.97210 7.32527   1
   7  -5  15 25.5132 16.5420   1
  -2   7  15 1.47527 12.5516   1
  -1  -7 -15 10.7573 15.7427   2
   7  -8  15 44.0260 17.2525   3
  -8   1  15 36.8003 10.8923   1
   7  -8  15 62.2199 18.8506   1
   1   7  15 16.1111 17.2957   5
  -7  11 -15 709.722 44.0413   4
  -4  -7 -15 734.753 47.8613   2
   7 -11  15 789.503 38.6436   3
 -11   4  15 734.382 35.2056   1
   7 -11  15 813.243 42.3023   1
   4   7  15 716.472 50.9815   2
  10  -8 -15 21.2090 11.0283   2
  -8  -2 -15 25.4271 16.3936   2
  -2  10 -15 34.0705 19.1475   4
 -10   8  15 28.8007 14.0988   1
   2 -10  15 33.5764 9.37651   3
   2 -10  15 19.6197 10.1371   1
  -8   1 -15 -7.3631 13.4582   2
   1   7 -15 -11.551 13.0116   4
   7  -8 -15 20.8369 11.7214   2
   8  -1  15 -5.3476 14.6249   1
  -1  -7  15 7.93858 11.2178   1
  -7   8  15 7.87515 12.9984   1
  -1  -7  15 21.7320 7.20933   3
  -8   4 -15 32.4331 14.5835   2
   4  -8 -15 52.8592 14.8522   2
   8  -4  15 50.5354 21.0698   7
  -4  -4  15 45.5924 8.47278   1
  -4  -4  15 57.4203 8.07523   3
  -4   8  15 71.2366 18.0662   1
   8  -4  15 50.3659 18.5665   1
   1  -8 -15 3.78188 14.2752   2
  -8   7 -15 40.1917 12.0525   2
   8  -7  15 37.5696 17.8612   1
  -7  -1  15 33.6785 9.60881   1
  -1   8  15 42.5110 16.2988   5
  -2  -8 -15 13.2791 17.8101   2
 -10   2  15 28.8968 11.6990   1
   8 -10  15 8.37405 16.3377   1
   2   8  15 19.3496 19.5076   2
  -9  -3 -15 17.8427 18.7394   2
  -3  12 -15 5.95921 16.9822   4
  12  -9 -15 33.4354 12.2167   2
  12  -9 -15 -8.1645 10.5378   2
 -12   9  15 21.1028 15.1862   1
   9   3  15 -4.1152 17.1640   2
   3 -12  15 4.24594 8.54692   3
   3 -12  15 -8.4936 9.11382   1
   9  -9 -15 2.35365 10.8269   2
  -9   0 -15 34.0017 15.8719   2
   0   9 -15 -21.643 13.1553   4
  -9   9  15 -15.217 11.5067   1
   0  -9  15 5.14043 6.57868   3
   6  -9 -15 479.230 30.7360   2
   3   6 -15 491.925 39.2111   4
  -9   3 -15 494.435 34.9514   2
  -3  -6  15 521.478 18.6930   3
  -6   9  15 535.067 34.5766   1
   9  -3  15 551.782 39.2003   1
   9  -3  15 533.387 42.9690   7
   3  -9 -15 47.3709 16.1783   2
  -9   6 -15 42.9748 15.5561   2
  -6  -3  15 41.0427 7.96947   3
  -6  -3  15 28.4976 8.34858   1
   9  -6  15 29.2038 17.8696   1
  -3   9  15 44.8464 15.3627   5
   0  -9 -15 11.6375 16.4799   2
  -9   9 -15 -6.3109 8.25027   2
  -9   0  15 8.54524 9.81185   1
   9  -9  15 -0.4969 15.3466   1
   0   9  15 13.3300 15.8705   5
  -3  -9 -15 287.260 36.7175   2
   9 -12  15 291.900 31.9104   1
 -12   3  15 272.539 25.1145   1
   3   9  15 253.814 34.5696   2
 -10  -1 -15 638.965 42.8465   2
  11 -10 -15 657.401 34.6044   2
  -1  11 -15 561.691 43.8761   4
 -11  10  15 661.285 39.9369   1
   1 -11  15 629.953 23.2745   3
   1 -11  15 693.325 25.5343   1
 -10   2 -15 37.2479 17.6027   2
   8 -10 -15 36.8532 13.9586   2
   2   8 -15 20.2795 17.3509   4
  -8  10  15 1.68992 13.8757   1
 -10   5 -15 20.7313 14.7826   2
   5   5 -15 -4.4978 17.1573   4
   5 -10 -15 -14.947 11.3446   2
  10  -5  15 8.88460 19.9979   7
  -5  10  15 -2.6243 12.7774   5
  10  -5  15 3.06071 15.8252   1
 -10   8 -15 22.1868 12.9560   2
   2 -10 -15 7.38325 15.4545   2
  -8  -2  15 30.6485 9.57205   1
  10  -8  15 -0.8026 16.3601   1
  -1 -10 -15 12.2228 18.8375   2
   1  10  15 6.57108 18.6023   2
 -11   1  15 7.05551 11.2277   1
  10 -11  15 47.2411 20.3545   1
   1  10 -15 705.855 47.9995   4
 -11   1 -15 612.341 41.7937   2
  10 -11 -15 658.182 36.8760   2
 -10  11  15 697.901 41.0122   1
   7 -11 -15 47.8182 15.8020   2
   4   7 -15 38.7001 19.8341   4
 -11   4 -15 33.3736 16.1920   2
   4 -11 -15 772.116 44.5314   2
 -11   7 -15 843.525 40.8724   2
  -7  -4  15 773.583 22.1848   3
  11  -7  15 736.661 48.6518   1
 -11  10 -15 3.45237 11.5544   2
   1 -11 -15 14.3952 17.4982   2
  -1  11  15 -15.538 17.2150   2
 -10  -1  15 8.27446 10.1245   1
  11 -10  15 4.38106 18.1509   1
   9 -12 -15 19.6880 13.8285   2
 -12   3 -15 -8.0203 13.7083   2
   3   9 -15 -34.537 14.7871   4
   6 -12 -15 182.267 25.9056   2
 -12   6 -15 174.102 24.3489   2
   6   6 -15 167.032 30.4923   4
  12  -6  15 181.995 30.1948   1
   3 -12 -15 258.959 31.8922   2
 -12   9 -15 254.583 25.9636   2
  12  -9  15 231.152 33.5965   1
  -3  12  15 245.356 32.8112   2
  -1   0 -16 215.385 14.7929   2
   1  -1 -16 194.102 11.7308   2
   0  -1  16 213.556 22.6521   3
  -1   1  16 197.793 20.2769   1
   1   0  16 214.378 24.0420   3
   1   0  16 195.745 22.8689   1
   0  -1  16 179.166 19.5446   1
  -2  -1 -16 849.439 33.8647   2
  -3   2  16 807.604 33.7109   1
   1  -3  16 852.043 39.1050   3
   2   1  16 857.288 42.6154   1
   1  -3  16 819.329 37.1938   1
   0  -2 -16 2284.59 57.2302   2
   0   2  16 2387.45 66.9214   1
   2  -2  16 2403.46 70.9004   3
  -2   0  16 2384.48 59.7329   1
   2  -2  16 2419.96 68.9510   1
  -3  -2 -16 1762.85 58.7104   2
   2  -5  16 1872.22 58.9771   1
  -5   3  16 1896.81 53.3174   1
   3   2  16 1875.16 68.2033   1
   2  -5  16 1995.65 59.9382   3
  -3   1 -16 817.783 30.8711   2
   2  -3 -16 791.091 28.4438   2
  -1  -2  16 817.632 32.6445   1
   3  -1  16 858.428 43.3001   1
  -2   3  16 824.888 36.7531   1
  -1  -3 -16 852.813 36.6944   2
   3  -4  16 838.856 41.4045   3
   3  -4  16 800.282 40.6760   1
   1   3  16 796.949 41.3354   1
  -4   1  16 804.041 31.7943   1
  -4  -3 -16 757.009 42.1915   2
   3  -7  16 655.149 34.6291   3
   4   3  16 744.146 48.2422   1
  -7   4  16 688.506 32.6934   1
   3  -7  16 655.266 36.7079   1
  -4   0 -16 47.3027 14.3197   2
   4  -4 -16 50.7145 9.97803   2
   4   0  16 53.5072 19.5743   1
   0  -4  16 36.1101 12.7653   1
   0  -4  16 15.6574 12.7822   3
  -4   4  16 41.1729 12.7697   1
   1  -4 -16 794.724 34.2163   2
  -4   3 -16 868.781 27.1202   2
   4  -3  16 866.355 43.2310   1
  -1   4  16 811.831 40.0830   1
   4  -3  16 821.614 43.2081   3
  -3  -1  16 820.516 30.7101   1
  -2  -4 -16 79.0825 18.7640   2
   4  -6  16 65.6944 17.6853   1
   2   4  16 79.0769 21.0095   1
  -6   2  16 81.7130 13.7454   1
   4  -6  16 91.1918 18.9824   3
  -4   9 -16 618.097 41.6798   4
  -5  -4 -16 606.227 42.0588   2
   4  -9  16 568.472 33.1375   1
   4  -9  16 571.770 31.8884   3
  -9   5  16 539.605 30.5042   1
  -5  -1 -16 550.068 36.8531   2
   6  -5 -16 579.075 22.6273   2
   1  -6  16 594.742 32.6377   1
   1  -6  16 555.569 30.1175   3
   5   1  16 568.764 42.4014   1
  -6   5  16 574.974 31.5329   1
   3  -5 -16 1849.78 51.8156   2
  -5   2 -16 1857.40 54.9681   2
  -3   5  16 1880.34 57.6882   1
   5  -2  16 1774.08 63.4041   1
  -2  -3  16 1922.21 47.4798   1
   0  -5 -16 1863.43 59.2482   2
  -5   0  16 1785.14 47.2380   1
   5  -5  16 1785.50 63.3310   3
   5  -5  16 1848.02 63.2530   1
   0   5  16 1932.07 62.7635   1
  -3  -5 -16 1426.19 59.1150   2
   5  -8  16 1361.75 52.2658   3
  -8   3  16 1383.42 43.9929   1
   5  -8  16 1348.24 53.7239   1
  -5  11 -16 962.980 52.9023   4
  -6  -5 -16 969.457 53.0037   2
   5 -11  16 990.541 42.1180   1
   5 -11  16 976.277 39.0176   3
 -11   6  16 983.272 41.8774   1
  -6  -2 -16 1964.26 71.2465   2
   8  -6 -16 2087.56 47.2360   2
  -2   8 -16 2117.45 75.0476   4
  -8   6  16 2024.51 61.3894   1
   2  -8  16 2052.10 54.9006   3
   2  -8  16 2093.17 58.8850   1
   5  -6 -16 557.513 27.5212   2
  -6   1 -16 509.787 34.3033   2
   6  -1  16 533.499 38.5254   1
  -1  -5  16 533.557 26.0907   1
  -1  -5  16 549.542 28.5528   3
  -5   6  16 583.544 32.8258   1
  -6   4 -16 104.245 15.0610   2
   2  -6 -16 130.177 19.1327   2
  -2   6  16 63.7180 17.8260   1
  -4  -2  16 102.151 12.5090   1
   6  -4  16 52.3883 17.9093   1
  -1  -6 -16 68.1559 18.7059   2
   6  -7  16 85.4689 19.8984   3
   6  -7  16 80.6387 19.6996   1
   1   6  16 109.636 23.0454   1
  -7   1  16 51.0814 11.6229   1
  -4  -6 -16 -17.730 15.4316   2
  -6  10 -16 10.0592 16.6516   4
 -10   4  16 -2.4011 11.0362   1
   6 -10  16 -1.4328 14.7338   1
   6 -10  16 17.1721 13.3741   3
  -3  10 -16 866.337 49.9648   4
  -7  -3 -16 1031.96 51.2392   2
 -10   7  16 908.768 41.5853   1
   3 -10  16 927.606 33.6035   3
   3 -10  16 901.668 36.9325   1
   0   7 -16 89.8172 22.3542   4
   7  -7 -16 106.097 15.2169   2
  -7   0 -16 164.797 23.8049   2
  -7   7  16 112.720 18.9233   1
   0  -7  16 118.263 14.4508   3
   0  -7  16 109.804 16.6241   1
   7   0  16 123.066 24.0186   1
   4  -7 -16 638.416 32.9713   2
  -7   3 -16 699.688 36.5476   2
  -4   7  16 706.736 38.0406   1
   7  -3  16 699.411 46.3142   7
  -3  -4  16 696.099 24.6049   1
   7  -3  16 719.651 41.7582   1
   1  -7 -16 62.1268 17.2769   2
  -7   6 -16 49.8515 11.0149   2
  -6  -1  16 63.8349 11.2365   1
  -1   7  16 32.2456 16.9795   1
   7  -6  16 50.4979 19.7185   1
  -2  -7 -16 112.317 24.4402   2
  -9   2  16 123.975 16.7438   1
   7  -9  16 127.523 22.9045   1
   7  -9  16 153.669 25.1106   3
  -7  12 -16 431.073 40.4696   4
  -5  -7 -16 281.764 36.0408   2
   7 -12  16 324.121 29.3734   3
   5   7  16 326.300 38.3052   2
   7 -12  16 350.234 31.4935   1
 -12   5  16 359.990 30.4669   1
   9  -8 -16 93.6921 15.3567   2
  -8  -1 -16 106.216 22.2060   2
  -1   9 -16 115.425 24.1174   4
   1  -9  16 87.7178 13.7249   1
   1  -9  16 78.5606 11.2281   3
  -9   8  16 119.314 20.3350   1
   6  -8 -16 2068.13 60.4613   2
  -8   2 -16 2054.77 67.6208   2
   2   6 -16 2248.50 77.7065   4
  -6   8  16 2235.55 66.9377   1
   8  -2  16 2169.18 72.3754   1
  -2  -6  16 1994.86 49.4512   3
   3  -8 -16 1462.98 54.3866   2
  -8   5 -16 1428.81 49.7896   2
   8  -5  16 1435.44 59.9364   1
  -3   8  16 1527.26 57.5579   1
  -5  -3  16 1518.40 37.3775   1
   0  -8 -16 5922.90 138.765   2
  -8   0  16 5833.07 112.250   1
   8  -8  16 5785.92 136.062   1
  -3  -8 -16 1275.03 61.9515   2
 -11   3  16 1212.71 44.6584   1
   8 -11  16 1244.20 55.5816   1
   3   8  16 1174.31 63.4300   2
  -2  11 -16 573.402 44.5983   4
  11  -9 -16 529.153 27.9516   2
  -9  -2 -16 493.797 39.8245   2
   2 -11  16 538.615 26.1627   1
 -11   9  16 579.362 37.3289   1
   2 -11  16 518.506 23.8715   3
  -9   1 -16 107.266 21.9952   2
   8  -9 -16 79.7314 16.3107   2
   1   8 -16 74.3769 21.7877   4
  -8   9  16 96.6009 20.0467   1
  -1  -8  16 89.6063 9.17711   3
   5  -9 -16 616.185 35.1447   2
  -9   4 -16 600.309 36.1149   2
  -4  -5  16 593.507 22.2127   3
  -5   9  16 610.793 38.2355   1
  -4  -5  16 610.331 18.3622   3
   9  -4  16 629.510 48.6914   7
   9  -4  16 680.511 42.3190   1
  -9   7 -16 171.637 19.3850   2
   2  -9 -16 134.162 23.1202   2
  -7  -2  16 182.875 15.4616   1
   9  -7  16 112.601 23.4556   1
  -1  -9 -16 269.954 34.5050   2
 -10   1  16 314.913 23.2414   1
   9 -10  16 268.450 33.2026   1
  10 -10 -16 650.150 34.9550   2
   0  10 -16 658.127 46.0510   4
 -10   0 -16 657.763 43.1546   2
   0 -10  16 694.373 21.9183   3
 -10  10  16 741.615 41.3765   1
   7 -10 -16 891.867 41.8028   2
   3   7 -16 889.134 52.4306   4
 -10   3 -16 945.264 45.9604   2
  10  -3  16 953.209 51.6747   1
  -7  10  16 892.836 45.9264   1
 -10   6 -16 -17.966 11.4302   2
   4 -10 -16 11.3542 14.5080   2
  -6  -4  16 4.97230 6.10183   3
  10  -6  16 28.4290 19.0374   1
 -10   9 -16 294.987 21.9507   2
   1 -10 -16 364.122 36.2022   2
  -9  -1  16 330.098 20.8743   1
  10  -9  16 271.752 34.5785   1
   2   9 -16 558.609 44.1902   4
 -11   2 -16 555.307 39.9757   2
   9 -11 -16 579.320 35.1738   2
  -9  11  16 571.734 40.1323   1
   6 -11 -16 990.014 47.0259   2
   5   6 -16 918.606 55.6184   4
 -11   5 -16 927.822 45.6177   2
  11  -5  16 910.276 50.7051   1
   3 -11 -16 1179.28 56.2310   2
 -11   8 -16 1191.46 46.8919   2
  11  -8  16 1288.29 61.1031   1
   5 -12 -16 348.684 35.3121   2
 -12   7 -16 366.307 32.1320   2
  12  -7  16 385.707 39.6881   1
   0  -1 -17 -2.4974 6.85492   2
   1  -1  17 -2.9646 12.2900   3
   0   1  17 3.37346 11.3541   1
  -1   0  17 4.31840 11.1490   1
   1  -1  17 6.86230 12.6473   1
  -2   0 -17 4.29717 8.94691   2
   2  -2 -17 1.84471 5.71293   2
   0  -2  17 -6.2190 11.3054   3
  -2   2  17 -5.1025 10.2944   1
   2   0  17 -12.538 14.1655   1
   0  -2  17 6.75038 11.9156   1
  -1  -2 -17 955.536 36.8988   2
   2  -3  17 976.664 44.6765   1
  -3   1  17 1003.67 37.6637   1
   1   2  17 1014.50 46.4498   1
   2  -3  17 1033.62 46.3922   3
  -3  -1 -17 17.0954 12.5970   2
   3   1  17 34.1012 18.6432   1
   1  -4  17 -0.3677 12.1893   1
   1  -4  17 3.86405 13.0985   3
  -4   3  17 32.1156 12.6377   1
   1  -3 -17 988.299 34.4294   2
  -3   2 -17 927.212 26.9231   2
   3  -2  17 1005.46 47.8073   1
   3  -2  17 945.272 47.4649   3
  -2  -1  17 975.679 36.4296   1
  -1   3  17 988.982 43.2192   1
  -2  -3 -17 31.1046 13.7572   2
  -5   2  17 0.90682 10.6071   1
   3  -5  17 12.9550 15.9687   1
   2   3  17 17.4583 17.4447   1
   3  -5  17 0.47447 13.8947   3
  -4  -2 -17 273.187 28.0980   2
   4   2  17 219.946 30.7356   1
  -6   4  17 228.005 22.5056   1
   2  -6  17 175.717 23.3609   1
   2  -6  17 200.715 23.1825   3
   3  -4 -17 22.9403 9.51295   2
  -4   1 -17 21.4931 11.5243   2
  -1  -3  17 12.9279 10.6181   1
  -3   4  17 14.0314 12.7834   1
  -1  -3  17 23.6287 12.4439   3
   4  -1  17 9.22272 16.5852   1
   0  -4 -17 8.82785 11.4112   2
   4  -4  17 -6.1276 13.5299   3
   0   4  17 14.2496 14.0604   1
   4  -4  17 6.60592 15.6569   1
  -4   0  17 -8.0196 9.12605   1
  -3  -4 -17 1170.84 51.8258   2
  -7   3  17 1151.65 41.6153   1
   4  -7  17 1069.90 47.4111   3
   3   4  17 1254.20 59.8539   1
   4  -7  17 1045.47 47.6631   1
  -5  -3 -17 28.9374 17.2809   2
   3  -8  17 24.1667 15.8194   1
   3  -8  17 29.7725 14.5335   3
  -8   5  17 37.7948 13.8066   1
  -5   0 -17 3.38212 12.4229   2
   5  -5 -17 -1.0572 8.19350   2
   0  -5  17 5.85371 12.5175   3
   0  -5  17 -6.6130 11.9840   1
   5   0  17 -13.481 16.4349   1
  -5   5  17 -2.7797 11.1905   1
   2  -5 -17 29.8907 12.4944   2
  -5   3 -17 0.23891 9.81915   2
  -3  -2  17 20.6501 9.64445   1
  -2   5  17 24.0117 14.1652   1
   5  -3  17 32.0411 17.7331   1
  -1  -5 -17 -5.0195 12.8223   2
  -6   1  17 4.58156 9.72319   1
   5  -6  17 -3.4395 13.7545   3
   1   5  17 1.01446 15.8380   1
   5  -6  17 -13.842 14.5937   1
  -4  -5 -17 163.132 26.8296   2
  -9   4  17 224.076 22.1188   1
   5  -9  17 218.354 25.2821   3
   5  -9  17 225.549 26.3220   1
  -4  10 -17 186.520 30.4321   4
  -6  -4 -17 128.480 24.2823   2
 -10   6  17 160.724 20.9442   1
   4 -10  17 130.017 17.7552   3
   4 -10  17 112.779 19.5114   1
   7  -6 -17 503.360 22.5063   2
  -6  -1 -17 516.854 37.5550   2
  -7   6  17 507.697 31.8374   1
   1  -7  17 508.182 31.4736   1
   6   1  17 479.103 42.0949   1
   1  -7  17 458.582 27.8333   3
   4  -6 -17 223.723 20.9265   2
  -6   2 -17 196.636 22.6078   2
   6  -2  17 257.549 30.1682   1
  -4   6  17 241.494 25.1368   1
  -2  -4  17 206.445 17.8611   1
  -2  -4  17 229.972 19.9667   3
   1  -6 -17 -6.5634 12.2120   2
  -6   5 -17 -2.1263 7.32044   2
  -5  -1  17 7.55287 9.33600   1
   6  -5  17 -2.0476 15.6449   1
  -1   6  17 -1.7314 14.2658   1
  -2  -6 -17 17.0743 17.2152   2
  -8   2  17 -2.0536 9.61659   1
   6  -8  17 -1.4166 14.2265   3
   6  -8  17 2.43002 14.7830   1
  -5  -6 -17 62.9279 22.1656   2
  -6  11 -17 66.0739 23.6880   4
   6 -11  17 59.5123 17.4431   1
 -11   5  17 39.7101 14.1770   1
   6 -11  17 62.2571 16.5591   3
  -2   9 -17 978.034 54.2481   4
  -7  -2 -17 1123.50 53.8287   2
   2  -9  17 1042.81 38.9224   1
  -9   7  17 1087.13 45.5120   1
   2  -9  17 951.707 35.0239   3
  -7   1 -17 493.879 35.0686   2
   6  -7 -17 507.664 27.4694   2
  -1  -6  17 465.550 28.6792   1
  -6   7  17 515.679 33.5528   1
  -1  -6  17 476.236 26.3640   3
   7  -1  17 575.830 41.0237   1
  -7   4 -17 1137.67 41.7321   2
   3  -7 -17 1089.50 44.1975   2
  -3   7  17 1135.62 49.7577   1
   7  -4  17 1077.88 51.4031   1
  -4  -3  17 1152.91 34.1622   1
   0  -7 -17 -3.6060 14.3413   2
   7  -7  17 -5.4900 14.7458   1
  -7   0  17 -0.2787 9.43486   1
  -3  -7 -17 5.24318 17.7657   2
 -10   3  17 47.7966 13.6721   1
   7 -10  17 3.18536 16.3889   1
   7 -10  17 36.3804 16.5725   3
  -8   0 -17 -14.408 13.7794   2
   0   8 -17 -22.133 14.1273   4
   8  -8 -17 21.8555 11.3760   2
  -8   8  17 -14.907 12.3855   1
   0  -8  17 -24.313 11.0273   1
   0  -8  17 5.15712 7.89585   3
   5  -8 -17 7.36233 12.4549   2
  -8   3 -17 13.8344 13.6465   2
  -3  -5  17 48.1195 12.3203   3
   8  -3  17 39.9232 18.5356   1
  -5   8  17 65.5747 17.5604   1
  -3  -5  17 43.0606 10.5247   1
   2  -8 -17 -6.8715 12.4686   2
  -8   6 -17 9.08595 10.5859   2
  -6  -2  17 -0.5041 8.68829   1
  -2   8  17 23.3436 17.0108   1
   8  -6  17 -4.1919 15.8300   1
  -1  -8 -17 25.8018 18.0687   2
  -9   1  17 67.9399 13.6555   1
   8  -9  17 24.5874 18.4573   1
  -9  -1 -17 240.639 30.5555   2
  -1  10 -17 262.016 35.0274   4
  10  -9 -17 254.216 22.1684   2
   1 -10  17 237.730 18.7743   1
   1 -10  17 260.983 16.9489   3
 -10   9  17 273.352 29.1496   1
   2   7 -17 994.972 55.1576   4
   7  -9 -17 1022.21 42.6135   2
  -9   2 -17 1009.89 47.8221   2
  -2  -7  17 988.266 27.0851   3
  -7   9  17 1090.73 49.1646   1
   9  -2  17 1007.00 53.1282   1
  -9   5 -17 222.690 24.1373   2
   4  -9 -17 251.060 27.0770   2
  -5  -4  17 242.327 14.1643   3
   9  -5  17 242.952 30.9391   1
  -4   9  17 221.609 28.4245   1
   1  -9 -17 32.2717 18.1267   2
  -8  -1  17 50.6171 11.1428   1
   9  -8  17 59.5176 20.7523   1
   9 -10 -17 289.999 26.6740   2
 -10   1 -17 249.163 29.7676   2
   1   9 -17 297.501 36.6231   4
  -9  10  17 246.523 29.1212   1
  -1  -9  17 267.744 12.8996   3
   6 -10 -17 97.6370 19.0922   2
 -10   4 -17 109.128 20.4261   2
  10  -4  17 166.662 27.2714   1
  -6  10  17 165.680 25.1734   1
   3 -10 -17 14.8301 16.5912   2
 -10   7 -17 39.2403 14.3862   2
  10  -7  17 10.2052 17.4325   1
   5 -11 -17 54.6957 18.5095   2
 -11   6 -17 42.5321 16.6283   2
  11  -6  17 70.7453 22.3680   1
   0   0  18 29.0286 15.4290   1
   0   0  18 15.4039 13.4433   3
  -1  -1 -18 498.720 23.9723   2
   1  -2  18 508.685 35.1271   1
   1  -2  18 481.361 34.6434   3
   1   1  18 502.202 35.0372   1
  -2   1  18 479.630 30.1702   1
   1  -2 -18 487.703 20.2703   2
  -1  -1  18 494.015 30.8645   3
  -1  -1  18 475.364 29.8961   1
  -1   2  18 433.163 31.3398   1
   2  -1  18 515.134 37.0243   1
  -2  -2 -18 19.6757 12.7137   2
   2   2  18 40.2291 17.9394   1
   2  -4  18 27.1619 15.6868   1
  -4   2  18 17.2864 12.6552   1
   2  -4  18 8.10085 14.7623   3
  -3   0 -18 1148.78 39.5067   2
   0  -3  18 1157.95 44.5177   1
   0  -3  18 1124.01 45.8752   3
  -3   3  18 1059.59 43.9781   1
   3   0  18 1166.97 55.4576   1
   0  -3 -18 416.250 25.8311   2
   3  -3  18 431.784 35.6224   1
   3  -3  18 406.308 35.4970   3
  -3   0  18 402.760 26.9169   1
   0   3  18 365.098 32.3316   1
  -3  -3 -18 122.910 21.7616   2
   3  -6  18 119.652 21.8922   1
   3   3  18 130.629 28.0989   1
   3  -6  18 108.539 20.2834   3
  -6   3  18 130.071 18.5419   1
  -4  -1 -18 372.242 30.2509   2
   1  -5  18 484.319 33.6671   1
  -5   4  18 452.951 30.1796   1
   4   1  18 504.510 42.5612   1
   1  -5  18 480.712 32.1054   3
  -4   2 -18 16.5308 9.42220   2
   2  -4 -18 14.6274 10.5428   2
  -2  -2  18 6.03257 11.5572   1
  -2   4  18 31.4498 16.0994   1
   4  -2  18 12.1568 16.3499   1
  -1  -4 -18 547.291 34.2619   2
   1   4  18 646.417 42.4456   1
   4  -5  18 502.115 36.0992   3
  -5   1  18 531.606 29.3700   1
   4  -5  18 679.744 40.5293   1
  -4  -4 -18 34.9856 18.7719   2
   4  -8  18 54.8374 17.3464   3
   4  -8  18 53.0889 18.2559   1
  -8   4  18 20.6665 13.1657   1
  -5  -2 -18 159.958 25.8731   2
   2  -7  18 238.332 24.8540   1
  -7   5  18 191.648 22.6215   1
   2  -7  18 151.716 20.6272   3
   5   2  18 219.564 32.6935   1
   4  -5 -18 491.647 24.4982   2
  -5   1 -18 483.746 30.2778   2
  -1  -4  18 476.512 30.6084   3
   5  -1  18 505.939 39.7730   1
  -1  -4  18 514.272 28.8721   1
  -4   5  18 520.286 32.9913   1
   1  -5 -18 584.010 32.9106   2
  -4  -1  18 571.889 28.4875   1
   5  -4  18 557.636 39.1341   1
  -1   5  18 644.078 39.8207   1
  -2  -5 -18 -0.9220 15.0556   2
   5  -7  18 -13.688 14.7734   1
   2   5  18 15.8010 18.8595   1
   5  -7  18 13.1608 15.1636   3
  -7   2  18 0.69017 10.5260   1
  -5  -5 -18 -20.746 13.9014   2
 -10   5  18 20.7728 13.5878   1
   5 -10  18 15.4950 13.6690   3
   5 -10  18 -21.932 13.3591   1
  -6  -3 -18 77.6515 21.1221   2
   3  -9  18 121.425 18.1588   3
  -9   6  18 129.486 20.2122   1
   3  -9  18 120.005 19.3852   1
   6  -6 -18 186.641 16.3651   2
  -6   0 -18 175.440 24.5679   2
  -6   6  18 183.124 22.7351   1
   0  -6  18 186.159 20.9073   3
   0  -6  18 226.372 23.7861   1
   6   0  18 129.294 26.0198   1
  -6   3 -18 139.751 17.6502   2
   3  -6 -18 113.809 17.8849   2
  -3  -3  18 163.139 17.1532   1
   6  -3  18 110.210 23.3743   1
  -3   6  18 145.233 22.7628   1
   0  -6 -18 140.732 22.1016   2
  -6   0  18 160.994 18.0646   1
   6  -6  18 119.293 24.1853   1
   0   6  18 190.233 28.8445   1
  -3  -6 -18 24.2712 19.6400   2
  -9   3  18 35.5765 14.5381   1
   6  -9  18 38.2105 18.2578   3
   6  -9  18 34.6344 17.7598   1
  -7  -1 -18 33.2602 17.4101   2
  -8   7  18 13.2899 14.0232   1
   1  -8  18 -11.711 12.2121   1
   1  -8  18 0.36176 10.1272   3
   5  -7 -18 232.150 21.9124   2
  -7   2 -18 172.593 22.8728   2
   7  -2  18 241.715 30.0784   1
  -2  -5  18 218.498 21.3467   3
  -5   7  18 217.691 26.0079   1
  -2  -5  18 249.180 21.3778   1
  -7   5 -18 7.10082 9.47847   2
   2  -7 -18 15.2166 13.6665   2
  -5  -2  18 -2.0271 9.84540   1
   7  -5  18 4.81798 16.8438   1
  -2   7  18 -11.353 15.5888   1
  -1  -7 -18 82.9231 22.7799   2
   7  -8  18 65.1906 19.9141   1
  -8   1  18 90.5416 16.1136   1
   7  -8 -18 12.6570 11.4505   2
  -8   1 -18 9.73048 14.8236   2
  -1  -7  18 -8.3975 12.5700   1
   8  -1  18 25.6665 19.2571   1
  -1  -7  18 8.54038 9.44858   3
  -7   8  18 10.1080 14.0533   1
  -8   4 -18 45.1827 15.0368   2
   4  -8 -18 21.2962 13.5891   2
  -4  -4  18 34.1394 10.7841   1
   8  -4  18 66.0892 20.4125   1
  -4   8  18 35.2355 17.4934   1
  -4  -4  18 52.1143 11.9530   3
   1  -8 -18 93.2508 21.8601   2
   8  -7  18 57.2816 21.5290   1
  -7  -1  18 59.7030 12.8492   1
   6  -9 -18 126.369 20.1531   2
  -9   3 -18 115.861 20.2975   2
  -3  -6  18 109.794 12.9008   3
   9  -3  18 113.072 24.8776   1
  -6   9  18 102.259 21.6841   1
  -9   6 -18 43.7714 13.5151   2
   3  -9 -18 29.8578 16.3416   2
   9  -6  18 22.9456 19.0391   1
  -6  -3  18 35.7019 11.0296   1
 -10   5 -18 14.7562 14.8357   2
   5 -10 -18 -1.3153 14.3068   2
  -5  -5  18 9.03030 6.29735   3
  -5  -5  18 11.3869 9.32590   3
  10  -5  18 -9.7926 15.9705   1
  -1   1  19 4.62988 13.3723   1
   1   0  19 -6.8147 14.1017   1
   0  -1  19 -7.1403 12.7170   1
   0  -1  19 30.3562 15.6453   3
  -2  -1 -19 47.4616 12.7961   2
  -3   2  19 45.9890 15.8391   1
   2   1  19 66.5174 21.0078   1
   1  -3  19 65.9428 19.1806   1
   1  -3  19 58.1894 18.6194   3
   0  -2 -19 3.41913 8.63920   2
  -2   0  19 -9.3686 12.1757   1
   2  -2  19 2.19030 15.2809   3
   0   2  19 -15.436 12.8897   1
   2  -2  19 -6.5749 15.9186   1
  -3  -2 -19 114.215 20.0254   2
  -5   3  19 85.2072 17.0814   1
   3   2  19 55.5801 22.7939   1
   2  -5  19 82.8826 20.3101   1
   2  -5  19 126.977 21.3259   3
   2  -3 -19 71.7764 10.4035   2
  -3   1 -19 65.5736 11.1388   2
   3  -1  19 50.9141 20.8161   1
  -2   3  19 115.972 20.6323   1
  -1  -2  19 61.5313 16.9975   3
  -1  -2  19 99.6017 18.9172   1
  -1  -3 -19 47.6614 14.5538   2
   3  -4  19 86.7388 20.9206   1
   1   3  19 48.2186 20.7044   1
   3  -4  19 71.5005 20.5309   3
  -4   1  19 50.5845 14.1437   1
  -4  -3 -19 307.016 32.2469   2
   4   3  19 291.140 36.5248   1
  -7   4  19 323.413 28.2681   1
   3  -7  19 340.218 29.9975   3
   3  -7  19 318.971 30.4638   1
  -4   0 -19 11.6149 12.2778   2
  -4   4  19 -9.7629 12.6446   1
   0  -4  19 2.67530 13.5688   3
   0  -4  19 -3.9390 12.9690   1
   4   0  19 10.4964 17.3413   1
   1  -4 -19 61.2472 14.1891   2
  -1   4  19 60.1902 18.4234   1
  -3  -1  19 51.1541 14.4728   1
   4  -3  19 49.8837 19.7966   1
  -2  -4 -19 917.653 45.5441   2
   4  -6  19 944.352 46.4883   3
   4  -6  19 989.171 47.2608   1
   2   4  19 1091.93 58.0532   1
  -6   2  19 952.406 39.6176   1
  -5  -1 -19 15.0927 15.8200   2
   1  -6  19 -2.1488 13.0502   3
   1  -6  19 5.64071 14.9669   1
  -6   5  19 2.01466 12.7862   1
   5   1  19 10.1921 19.4762   1
  -5   2 -19 74.9728 13.7677   2
   3  -5 -19 113.498 15.9969   2
  -2  -3  19 109.632 16.5250   1
  -2  -3  19 117.362 18.5035   3
   5  -2  19 81.6665 21.8340   1
  -3   5  19 71.7103 19.4078   1
   0  -5 -19 -9.3580 12.8284   2
   0   5  19 -1.4576 16.6853   1
   5  -5  19 4.67959 15.5837   1
  -5   0  19 -15.944 10.7558   1
  -3  -5 -19 8.59126 16.3589   2
   5  -8  19 7.07410 15.6731   3
   5  -8  19 22.8446 17.7502   1
  -8   3  19 -0.8089 11.9153   1
  -6  -2 -19 55.1055 19.4323   2
   2  -8  19 30.2831 15.3154   1
  -8   6  19 30.0553 14.8075   1
   2  -8  19 18.4218 12.4946   3
  -6   1 -19 3.11094 12.9734   2
   5  -6 -19 7.41899 9.56949   2
  -5   6  19 18.8463 14.4248   1
  -1  -5  19 16.9470 13.4694   3
   6  -1  19 12.4083 17.6355   1
  -1  -5  19 14.1887 14.3749   1
   2  -6 -19 974.392 41.9988   2
   6  -4  19 974.276 50.2140   1
  -2   6  19 974.772 49.8085   1
  -4  -2  19 991.234 36.8994   1
  -1  -6 -19 111.374 22.1501   2
  -7   1  19 137.875 18.5271   1
   6  -7  19 167.940 26.1636   1
  -7   0 -19 4.54236 14.5182   2
   0  -7  19 -12.842 9.87950   3
   7   0  19 31.3742 20.2676   1
   0  -7  19 9.33412 13.8675   1
  -7   7  19 -12.905 12.1613   1
  -7   3 -19 291.569 25.1984   2
   4  -7 -19 331.551 26.9189   2
  -3  -4  19 333.616 22.9001   1
  -3  -4  19 297.017 24.3712   3
   7  -3  19 327.135 34.5527   1
  -4   7  19 349.162 32.9944   1
   1  -7 -19 151.380 23.1028   2
  -1   7  19 138.837 27.1234   1
   7  -6  19 112.937 24.0274   1
  -6  -1  19 176.633 18.6113   1
   6  -8 -19 26.2772 12.5223   2
  -8   2 -19 22.7033 15.4549   2
  -2  -6  19 32.8399 10.7906   3
   8  -2  19 11.4091 16.8031   1
  -6   8  19 33.4167 17.0287   1
  -8   5 -19 0.81636 10.4342   2
   3  -8 -19 -14.612 12.1566   2
  -3   8  19 -10.972 16.4562   1
   8  -5  19 -4.2085 16.7809   1
  -5  -3  19 6.41547 10.4354   1
   0   1  20 1055.32 50.8266   1
  -1   0  20 1159.28 50.9545   3
   1  -1  20 1141.51 51.9869   1
  -1   0  20 1104.50 48.4153   1
   0  -2  20 1143.09 50.0039   1
  -2   2  20 1212.03 50.2042   1
   0  -2  20 1152.79 51.2580   3
   2   0  20 1176.54 56.9006   1
  -1  -2 -20 119.804 15.7345   2
  -3   1  20 127.672 19.7679   1
   2  -3  20 86.6143 22.2737   1
   1   2  20 103.405 23.8601   1
   2  -3  20 121.338 23.1873   3
  -3  -1 -20 162.413 19.8644   2
   3   1  20 187.680 31.3935   1
  -4   3  20 210.821 24.4899   1
   1  -4  20 162.394 24.8983   1
   1  -4  20 182.108 25.7559   3
   1  -3 -20 123.788 13.9133   2
  -1   3  20 113.099 22.0203   1
  -2  -1  20 141.585 20.7559   1
  -2  -1  20 135.166 21.4805   3
   3  -2  20 148.489 25.9615   1
  -2  -3 -20 982.864 43.0829   2
  -5   2  20 943.188 41.2257   1
   2   3  20 888.177 54.3416   1
   3  -5  20 1011.88 48.4008   1
   3  -5  20 906.229 45.8493   3
  -4  -2 -20 139.728 22.1011   2
   2  -6  20 137.591 21.9757   3
   2  -6  20 206.947 26.6391   1
   4   2  20 161.850 29.9575   1
  -6   4  20 194.656 23.7831   1
  -4   1 -20 200.444 17.8667   2
  -1  -3  20 181.413 23.1386   1
   4  -1  20 198.344 31.0995   1
  -3   4  20 212.070 26.2224   1
  -1  -3  20 218.813 25.7031   3
   0  -4 -20 171.088 20.6327   2
   4  -4  20 248.953 30.2655   1
  -4   0  20 213.172 22.7352   1
   0   4  20 171.851 28.0840   1
  -3  -4 -20 139.475 24.1265   2
   4  -7  20 137.191 25.1440   1
  -7   3  20 146.942 20.9775   1
   4  -7  20 97.1004 21.2459   3
   3   4  20 158.183 31.4903   1
  -5   0 -20 3337.56 84.5755   2
  -5   5  20 3332.81 89.1483   1
   0  -5  20 3151.98 84.0456   3
   5   0  20 3452.30 102.590   1
   0  -5  20 3408.93 86.8489   1
   2  -5 -20 944.141 37.6687   2
   5  -3  20 916.350 50.1061   1
  -3  -2  20 994.850 41.5689   3
  -3  -2  20 961.538 39.7387   1
  -2   5  20 1037.18 50.1655   1
  -1  -5 -20 1353.42 54.3536   2
  -6   1  20 1340.77 48.0546   1
   5  -6  20 1316.33 55.9492   1
   1   5  20 1298.01 64.6381   1
   4  -6 -20 197.685 18.8908   2
  -6   2 -20 181.762 20.1600   2
   6  -2  20 142.600 26.5981   1
  -2  -4  20 145.719 20.2623   3
  -4   6  20 159.423 24.5984   1
  -2  -4  20 156.878 21.2600   1
   1  -6 -20 1339.53 52.0207   2
   6  -5  20 1274.59 57.0486   1
  -1   6  20 1336.09 61.6682   1
  -5  -1  20 1367.84 45.1742   1
   3  -7 -20 202.952 23.4081   2
   7  -4  20 146.582 25.7772   1
  -4  -3  20 174.218 19.5897   3
  -4  -3  20 177.132 19.9213   1
  -3   7  20 165.319 27.4852   1
   0   0  21 13.7266 15.9335   1
  -2   1  21 848.364 43.2242   1
   1   1  21 889.022 50.4803   1
   1  -2  21 776.826 46.2653   1
   1  -2  21 848.419 47.6194   3
  -1  -1  21 810.165 43.5737   1
  -1  -1  21 862.575 45.4483   3
   2  -1  21 859.091 50.5814   1
  -1   2  21 857.401 47.2642   1
  -2  -2 -21 6.56364 12.1269   2
   2   2  21 -0.4601 18.7952   1
   2  -4  21 -7.6255 15.9269   1
  -4   2  21 -1.3579 13.3081   1
   2  -4  21 4.48162 15.2266   3
   0  -3  21 -1.7895 14.7938   3
   3   0  21 31.3328 21.7339   1
  -3   3  21 -1.8786 15.0597   1
   0  -3  21 15.4317 15.1187   1
   0  -3 -21 3.28328 10.0853   2
  -3   0  21 10.6029 13.7826   1
   3  -3  21 3.42446 17.1976   1
   0   3  21 -14.711 16.3212   1
   1  -5  21 149.784 23.5024   3
  -2  -2  21 23.1461 15.6646   1
  -2  -2  21 28.5174 16.3407   3
  -2   4  21 11.6285 15.9796   1
   4  -2  21 10.1058 17.8236   1
  -1  -4  21 74.9950 18.9460   3
   0   0   0    0.00    0.00   0
;
_shelx_hkl_checksum              78764
#END Tags that were not found in dictionaries
loop_
_space_group_symop_operation_xyz
'x, y, z'
'-y, x-y, z'
'-x+y, -x, z'
'x-y, -y, -z+1/2'
'-x, -x+y, -z+1/2'
'y, x, -z+1/2'
'x+2/3, y+1/3, z+1/3'
'-y+2/3, x-y+1/3, z+1/3'
'-x+y+2/3, -x+1/3, z+1/3'
'x-y+2/3, -y+1/3, -z+5/6'
'-x+2/3, -x+y+1/3, -z+5/6'
'y+2/3, x+1/3, -z+5/6'
'x+1/3, y+2/3, z+2/3'
'-y+1/3, x-y+2/3, z+2/3'
'-x+y+1/3, -x+2/3, z+2/3'
'x-y+1/3, -y+2/3, -z+7/6'
'-x+1/3, -x+y+2/3, -z+7/6'
'y+1/3, x+2/3, -z+7/6'
'-x, -y, -z'
'y, -x+y, -z'
'x-y, x, -z'
'-x+y, y, z-1/2'
'x, x-y, z-1/2'
'-y, -x, z-1/2'
'-x+2/3, -y+1/3, -z+1/3'
'y+2/3, -x+y+1/3, -z+1/3'
'x-y+2/3, x+1/3, -z+1/3'
'-x+y+2/3, y+1/3, z-1/6'
'x+2/3, x-y+1/3, z-1/6'
'-y+2/3, -x+1/3, z-1/6'
'-x+1/3, -y+2/3, -z+2/3'
'y+1/3, -x+y+2/3, -z+2/3'
'x-y+1/3, x+2/3, -z+2/3'
'-x+y+1/3, y+2/3, z+1/6'
'x+1/3, x-y+2/3, z+1/6'
'-y+1/3, -x+2/3, z+1/6'
loop_
_atom_site_label
_atom_site_type_symbol
_atom_site_fract_x
_atom_site_fract_y
_atom_site_fract_z
_atom_site_U_iso_or_equiv
_atom_site_adp_type
_atom_site_occupancy
_atom_site_site_symmetry_order
_atom_site_calc_flag
_atom_site_refinement_flags_posn
_atom_site_refinement_flags_adp
_atom_site_refinement_flags_occupancy
U1 U 0.0000 0.0000 0.0000 0.00476(8) Uani 1 6 d S T P
Ba1 Ba 0.37524(2) 0.0000 0.2500 0.00601(7) Uani 1 2 d S T P
Ba2 Ba 0.0000 0.0000 0.2500 0.00849(10) Uani 1 6 d S T P
Se1 Se 0.19503(3) 0.02887(3) 0.10534(2) 0.00687(8) Uani 1 1 d . . .
loop_
_atom_site_aniso_label
_atom_site_aniso_U_11
_atom_site_aniso_U_22
_atom_site_aniso_U_33
_atom_site_aniso_U_23
_atom_site_aniso_U_13
_atom_site_aniso_U_12
U1 0.00432(10) 0.00432(10) 0.00564(13) 0.000 0.000 0.00216(5)
Ba1 0.00567(10) 0.00541(13) 0.00687(13) -0.00063(9) -0.00031(5) 0.00270(6)
Ba2 0.00937(15) 0.00937(15) 0.0067(2) 0.000 0.000 0.00468(7)
Se1 0.00582(15) 0.00748(16) 0.00771(16) -0.00025(11) -0.00099(11) 0.00363(13)
loop_
_atom_type_symbol
_atom_type_description
_atom_type_scat_dispersion_real
_atom_type_scat_dispersion_imag
_atom_type_scat_source
Se Se -0.0929 2.2259 'International Tables Vol C Tables 4.2.6.8 and 6.1.1.4'
Ba Ba -0.3244 2.2819 'International Tables Vol C Tables 4.2.6.8 and 6.1.1.4'
U U -9.6767 9.6646 'International Tables Vol C Tables 4.2.6.8 and 6.1.1.4'
loop_
_geom_angle_atom_site_label_1
_geom_angle_atom_site_label_2
_geom_angle_atom_site_label_3
_geom_angle
_geom_angle_site_symmetry_1
_geom_angle_site_symmetry_3
Se1 U1 Se1 89.539(9) 19 20
Se1 U1 Se1 90.461(9) 19 2
Se1 U1 Se1 180.000(16) 20 2
Se1 U1 Se1 89.539(9) 19 21
Se1 U1 Se1 89.539(9) 20 21
Se1 U1 Se1 90.461(9) 2 21
Se1 U1 Se1 90.461(9) 19 3
Se1 U1 Se1 90.461(9) 20 3
Se1 U1 Se1 89.539(9) 2 3
Se1 U1 Se1 180.000(17) 21 3
Se1 U1 Se1 180.0 19 .
Se1 U1 Se1 90.462(9) 20 .
Se1 U1 Se1 89.538(9) 2 .
Se1 U1 Se1 90.461(9) 21 .
Se1 U1 Se1 89.539(9) 3 .
Se1 U1 Ba2 125.590(7) 19 .
Se1 U1 Ba2 125.590(7) 20 .
Se1 U1 Ba2 54.410(7) 2 .
Se1 U1 Ba2 125.590(7) 21 .
Se1 U1 Ba2 54.410(7) 3 .
Se1 U1 Ba2 54.410(7) . .
Se1 U1 Ba2 54.410(7) 19 19
Se1 U1 Ba2 54.410(7) 20 19
Se1 U1 Ba2 125.590(7) 2 19
Se1 U1 Ba2 54.410(7) 21 19
Se1 U1 Ba2 125.590(7) 3 19
Se1 U1 Ba2 125.590(7) . 19
Ba2 U1 Ba2 180.0 . 19
Se1 U1 Ba1 56.423(7) 19 15_554
Se1 U1 Ba1 126.225(7) 20 15_554
Se1 U1 Ba1 53.775(7) 2 15_554
Se1 U1 Ba1 54.380(7) 21 15_554
Se1 U1 Ba1 125.620(7) 3 15_554
Se1 U1 Ba1 123.577(7) . 15_554
Ba2 U1 Ba1 108.2 . 15_554
Ba2 U1 Ba1 71.8 19 15_554
Se1 U1 Ba1 123.577(7) 19 27_445
Se1 U1 Ba1 53.775(7) 20 27_445
Se1 U1 Ba1 126.225(7) 2 27_445
Se1 U1 Ba1 125.620(7) 21 27_445
Se1 U1 Ba1 54.380(7) 3 27_445
Se1 U1 Ba1 56.423(7) . 27_445
Ba2 U1 Ba1 71.8 . 27_445
Ba2 U1 Ba1 108.2 19 27_445
Ba1 U1 Ba1 180.0 15_554 27_445
Se1 U1 Ba1 125.619(7) 19 25
Se1 U1 Ba1 123.578(7) 20 25
Se1 U1 Ba1 56.422(7) 2 25
Se1 U1 Ba1 53.774(7) 21 25
Se1 U1 Ba1 126.226(7) 3 25
Se1 U1 Ba1 54.381(7) . 25
Ba2 U1 Ba1 71.829(1) . 25
Ba2 U1 Ba1 108.171(1) 19 25
Ba1 U1 Ba1 69.260(1) 15_554 25
Ba1 U1 Ba1 110.7 27_445 25
Se1 U1 Ba1 54.381(7) 19 13_444
Se1 U1 Ba1 56.422(7) 20 13_444
Se1 U1 Ba1 123.578(7) 2 13_444
Se1 U1 Ba1 126.226(7) 21 13_444
Se1 U1 Ba1 53.774(7) 3 13_444
Se1 U1 Ba1 125.619(7) . 13_444
Ba2 U1 Ba1 108.171(1) . 13_444
Ba2 U1 Ba1 71.829(1) 19 13_444
Ba1 U1 Ba1 110.7 15_554 13_444
Ba1 U1 Ba1 69.260(1) 27_445 13_444
Ba1 U1 Ba1 180.0 25 13_444
Se1 Ba1 Se1 85.813(13) . 4
Se1 Ba1 Se1 134.259(7) . 9
Se1 Ba1 Se1 66.935(9) 4 9
Se1 Ba1 Se1 66.936(9) . 18_544
Se1 Ba1 Se1 134.260(7) 4 18_544
Se1 Ba1 Se1 155.875(13) 9 18_544
Se1 Ba1 Se1 90.485(7) . 34_545
Se1 Ba1 Se1 71.918(9) 4 34_545
Se1 Ba1 Se1 112.932(9) 9 34_545
Se1 Ba1 Se1 72.332(10) 18_544 34_545
Se1 Ba1 Se1 71.917(9) . 25
Se1 Ba1 Se1 90.484(7) 4 25
Se1 Ba1 Se1 72.332(10) 9 25
Se1 Ba1 Se1 112.933(9) 18_544 25
Se1 Ba1 Se1 156.212(13) 34_545 25
Se1 Ba1 Se1 120.470(4) . 26
Se1 Ba1 Se1 137.446(9) 4 26
Se1 Ba1 Se1 71.099(10) 9 26
Se1 Ba1 Se1 88.229(9) 18_544 26
Se1 Ba1 Se1 133.649(7) 34_545 26
Se1 Ba1 Se1 70.107(10) 25 26
Se1 Ba1 Se1 137.446(9) . 35_545
Se1 Ba1 Se1 120.471(4) 4 35_545
Se1 Ba1 Se1 88.230(9) 9 35_545
Se1 Ba1 Se1 71.097(10) 18_544 35_545
Se1 Ba1 Se1 70.106(10) 34_545 35_545
Se1 Ba1 Se1 133.649(7) 25 35_545
Se1 Ba1 Se1 63.793(11) 26 35_545
Se1 Ba1 U1 113.848(6) . 7
Se1 Ba1 U1 98.503(6) 4 7
Se1 Ba1 U1 42.338(6) 9 7
Se1 Ba1 U1 125.566(7) 18_544 7
Se1 Ba1 U1 153.537(6) 34_545 7
Se1 Ba1 U1 42.282(5) 25 7
Se1 Ba1 U1 42.063(5) 26 7
Se1 Ba1 U1 95.876(7) 35_545 7
Se1 Ba1 U1 98.505(6) . 16_544
Se1 Ba1 U1 113.849(6) 4 16_544
Se1 Ba1 U1 125.566(7) 9 16_544
Se1 Ba1 U1 42.338(5) 18_544 16_544
Se1 Ba1 U1 42.282(5) 34_545 16_544
Se1 Ba1 U1 153.537(6) 25 16_544
Se1 Ba1 U1 95.875(7) 26 16_544
Se1 Ba1 U1 42.062(5) 35_545 16_544
U1 Ba1 U1 135.712(7) 7 16_544
Se1 Ba1 Ba2 42.906(6) . .
Se1 Ba1 Ba2 42.907(6) 4 .
Se1 Ba1 Ba2 102.062(7) 9 .
Se1 Ba1 Ba2 102.063(7) 18_544 .
Se1 Ba1 Ba2 78.107(7) 34_545 .
Se1 Ba1 Ba2 78.105(7) 25 .
Se1 Ba1 Ba2 148.103(6) 26 .
Se1 Ba1 Ba2 148.104(6) 35_545 .
U1 Ba1 Ba2 112.144(3) 7 .
U1 Ba1 Ba2 112.145(3) 16_544 .
Se1 Ba1 Ba1 104.317(6) . 26
Se1 Ba1 Ba1 165.737(5) 4 26
Se1 Ba1 Ba1 110.309(8) 9 26
Se1 Ba1 Ba1 46.041(6) 18_544 26
Se1 Ba1 Ba1 97.612(5) 34_545 26
Se1 Ba1 Ba1 102.112(8) 25 26
Se1 Ba1 Ba1 44.882(7) 26 26
Se1 Ba1 Ba1 45.457(5) 35_545 26
U1 Ba1 Ba1 86.690(6) 7 26
U1 Ba1 Ba1 55.370(1) 16_544 26
Ba2 Ba1 Ba1 146.139(2) . 26
Se1 Ba2 Se1 76.293(9) . 3
Se1 Ba2 Se1 128.054(11) . 6
Se1 Ba2 Se1 148.845(11) 3 6
Se1 Ba2 Se1 90.100(12) . 4
Se1 Ba2 Se1 128.054(11) 3 4
Se1 Ba2 Se1 76.292(9) 6 4
Se1 Ba2 Se1 148.845(11) . 5
Se1 Ba2 Se1 90.100(12) 3 5
Se1 Ba2 Se1 76.292(9) 6 5
Se1 Ba2 Se1 76.292(9) 4 5
Se1 Ba2 Se1 76.292(9) . 2
Se1 Ba2 Se1 76.292(9) 3 2
Se1 Ba2 Se1 90.101(12) 6 2
Se1 Ba2 Se1 148.845(11) 4 2
Se1 Ba2 Se1 128.054(11) 5 2
Se1 Ba2 U1 45.498(6) . .
Se1 Ba2 U1 45.498(6) 3 .
Se1 Ba2 U1 134.502(6) 6 .
Se1 Ba2 U1 134.502(6) 4 .
Se1 Ba2 U1 134.502(6) 5 .
Se1 Ba2 U1 45.498(6) 2 .
Se1 Ba2 U1 134.502(6) . 4
Se1 Ba2 U1 134.502(6) 3 4
Se1 Ba2 U1 45.498(6) 6 4
Se1 Ba2 U1 45.498(6) 4 4
Se1 Ba2 U1 45.498(6) 5 4
Se1 Ba2 U1 134.502(6) 2 4
U1 Ba2 U1 180.0 . 4
Se1 Ba2 Ba1 115.973(6) . 3
Se1 Ba2 Ba1 45.050(6) 3 3
Se1 Ba2 Ba1 115.973(6) 6 3
Se1 Ba2 Ba1 105.577(6) 4 3
Se1 Ba2 Ba1 45.050(6) 5 3
Se1 Ba2 Ba1 105.577(6) 2 3
U1 Ba2 Ba1 90.0 . 3
U1 Ba2 Ba1 90.0 4 3
Se1 Ba2 Ba1 105.577(6) . 2
Se1 Ba2 Ba1 115.973(6) 3 2
Se1 Ba2 Ba1 45.050(6) 6 2
Se1 Ba2 Ba1 115.973(6) 4 2
Se1 Ba2 Ba1 105.577(6) 5 2
Se1 Ba2 Ba1 45.050(6) 2 2
U1 Ba2 Ba1 90.0 . 2
U1 Ba2 Ba1 90.0 4 2
Ba1 Ba2 Ba1 120.0 3 2
Se1 Ba2 Ba1 45.050(6) . .
Se1 Ba2 Ba1 105.577(6) 3 .
Se1 Ba2 Ba1 105.577(6) 6 .
Se1 Ba2 Ba1 45.050(6) 4 .
Se1 Ba2 Ba1 115.973(6) 5 .
Se1 Ba2 Ba1 115.973(6) 2 .
U1 Ba2 Ba1 90.0 . .
U1 Ba2 Ba1 90.0 4 .
Ba1 Ba2 Ba1 120.0 3 .
Ba1 Ba2 Ba1 120.0 2 .
Se1 Ba2 Ba1 47.827(6) . 27_445
Se1 Ba2 Ba1 46.051(6) 3 27_445
Se1 Ba2 Ba1 164.128(6) 6 27_445
Se1 Ba2 Ba1 88.091(6) 4 27_445
Se1 Ba2 Ba1 103.025(6) 5 27_445
Se1 Ba2 Ba1 102.207(6) 2 27_445
U1 Ba2 Ba1 56.718(1) . 27_445
U1 Ba2 Ba1 123.282(1) 4 27_445
Ba1 Ba2 Ba1 70.630(3) 3 27_445
Ba1 Ba2 Ba1 146.139(1) 2 27_445
Ba1 Ba2 Ba1 60.084(2) . 27_445
U1 Se1 Ba2 80.092(8) . .
U1 Se1 Ba1 166.394(12) . .
Ba2 Se1 Ba1 92.043(9) . .
U1 Se1 Ba1 83.888(9) . 14_544
Ba2 Se1 Ba1 163.912(11) . 14_544
Ba1 Se1 Ba1 103.372(8) . 14_544
U1 Se1 Ba1 83.337(9) . 25
Ba2 Se1 Ba1 91.153(8) . 25
Ba1 Se1 Ba1 108.083(9) . 25
Ba1 Se1 Ba1 88.435(8) 14_544 25
U1 Se1 Ba1 81.514(8) . 27_445
Ba2 Se1 Ba1 89.370(8) . 27_445
Ba1 Se1 Ba1 87.357(8) . 27_445
Ba1 Se1 Ba1 86.811(8) 14_544 27_445
Ba1 Se1 Ba1 164.519(11) 25 27_445
loop_
_geom_bond_atom_site_label_1
_geom_bond_atom_site_label_2
_geom_bond_distance
_geom_bond_site_symmetry_2
U1 Se1 2.8248(3) 19
U1 Se1 2.8248(3) 20
U1 Se1 2.8248(3) 2
U1 Se1 2.8248(3) 21
U1 Se1 2.8248(3) 3
U1 Se1 2.8248(3) .
U1 Ba2 3.90157(5) .
U1 Ba2 3.90157(5) 19
U1 Ba1 4.17034(12) 15_554
U1 Ba1 4.17034(12) 27_445
U1 Ba1 4.17039(12) 25
U1 Ba1 4.17039(12) 13_444
Ba1 Se1 3.3482(4) .
Ba1 Se1 3.3482(4) 4
Ba1 Se1 3.3835(3) 9
Ba1 Se1 3.3835(3) 18_544
Ba1 Se1 3.4132(3) 34_545
Ba1 Se1 3.4132(3) 25
Ba1 Se1 3.5129(4) 26
Ba1 Se1 3.5130(4) 35_545
Ba1 U1 4.17038(12) 7
Ba1 U1 4.17041(12) 16_544
Ba1 Ba2 4.7279(3) .
Ba1 Ba1 4.73974(10) 26
Ba2 Se1 3.2208(3) .
Ba2 Se1 3.2208(3) 3
Ba2 Se1 3.2208(3) 6
Ba2 Se1 3.2208(3) 4
Ba2 Se1 3.2208(3) 5
Ba2 Se1 3.2208(3) 2
Ba2 U1 3.90157(5) 4
Ba2 Ba1 4.7278(3) 3
Ba2 Ba1 4.7278(3) 2
Ba2 Ba1 4.73978(10) 27_445
Se1 Ba1 3.3835(3) 14_544
Se1 Ba1 3.4132(3) 25
Se1 Ba1 3.5130(4) 27_445
