#------------------------------------------------------------------------------
#$Date: 2016-03-24 00:14:39 +0200 (Thu, 24 Mar 2016) $
#$Revision: 179528 $
#$URL: svn://www.crystallography.net/cod/cif/4/34/25/4342578.cif $
#------------------------------------------------------------------------------
#
# This file is available in the Crystallography Open Database (COD),
# http://www.crystallography.net/
#
# All data on this site have been placed in the public domain by the
# contributors.
#
data_4342578
loop_
_publ_author_name
'Oliynyk, Anton O.'
'Stoyko, Stanislav S.'
'Mar, Arthur'
_publ_section_title
;
 Many Metals Make the Cut: Quaternary Rare-Earth Germanides RE4M2InGe4 (M
 = Fe, Co, Ni, Ru, Rh, Ir) and RE4RhInGe4 Derived from Excision of Slabs
 in RE2InGe2.
;
_journal_issue                   6
_journal_name_full               'Inorganic chemistry'
_journal_page_first              2780
_journal_page_last               2792
_journal_paper_doi               10.1021/ic502955h
_journal_volume                  54
_journal_year                    2015
_chemical_formula_structural     'Ho4 Ru2 In Ge4'
_chemical_formula_sum            'Ge4 Ho4 In Ru2'
_chemical_formula_weight         1267.04
_chemical_name_common
'holmium ruthenium indium germanide (4/2/1/4)'
_chemical_name_systematic
'holmium ruthenium indium germanide (4/2/1/4)'
_space_group_crystal_system      monoclinic
_space_group_IT_number           12
_space_group_name_Hall           '-C 2y'
_space_group_name_H-M_alt        'C 1 2/m 1'
_symmetry_space_group_name_Hall  '-C 2y'
_symmetry_space_group_name_H-M   'C 1 2/m 1'
_atom_sites_solution_primary     direct
_atom_sites_solution_secondary   difmap
_audit_creation_method           SHELXL-2013
_cell_angle_alpha                90
_cell_angle_beta                 106.842(4)
_cell_angle_gamma                90
_cell_formula_units_Z            2
_cell_length_a                   15.550(4)
_cell_length_b                   4.2349(12)
_cell_length_c                   6.9425(19)
_cell_measurement_reflns_used    2170
_cell_measurement_temperature    173(2)
_cell_measurement_theta_max      33.11
_cell_measurement_theta_min      5.00
_cell_volume                     437.6(2)
_computing_cell_refinement       'Bruker SAINT 8.27B (Bruker, 2011)'
_computing_data_collection       'Bruker APEX 2 (Bruker, 2008)'
_computing_data_reduction        'Bruker SAINT 8.27B'
_computing_molecular_graphics    'ATOMS 5.1 (Dowty, 1999)'
_computing_publication_material  'Bruker SHELXTL'
_computing_structure_refinement  'Bruker SHELXTL'
_computing_structure_solution    'Bruker SHELXTL'
_diffrn_ambient_temperature      173(2)
_diffrn_measured_fraction_theta_full 1.000
_diffrn_measured_fraction_theta_max 0.986
_diffrn_measurement_device_type  'Bruker PLATFORM/SMART APEX II CCD'
_diffrn_measurement_method       '\w and \f scans'
_diffrn_radiation_type           MoK\a
_diffrn_radiation_wavelength     0.71073
_diffrn_reflns_av_R_equivalents  0.0341
_diffrn_reflns_av_unetI/netI     0.0316
_diffrn_reflns_Laue_measured_fraction_full 1.000
_diffrn_reflns_Laue_measured_fraction_max 0.986
_diffrn_reflns_limit_h_max       23
_diffrn_reflns_limit_h_min       -23
_diffrn_reflns_limit_k_max       6
_diffrn_reflns_limit_k_min       -6
_diffrn_reflns_limit_l_max       10
_diffrn_reflns_limit_l_min       -10
_diffrn_reflns_number            3120
_diffrn_reflns_point_group_measured_fraction_full 1.000
_diffrn_reflns_point_group_measured_fraction_max 0.986
_diffrn_reflns_theta_full        25.242
_diffrn_reflns_theta_max         33.164
_diffrn_reflns_theta_min         2.737
_diffrn_source                   'fine-focus sealed tube'
_exptl_absorpt_coefficient_mu    55.046
_exptl_absorpt_correction_T_max  0.4103
_exptl_absorpt_correction_T_min  0.0403
_exptl_absorpt_correction_type   numerical
_exptl_absorpt_process_details   'Bruker SHELXTL (Sheldrick, 2013)'
_exptl_crystal_colour            grey
_exptl_crystal_density_diffrn    9.617
_exptl_crystal_density_method    'not measured'
_exptl_crystal_description       irregular
_exptl_crystal_F_000             1066
_exptl_crystal_size_max          0.101
_exptl_crystal_size_mid          0.027
_exptl_crystal_size_min          0.023
_refine_diff_density_max         2.164
_refine_diff_density_min         -2.413
_refine_diff_density_rms         0.530
_refine_ls_extinction_coef       0.00184(11)
_refine_ls_extinction_expression Fc^*^=kFc[1+0.001xFc^2^\l^3^/sin(2\q)]^-1/4^
_refine_ls_extinction_method     SHELXL
_refine_ls_goodness_of_fit_ref   1.070
_refine_ls_hydrogen_treatment    undef
_refine_ls_matrix_type           full
_refine_ls_number_parameters     37
_refine_ls_number_reflns         930
_refine_ls_number_restraints     0
_refine_ls_restrained_S_all      1.070
_refine_ls_R_factor_all          0.0271
_refine_ls_R_factor_gt           0.0232
_refine_ls_shift/su_max          0.000
_refine_ls_shift/su_mean         0.000
_refine_ls_structure_factor_coef Fsqd
_refine_ls_weighting_details
'w=1/[\s^2^(Fo^2^)+(0.0272P)^2^] where P=(Fo^2^+2Fc^2^)/3'
_refine_ls_weighting_scheme      calc
_refine_ls_wR_factor_gt          0.0528
_refine_ls_wR_factor_ref         0.0543
_reflns_Friedel_coverage         0.000
_reflns_number_gt                842
_reflns_number_total             930
_reflns_threshold_expression     'I > 2\s(I)'
_cod_data_source_file            ic502955h_si_004.cif
_cod_data_source_block           Ho4Ru2InGe4
_cod_depositor_comments
'Adding full bibliography for 4342570--4342590.cif.'
_cod_database_code               4342578
#BEGIN Tags that were not found in dictionaries:
_shelx_space_group_comment
;
The symmetry employed for this shelxl refinement is uniquely defined
by the following loop, which should always be used as a source of
symmetry information in preference to the above space-group names.
They are only intended as comments.
;
_shelx_estimated_absorpt_t_min   0.072
_shelx_estimated_absorpt_t_max   0.364
_shelxl_version_number           2013-4
_shelx_res_file
;
TITL Ho4Ru2InGe4 C2/m lsf final refinement
CELL 0.71073  15.54960   4.23490   6.94250  90.0000 106.8421  90.0000
ZERR    2.00   0.00420   0.00120   0.00190   0.0000   0.0038   0.0000
LATT  7
SYMM -X, Y, -Z
SFAC GE RU IN HO
UNIT 8 4 2 8
TEMP -100
SIZE 0.023 0.027 0.101

L.S. 4
ACTA

WGHT    0.027200
EXTI    0.001840
FVAR       0.05244
HO1   4    0.348182    0.000000    0.067599    10.50000    0.00650    0.00549 =
         0.00681    0.00000    0.00068    0.00000
HO2   4    0.587231    0.000000    0.383698    10.50000    0.00569    0.00485 =
         0.00840    0.00000    0.00298    0.00000
RU    2    0.220412    0.000000    0.632833    10.50000    0.00739    0.00660 =
         0.00887    0.00000    0.00237    0.00000
IN    3    0.000000    0.000000    0.000000     0.24045    0.00622    0.01037 =
         0.00757    0.00000    0.00241    0.00000
GE1   1    0.064441    0.000000    0.660031    10.50000    0.00582    0.00485 =
         0.00878    0.00000    0.00022    0.00000
GE2   1    0.200626    0.000000    0.260620    10.50000    0.01214    0.00430 =
         0.00769    0.00000    0.00328    0.00000
HKLF 4

REM  Ho4Ru2InGe4 C2/m lsf final refinement
REM R1 =  0.0232 for     842 Fo > 4sig(Fo)  and  0.0271 for all     930 data
REM     37 parameters refined using      0 restraints

END

WGHT      0.0272      0.0000

REM Highest difference peak  2.164,  deepest hole -2.413,  1-sigma level  0.530
Q1    1   0.5895 -0.1104  0.4603  11.00000  0.05    2.16
Q2    1   0.5462  0.0000  0.3596  10.50000  0.05    2.06
Q3    1   0.3507  0.1227 -0.0099  11.00000  0.05    1.90
Q4    1   0.5956 -0.1875  0.3163  11.00000  0.05    1.73
Q5    1   0.3561  0.1331  0.1586  11.00000  0.05    1.70
Q6    1   0.2203  0.1531  0.7363  11.00000  0.05    1.70
Q7    1   0.0613  0.1039  0.7565  11.00000  0.05    1.66
Q8    1   0.3690  0.3310  0.1436  11.00000  0.05    1.64
Q9    1   0.5584 -0.2541  0.1944  11.00000  0.05    1.62
Q10   1   0.1869  0.2419  0.4855  11.00000  0.05    1.59
Q11   1   0.2795  0.1471  0.2783  11.00000  0.05    1.50
Q12   1   0.1618  0.2747  0.5864  11.00000  0.05    1.50
Q13   1   0.3148  0.0000  0.0633  10.50000  0.05    1.47
Q14   1   0.2976  0.0000  0.5370  10.50000  0.05    1.44
Q15   1   0.3852  0.0000  0.0929  10.50000  0.05    1.44
Q16   1   0.3861  0.2625 -0.0479  11.00000  0.05    1.41
Q17   1   0.0018  0.1721  0.1455  11.00000  0.05    1.38
Q18   1   0.1580  0.2138  0.6836  11.00000  0.05    1.35
Q19   1   0.2045  0.1043  0.1578  11.00000  0.05    1.33
Q20   1   0.4156  0.2223  0.0730  11.00000  0.05    1.28
;
_shelx_res_checksum              22697
_shelx_hkl_file
;
   4  -2 -10   45.55    4.75
   6  -2 -10    5.65    2.10
   3  -1 -10    1.78    1.05
   5  -1 -10   50.55    3.28
   7  -1 -10    9.12    1.61
   9  -1 -10   36.85    3.01
  11  -1 -10    6.37    1.42
  13  -1 -10   19.40    3.48
   2   0 -10   17.02    2.88
   4   0 -10   47.98    4.87
   6   0 -10    7.98    1.50
   8   0 -10   80.49    5.35
  10   0 -10   68.06    5.14
  12   0 -10    2.58    1.11
  14   0 -10    2.23    1.75
   3   1 -10    1.10    1.42
   5   1 -10   61.28    5.01
   7   1 -10   10.98    2.42
   9   1 -10   45.65    4.47
  11   1 -10    5.56    1.42
  13   1 -10   17.96    2.99
   3  -3  -9    2.46    1.49
   7  -3  -9    6.13    2.10
   9  -3  -9   14.32    1.97
  11  -3  -9   58.37    5.80
  -4  -2  -9   32.98    3.96
  -2  -2  -9    2.58    1.14
   0  -2  -9   39.06    3.05
   2  -2  -9   54.57    3.09
   4  -2  -9   22.40    2.24
   6  -2  -9    1.64    0.96
   8  -2  -9   21.79    3.14
  10  -2  -9   14.45    1.88
  12  -2  -9    2.69    1.18
  14  -2  -9   -0.68    0.93
  -3  -1  -9    0.49    1.25
  -1  -1  -9  181.34    6.25
   1  -1  -9   16.14    1.90
   3  -1  -9    6.94    1.29
   5  -1  -9   22.11    2.06
   7  -1  -9    8.52    1.41
   9  -1  -9   22.83    1.78
  11  -1  -9   77.24    2.99
  13  -1  -9  102.20    3.69
  15  -1  -9   39.14    3.17
  -4   0  -9   54.13    4.57
  -2   0  -9    0.04    1.03
   0   0  -9   55.00    4.29
   2   0  -9   60.65    3.10
   4   0  -9   27.23    2.33
   6   0  -9    1.54    0.80
   8   0  -9   25.46    3.18
  10   0  -9   15.81    1.85
  12   0  -9    2.51    0.96
  14   0  -9    0.64    0.87
  16   0  -9  188.30    6.77
  18   0  -9    3.25    1.72
  -5   1  -9   19.86    3.21
  -3   1  -9    0.83    1.25
  -1   1  -9  166.61    8.77
   1   1  -9   20.06    2.99
   3   1  -9    2.97    1.60
   5   1  -9   21.67    3.06
   7   1  -9    9.21    1.43
   9   1  -9   25.56    2.25
  11   1  -9   74.30    3.55
  13   1  -9   97.14    4.38
  15   1  -9   34.91    2.96
  -4   2  -9   40.30    4.40
  -2   2  -9    0.05    1.27
   0   2  -9   46.72    4.64
   2   2  -9   58.72    4.70
   6   2  -9    1.87    1.48
   8   2  -9   17.74    2.81
  10   2  -9   11.12    1.62
  12   2  -9    2.81    1.06
  14   2  -9    1.32    1.01
   1   3  -9   12.39    2.54
   3   3  -9    0.94    1.59
   5   3  -9   17.63    3.05
   7   3  -9    8.20    2.27
   9   3  -9   16.81    2.98
   4  -4  -8   31.12    4.13
   6  -4  -8   27.95    2.59
   8  -4  -8   15.78    2.20
  -5  -3  -8   36.94    3.07
  -3  -3  -8   10.43    1.74
  -1  -3  -8    1.07    0.96
   1  -3  -8    4.54    1.64
   3  -3  -8   68.40    5.00
   5  -3  -8  182.56    8.20
   7  -3  -8   58.80    3.20
   9  -3  -8    0.92    0.93
  11  -3  -8   30.28    4.35
  13  -3  -8    0.93    1.22
  15  -3  -8   -0.55    1.51
  -6  -2  -8   86.47    3.96
  -4  -2  -8   17.37    1.95
  -2  -2  -8   21.00    2.13
   0  -2  -8   26.66    2.33
   2  -2  -8   53.77    4.06
   4  -2  -8   46.82    2.72
   6  -2  -8   32.69    2.01
   8  -2  -8   27.65    1.89
  10  -2  -8  122.11    4.83
  12  -2  -8    1.27    0.99
  14  -2  -8   11.15    1.86
  16  -2  -8    4.50    1.50
  18  -2  -8    2.37    1.78
  -7  -1  -8   16.35    2.91
  -5  -1  -8   42.67    4.42
  -3  -1  -8   12.38    1.59
  -1  -1  -8    0.30    0.69
   1  -1  -8    6.75    1.14
   3  -1  -8   73.65    3.34
   5  -1  -8  211.76    6.69
   7  -1  -8   78.04    2.78
   9  -1  -8    0.13    0.51
  11  -1  -8   38.41    2.29
  13  -1  -8    1.00    0.70
  15  -1  -8    0.83    0.90
  17  -1  -8    1.48    1.02
  19  -1  -8  151.64    8.26
  -8   0  -8    1.54    1.44
  -6   0  -8   85.47    5.74
  -4   0  -8   19.45    2.88
  -2   0  -8   25.72    3.19
   0   0  -8   25.92    2.09
   2   0  -8   60.44    2.81
   4   0  -8   53.55    2.64
   6   0  -8   33.16    2.23
   8   0  -8   21.66    1.98
  10   0  -8  120.73    4.58
  12   0  -8    1.62    0.78
  14   0  -8    8.83    1.44
  16   0  -8    6.94    1.35
  18   0  -8    5.03    1.33
  -9   1  -8    1.02    1.39
  -7   1  -8   17.89    2.94
  -5   1  -8   49.70    4.03
  -3   1  -8   15.74    2.52
  -1   1  -8    1.82    1.18
   1   1  -8    5.51    1.65
   3   1  -8   80.46    4.98
   5   1  -8  221.91    9.03
   7   1  -8   83.76    3.41
   9   1  -8    0.02    0.61
  11   1  -8   38.32    2.73
  13   1  -8    1.70    0.85
  15   1  -8    0.10    0.81
  17   1  -8    1.87    0.97
  19   1  -8  122.17    7.58
  -8   2  -8    0.80    1.30
  -6   2  -8   86.12    5.58
  -4   2  -8   14.60    2.54
  -2   2  -8   22.80    2.95
   0   2  -8   29.24    3.49
   2   2  -8   34.90    3.84
   6   2  -8   30.51    3.45
   8   2  -8   27.23    2.20
  10   2  -8  101.79    6.28
  12   2  -8    1.65    0.84
  14   2  -8   11.44    1.68
  16   2  -8    6.31    1.39
  -1   3  -8   -0.05    1.23
   1   3  -8    1.76    1.40
   5   3  -8  155.65    8.30
   7   3  -8   56.84    4.45
   9   3  -8   -0.54    1.00
  11   3  -8   27.88    3.60
  13   3  -8    1.78    1.00
  15   3  -8    0.25    1.24
   6   4  -8   25.75    3.47
   8   4  -8   15.25    2.83
  10   4  -8   85.58    6.00
  -4  -4  -7   57.15    4.82
  -2  -4  -7   63.81    5.06
   0  -4  -7   63.76    5.13
   2  -4  -7   11.45    2.53
   4  -4  -7    1.81    1.03
   6  -4  -7    2.26    1.09
   8  -4  -7   23.43    3.54
  10  -4  -7  121.21    6.12
  12  -4  -7    9.52    1.89
  -7  -3  -7  119.05    4.97
  -5  -3  -7    0.38    0.81
  -3  -3  -7   53.94    3.04
  -1  -3  -7    5.71    1.24
   1  -3  -7   50.60    2.88
   3  -3  -7    0.45    0.67
   5  -3  -7    0.60    0.72
   7  -3  -7   10.04    1.53
   9  -3  -7   21.60    2.33
  11  -3  -7    4.85    1.36
  13  -3  -7   86.26    4.71
  15  -3  -7   37.45    3.69
  17  -3  -7   59.87    5.06
 -10  -2  -7    0.58    1.30
  -8  -2  -7    2.79    1.00
  -6  -2  -7    3.30    1.00
  -4  -2  -7   92.73    3.96
  -2  -2  -7  116.46    4.51
   0  -2  -7  101.69    4.06
   2  -2  -7   14.53    1.53
   4  -2  -7    4.66    0.78
   6  -2  -7    1.83    0.63
   8  -2  -7   46.26    2.14
  10  -2  -7  185.38    6.42
  12  -2  -7   11.33    1.76
  14  -2  -7   57.68    3.70
  16  -2  -7   12.12    2.06
  18  -2  -7    6.01    1.69
  20  -2  -7   19.42    3.60
 -11  -1  -7   19.19    3.16
  -9  -1  -7    1.90    1.23
  -7  -1  -7  158.55    8.28
  -5  -1  -7    1.41    0.77
  -3  -1  -7   67.97    3.09
  -1  -1  -7   11.16    1.39
   1  -1  -7   69.95    2.98
   3  -1  -7    1.44    0.49
   5  -1  -7    0.64    0.50
   7  -1  -7   14.40    1.25
   9  -1  -7   22.55    1.63
  11  -1  -7    8.01    1.03
  13  -1  -7  105.37    3.56
  15  -1  -7   58.02    2.62
  17  -1  -7   89.06    4.25
  19  -1  -7   -0.08    0.92
  21  -1  -7   -0.21    1.45
 -12   0  -7    2.64    1.65
 -10   0  -7    0.61    1.14
  -8   0  -7    1.92    1.28
  -6   0  -7    5.95    1.66
  -4   0  -7  106.19    6.00
  -2   0  -7  113.76    4.05
   0   0  -7  120.32    4.22
   2   0  -7   26.03    1.95
   4   0  -7    4.63    0.88
   6   0  -7    3.26    0.81
   8   0  -7   43.67    2.28
  10   0  -7  216.99    6.56
  12   0  -7   13.23    1.53
  14   0  -7   71.56    4.60
  16   0  -7   10.41    1.46
  18   0  -7    8.26    1.41
  20   0  -7   17.82    2.03
 -11   1  -7   23.97    2.48
  -9   1  -7    1.04    0.95
  -7   1  -7  158.47    5.91
  -5   1  -7    1.20    1.04
  -3   1  -7   69.05    4.42
  -1   1  -7    9.92    1.88
   1   1  -7   65.89    2.76
   3   1  -7   -0.09    0.49
   5   1  -7    0.32    0.47
   7   1  -7   13.99    1.44
   9   1  -7   20.33    1.80
  11   1  -7    7.10    1.15
  13   1  -7  118.28    4.42
  15   1  -7   54.51    2.91
  17   1  -7   82.03    3.80
  19   1  -7    1.95    0.98
  21   1  -7   -0.01    1.20
 -10   2  -7    0.91    1.98
  -8   2  -7    3.11    1.25
  -6   2  -7    5.94    1.64
  -4   2  -7   88.72    5.20
  -2   2  -7  113.26    6.17
   0   2  -7  101.07    5.66
   2   2  -7   22.88    2.75
   4   2  -7    2.43    1.13
   6   2  -7    2.95    0.79
   8   2  -7   44.18    2.34
  10   2  -7  180.78    5.99
  12   2  -7   13.77    1.66
  14   2  -7   59.55    3.10
  16   2  -7   12.89    1.71
  18   2  -7    8.02    1.49
  -9   3  -7    0.63    2.96
  -3   3  -7   52.34    3.79
  -1   3  -7    2.34    1.35
   1   3  -7   44.68    3.65
   3   3  -7    2.25    1.22
   5   3  -7    0.49    0.97
   7   3  -7    9.04    1.95
   9   3  -7   21.97    2.04
  11   3  -7    2.81    0.96
  13   3  -7   91.24    4.04
  15   3  -7   46.86    3.29
  17   3  -7   70.25    3.73
   4   4  -7    2.51    1.47
   6   4  -7    0.47    1.19
   8   4  -7   28.54    3.51
  10   4  -7  113.61    6.95
  12   4  -7    7.31    2.03
  14   4  -7   55.46    4.43
  -1  -5  -6   83.59    6.03
   1  -5  -6    7.49    1.51
   3  -5  -6    6.70    1.53
   5  -5  -6   62.14    3.96
   7  -5  -6   42.81    3.66
  11  -5  -6    6.00    3.33
  -8  -4  -6   10.33    2.65
  -6  -4  -6    0.53    1.10
  -4  -4  -6    4.24    1.73
  -2  -4  -6   17.81    2.87
   0  -4  -6   14.75    1.76
   2  -4  -6   17.29    1.88
   4  -4  -6  214.80    7.21
   6  -4  -6   36.40    2.94
   8  -4  -6    8.64    1.40
  10  -4  -6   15.33    1.89
  12  -4  -6   28.00    2.69
  14  -4  -6    4.85    1.85
 -11  -3  -6    1.71    1.08
  -9  -3  -6   97.89    4.32
  -7  -3  -6    1.11    0.87
  -5  -3  -6   26.51    2.35
  -3  -3  -6    0.80    0.76
  -1  -3  -6  159.86    5.58
   1  -3  -6   11.79    1.18
   3  -3  -6    9.64    1.31
   5  -3  -6  105.47    4.23
   7  -3  -6   79.78    3.67
   9  -3  -6   44.86    2.99
  11  -3  -6   10.49    1.85
  13  -3  -6   89.39    4.77
  15  -3  -6   22.94    3.13
  17  -3  -6    0.06    3.26
 -12  -2  -6   40.31    4.46
 -10  -2  -6   49.99    2.86
  -8  -2  -6   24.03    2.16
  -6  -2  -6    0.10    0.53
  -4  -2  -6    4.95    1.01
  -2  -2  -6   39.84    2.26
   0  -2  -6   22.02    1.41
   2  -2  -6   34.15    1.55
   4  -2  -6  344.62    7.39
   6  -2  -6   58.94    2.21
   8  -2  -6   21.25    1.54
  10  -2  -6   25.16    2.34
  12  -2  -6   50.89    3.27
  14  -2  -6    6.26    1.55
  16  -2  -6   86.05    4.80
  18  -2  -6   58.53    3.97
  20  -2  -6  141.13    6.09
 -13  -1  -6   98.29    6.29
 -11  -1  -6    7.76    2.00
  -9  -1  -6  128.47    6.92
  -7  -1  -6    1.52    0.70
  -5  -1  -6   37.50    2.14
  -3  -1  -6    0.68    0.56
  -1  -1  -6  211.70    6.50
   1  -1  -6   23.22    1.26
   3  -1  -6   11.66    0.98
   5  -1  -6  162.90    4.09
   7  -1  -6  110.12    3.20
   9  -1  -6   62.59    2.31
  11  -1  -6   19.90    1.70
  13  -1  -6  111.43    4.13
  15  -1  -6   25.82    2.10
  17  -1  -6    0.98    0.87
  19  -1  -6   15.49    2.03
  21  -1  -6   76.29    4.02
 -14   0  -6    1.55    1.35
 -12   0  -6   48.78    3.23
 -10   0  -6   58.67    3.22
  -8   0  -6   26.74    2.39
  -6   0  -6    0.19    0.68
  -4   0  -6    6.50    0.80
  -2   0  -6   42.71    1.76
   0   0  -6   22.10    1.51
   2   0  -6   40.14    1.99
   4   0  -6  353.48    9.40
   6   0  -6   62.48    2.57
   8   0  -6   23.38    1.76
  10   0  -6   25.26    1.90
  12   0  -6   50.06    2.52
  14   0  -6   11.37    1.39
  16   0  -6   99.98    4.03
  18   0  -6   68.39    3.29
  20   0  -6  152.62    5.60
  22   0  -6    1.50    1.40
 -13   1  -6   94.62    4.47
 -11   1  -6    2.70    1.04
  -9   1  -6  119.17    4.87
  -7   1  -6    1.01    0.76
  -5   1  -6   42.18    2.61
  -3   1  -6    1.39    0.71
  -1   1  -6  226.58    5.42
   1   1  -6   20.88    1.40
   3   1  -6    9.72    1.06
   5   1  -6  173.00    7.19
   7   1  -6  110.83    3.84
   9   1  -6   64.53    2.74
  11   1  -6   15.60    1.57
  13   1  -6  109.37    4.17
  15   1  -6   24.21    2.10
  17   1  -6    0.32    0.67
  19   1  -6   14.38    1.81
  21   1  -6   78.05    3.93
 -12   2  -6   34.34    5.17
 -10   2  -6   58.74    6.73
  -8   2  -6   23.75    2.47
  -6   2  -6    1.63    0.92
  -4   2  -6    3.52    1.18
  -2   2  -6   38.86    2.67
   0   2  -6   24.51    2.05
   2   2  -6   29.64    2.54
   4   2  -6  314.12   12.63
   6   2  -6   54.07    2.49
   8   2  -6   20.52    1.72
  10   2  -6   23.33    1.87
  12   2  -6   49.05    2.54
  14   2  -6   10.44    1.98
  16   2  -6   86.21    5.46
  18   2  -6   61.46    4.68
  20   2  -6  128.07    7.69
 -11   3  -6    3.77    3.57
  -9   3  -6  101.09   11.80
  -7   3  -6    4.98    3.34
  -5   3  -6   28.61    4.82
  -3   3  -6    1.56    0.85
  -1   3  -6  156.12    5.50
   1   3  -6   14.06    2.07
   3   3  -6   11.16    1.89
   5   3  -6  108.05    5.79
   7   3  -6   83.76    3.33
   9   3  -6   42.78    3.41
  11   3  -6   18.09    2.53
  13   3  -6   77.42    5.16
  15   3  -6   18.37    2.83
  17   3  -6    0.20    1.25
  -8   4  -6   10.51    4.44
  -6   4  -6    1.19    2.39
  -4   4  -6    2.05    2.00
  -2   4  -6   18.64    3.27
   4   4  -6  236.07    9.79
   6   4  -6   37.68    3.73
   8   4  -6   17.49    2.61
  10   4  -6   15.92    2.61
  12   4  -6   28.87    3.57
  14   4  -6    5.12    1.82
  -3   5  -6    1.50    2.09
  -5  -5  -5   29.37    3.93
  -3  -5  -5   14.59    1.92
  -1  -5  -5  120.98    4.99
   1  -5  -5   79.17    3.83
   3  -5  -5    2.17    1.06
   5  -5  -5   41.39    3.34
   7  -5  -5   66.39    3.85
   9  -5  -5    4.94    1.64
  11  -5  -5   64.37    5.02
 -10  -4  -5   14.68    1.99
  -8  -4  -5   42.55    3.25
  -6  -4  -5  196.51    6.86
  -4  -4  -5    9.29    2.09
  -2  -4  -5   41.46    2.63
   0  -4  -5   13.95    1.62
   2  -4  -5    1.07    0.77
   4  -4  -5    0.79    0.79
   6  -4  -5    7.99    1.19
   8  -4  -5   30.61    2.28
  10  -4  -5  138.03    4.79
  12  -4  -5   24.02    2.96
  14  -4  -5   36.72    3.79
  16  -4  -5    9.41    2.23
 -13  -3  -5   29.94    2.67
 -11  -3  -5    1.45    0.89
  -9  -3  -5    4.16    1.07
  -7  -3  -5   49.12    2.71
  -5  -3  -5   60.07    3.00
  -3  -3  -5   22.23    1.49
  -1  -3  -5  213.46    5.28
   1  -3  -5  139.68    3.84
   3  -3  -5    3.44    0.86
   5  -3  -5   76.66    3.30
   7  -3  -5  129.05    4.75
   9  -3  -5    7.36    1.37
  11  -3  -5  112.15    4.92
  13  -3  -5    2.69    1.31
  15  -3  -5  102.64    5.73
  17  -3  -5    1.48    1.19
  19  -3  -5   14.27    2.42
 -14  -2  -5   48.94    4.93
 -12  -2  -5   15.51    1.79
 -10  -2  -5   20.66    2.00
  -8  -2  -5   65.57    3.05
  -6  -2  -5  291.95    8.46
  -4  -2  -5   14.00    1.48
  -2  -2  -5   74.65    2.34
   0  -2  -5   24.60    1.32
   2  -2  -5    0.43    0.42
   4  -2  -5    2.59    0.55
   6  -2  -5   17.46    1.28
   8  -2  -5   48.20    1.93
  10  -2  -5  202.40    6.87
  12  -2  -5   39.20    3.17
  14  -2  -5   55.25    3.69
  16  -2  -5   16.73    2.39
  18  -2  -5   23.35    2.75
  20  -2  -5    6.17    2.45
  22  -2  -5   39.27    4.98
 -15  -1  -5   38.61    4.44
 -13  -1  -5   39.30    4.13
 -11  -1  -5    2.89    1.34
  -9  -1  -5   11.90    1.34
  -7  -1  -5   62.61    2.74
  -5  -1  -5   91.72    3.43
  -3  -1  -5   28.64    1.67
  -1  -1  -5  304.87    6.32
   1  -1  -5  207.20    4.64
   3  -1  -5    5.93    0.70
   5  -1  -5  116.22    3.10
   7  -1  -5  190.77    4.60
   9  -1  -5    8.16    1.05
  11  -1  -5  147.75    4.75
  13  -1  -5    1.62    0.67
  15  -1  -5  133.41    4.63
  17  -1  -5    1.83    1.34
  19  -1  -5   18.35    2.21
  21  -1  -5    4.04    1.33
  23  -1  -5    6.16    2.24
 -16   0  -5    1.98    1.34
 -14   0  -5   64.17    3.49
 -12   0  -5   15.97    1.96
 -10   0  -5   30.04    2.51
  -8   0  -5   80.93    3.63
  -6   0  -5  350.36    7.70
  -4   0  -5   19.36    1.29
  -2   0  -5   88.33    2.60
   0   0  -5   33.08    1.11
   2   0  -5    1.20    0.50
   4   0  -5    3.25    0.64
   6   0  -5   23.81    1.48
   8   0  -5   58.45    2.40
  10   0  -5  244.90    6.79
  12   0  -5   40.35    2.10
  14   0  -5   62.84    2.81
  16   0  -5   18.76    1.78
  18   0  -5   27.13    2.28
  20   0  -5    4.51    1.11
  22   0  -5   34.05    4.10
 -15   1  -5   55.83    3.40
 -13   1  -5   37.89    2.97
 -11   1  -5    1.73    0.88
  -9   1  -5   10.13    1.48
  -7   1  -5   67.51    3.25
  -5   1  -5   90.79    3.87
  -3   1  -5   26.90    2.02
  -1   1  -5  304.67    6.77
   1   1  -5  209.60    4.88
   3   1  -5    4.94    0.61
   5   1  -5  115.84    3.70
   7   1  -5  185.74    5.45
   9   1  -5    7.22    0.98
  11   1  -5  149.46    4.81
  13   1  -5    4.68    1.24
  15   1  -5  137.44    6.70
  17   1  -5    5.46    1.45
  19   1  -5   17.83    2.72
  21   1  -5    0.87    1.40
  23   1  -5    4.95    1.87
 -14   2  -5   42.11    5.61
 -12   2  -5   15.00    3.82
 -10   2  -5   26.56    2.51
  -8   2  -5   65.79    3.70
  -6   2  -5  301.31    9.31
  -4   2  -5   15.53    1.65
  -2   2  -5   70.54    3.12
   0   2  -5   22.18    1.74
   2   2  -5    1.72    0.44
   4   2  -5    2.87    0.53
   6   2  -5   20.61    1.56
   8   2  -5   40.41    2.96
  10   2  -5  208.52    8.80
  12   2  -5   43.78    3.24
  14   2  -5   53.12    3.84
  16   2  -5   16.31    2.53
  18   2  -5   22.17    3.09
  20   2  -5    3.71    1.70
 -13   3  -5   23.83    5.65
 -11   3  -5    5.60    4.24
  -9   3  -5   10.99    4.10
  -7   3  -5   40.82    5.56
  -5   3  -5   60.13    5.09
  -3   3  -5   19.03    1.78
  -1   3  -5  215.71    6.53
   1   3  -5  140.11    4.57
   3   3  -5    2.94    0.71
   5   3  -5   82.08    3.08
   7   3  -5  113.89    5.89
   9   3  -5    4.89    1.36
  11   3  -5  107.48    5.89
  13   3  -5    1.03    1.01
  17   3  -5    2.63    1.37
  19   3  -5   12.43    2.61
 -10   4  -5    6.70    3.69
  -8   4  -5   38.63    3.46
  -4   4  -5    4.86    2.01
  -2   4  -5   50.80    4.15
   0   4  -5   13.20    2.37
   2   4  -5   -0.78    0.80
   4   4  -5    0.26    0.62
   6   4  -5    8.90    1.72
   8   4  -5   34.24    3.37
  10   4  -5  139.59    7.04
  12   4  -5   25.06    3.19
  16   4  -5   10.59    2.60
  -5   5  -5   38.54    5.10
  -3   5  -5    8.84    2.55
  -1   5  -5  123.61    7.53
   1   5  -5   70.78    5.34
   3   5  -5    1.70    1.43
  13   5  -5   -0.05    1.55
   0  -6  -4   28.77    4.11
  -7  -5  -4    0.54    1.36
  -5  -5  -4   13.01    1.71
  -3  -5  -4    2.84    1.01
  -1  -5  -4   -0.06    0.79
   1  -5  -4   89.56    4.08
   3  -5  -4    0.53    0.79
   5  -5  -4   95.80    3.56
   7  -5  -4    1.01    1.03
   9  -5  -4   15.93    2.33
  11  -5  -4   40.00    3.81
  13  -5  -4    5.68    1.85
 -12  -4  -4   83.61    4.23
 -10  -4  -4    1.00    0.90
  -8  -4  -4   42.69    3.07
  -6  -4  -4   59.19    3.15
  -4  -4  -4   11.26    1.37
  -2  -4  -4   54.33    2.75
   0  -4  -4   59.25    2.84
   2  -4  -4   88.12    3.68
   4  -4  -4   26.85    1.82
   6  -4  -4  175.75    4.96
   8  -4  -4    1.94    0.76
  10  -4  -4    8.48    1.64
  12  -4  -4    8.68    1.80
  14  -4  -4   53.09    4.26
  16  -4  -4   29.65    3.19
  18  -4  -4   17.87    3.93
 -15  -3  -4   21.41    2.34
 -13  -3  -4    0.12    0.78
 -11  -3  -4  167.36    6.00
  -9  -3  -4    5.17    1.12
  -7  -3  -4    0.19    0.62
  -5  -3  -4   28.67    1.58
  -3  -3  -4    2.94    0.61
  -1  -3  -4    1.98    0.55
   1  -3  -4  179.21    3.81
   3  -3  -4    0.21    0.43
   5  -3  -4  166.07    4.45
   7  -3  -4    5.85    1.11
   9  -3  -4   39.18    2.58
  11  -3  -4   84.41    3.94
  13  -3  -4   14.53    1.66
  15  -3  -4   55.44    3.81
  17  -3  -4   84.72    4.56
  19  -3  -4   61.38    4.00
 -16  -2  -4   95.36    6.24
 -14  -2  -4    4.65    1.11
 -12  -2  -4  123.27    4.59
 -10  -2  -4    2.99    0.83
  -8  -2  -4   62.98    2.90
  -6  -2  -4  103.23    3.73
  -4  -2  -4   26.55    1.28
  -2  -2  -4  105.65    2.80
   0  -2  -4  101.94    2.76
   2  -2  -4  154.97    3.80
   4  -2  -4   45.70    1.69
   6  -2  -4  297.46    6.49
   8  -2  -4    2.92    0.61
  10  -2  -4   23.24    2.16
  12  -2  -4   12.04    1.78
  14  -2  -4   77.25    4.30
  16  -2  -4   45.30    3.63
  18  -2  -4   31.03    4.64
  20  -2  -4   14.39    2.08
  22  -2  -4   64.18    5.06
 -17  -1  -4   11.63    2.53
 -15  -1  -4   27.15    3.48
 -13  -1  -4   -0.61    0.81
 -11  -1  -4  213.66    6.40
  -9  -1  -4    7.43    1.06
  -7  -1  -4    0.37    0.47
  -5  -1  -4   45.56    2.13
  -3  -1  -4    3.77    0.47
  -1  -1  -4    3.66    0.48
   1  -1  -4  274.25    5.70
   3  -1  -4    2.00    0.41
   5  -1  -4  239.60    5.32
   7  -1  -4   10.37    1.00
   9  -1  -4   52.72    2.16
  11  -1  -4  114.33    3.79
  13  -1  -4   15.93    1.44
  15  -1  -4   83.76    3.29
  17  -1  -4  108.66    6.26
  19  -1  -4   76.85    3.79
  21  -1  -4  103.97    6.67
 -18   0  -4    6.98    2.05
 -16   0  -4  107.39    4.70
 -14   0  -4    5.80    1.27
 -12   0  -4  149.47    5.61
 -10   0  -4    2.36    0.82
  -8   0  -4   79.59    2.55
  -6   0  -4  125.16    3.39
  -4   0  -4   34.46    1.48
  -2   0  -4  130.03    2.66
   0   0  -4  119.41    2.96
   2   0  -4  190.27    5.11
   4   0  -4   61.71    2.18
   6   0  -4  351.55    8.83
   8   0  -4    2.51    0.57
  10   0  -4   27.25    1.53
  12   0  -4   18.55    1.52
  14   0  -4  100.48    3.60
  16   0  -4   49.70    2.46
  18   0  -4   41.25    2.34
  20   0  -4   15.29    1.80
  22   0  -4   56.18    4.51
 -17   1  -4   14.69    3.10
 -15   1  -4   28.72    2.61
 -13   1  -4    0.36    0.72
 -11   1  -4  217.50    7.00
  -9   1  -4    5.76    1.18
  -7   1  -4    1.78    0.81
  -5   1  -4   48.01    2.67
  -3   1  -4    3.83    0.53
  -1   1  -4    3.27    0.48
   1   1  -4  270.57    5.71
   3   1  -4    3.39    0.44
   5   1  -4  252.79    5.09
   7   1  -4   10.29    0.70
   9   1  -4   50.53    3.10
  11   1  -4  115.16    5.51
  13   1  -4   18.51    2.23
  15   1  -4   85.58    4.82
  17   1  -4  113.88    6.09
  19   1  -4   69.68    4.76
  21   1  -4  113.51    6.56
  23   1  -4    8.63    2.31
 -16   2  -4   91.52    7.32
 -14   2  -4    3.27    2.32
 -12   2  -4  119.18    9.31
 -10   2  -4    2.65    1.03
  -8   2  -4   66.12    3.40
  -6   2  -4   99.09    3.13
  -4   2  -4   26.17    1.47
  -2   2  -4  101.06    2.82
   0   2  -4   99.25    2.56
   2   2  -4  159.83    3.65
   4   2  -4   49.88    1.94
   6   2  -4  296.81    7.68
   8   2  -4    2.12    0.51
  10   2  -4   21.22    2.37
  12   2  -4   13.82    2.01
  14   2  -4   77.63    4.75
  16   2  -4   47.53    3.67
  18   2  -4   35.16    3.84
  20   2  -4   13.89    2.62
  22   2  -4   54.74    4.73
 -15   3  -4   15.76    4.97
 -13   3  -4   -0.76    2.88
 -11   3  -4  172.05    8.56
  -9   3  -4    6.59    1.37
  -7   3  -4    2.91    0.96
  -5   3  -4   31.98    2.39
  -3   3  -4    4.21    0.67
  -1   3  -4    2.12    0.53
   1   3  -4  174.51    5.25
   3   3  -4    1.06    0.52
   5   3  -4  165.55    5.01
   7   3  -4    4.10    0.79
   9   3  -4   37.02    1.92
  11   3  -4   68.32    4.50
  13   3  -4   15.21    2.36
  15   3  -4   58.89    4.33
  17   3  -4   76.62    5.46
  19   3  -4   60.53    4.89
 -12   4  -4   91.57    6.27
 -10   4  -4    1.51    1.21
  -8   4  -4   39.51    3.20
  -6   4  -4   62.57    3.32
  -4   4  -4   13.71    1.67
  -2   4  -4   54.82    4.14
   0   4  -4   51.62    3.90
   2   4  -4   90.64    5.12
   4   4  -4   28.55    2.02
   6   4  -4  178.08    5.55
   8   4  -4    1.33    0.73
  10   4  -4   13.11    2.21
  12   4  -4    7.34    1.85
  14   4  -4   48.46    4.20
  16   4  -4   26.90    3.67
  -7   5  -4    0.69    1.83
  -5   5  -4    9.55    2.50
  -3   5  -4    2.12    1.62
  -1   5  -4    0.78    1.26
   1   5  -4  108.33    6.29
   3   5  -4    2.17    1.36
   5   5  -4  106.48    6.10
   7   5  -4    1.34    1.35
  13   5  -4   10.39    2.43
   4   6  -4   14.95    3.01
  -4  -6  -3   63.46    5.36
  -2  -6  -3   11.76    1.95
   0  -6  -3   93.65    6.45
   2  -6  -3    1.91    1.62
   4  -6  -3   68.04    5.54
  -9  -5  -3   48.59    5.02
  -7  -5  -3   38.61    2.96
  -5  -5  -3  191.58    6.61
  -3  -5  -3    8.19    1.43
  -1  -5  -3    4.59    1.15
   1  -5  -3    2.10    0.88
   3  -5  -3    3.49    0.87
   5  -5  -3    4.61    1.23
   7  -5  -3    1.79    1.04
   9  -5  -3  143.28    6.13
  11  -5  -3   79.73    4.43
  13  -5  -3    1.47    1.28
 -14  -4  -3   19.87    2.30
 -12  -4  -3    7.24    1.45
 -10  -4  -3   32.13    2.66
  -8  -4  -3   24.74    1.78
  -6  -4  -3    1.92    0.66
  -4  -4  -3  125.25    4.54
  -2  -4  -3   29.65    2.25
   0  -4  -3  210.30    6.42
   2  -4  -3    4.38    0.76
   4  -4  -3  165.06    4.47
   6  -4  -3   36.88    2.17
   8  -4  -3   80.40    3.80
  10  -4  -3    7.09    1.42
  12  -4  -3  116.13    5.18
  14  -4  -3   78.31    4.27
  16  -4  -3   12.77    2.06
  18  -4  -3   23.55    2.63
 -17  -3  -3   62.87    4.95
 -15  -3  -3   27.37    2.54
 -13  -3  -3    2.96    0.96
 -11  -3  -3   10.35    1.46
  -9  -3  -3   90.09    3.77
  -7  -3  -3   61.51    2.21
  -5  -3  -3  355.68    7.71
  -3  -3  -3   18.93    1.25
  -1  -3  -3   20.57    1.02
   1  -3  -3    5.33    0.59
   3  -3  -3   11.29    1.02
   5  -3  -3   12.00    1.09
   7  -3  -3    5.63    0.82
   9  -3  -3  307.89    7.24
  11  -3  -3  138.60    4.23
  13  -3  -3    1.53    0.91
  15  -3  -3   19.03    2.25
  17  -3  -3   33.16    2.99
  19  -3  -3   10.06    1.84
 -18  -2  -3    4.98    1.77
 -16  -2  -3    0.77    0.86
 -14  -2  -3   33.86    2.56
 -12  -2  -3    9.73    1.33
 -10  -2  -3   52.89    2.64
  -8  -2  -3   40.23    2.10
  -6  -2  -3    2.47    0.52
  -4  -2  -3  219.47    4.89
  -2  -2  -3   70.94    1.69
   0  -2  -3  388.33    7.94
   2  -2  -3    7.69    0.70
   4  -2  -3  306.86    6.46
   6  -2  -3   66.89    1.95
   8  -2  -3  140.05    3.49
  10  -2  -3    7.21    1.24
  12  -2  -3  195.13    6.58
  14  -2  -3  139.43    5.52
  16  -2  -3   21.81    3.50
  18  -2  -3   41.13    3.16
  20  -2  -3   39.28    4.25
  22  -2  -3    6.87    2.25
 -19  -1  -3   12.08    2.55
 -17  -1  -3   97.35    6.01
 -15  -1  -3   33.65    3.74
 -13  -1  -3    4.07    0.88
 -11  -1  -3   11.70    1.29
  -9  -1  -3  127.97    4.19
  -7  -1  -3   96.89    3.33
  -5  -1  -3  518.10   10.23
  -3  -1  -3   28.20    1.02
  -1  -1  -3   39.31    1.22
   1  -1  -3    6.42    0.55
   3  -1  -3   23.98    0.96
   5  -1  -3   18.09    0.91
   7  -1  -3    6.97    0.72
   9  -1  -3  458.70   11.00
  11  -1  -3  204.10    5.60
  13  -1  -3    1.75    0.57
  15  -1  -3   25.59    1.71
  17  -1  -3   39.19    2.91
  19  -1  -3   17.86    2.87
 -20   0  -3   36.36    4.09
 -18   0  -3    7.43    1.51
 -16   0  -3    1.89    0.88
 -14   0  -3   37.50    2.87
 -12   0  -3   11.03    1.48
 -10   0  -3   71.60    2.42
  -8   0  -3   49.21    1.85
  -6   0  -3    2.88    0.51
  -4   0  -3  282.09    6.19
  -2   0  -3   91.89    1.90
   0   0  -3  467.78    9.17
   2   0  -3   11.40    0.63
   4   0  -3  403.99    9.60
   6   0  -3   84.35    2.56
   8   0  -3  178.73    4.61
  10   0  -3   11.88    1.01
  12   0  -3  233.99    6.33
  14   0  -3  178.21    7.27
  16   0  -3   14.64    2.03
  18   0  -3   51.10    3.47
  20   0  -3   40.31    3.25
 -19   1  -3    7.62    2.42
 -17   1  -3   85.50    6.43
 -15   1  -3   38.12    3.16
 -13   1  -3    3.76    1.03
 -11   1  -3   15.34    1.72
  -9   1  -3  126.00    4.80
  -7   1  -3  103.12    4.08
  -5   1  -3  522.83   10.63
  -3   1  -3   28.51    1.07
  -1   1  -3   38.28    1.20
   1   1  -3    6.79    0.51
   3   1  -3   23.34    1.00
   5   1  -3   19.43    0.90
   7   1  -3    7.15    0.63
   9   1  -3  455.45   10.87
  11   1  -3  200.87    5.48
  13   1  -3    1.74    0.56
  15   1  -3   27.08    2.81
  17   1  -3   36.22    3.05
  19   1  -3   20.01    2.70
  21   1  -3   19.22    2.85
  23   1  -3   -0.50    1.03
 -18   2  -3    5.96    2.40
 -16   2  -3    2.36    1.99
 -14   2  -3   28.11    5.15
 -12   2  -3    8.56    1.74
 -10   2  -3   55.14    2.34
  -8   2  -3   39.55    1.90
  -6   2  -3    1.91    0.50
  -4   2  -3  213.44    4.95
  -2   2  -3   68.49    1.56
   0   2  -3  395.74    7.75
   2   2  -3    8.33    0.63
   4   2  -3  315.16    6.09
   6   2  -3   62.50    2.28
   8   2  -3  138.68    4.17
  10   2  -3   10.16    1.04
  12   2  -3  201.29    5.79
  14   2  -3  140.38    4.63
  16   2  -3   12.98    2.20
  18   2  -3   40.59    3.51
  20   2  -3   40.24    4.22
  22   2  -3    3.12    1.61
 -15   3  -3   25.69    3.14
 -13   3  -3    2.08    1.26
 -11   3  -3   12.34    1.83
  -9   3  -3   92.62    4.13
  -7   3  -3   62.54    3.01
  -5   3  -3  356.09    9.59
  -3   3  -3   17.00    1.13
  -1   3  -3   21.29    1.14
   1   3  -3    4.36    0.57
   3   3  -3   12.13    1.10
   5   3  -3   12.25    1.17
   7   3  -3    5.02    0.81
   9   3  -3  305.14    8.31
  11   3  -3  137.50    4.61
  13   3  -3    1.50    0.68
  15   3  -3   14.92    2.43
  17   3  -3   27.85    3.53
  19   3  -3   17.29    2.90
 -14   4  -3   23.40    3.65
 -12   4  -3    6.12    1.62
 -10   4  -3   37.35    4.11
  -8   4  -3   26.92    2.47
  -6   4  -3    1.48    0.82
  -4   4  -3  131.75    4.65
  -2   4  -3   39.43    2.12
   0   4  -3  196.94    9.09
   2   4  -3    3.96    1.23
   4   4  -3  171.12    5.15
   6   4  -3   35.74    2.00
   8   4  -3   85.32    3.38
  10   4  -3    5.64    1.09
  12   4  -3  120.33    4.62
  14   4  -3   86.72    3.85
  16   4  -3   11.05    2.41
  18   4  -3   26.00    3.79
 -11   5  -3    4.49    2.25
  -9   5  -3   50.17    3.81
  -7   5  -3   36.77    3.09
  -5   5  -3  184.60    9.68
  -3   5  -3    9.18    2.25
  -1   5  -3    5.52    1.75
   1   5  -3    2.87    1.47
   3   5  -3    4.59    1.59
   5   5  -3    7.33    1.94
   7   5  -3    2.81    1.51
   9   5  -3  161.47    8.28
  11   5  -3   77.33    5.34
  13   5  -3    1.62    1.07
  15   5  -3   10.30    2.56
   0   6  -3  104.58    6.93
   2   6  -3    5.60    2.11
   4   6  -3   70.89    5.55
   6   6  -3   16.27    3.27
  -6  -6  -2    5.56    2.03
  -4  -6  -2    0.07    0.95
  -2  -6  -2   65.73    5.23
   0  -6  -2    4.28    1.91
   2  -6  -2   17.40    3.14
   4  -6  -2   16.03    2.06
   6  -6  -2   86.68    4.50
   8  -6  -2    7.22    2.53
 -11  -5  -2   52.86    5.38
  -9  -5  -2   42.97    3.14
  -7  -5  -2   12.96    1.73
  -5  -5  -2    3.07    1.03
  -3  -5  -2    0.35    0.77
  -1  -5  -2  175.37    5.92
   1  -5  -2   59.60    2.40
   3  -5  -2  181.89    6.26
   5  -5  -2    3.70    1.08
   7  -5  -2    0.21    0.77
   9  -5  -2    0.92    0.94
  11  -5  -2   10.48    1.77
  13  -5  -2    3.44    1.32
  15  -5  -2   78.30    6.26
 -14  -4  -2   79.84    4.03
 -12  -4  -2   56.96    3.22
 -10  -4  -2   77.91    2.91
  -8  -4  -2   55.67    2.29
  -6  -4  -2    7.11    0.92
  -4  -4  -2    2.32    0.77
  -2  -4  -2  112.50    4.12
   0  -4  -2    6.97    0.85
   2  -4  -2   28.75    1.62
   4  -4  -2   30.04    1.80
   6  -4  -2  187.59    6.16
   8  -4  -2   13.37    1.68
  10  -4  -2    7.53    1.42
  12  -4  -2    9.82    1.61
  14  -4  -2   29.05    2.71
  16  -4  -2   68.35    3.75
  18  -4  -2   54.69    5.65
 -17  -3  -2   72.61    3.76
 -15  -3  -2  125.74    5.02
 -13  -3  -2    0.64    0.72
 -11  -3  -2   96.92    3.98
  -9  -3  -2   73.06    2.52
  -7  -3  -2   30.98    1.51
  -5  -3  -2    8.84    0.90
  -3  -3  -2    0.85    0.33
  -1  -3  -2  351.36    6.36
   1  -3  -2  122.96    2.65
   3  -3  -2  397.43    8.38
   5  -3  -2    7.96    0.88
   7  -3  -2   -0.03    0.42
   9  -3  -2   -0.11    0.44
  11  -3  -2   19.38    1.98
  13  -3  -2    4.16    1.10
  15  -3  -2  153.78    5.60
  17  -3  -2    9.63    1.60
  19  -3  -2   12.75    2.62
  21  -3  -2    2.05    1.65
 -18  -2  -2   37.81    2.92
 -16  -2  -2    4.33    1.09
 -14  -2  -2  123.91    4.61
 -12  -2  -2  101.53    3.89
 -10  -2  -2  141.72    3.65
  -8  -2  -2  105.30    2.95
  -6  -2  -2   13.89    0.99
  -4  -2  -2    3.67    0.33
  -2  -2  -2  229.80    4.18
   0  -2  -2   15.99    0.69
   2  -2  -2   51.40    1.31
   4  -2  -2   51.04    1.42
   6  -2  -2  364.23    7.26
   8  -2  -2   33.01    1.79
  10  -2  -2   14.44    1.49
  12  -2  -2   17.77    1.47
  14  -2  -2   42.98    2.71
  16  -2  -2   97.19    4.06
  18  -2  -2   88.62    5.59
  20  -2  -2  125.40    5.25
  22  -2  -2   -1.17    1.27
 -19  -1  -2    0.11    1.05
 -17  -1  -2   94.54    5.82
 -15  -1  -2  178.98    5.87
 -13  -1  -2    1.29    0.60
 -11  -1  -2  146.84    4.71
  -9  -1  -2  119.13    3.03
  -7  -1  -2   55.10    1.64
  -5  -1  -2   12.24    0.69
  -3  -1  -2    2.92    0.35
  -1  -1  -2  568.78   10.84
   1  -1  -2  220.26    4.52
   3  -1  -2  615.30   12.00
   5  -1  -2   14.83    0.69
   7  -1  -2   -0.32    0.22
   9  -1  -2    0.47    0.33
  11  -1  -2   27.42    1.47
  13  -1  -2    6.57    0.87
  15  -1  -2  197.74    6.36
  17  -1  -2   10.91    1.50
  19  -1  -2   18.52    2.63
 -20   0  -2   11.86    2.39
 -18   0  -2   38.94    3.04
 -16   0  -2    6.07    1.18
 -14   0  -2  142.50    5.19
 -12   0  -2  137.25    3.80
 -10   0  -2  168.87    4.30
  -8   0  -2  147.98    3.67
  -6   0  -2   20.52    1.03
  -4   0  -2    4.37    0.49
  -2   0  -2  320.16    6.44
   0   0  -2   22.47    0.88
   2   0  -2   60.37    1.77
   4   0  -2   65.85    1.96
   6   0  -2  489.98   15.87
   8   0  -2   43.30    2.29
  16   0  -2  112.72    6.25
  18   0  -2  109.72    6.24
 -19   1  -2   -0.50    1.34
 -17   1  -2   80.33    6.21
 -15   1  -2  185.73    6.23
 -13   1  -2    1.09    0.72
 -11   1  -2  148.29    4.16
  -9   1  -2  116.44    3.46
  -7   1  -2   52.54    1.48
  -5   1  -2   13.77    0.59
  -3   1  -2    3.00    0.26
  -1   1  -2  569.55    9.25
   1   1  -2  227.14    4.38
   3   1  -2  650.20   20.81
   5   1  -2   14.89    0.79
   7   1  -2    0.38    0.28
   9   1  -2    0.00    0.47
  11   1  -2   23.55    2.09
  13   1  -2    5.17    1.39
  15   1  -2  191.31    8.92
  17   1  -2   12.03    2.39
 -18   2  -2   33.19    4.93
 -16   2  -2    2.14    1.05
 -14   2  -2  118.33    5.65
 -12   2  -2   98.55    4.63
 -10   2  -2  133.77    3.85
  -8   2  -2  112.27    3.08
  -6   2  -2   14.64    0.94
  -4   2  -2    3.34    0.47
  -2   2  -2  231.51    4.77
   0   2  -2   16.19    0.73
   2   2  -2   51.85    1.38
   4   2  -2   47.30    1.78
   6   2  -2  358.20    9.03
   8   2  -2   31.35    2.19
  10   2  -2   12.39    1.64
  12   2  -2   18.03    2.17
  14   2  -2   45.42    3.36
  16   2  -2  103.24    5.73
  18   2  -2   91.26    5.73
 -17   3  -2   75.22    4.82
 -15   3  -2  123.82    6.21
 -13   3  -2    1.56    1.14
 -11   3  -2   96.00    4.32
  -9   3  -2   74.73    3.41
  -7   3  -2   29.37    2.14
  -5   3  -2    9.59    1.18
  -3   3  -2    0.45    0.49
  -1   3  -2  355.30    7.11
   1   3  -2  116.06    2.87
   3   3  -2  399.23   10.00
   5   3  -2    6.87    0.89
   7   3  -2    0.15    0.46
   9   3  -2    0.33    0.44
  11   3  -2   17.46    2.27
  13   3  -2    5.57    1.54
  15   3  -2  146.29    7.42
  17   3  -2    8.95    2.23
 -14   4  -2   79.84    5.86
 -12   4  -2   65.76    4.85
 -10   4  -2   84.93    4.00
  -8   4  -2   56.71    2.91
  -6   4  -2    9.76    1.36
  -4   4  -2    2.03    0.70
  -2   4  -2  117.88    4.03
   0   4  -2   10.32    1.17
   2   4  -2   28.63    3.02
   4   4  -2   30.91    1.82
   6   4  -2  186.90    5.71
   8   4  -2   17.29    1.68
  10   4  -2    8.88    1.27
  12   4  -2   10.23    1.52
  14   4  -2   28.50    2.52
  16   4  -2   67.49    3.59
  18   4  -2   55.93    4.76
 -11   5  -2   58.69    3.81
  -9   5  -2   40.32    3.19
  -7   5  -2   14.97    1.90
  -5   5  -2    3.96    1.13
  -3   5  -2   -0.24    0.80
  -1   5  -2  172.34    8.57
   1   5  -2   44.40    3.86
   3   5  -2  189.69    9.08
   5   5  -2    4.61    1.62
   7   5  -2    0.07    1.04
   9   5  -2   -0.44    0.95
  11   5  -2    8.06    2.17
  13   5  -2    0.85    0.95
  15   5  -2   85.52    4.36
  -4   6  -2   -0.37    1.36
  -2   6  -2   51.57    5.47
   0   6  -2    2.85    1.76
   2   6  -2   14.92    2.92
   4   6  -2   11.35    2.66
   6   6  -2   94.29    6.42
   8   6  -2    6.18    2.21
  -6  -6  -1  102.93    4.81
  -4  -6  -1   10.41    2.54
  -2  -6  -1    0.91    1.59
   0  -6  -1    2.16    1.69
   2  -6  -1    0.25    0.95
   4  -6  -1    0.38    0.94
   6  -6  -1   96.52    4.76
   8  -6  -1    1.16    1.21
 -11  -5  -1   58.44    3.30
  -9  -5  -1   -0.56    0.74
  -7  -5  -1   60.57    3.20
  -5  -5  -1    8.23    1.38
  -3  -5  -1  150.51    5.43
  -1  -5  -1    1.33    0.65
   1  -5  -1   -0.44    0.60
   3  -5  -1    6.43    1.24
   5  -5  -1  121.69    4.91
   7  -5  -1    3.36    1.06
   9  -5  -1   82.61    3.97
  11  -5  -1  117.51    4.27
  13  -5  -1    9.79    1.85
 -16  -4  -1    2.01    1.07
 -14  -4  -1    1.90    0.97
 -12  -4  -1   46.88    2.24
 -10  -4  -1   10.28    1.15
  -8  -4  -1  124.42    3.75
  -6  -4  -1  213.14    5.35
  -4  -4  -1   14.84    1.56
  -2  -4  -1    2.25    0.55
   0  -4  -1    2.10    0.56
   2  -4  -1    1.42    0.51
   4  -4  -1    0.70    0.57
   6  -4  -1  203.75    6.45
   8  -4  -1    1.35    0.80
  10  -4  -1  104.89    4.35
  12  -4  -1   87.00    3.99
  14  -4  -1    2.85    0.85
  16  -4  -1   14.01    2.04
  18  -4  -1   -0.29    1.24
 -19  -3  -1    1.35    1.54
 -17  -3  -1   -0.28    0.74
 -15  -3  -1    8.40    1.39
 -13  -3  -1    1.40    0.61
 -11  -3  -1   90.02    2.94
  -9  -3  -1    0.49    0.41
  -7  -3  -1  102.54    2.97
  -5  -3  -1   25.96    1.05
  -3  -3  -1  310.20    5.65
  -1  -3  -1    5.22    0.50
   1  -3  -1    0.49    0.25
   3  -3  -1   16.12    1.09
   5  -3  -1  260.43    5.72
   7  -3  -1    8.11    0.85
   9  -3  -1  152.85    5.12
  11  -3  -1  239.13    7.24
  13  -3  -1   17.48    1.81
  15  -3  -1    6.24    1.75
  17  -3  -1    1.76    0.89
  19  -3  -1   76.15    4.01
 -20  -2  -1  177.82    6.46
 -18  -2  -1   14.88    1.87
 -16  -2  -1    4.42    1.03
 -14  -2  -1    2.40    0.79
 -12  -2  -1   79.73    2.65
 -10  -2  -1   21.87    1.38
  -8  -2  -1  237.81    5.29
  -6  -2  -1  412.86    7.09
  -4  -2  -1   23.71    0.79
  -2  -2  -1    2.93    0.33
   0  -2  -1    3.63    0.34
   2  -2  -1    0.57    0.17
   4  -2  -1    0.27    0.26
   6  -2  -1  378.68    7.80
   8  -2  -1    2.55    0.53
  10  -2  -1  170.79    4.30
  12  -2  -1  153.63    5.10
  14  -2  -1    5.22    1.02
  16  -2  -1   23.38    2.92
  18  -2  -1    0.30    0.74
  20  -2  -1    1.66    1.43
  22  -2  -1   37.16    4.77
 -21  -1  -1    4.30    1.66
 -19  -1  -1    4.06    1.53
 -17  -1  -1    0.00    0.59
 -15  -1  -1   14.67    1.57
 -13  -1  -1    4.80    0.89
 -11  -1  -1  140.61    3.73
  -9  -1  -1    2.08    0.47
  -7  -1  -1  161.09    3.70
  -5  -1  -1   46.23    1.37
  -3  -1  -1  533.79   10.15
  -1  -1  -1   13.59    0.47
   1  -1  -1    0.19    0.19
   3  -1  -1   31.83    0.88
   5  -1  -1  430.13    8.15
   7  -1  -1   15.47    1.18
   9  -1  -1  246.18    6.77
  11  -1  -1  346.20   13.74
  13  -1  -1   26.89    2.97
  15  -1  -1    8.35    1.15
  17  -1  -1    4.46    0.94
  19  -1  -1   93.28    5.93
 -20   0  -1  208.24    9.60
 -18   0  -1   15.99    1.86
 -16   0  -1    3.71    1.01
 -14   0  -1    6.43    0.87
 -12   0  -1  103.88    3.11
 -10   0  -1   26.28    1.12
  -8   0  -1  325.58    5.98
  -6   0  -1  541.69   10.64
  -4   0  -1   34.77    1.04
  -2   0  -1    2.01    0.29
   0   0  -1    6.85    0.35
   2   0  -1    0.33    0.22
  16   0  -1   30.06    2.77
  18   0  -1    0.46    1.09
  20   0  -1    2.56    1.56
 -21   1  -1    7.71    2.52
 -19   1  -1    1.29    1.61
 -17   1  -1    0.04    1.28
 -15   1  -1   13.75    1.34
 -13   1  -1    1.41    0.60
 -11   1  -1  141.75    3.26
  -9   1  -1    1.90    0.39
  -7   1  -1  165.86    3.25
  -5   1  -1   46.72    1.14
  -3   1  -1  533.64   10.07
  -1   1  -1   13.85    0.53
   1   1  -1   -0.03    0.21
   3   1  -1   33.19    1.63
   5   1  -1  437.35   14.40
   7   1  -1   16.15    1.40
   9   1  -1  255.77    9.79
  11   1  -1  343.41   13.91
  13   1  -1   30.53    3.52
  15   1  -1    9.08    2.16
  17   1  -1    3.39    1.63
  19   1  -1   94.10    6.17
  21   1  -1  101.09    6.91
 -20   2  -1  170.28   10.16
 -18   2  -1   12.81    2.02
 -16   2  -1    4.93    1.39
 -14   2  -1    3.09    1.16
 -12   2  -1   77.80    3.81
 -10   2  -1   19.36    1.86
  -8   2  -1  235.77    5.20
  -6   2  -1  400.33    8.10
  -4   2  -1   23.36    0.80
  -2   2  -1    3.17    0.35
   0   2  -1    3.56    0.44
   2   2  -1    0.62    0.29
   4   2  -1    0.31    0.46
   6   2  -1  385.15   13.59
   8   2  -1    3.08    0.90
  10   2  -1  175.88    7.57
  12   2  -1  154.39    7.25
  14   2  -1    3.07    1.36
  16   2  -1   25.78    3.50
  18   2  -1   -0.09    1.30
  20   2  -1    2.78    1.71
 -19   3  -1    2.19    2.99
 -17   3  -1    0.20    1.13
 -15   3  -1   10.48    1.94
 -13   3  -1    0.96    0.96
 -11   3  -1   84.50    3.79
  -9   3  -1    0.27    0.59
  -7   3  -1  105.27    3.69
  -5   3  -1   23.92    1.71
  -3   3  -1  297.69    7.86
  -1   3  -1    5.52    0.62
   1   3  -1    0.31    0.34
   3   3  -1   14.20    1.16
   5   3  -1  274.18   10.09
   7   3  -1    6.82    1.43
   9   3  -1  151.02    7.04
  11   3  -1  238.38   10.19
  13   3  -1   20.63    2.82
  15   3  -1   10.38    2.20
  17   3  -1    5.50    1.97
  19   3  -1   71.44    5.65
 -16   4  -1    1.59    1.28
 -14   4  -1    2.85    1.15
 -12   4  -1   46.33    3.04
 -10   4  -1   16.96    1.92
  -8   4  -1  125.79    4.64
  -6   4  -1  219.67    6.57
  -4   4  -1   14.85    1.48
  -2   4  -1    0.48    0.70
   0   4  -1    3.13    1.15
   2   4  -1    0.62    0.80
   4   4  -1    0.44    0.48
   6   4  -1  208.68    6.18
   8   4  -1    0.24    0.78
  10   4  -1  101.89    5.92
  12   4  -1   89.25    5.59
  14   4  -1    3.11    1.52
  16   4  -1   17.67    3.29
  18   4  -1    0.27    1.41
 -13   5  -1    0.61    1.41
 -11   5  -1   55.81    3.89
  -9   5  -1   -0.52    0.76
  -7   5  -1   58.04    3.10
  -5   5  -1    7.06    1.27
  -3   5  -1  139.29    5.10
  -1   5  -1    2.59    1.25
   1   5  -1    0.30    0.86
   3   5  -1    8.93    1.93
   5   5  -1  123.74    6.92
   7   5  -1    2.11    1.36
   9   5  -1   82.65    5.57
  11   5  -1  112.95    7.00
  13   5  -1    9.15    1.66
  15   5  -1    3.71    1.92
  -8   6  -1   63.29    5.89
  -4   6  -1   10.95    2.59
  -2   6  -1    0.76    1.50
   0   6  -1    0.55    1.27
   2   6  -1    0.92    1.39
   4   6  -1   -0.09    1.10
   6   6  -1  100.92    6.80
  -8  -6   0    3.45    1.91
  -6  -6   0    2.76    1.90
  -4  -6   0   11.85    2.67
  -2  -6   0    2.49    1.69
   0  -6   0  330.01   14.47
   2  -6   0    1.31    1.10
   4  -6   0    6.69    1.60
   6  -6   0    3.52    1.35
   8  -6   0    4.53    1.96
 -13  -5   0   27.69    2.20
 -11  -5   0   15.98    2.01
  -9  -5   0   30.22    2.65
  -7  -5   0   44.75    3.17
  -5  -5   0  109.59    4.48
  -3  -5   0   23.09    2.12
  -1  -5   0   11.64    1.47
   1  -5   0    9.70    1.45
   3  -5   0   21.03    2.10
   5  -5   0  117.16    3.92
   7  -5   0   44.64    2.68
   9  -5   0   34.70    2.38
  11  -5   0   14.20    2.02
  13  -5   0   29.62    2.99
 -16  -4   0   49.33    3.62
 -14  -4   0  123.62    4.09
 -12  -4   0   38.01    2.33
 -10  -4   0    2.27    0.64
  -8  -4   0   13.16    1.23
  -6  -4   0    3.02    0.64
  -4  -4   0   16.15    1.22
  -2  -4   0    1.04    0.48
   0  -4   0  667.71   11.89
   2  -4   0    1.58    0.65
   4  -4   0   18.83    1.70
   6  -4   0    5.03    0.96
   8  -4   0   12.02    1.24
  10  -4   0    3.16    0.77
  12  -4   0   41.91    3.27
  14  -4   0  118.91    5.29
  16  -4   0   58.15    3.51
 -19  -3   0    5.89    1.44
 -17  -3   0  123.64    5.09
 -15  -3   0   64.68    2.70
 -13  -3   0   43.51    2.15
 -11  -3   0   19.74    1.48
  -9  -3   0   61.04    2.18
  -7  -3   0   88.57    2.21
  -5  -3   0  232.70    4.49
  -3  -3   0   55.70    1.33
  -1  -3   0   18.77    0.83
   1  -3   0   20.48    1.09
   3  -3   0   52.66    1.72
   5  -3   0  236.84    6.60
   7  -3   0   83.08    3.29
   9  -3   0   59.00    2.68
  11  -3   0   25.04    1.68
  13  -3   0   46.17    2.72
  15  -3   0   62.47    3.34
  17  -3   0  127.39    5.27
  19  -3   0    5.94    1.42
 -20  -2   0   27.88    2.55
 -18  -2   0    1.55    0.91
 -16  -2   0   77.95    3.50
 -14  -2   0  211.32    5.48
 -12  -2   0   64.30    2.34
 -10  -2   0    7.33    0.84
  -8  -2   0   25.16    0.93
  -6  -2   0    9.03    0.60
  -4  -2   0   27.43    0.87
  -2  -2   0    2.15    0.28
   0  -2   0  981.29   15.67
   2  -2   0    2.75    0.37
   4  -2   0   26.41    0.97
   6  -2   0    8.35    0.62
   8  -2   0   23.81    1.06
  10  -2   0    8.24    1.04
  12  -2   0   61.98    2.26
  14  -2   0  214.39    6.88
  16  -2   0   71.20    3.40
  18  -2   0    1.68    1.40
  20  -2   0   22.89    3.60
 -21  -1   0   30.52    3.72
 -19  -1   0    9.25    1.50
 -17  -1   0  179.39    6.03
 -15  -1   0  103.07    3.89
 -13  -1   0   67.06    2.47
 -11  -1   0   31.23    1.18
  -9  -1   0  101.82    2.30
  -7  -1   0  148.05    2.91
  -5  -1   0  422.00    7.04
  -3  -1   0  106.09    1.96
  -1  -1   0   26.99    0.65
   1  -1   0   26.36    0.77
   3  -1   0  102.78    2.22
   5  -1   0  415.73    8.07
   7  -1   0  149.14    4.19
   9  -1   0  100.13    3.24
  11  -1   0   28.38    1.60
  13  -1   0   67.73    2.27
  15  -1   0  100.69    3.84
  17  -1   0  189.55    9.36
  19  -1   0    9.53    2.30
 -20   0   0   31.84    3.63
 -18   0   0    1.81    0.85
 -16   0   0   92.43    3.11
 -14   0   0  255.41    6.12
 -12   0   0   83.21    1.81
 -10   0   0   10.96    0.60
  -8   0   0   31.55    0.83
  -6   0   0   11.63    0.47
  -4   0   0   34.17    0.71
  -2   0   0    5.11    0.22
  10   0   0   11.06    1.53
  12   0   0   83.96    2.97
  14   0   0  256.64   11.07
  18   0   0    1.58    1.43
  20   0   0   30.45    4.10
  22   0   0    3.08    2.00
 -21   1   0   27.74    4.08
 -19   1   0   12.72    2.86
 -17   1   0  177.19    6.28
 -15   1   0   98.90    3.21
 -13   1   0   67.54    1.84
 -11   1   0   33.16    1.19
  -9   1   0  102.39    2.15
  -7   1   0  147.44    2.65
  -5   1   0  411.50    7.11
  -3   1   0  102.17    2.26
  -1   1   0   26.11    0.99
   1   1   0   25.95    0.90
   3   1   0  101.47    4.02
   5   1   0  429.05   10.41
   7   1   0  150.48    4.36
   9   1   0  103.82    3.54
  11   1   0   34.56    1.96
  13   1   0   62.23    5.02
  15   1   0   93.85    6.48
  17   1   0  190.57    9.87
  19   1   0    8.52    2.45
  21   1   0   24.94    3.98
 -20   2   0   20.97    2.55
 -18   2   0    0.88    1.05
 -16   2   0   76.69    4.27
 -14   2   0  205.82    5.96
 -12   2   0   65.02    2.54
 -10   2   0    7.53    0.90
  -8   2   0   23.29    0.93
  -6   2   0    7.64    0.71
  -4   2   0   27.72    1.40
  -2   2   0    2.12    0.23
   0   2   0  935.01   23.44
   2   2   0    2.28    0.40
   4   2   0   29.13    1.95
   6   2   0    7.02    1.22
   8   2   0   20.45    2.35
  10   2   0    7.88    1.69
  12   2   0   70.54    4.73
  14   2   0  206.81   10.42
  16   2   0   60.41    6.30
  18   2   0    2.68    1.79
  20   2   0   23.89    3.97
 -19   3   0    6.36    1.87
 -17   3   0  128.53    6.06
 -15   3   0   57.91    3.72
 -13   3   0   48.43    2.40
 -11   3   0   21.90    1.63
  -9   3   0   60.57    2.27
  -7   3   0   94.92    2.80
  -5   3   0  233.57    6.91
  -3   3   0   53.75    2.34
  -1   3   0   18.00    0.84
   1   3   0   18.68    1.27
   3   3   0   52.81    2.03
   5   3   0  231.41    9.35
   7   3   0   88.46    4.77
   9   3   0   57.68    3.92
  11   3   0   25.32    3.09
  13   3   0   40.50    4.39
  15   3   0   66.65    5.32
  17   3   0  120.39    8.12
  19   3   0    4.79    2.42
 -16   4   0   49.65    4.06
 -14   4   0  119.52    6.75
 -12   4   0   41.01    3.04
 -10   4   0    3.19    0.80
  -8   4   0   15.45    1.35
  -6   4   0    4.81    1.05
  -4   4   0   16.14    1.64
  -2   4   0    0.89    0.54
   0   4   0  660.32   23.77
   2   4   0    2.18    1.04
   4   4   0   14.70    2.16
   6   4   0    5.05    1.45
   8   4   0   12.77    2.28
  10   4   0    0.27    0.93
  12   4   0   42.55    4.52
  14   4   0  119.22    7.58
  16   4   0   46.79    5.71
 -13   5   0   28.15    2.89
 -11   5   0   10.37    1.64
  -9   5   0   32.77    2.72
  -7   5   0   39.83    2.88
  -5   5   0  118.87    6.60
  -3   5   0   28.07    3.27
  -1   5   0   10.33    2.09
   1   5   0    9.96    2.08
   3   5   0   21.34    2.98
   5   5   0  109.36    6.48
   7   5   0   39.78    4.33
   9   5   0   25.28    3.58
  11   5   0   17.23    3.23
  13   5   0   24.16    3.94
  -8   6   0    4.14    1.90
  -6   6   0    2.20    1.10
  -4   6   0    9.15    1.62
  -2   6   0    1.07    1.39
   0   6   0  310.64   14.37
   2   6   0    2.33    1.51
   4   6   0    8.27    2.30
   6   6   0    2.76    1.70
  -6  -6   1  104.39    6.91
  -4  -6   1    0.30    1.31
  -2  -6   1    0.64    1.50
   0  -6   1    0.55    0.93
   2  -6   1    0.23    1.01
   4  -6   1    9.00    1.73
   6  -6   1  101.97    4.90
 -15  -5   1    5.95    2.22
 -13  -5   1    9.04    1.36
 -11  -5   1  118.33    5.05
  -9  -5   1   77.20    3.79
  -7  -5   1    2.77    1.02
  -5  -5   1  133.17    4.95
  -3  -5   1    4.30    1.05
  -1  -5   1   -0.02    0.62
   1  -5   1    2.72    0.91
   3  -5   1  158.11    5.58
   5  -5   1   10.48    1.28
   7  -5   1   60.77    2.75
   9  -5   1   -0.10    0.86
  11  -5   1   53.70    3.81
  13  -5   1    1.53    1.83
 -16  -4   1   16.11    1.72
 -14  -4   1    1.53    0.73
 -12  -4   1   86.04    3.16
 -10  -4   1  105.62    3.41
  -8  -4   1    0.37    0.46
  -6  -4   1  204.49    4.35
  -4  -4   1    0.23    0.40
  -2  -4   1    0.30    0.43
   0  -4   1    2.00    0.55
   2  -4   1    2.79    0.63
   4  -4   1   17.32    1.41
   6  -4   1  221.41    5.70
   8  -4   1  136.43    4.03
  10  -4   1   12.00    1.68
  12  -4   1   41.59    3.26
  14  -4   1    1.92    1.05
  16  -4   1    1.65    1.11
 -19  -3   1   69.79    3.81
 -17  -3   1    3.13    0.97
 -15  -3   1    5.85    1.02
 -13  -3   1   16.92    1.47
 -11  -3   1  236.30    5.83
  -9  -3   1  154.96    3.46
  -7  -3   1    7.08    0.68
  -5  -3   1  249.85    4.87
  -3  -3   1   15.01    0.71
  -1  -3   1   -0.15    0.26
   1  -3   1    5.03    0.53
   3  -3   1  308.79    6.93
   5  -3   1   23.94    1.47
   7  -3   1  102.68    3.08
   9  -3   1    0.31    0.40
  11  -3   1   95.45    3.99
  13  -3   1    1.99    0.85
  15  -3   1   11.16    1.65
  17  -3   1    0.39    0.84
  19  -3   1    1.01    1.42
 -22  -2   1   32.89    4.30
 -20  -2   1    1.58    0.99
 -18  -2   1   -0.05    0.64
 -16  -2   1   25.85    1.96
 -14  -2   1    4.44    0.82
 -12  -2   1  156.00    4.20
 -10  -2   1  177.46    3.71
  -8  -2   1    1.16    0.33
  -6  -2   1  386.63    6.75
  -4  -2   1    0.43    0.16
  -2  -2   1    0.80    0.19
   0  -2   1    3.46    0.34
   2  -2   1    3.10    0.31
   4  -2   1   23.53    1.04
   6  -2   1  405.52    8.62
   8  -2   1  236.34    5.43
  10  -2   1   22.80    1.23
  12  -2   1   80.34    3.38
  14  -2   1    3.18    0.88
  16  -2   1    3.92    1.04
  18  -2   1   13.52    2.75
 -23  -1   1   50.05    5.14
 -21  -1   1  116.78    4.80
 -19  -1   1   90.73    4.01
 -17  -1   1    4.02    0.86
 -15  -1   1   10.51    1.19
 -13  -1   1   26.08    1.31
 -11  -1   1  360.02    6.85
  -9  -1   1  250.63    4.27
  -7  -1   1   16.73    0.62
  -5  -1   1  425.93    6.52
  -3  -1   1   33.73    0.75
  -1  -1   1    0.26    0.17
   1  -1   1   12.85    0.44
   3  -1   1  529.30   10.56
   5  -1   1   51.23    1.41
   7  -1   1  158.07    3.72
   9  -1   1    3.37    0.46
  11  -1   1  137.23    4.56
  13  -1   1    3.93    0.81
  15  -1   1   18.10    2.66
  17  -1   1   -1.21    0.86
 -20   0   1    2.09    1.15
 -18   0   1    0.39    0.55
 -16   0   1   32.46    1.36
 -14   0   1    6.36    0.52
 -12   0   1  205.68    3.24
 -10   0   1  226.65    3.41
  -8   0   1    3.73    0.34
  -6   0   1  487.19    6.34
  -4   0   1    0.19    0.14
  -2   0   1    0.52    0.17
   0   0   1    6.74    0.38
   2   0   1    2.51    0.30
   4   0   1   36.77    1.25
   6   0   1  514.05   13.16
   8   0   1  323.25    8.47
  10   0   1   27.81    1.38
  12   0   1  101.14    5.43
  14   0   1    3.65    1.28
  18   0   1   20.43    3.28
  20   0   1  188.93   10.26
 -21   1   1  107.60    7.05
 -19   1   1   87.29    4.06
 -17   1   1    3.46    0.82
 -15   1   1    9.87    0.69
 -13   1   1   24.58    0.96
 -11   1   1  364.39    5.17
  -9   1   1  248.97    3.63
  -7   1   1   16.44    0.60
  -5   1   1  417.74    8.70
  -3   1   1   31.84    1.02
  -1   1   1    1.22    0.24
   1   1   1   13.33    0.69
   3   1   1  557.87   13.23
   5   1   1   50.66    1.94
   7   1   1  170.53    5.21
   9   1   1    3.41    0.81
  11   1   1  134.10    5.08
  13   1   1    3.94    1.88
  15   1   1   15.66    3.27
  17   1   1    0.66    1.31
  19   1   1    4.73    2.03
  21   1   1    5.31    2.23
 -22   2   1   34.40    4.24
 -20   2   1    3.17    1.21
 -18   2   1   -0.14    0.59
 -16   2   1   25.36    2.07
 -14   2   1    3.21    0.78
 -12   2   1  158.31    4.36
 -10   2   1  175.11    4.43
  -8   2   1    1.80    0.58
  -6   2   1  379.74   10.08
  -4   2   1    0.07    0.29
  -2   2   1    1.11    0.36
   0   2   1    3.86    0.53
   2   2   1    3.18    0.47
   4   2   1   24.80    1.09
   6   2   1  416.28   10.50
   8   2   1  232.53    9.93
  10   2   1   20.21    3.05
  12   2   1   83.60    6.01
  14   2   1    2.54    1.86
  16   2   1    6.88    2.57
  18   2   1   15.11    3.30
  20   2   1  161.11   10.07
 -19   3   1   74.18    4.65
 -17   3   1    2.36    0.92
 -15   3   1    4.80    1.02
 -13   3   1   17.65    1.55
 -11   3   1  240.43    5.99
  -9   3   1  162.22    4.20
  -7   3   1    7.69    1.09
  -5   3   1  250.87    7.33
  -3   3   1   15.76    1.36
  -1   3   1    0.40    0.41
   1   3   1    5.15    0.74
   3   3   1  314.92    8.31
   5   3   1   23.07    2.54
   7   3   1  103.35    5.50
   9   3   1    1.62    1.06
  11   3   1   95.52    5.96
  13   3   1    0.57    1.31
  15   3   1    8.82    2.97
  17   3   1   -0.38    1.80
  19   3   1    2.77    2.45
 -18   4   1    3.35    3.47
 -16   4   1   17.40    1.93
 -14   4   1    2.06    0.85
 -12   4   1   85.89    3.26
 -10   4   1  106.41    3.50
  -8   4   1    0.87    0.65
  -6   4   1  206.79    6.70
  -4   4   1   -0.30    0.48
  -2   4   1    0.09    0.46
   0   4   1    2.37    0.97
   2   4   1    1.52    0.93
   4   4   1   15.37    2.32
   6   4   1  216.65    9.73
   8   4   1  124.86    6.91
  10   4   1   12.42    2.54
  12   4   1   43.43    5.02
  14   4   1    0.78    1.78
  16   4   1    2.04    2.38
 -13   5   1    9.82    1.42
 -11   5   1  117.88    4.18
  -9   5   1   80.13    3.16
  -7   5   1    3.63    1.12
  -5   5   1  132.99    5.13
  -3   5   1    4.37    1.47
  -1   5   1   -0.24    0.87
   1   5   1    2.83    1.39
   3   5   1  152.34    7.76
   5   5   1    8.69    2.04
   7   5   1   54.37    4.49
   9   5   1   -1.27    1.11
  11   5   1   49.44    5.59
  -8   6   1    0.70    1.01
  -6   6   1   95.30    6.60
  -4   6   1    1.85    1.40
  -2   6   1    0.28    1.37
   0   6   1    1.75    1.37
   2   6   1    0.61    1.29
   4   6   1   10.12    2.52
  -6  -6   2   89.24    6.40
  -4  -6   2   14.27    2.99
  -2  -6   2   18.78    2.25
   0  -6   2    2.52    1.26
   2  -6   2   58.36    3.71
   4  -6   2    1.13    1.12
 -13  -5   2    4.75    1.34
 -11  -5   2    9.16    1.70
  -9  -5   2   -0.97    0.73
  -7  -5   2   -0.45    0.65
  -5  -5   2    2.41    0.94
  -3  -5   2  187.49    6.34
  -1  -5   2   57.67    2.99
   1  -5   2  171.09    6.06
   3  -5   2    2.09    0.93
   5  -5   2    4.71    1.00
   7  -5   2   13.76    1.92
   9  -5   2   31.78    4.17
  11  -5   2   54.00    5.61
 -18  -4   2   57.39    3.96
 -16  -4   2   60.34    3.01
 -14  -4   2   25.76    2.03
 -12  -4   2   12.00    1.33
 -10  -4   2    8.83    1.08
  -8  -4   2   15.44    1.32
  -6  -4   2  186.71    4.81
  -4  -4   2   28.34    1.69
  -2  -4   2   29.71    2.00
   0  -4   2    7.70    0.95
   2  -4   2  120.24    3.60
   4  -4   2    2.40    0.67
   6  -4   2    7.73    1.02
   8  -4   2   53.32    3.09
  10  -4   2   85.27    4.11
  12  -4   2   55.40    4.57
  14  -4   2   93.20    6.07
  16  -4   2    4.30    1.89
 -19  -3   2   11.30    1.64
 -17  -3   2   11.21    1.45
 -15  -3   2  133.00    4.36
 -13  -3   2    2.35    0.71
 -11  -3   2   19.62    1.23
  -9  -3   2    0.23    0.34
  -7  -3   2    0.21    0.34
  -5  -3   2    5.40    0.72
  -3  -3   2  399.88    7.27
  -1  -3   2  123.69    2.74
   1  -3   2  352.93    7.76
   3  -3   2    0.71    0.40
   5  -3   2   10.93    1.02
   7  -3   2   29.67    1.59
   9  -3   2   76.18    3.48
  11  -3   2   98.17    4.22
  13  -3   2    1.67    0.84
  15  -3   2  132.56    6.98
 -22  -2   2   -0.20    0.90
 -20  -2   2  131.43    5.33
 -18  -2   2   91.55    4.09
 -16  -2   2   92.47    3.52
 -14  -2   2   44.96    2.20
 -12  -2   2   17.90    1.17
 -10  -2   2   13.88    0.96
  -8  -2   2   31.51    1.18
  -6  -2   2  362.94    5.83
  -4  -2   2   47.88    1.31
  -2  -2   2   50.77    1.34
   0  -2   2   15.83    0.71
   2  -2   2  226.34    4.20
   4  -2   2    3.70    0.52
   6  -2   2   14.85    1.00
   8  -2   2  107.21    3.97
  10  -2   2  136.41    4.85
  12  -2   2  101.99    4.03
  14  -2   2  127.93    4.75
  16  -2   2    4.76    1.72
 -23  -1   2   57.85    3.39
 -21  -1   2    1.62    0.96
 -19  -1   2   19.55    1.74
 -17  -1   2   12.59    1.37
 -15  -1   2  194.91    4.50
 -13  -1   2    6.11    0.74
 -11  -1   2   26.66    1.00
  -9  -1   2    0.55    0.24
  -7  -1   2    0.06    0.18
  -5  -1   2   13.62    0.65
  -3  -1   2  644.51   10.79
  -1  -1   2  225.45    4.03
   1  -1   2  573.96   11.32
   3  -1   2    3.81    0.39
   5  -1   2   14.18    0.66
   7  -1   2   51.67    1.50
   9  -1   2  118.71    3.94
  11  -1   2  144.67    4.79
  13  -1   2    1.55    1.02
  15  -1   2  167.37    9.17
  17  -1   2  101.91    6.42
 -22   0   2   -0.18    1.06
 -20   0   2  157.59    5.60
 -18   0   2  103.17    3.36
 -16   0   2  116.77    2.27
 -14   0   2   56.18    1.38
 -12   0   2   25.96    0.91
 -10   0   2   18.48    0.71
  -8   0   2   43.53    0.96
  -6   0   2  472.44    7.56
  -4   0   2   63.74    1.63
  -2   0   2   56.88    1.74
   0   0   2   25.03    0.93
   2   0   2  300.84    7.95
   4   0   2    6.30    0.60
   6   0   2   20.02    1.04
   8   0   2  138.36    4.24
  10   0   2  173.91    8.09
  12   0   2  126.19    6.91
  14   0   2  137.79    7.46
  18   0   2   35.36    4.46
  20   0   2   11.05    2.73
 -19   1   2   20.03    1.45
 -17   1   2   14.05    0.93
 -15   1   2  201.27    3.35
 -13   1   2    6.03    0.54
 -11   1   2   26.90    0.99
  -9   1   2    0.97    0.31
  -7   1   2    0.39    0.28
  -5   1   2   14.70    0.68
  -3   1   2  641.55   12.63
  -1   1   2  221.14    4.74
   1   1   2  576.47   11.37
   3   1   2    2.38    0.53
   5   1   2   13.68    1.30
   7   1   2   56.30    2.73
   9   1   2  111.98    4.76
  11   1   2  143.33    5.61
  13   1   2   -1.06    1.15
  15   1   2  167.89    9.91
  17   1   2   92.88    6.76
  19   1   2   -0.18    1.40
 -22   2   2    0.87    1.27
 -20   2   2  127.18    5.20
 -18   2   2   87.92    3.46
 -16   2   2   98.19    3.72
 -14   2   2   45.54    1.86
 -12   2   2   18.44    1.21
 -10   2   2   15.25    1.20
  -8   2   2   31.22    1.40
  -6   2   2  361.99    7.83
  -4   2   2   45.69    1.56
  -2   2   2   48.90    1.56
   0   2   2   14.37    1.00
   2   2   2  222.91    6.22
   4   2   2    3.94    0.65
   6   2   2   15.84    1.23
   8   2   2  117.59    6.38
  10   2   2  148.54    8.43
  12   2   2   98.50    7.59
  14   2   2   87.36    7.92
  16   2   2    3.47    2.32
  18   2   2   28.14    4.76
 -19   3   2   11.38    1.80
 -17   3   2    5.22    1.14
 -15   3   2  145.30    4.59
 -13   3   2    2.70    0.73
 -11   3   2   21.43    1.52
  -9   3   2   -0.03    0.40
  -7   3   2    0.38    0.46
  -5   3   2    5.51    0.89
  -3   3   2  394.61   10.62
  -1   3   2  117.86    3.93
   1   3   2  346.97    9.46
   3   3   2    0.64    0.47
   5   3   2    7.01    1.59
   7   3   2   26.62    3.01
   9   3   2   76.91    5.19
  11   3   2  105.17    6.98
  13   3   2   -1.22    1.48
  15   3   2  102.54    9.10
  17   3   2   46.34    6.99
 -18   4   2   51.74    5.16
 -16   4   2   62.42    3.17
 -14   4   2   29.47    2.19
 -12   4   2    9.35    1.20
 -10   4   2    8.07    1.37
  -8   4   2   14.63    1.66
  -6   4   2  183.18    6.11
  -4   4   2   29.25    2.01
  -2   4   2   28.65    1.98
   0   4   2    9.09    1.78
   2   4   2  115.97    6.02
   4   4   2    0.82    0.99
   6   4   2   10.11    2.00
   8   4   2   51.69    4.18
  10   4   2   79.58    5.95
  12   4   2   59.19    6.37
  14   4   2   72.39    8.11
 -15   5   2   90.75    7.09
 -13   5   2    0.98    0.84
 -11   5   2    9.03    1.27
  -9   5   2   -0.34    0.74
  -7   5   2    1.32    0.89
  -5   5   2    2.39    0.92
  -3   5   2  189.67    8.96
  -1   5   2   49.42    4.03
   1   5   2  161.46    8.29
   3   5   2    0.72    1.09
   5   5   2    4.76    1.64
   7   5   2    8.05    2.14
   9   5   2   35.19    4.55
  11   5   2   53.17    6.15
  -8   6   2    4.90    2.03
  -6   6   2   85.20    6.04
  -4   6   2    9.76    2.50
  -2   6   2   11.63    2.68
   0   6   2    5.06    1.93
   2   6   2   58.13    5.84
   4   6   2   -0.28    1.38
  -4  -6   3   74.45    4.09
  -2  -6   3    3.22    1.29
   0  -6   3   93.42    4.64
   2  -6   3   14.53    2.98
 -13  -5   3    0.26    0.96
 -11  -5   3   76.04    4.00
  -9  -5   3  162.02    6.00
  -7  -5   3    2.56    1.07
  -5  -5   3    7.00    1.35
  -3  -5   3    3.30    1.02
  -1  -5   3    3.65    1.06
   1  -5   3    7.73    1.40
   3  -5   3    7.18    1.38
   5  -5   3  180.60    9.68
   7  -5   3   31.47    3.03
   9  -5   3   41.36    4.91
 -18  -4   3   25.76    5.05
 -16  -4   3   14.06    2.10
 -14  -4   3   80.76    4.17
 -12  -4   3  120.95    4.97
 -10  -4   3    6.53    0.98
  -8  -4   3   81.74    2.84
  -6  -4   3   34.65    1.77
  -4  -4   3  153.56    5.41
  -2  -4   3    5.51    1.02
   0  -4   3  211.85    5.47
   2  -4   3   34.42    1.84
   4  -4   3  130.03    3.96
   6  -4   3    1.31    0.77
   8  -4   3   23.83    2.44
  10  -4   3   32.36    2.88
  12  -4   3    5.91    1.47
  14  -4   3   35.82    4.29
 -21  -3   3   10.14    3.92
 -19  -3   3   11.92    1.71
 -17  -3   3   27.93    2.22
 -15  -3   3   15.51    1.61
 -13  -3   3    1.17    0.60
 -11  -3   3  140.21    4.01
  -9  -3   3  304.53    7.01
  -7  -3   3    5.68    0.80
  -5  -3   3   13.32    1.06
  -3  -3   3   12.02    0.83
  -1  -3   3    6.46    0.75
   1  -3   3   20.05    1.37
   3  -3   3   16.38    1.24
   5  -3   3  351.97   10.36
   7  -3   3   63.01    3.11
   9  -3   3   89.30    3.97
  11  -3   3   11.69    1.62
  13  -3   3    2.70    1.03
 -22  -2   3    4.07    1.31
 -20  -2   3   36.65    2.65
 -18  -2   3   39.71    2.67
 -16  -2   3   16.75    1.67
 -14  -2   3  139.75    3.65
 -12  -2   3  195.79    4.40
 -10  -2   3   10.80    1.08
  -8  -2   3  138.27    3.11
  -6  -2   3   64.55    1.75
  -4  -2   3  312.43    5.81
  -2  -2   3    7.31    0.59
   0  -2   3  386.42    6.98
   2  -2   3   66.85    2.09
   4  -2   3  221.33    5.07
   6  -2   3    2.46    0.75
   8  -2   3   41.06    2.24
  10  -2   3   59.85    2.83
  12  -2   3    8.73    1.33
  14  -2   3   31.59    3.93
  16  -2   3    1.34    1.52
  18  -2   3    4.10    1.94
 -23  -1   3    1.46    1.57
 -21  -1   3   18.60    1.81
 -19  -1   3   20.87    1.83
 -17  -1   3   39.14    1.82
 -15  -1   3   25.57    1.55
 -13  -1   3    0.86    0.46
 -11  -1   3  201.05    4.39
  -9  -1   3  444.32    8.34
  -7  -1   3    8.17    0.66
  -5  -1   3   20.10    0.86
  -3  -1   3   24.11    0.89
  -1  -1   3    6.23    0.64
   1  -1   3   38.42    1.33
   3  -1   3   29.27    1.07
   5  -1   3  519.00   13.66
   7  -1   3   98.72    3.55
   9  -1   3  128.25    4.36
  11  -1   3   14.85    2.44
  13  -1   3    1.06    1.08
  15  -1   3   36.33    4.28
  17  -1   3   96.09    6.47
 -22   0   3    8.38    2.30
 -20   0   3   36.86    2.92
 -18   0   3   46.95    1.85
 -16   0   3   19.34    1.14
 -14   0   3  169.59    3.44
 -12   0   3  226.94    4.19
 -10   0   3   11.97    0.72
  -8   0   3  175.58    3.84
  -6   0   3   76.89    2.05
  -4   0   3  394.32    8.62
  -2   0   3   10.98    0.86
   0   0   3  458.12   11.12
   2   0   3   85.06    2.89
   4   0   3  292.30    7.74
   6   0   3    3.22    0.59
   8   0   3   51.14    3.56
  10   0   3   76.10    4.73
  12   0   3   12.30    2.21
  14   0   3   43.84    3.73
  16   0   3    1.52    1.43
  18   0   3    0.41    1.36
 -21   1   3   19.66    2.99
 -19   1   3   20.53    1.73
 -17   1   3   39.97    1.79
 -15   1   3   27.60    1.33
 -13   1   3    1.88    0.45
 -11   1   3  191.57    4.78
  -9   1   3  435.65    8.58
  -7   1   3    8.52    0.65
  -5   1   3   21.03    0.82
  -3   1   3   23.11    0.91
  -1   1   3    6.74    0.58
   1   1   3   38.63    1.38
   3   1   3   29.56    1.21
   5   1   3  551.87   14.36
   7   1   3   94.92    4.19
   9   1   3  121.18    5.13
  11   1   3   13.93    1.82
  13   1   3    1.94    1.58
  15   1   3   36.04    4.80
  17   1   3   75.07    6.23
  19   1   3    6.32    2.41
 -22   2   3    3.68    1.83
 -20   2   3   35.95    2.94
 -18   2   3   42.51    2.20
 -16   2   3   15.68    1.43
 -14   2   3  140.53    3.65
 -12   2   3  190.99    5.20
 -10   2   3   10.94    1.03
  -8   2   3  142.88    3.71
  -6   2   3   62.08    2.02
  -4   2   3  309.35    6.80
  -2   2   3    8.18    0.73
   0   2   3  398.91    8.24
   2   2   3   67.29    2.60
   4   2   3  220.71    6.43
   6   2   3    2.84    0.85
   8   2   3   40.85    4.61
  10   2   3   61.78    6.69
  12   2   3    9.53    3.42
  14   2   3   25.67    4.89
  16   2   3   -0.16    1.70
  18   2   3    3.82    2.28
 -21   3   3   17.02    3.09
 -19   3   3   12.41    1.81
 -17   3   3   30.53    2.63
 -15   3   3   15.90    1.82
 -13   3   3    1.50    0.63
 -11   3   3  133.70    4.08
  -9   3   3  297.04    7.23
  -7   3   3    5.33    0.74
  -5   3   3   13.73    1.31
  -3   3   3   11.01    1.15
  -1   3   3    4.65    0.82
   1   3   3   19.00    1.54
   3   3   3   15.36    1.39
   5   3   3  355.86   14.01
   7   3   3   58.73    4.32
   9   3   3   84.46    6.07
  11   3   3    7.99    2.68
  13   3   3    3.22    2.66
  15   3   3   21.41    5.64
 -18   4   3   26.85    3.69
 -16   4   3   10.81    1.75
 -14   4   3   86.01    4.04
 -12   4   3  123.95    5.04
 -10   4   3    5.52    1.15
  -8   4   3   76.08    3.47
  -6   4   3   35.75    2.14
  -4   4   3  158.12    5.47
  -2   4   3    4.11    0.89
   0   4   3  213.87    9.18
   2   4   3   29.53    3.27
   4   4   3  133.62    6.91
   6   4   3    1.47    1.30
   8   4   3   27.30    3.74
  10   4   3   29.91    4.43
  12   4   3    6.18    2.88
  14   4   3   22.83    5.29
 -13   5   3    1.41    1.02
 -11   5   3   78.48    4.14
  -9   5   3  160.40    6.14
  -7   5   3    3.52    1.13
  -5   5   3    6.77    1.87
  -3   5   3    2.45    1.31
  -1   5   3    0.94    1.20
   1   5   3    7.67    2.05
   3   5   3    8.13    2.12
   5   5   3  186.13    9.64
   7   5   3   31.31    4.34
   9   5   3   50.48    5.74
  -8   6   3   45.54    5.04
  -6   6   3   18.03    3.21
  -4   6   3   84.84    5.84
  -2   6   3    4.25    1.98
   0   6   3  102.55    6.79
   2   6   3   13.40    2.99
  -2  -6   4   40.95    4.96
 -13  -5   4    4.72    1.54
 -11  -5   4   45.32    5.32
  -9  -5   4   15.18    2.03
  -7  -5   4    2.55    1.07
  -5  -5   4   88.40    4.28
  -3  -5   4    1.89    0.94
  -1  -5   4   91.59    4.24
   1  -5   4    2.40    1.45
   3  -5   4    2.16    1.51
   5  -5   4   11.12    1.77
   7  -5   4    0.28    1.06
 -16  -4   4   28.80    3.05
 -14  -4   4   52.38    3.58
 -12  -4   4    8.02    1.20
 -10  -4   4   10.12    1.23
  -8  -4   4    1.64    0.63
  -6  -4   4  164.22    5.91
  -4  -4   4   23.40    2.15
  -2  -4   4   88.98    3.73
   0  -4   4   59.53    2.40
   2  -4   4   58.14    3.11
   4  -4   4   11.55    1.66
   6  -4   4   60.20    3.43
   8  -4   4   34.50    3.07
  10  -4   4    2.43    1.13
  12  -4   4   91.97    6.20
 -19  -3   4   51.85    4.41
 -17  -3   4   88.54    4.92
 -15  -3   4   49.09    3.44
 -13  -3   4   16.84    1.58
 -11  -3   4   76.59    2.85
  -9  -3   4   35.23    1.82
  -7  -3   4    7.00    0.89
  -5  -3   4  171.32    3.76
  -3  -3   4    1.50    0.41
  -1  -3   4  181.30    4.62
   1  -3   4    1.57    0.53
   3  -3   4    2.80    0.82
   5  -3   4   27.26    2.32
   7  -3   4    0.07    0.59
   9  -3   4    6.03    1.26
  11  -3   4  175.64    6.46
  13  -3   4   -0.68    1.04
  15  -3   4   19.31    3.59
 -22  -2   4   49.00    6.28
 -20  -2   4   13.43    2.16
 -18  -2   4   31.86    3.10
 -16  -2   4   43.20    2.51
 -14  -2   4   75.70    3.16
 -12  -2   4   13.75    1.39
 -10  -2   4   20.46    1.53
  -8  -2   4    1.96    0.44
  -6  -2   4  296.64    5.84
  -4  -2   4   48.92    1.55
  -2  -2   4  162.20    3.40
   0  -2   4  104.79    2.94
   2  -2   4  100.93    2.88
   4  -2   4   29.07    1.83
   6  -2   4  103.30    3.98
   8  -2   4   73.54    3.26
  10  -2   4    2.55    0.84
  12  -2   4  111.32    7.29
  14  -2   4    4.31    1.80
  16  -2   4   81.26    6.46
 -23  -1   4    8.52    1.71
 -21  -1   4  106.91    4.97
 -19  -1   4   72.17    3.05
 -17  -1   4  114.64    4.92
 -15  -1   4   80.68    3.11
 -13  -1   4   18.59    1.15
 -11  -1   4  116.77    3.02
  -9  -1   4   55.03    1.83
  -7  -1   4    9.86    0.80
  -5  -1   4  236.36    4.94
  -3  -1   4    2.23    0.57
  -1  -1   4  278.78    6.37
   1  -1   4    3.58    0.62
   3  -1   4    4.32    0.78
   5  -1   4   49.61    2.29
   7  -1   4    0.68    0.51
   9  -1   4    5.36    1.65
  11  -1   4  195.46   10.33
  13  -1   4    0.32    1.06
  15  -1   4   32.67    4.14
  17  -1   4    9.30    2.52
 -22   0   4   60.48    3.66
 -20   0   4   16.55    1.64
 -18   0   4   40.04    2.29
 -16   0   4   47.66    1.91
 -14   0   4   92.38    2.73
 -12   0   4   19.77    0.92
 -10   0   4   29.40    1.34
  -8   0   4    2.62    0.60
  -6   0   4  351.05    8.01
  -4   0   4   60.35    2.12
  -2   0   4  193.87    5.53
   0   0   4  117.55    3.01
   2   0   4  129.43    5.61
   4   0   4   38.79    1.89
   6   0   4  129.58    6.72
   8   0   4   83.45    5.10
  10   0   4    2.01    1.22
  12   0   4  168.86    8.64
  14   0   4    5.70    1.35
  16   0   4   95.74    6.71
 -21   1   4  113.21    4.86
 -19   1   4   75.53    3.07
 -17   1   4  114.11    3.88
 -15   1   4   85.11    2.52
 -13   1   4   18.36    1.21
 -11   1   4  112.39    3.76
  -9   1   4   51.99    2.29
  -7   1   4   11.53    0.71
  -5   1   4  245.43    4.77
  -3   1   4    1.79    0.36
  -1   1   4  268.13    6.10
   1   1   4    3.58    0.63
   3   1   4    3.02    0.68
   5   1   4   45.97    2.73
   7   1   4   -0.12    0.61
   9   1   4    8.24    1.47
  11   1   4  190.79   10.76
  13   1   4   -0.18    1.33
  15   1   4   27.81    4.26
  17   1   4    9.76    2.66
 -22   2   4   58.91    3.58
 -20   2   4   15.52    2.08
 -18   2   4   35.65    2.24
 -16   2   4   43.63    2.06
 -14   2   4   84.42    2.84
 -12   2   4   13.13    1.58
 -10   2   4   23.26    1.95
  -8   2   4    1.91    0.50
  -6   2   4  298.87    6.75
  -4   2   4   48.05    1.74
  -2   2   4  155.18    3.95
   0   2   4  101.23    2.83
   2   2   4  100.43    3.67
   4   2   4   28.11    1.92
   6   2   4   98.71    4.14
   8   2   4   62.70    5.21
  10   2   4    2.26    1.89
  12   2   4  102.31    8.22
  14   2   4    5.57    2.51
  16   2   4   86.87    7.22
 -21   3   4   91.64    5.90
 -19   3   4   59.58    3.46
 -17   3   4   85.67    3.98
 -15   3   4   59.90    2.56
 -13   3   4   11.34    1.66
 -11   3   4   77.64    3.76
  -9   3   4   35.93    1.88
  -7   3   4    6.71    0.85
  -5   3   4  163.97    4.41
  -3   3   4    1.95    0.55
  -1   3   4  171.78    5.52
   1   3   4    1.32    0.62
   3   3   4    2.95    1.16
   5   3   4   26.07    3.14
   7   3   4    0.41    1.13
   9   3   4    4.56    2.01
  11   3   4  147.42   10.28
  13   3   4   -1.32    1.85
  15   3   4   14.05    4.16
 -16   4   4   29.69    2.76
 -14   4   4   58.48    5.04
 -12   4   4   10.70    2.43
 -10   4   4    9.87    2.26
  -8   4   4    1.46    0.76
  -6   4   4  170.87    5.85
  -4   4   4   26.45    1.91
  -2   4   4   89.32    3.67
   0   4   4   63.49    4.06
   2   4   4   56.13    4.08
   4   4   4   15.52    2.59
   6   4   4   61.51    4.74
   8   4   4   37.03    4.65
  10   4   4    3.69    2.12
  12   4   4   80.33    8.92
 -13   5   4    6.61    2.37
 -11   5   4   42.24    5.21
  -9   5   4   15.61    3.09
  -7   5   4    2.95    1.11
  -5   5   4   98.74    5.77
  -3   5   4    0.25    1.05
  -1   5   4   98.09    5.90
   1   5   4    0.43    1.11
   3   5   4    0.99    1.43
   5   5   4    7.52    2.37
   7   5   4    0.80    1.67
  -4   6   4   13.93    2.94
  -2   6   4   47.18    5.09
 -11  -5   5   59.69    3.91
  -9  -5   5    2.62    1.27
  -7  -5   5   64.63    4.01
  -5  -5   5   38.47    3.25
  -3  -5   5    1.91    1.10
  -1  -5   5   71.65    5.63
   1  -5   5  123.61    7.74
   3  -5   5   11.12    2.62
   5  -5   5   33.93    4.39
 -16  -4   5   12.15    2.21
 -14  -4   5   37.81    3.33
 -12  -4   5   24.85    2.02
 -10  -4   5  127.17    4.22
  -8  -4   5   29.93    2.70
  -6  -4   5   11.29    1.60
  -4  -4   5    0.81    0.77
  -2  -4   5    0.01    0.65
   0  -4   5   15.19    1.84
   2  -4   5   44.18    3.02
   4  -4   5    8.03    1.44
   6  -4   5  199.08    7.30
   8  -4   5   42.62    3.44
  10  -4   5   16.47    2.22
 -19  -3   5   10.71    2.19
 -17  -3   5    2.39    1.21
 -15  -3   5  100.44    3.87
 -13  -3   5    2.08    0.72
 -11  -3   5  110.37    3.70
  -9  -3   5    6.23    0.98
  -7  -3   5  126.30    3.78
  -5  -3   5   78.07    2.31
  -3  -3   5    2.29    0.65
  -1  -3   5  133.68    4.01
   1  -3   5  208.06    7.10
   3  -3   5   18.33    1.95
   5  -3   5   61.17    3.20
   7  -3   5   50.67    2.96
   9  -3   5    4.69    1.22
  11  -3   5    2.69    1.61
  13  -3   5   31.65    4.41
 -20  -2   5    4.92    1.54
 -18  -2   5   19.43    2.08
 -16  -2   5   14.39    1.62
 -14  -2   5   55.21    2.70
 -12  -2   5   39.05    2.16
 -10  -2   5  205.61    5.62
  -8  -2   5   45.32    1.69
  -6  -2   5   19.66    1.16
  -4  -2   5    2.88    0.67
  -2  -2   5    0.64    0.51
   0  -2   5   26.36    1.66
   2  -2   5   84.02    3.44
   4  -2   5   12.84    1.53
   6  -2   5  292.59    9.03
   8  -2   5   65.39    3.20
  10  -2   5   24.52    3.64
  12  -2   5   12.07    2.74
  14  -2   5   52.60    4.96
 -21  -1   5    3.59    1.39
 -19  -1   5   17.48    1.70
 -17  -1   5    4.44    0.97
 -15  -1   5  130.19    4.31
 -13  -1   5    2.24    0.57
 -11  -1   5  152.01    3.78
  -9  -1   5    8.70    0.87
  -7  -1   5  185.64    5.08
  -5  -1   5  116.43    3.61
  -3  -1   5    6.21    0.90
  -1  -1   5  203.07    6.39
   1  -1   5  277.08    8.64
   3  -1   5   26.24    1.87
   5  -1   5   92.07    3.69
   7  -1   5   61.35    4.64
   9  -1   5   10.79    2.33
  11  -1   5    5.42    1.89
  13  -1   5   34.69    4.47
  15  -1   5   52.38    4.87
 -22   0   5   31.89    2.90
 -20   0   5    4.74    1.34
 -18   0   5   27.55    2.58
 -16   0   5   17.23    1.55
 -14   0   5   61.67    2.53
 -12   0   5   48.87    2.20
 -10   0   5  237.72    6.17
  -8   0   5   58.32    2.34
  -6   0   5   22.75    1.58
  -4   0   5    2.74    0.63
  -2   0   5    1.66    0.42
   0   0   5   30.69    1.39
   2   0   5   92.86    4.58
   4   0   5   17.26    1.57
   6   0   5  339.49   15.17
   8   0   5   79.33    5.43
  10   0   5   35.07    4.08
  12   0   5   14.17    1.97
  14   0   5   61.16    5.15
  16   0   5    1.94    1.63
 -23   1   5    5.56    2.05
 -21   1   5    2.06    1.16
 -19   1   5   16.31    1.68
 -17   1   5    4.19    0.96
 -15   1   5  139.85    4.45
 -13   1   5    4.06    0.91
 -11   1   5  154.24    4.64
  -9   1   5    8.92    1.12
  -7   1   5  183.67    5.06
  -5   1   5  108.37    4.31
  -3   1   5    5.57    0.63
  -1   1   5  203.62    5.08
   1   1   5  303.64    7.14
   3   1   5   26.84    2.15
   5   1   5   94.34    5.72
   7   1   5   60.03    3.31
   9   1   5    7.56    1.52
  11   1   5    3.54    1.91
  13   1   5   29.51    4.30
  15   1   5   41.90    5.27
 -22   2   5   32.77    4.53
 -20   2   5    4.84    1.37
 -18   2   5   18.22    2.18
 -16   2   5   17.90    1.54
 -14   2   5   59.14    3.17
 -12   2   5   38.27    2.62
 -10   2   5  214.15    7.10
  -8   2   5   47.28    2.66
  -6   2   5   16.26    1.82
  -4   2   5    2.31    0.53
  -2   2   5    1.33    0.49
   0   2   5   25.22    1.69
   2   2   5   75.02    3.19
   4   2   5   14.36    1.65
   6   2   5  304.04    9.33
   8   2   5   64.76    5.28
  10   2   5   22.54    3.87
  12   2   5   17.75    3.71
  14   2   5   42.98    5.69
 -19   3   5   14.15    1.61
 -17   3   5    2.79    0.87
 -15   3   5  106.47    4.90
 -13   3   5    1.21    0.91
 -11   3   5  104.01    4.77
  -9   3   5    6.30    1.34
  -7   3   5  122.57    5.11
  -5   3   5   80.16    3.72
  -3   3   5    2.05    0.61
  -1   3   5  142.04    4.83
   1   3   5  227.78    6.92
   3   3   5   23.99    2.91
   5   3   5   70.63    4.69
   7   3   5   43.46    4.81
   9   3   5    3.79    2.11
  11   3   5    2.70    2.35
  13   3   5   15.77    3.99
 -16   4   5   14.23    1.94
 -14   4   5   30.14    4.27
 -12   4   5   20.34    3.38
 -10   4   5  128.27    7.90
  -8   4   5   32.84    4.05
  -6   4   5    5.59    1.72
  -4   4   5    0.71    0.66
  -2   4   5    0.15    0.63
   0   4   5   14.58    2.35
   2   4   5   46.67    3.85
   4   4   5   10.06    2.38
   6   4   5  191.13   10.03
   8   4   5   39.58    5.11
  10   4   5   11.63    3.52
 -11   5   5   63.61    5.70
  -9   5   5    1.23    1.63
  -7   5   5   68.70    5.63
  -1   5   5   79.82    5.33
   1   5   5  128.59    7.42
   3   5   5   16.30    3.02
   5   5   5   33.58    4.62
  -9  -5   6   22.12    2.68
  -7  -5   6   51.23    4.06
  -5  -5   6   70.51    4.08
  -3  -5   6    6.24    2.24
  -1  -5   6    6.93    2.28
 -16  -4   6   56.10    5.57
 -14  -4   6    4.41    1.16
 -12  -4   6   28.44    2.29
 -10  -4   6   16.33    2.21
  -8  -4   6   14.37    2.02
  -6  -4   6   38.57    3.16
  -4  -4   6  219.33    7.64
  -2  -4   6   15.78    2.81
   0  -4   6   13.10    1.83
   2  -4   6   20.72    2.36
   4  -4   6    3.78    1.25
   6  -4   6    0.51    0.98
   8  -4   6   15.74    2.94
 -17  -3   6    0.86    0.95
 -15  -3   6   21.65    2.06
 -13  -3   6   84.55    3.59
 -11  -3   6   12.24    1.45
  -9  -3   6   42.80    2.26
  -7  -3   6   79.34    2.98
  -5  -3   6  119.50    3.87
  -3  -3   6   11.17    1.28
  -1  -3   6   10.67    1.57
   1  -3   6  152.96    5.90
   3  -3   6    0.71    0.72
   5  -3   6   25.35    2.48
   7  -3   6    1.61    0.96
   9  -3   6   80.24    6.59
 -20  -2   6  127.77    7.94
 -18  -2   6   63.44    3.15
 -16  -2   6   81.96    3.98
 -14  -2   6    7.94    1.26
 -12  -2   6   48.40    2.52
 -10  -2   6   23.26    1.85
  -8  -2   6   21.55    1.71
  -6  -2   6   62.47    2.64
  -4  -2   6  326.66    8.25
  -2  -2   6   35.31    2.26
   0  -2   6   24.13    2.18
   2  -2   6   43.03    2.55
   4  -2   6    6.27    1.23
   6  -2   6    1.32    0.87
   8  -2   6   23.75    3.68
  10  -2   6   49.63    4.74
  12  -2   6   38.34    4.92
 -21  -1   6   78.57    4.27
 -19  -1   6   15.22    2.14
 -17  -1   6   -0.05    0.60
 -15  -1   6   24.56    2.00
 -13  -1   6  112.65    3.79
 -11  -1   6   18.78    1.57
  -9  -1   6   59.99    2.62
  -7  -1   6  106.43    3.58
  -5  -1   6  160.55    4.65
  -3  -1   6   10.87    1.14
  -1  -1   6   21.09    1.85
   1  -1   6  229.25    7.30
   3  -1   6    0.75    0.63
   5  -1   6   37.94    4.33
   7  -1   6    3.65    1.55
   9  -1   6  108.77    7.39
  11  -1   6    3.77    1.79
  13  -1   6  103.69    7.27
 -22   0   6    0.73    1.15
 -20   0   6  142.29    5.95
 -18   0   6   65.09    3.65
 -16   0   6  100.13    3.58
 -14   0   6   10.63    1.23
 -12   0   6   57.45    2.43
 -10   0   6   28.13    1.79
  -8   0   6   21.07    1.63
  -6   0   6   67.31    2.50
  -4   0   6  364.22    8.26
  -2   0   6   46.97    1.92
   0   0   6   25.36    1.48
   2   0   6   48.22    2.00
   4   0   6    6.50    1.84
   6   0   6   -0.43    0.89
   8   0   6   28.64    2.67
  10   0   6   57.86    3.65
  12   0   6   44.50    3.63
  14   0   6    5.65    2.18
 -21   1   6   85.47    4.40
 -19   1   6   14.21    1.62
 -17   1   6    0.73    0.72
 -15   1   6   26.44    2.08
 -13   1   6  112.32    3.95
 -11   1   6   20.84    1.74
  -9   1   6   61.66    2.63
  -7   1   6  110.75    3.61
  -5   1   6  147.87    5.70
  -3   1   6   12.68    1.59
  -1   1   6   19.58    2.08
   1   1   6  233.95    6.99
   3   1   6    1.15    0.72
   5   1   6   41.53    2.76
   7   1   6    0.32    0.79
   9   1   6  133.10    7.76
  11   1   6    6.02    2.22
  13   1   6   96.94    6.88
 -20   2   6  145.57    6.08
 -18   2   6   55.80    3.66
 -16   2   6   86.94    4.25
 -14   2   6    9.71    1.55
 -12   2   6   43.77    3.05
 -10   2   6   23.12    2.27
  -8   2   6   20.53    2.21
  -6   2   6   60.81    3.39
  -4   2   6  329.59   10.64
  -2   2   6   36.61    2.65
   0   2   6   23.76    1.74
   2   2   6   42.03    2.43
   4   2   6    9.18    1.42
   6   2   6    1.25    0.94
   8   2   6   24.49    3.71
  10   2   6   48.68    5.64
  12   2   6   43.17    5.53
 -17   3   6    0.05    0.69
 -15   3   6   19.37    2.43
 -13   3   6   80.42    4.35
 -11   3   6   18.61    2.30
  -9   3   6   46.68    3.30
  -7   3   6   80.03    4.22
  -5   3   6  118.91    5.01
  -3   3   6    8.58    2.07
  -1   3   6   13.14    2.58
   1   3   6  165.89    5.76
   3   3   6   -0.01    0.93
   5   3   6   26.98    3.56
   7   3   6    2.54    1.60
   9   3   6   99.40    7.05
  11   3   6    3.20    2.25
 -14   4   6    4.35    1.94
 -12   4   6   31.72    4.33
 -10   4   6   18.58    3.27
  -8   4   6   13.97    2.77
  -6   4   6   31.50    4.17
  -4   4   6  215.45   11.41
   2   4   6   23.67    3.31
   4   4   6    5.33    2.03
   6   4   6    2.78    1.73
   8   4   6   20.54    3.88
  -9   5   6   23.61    4.08
 -14  -4   7   37.48    4.66
 -12  -4   7    8.83    2.01
 -10  -4   7  121.89    5.97
  -8  -4   7   23.89    2.90
  -6  -4   7    3.39    1.71
  -4  -4   7    3.19    1.72
  -2  -4   7   10.57    2.61
   0  -4   7   78.91    4.22
   2  -4   7   78.35    4.25
   4  -4   7   65.95    3.99
 -17  -3   7   67.54    3.90
 -15  -3   7   43.62    3.31
 -13  -3   7   91.08    3.88
 -11  -3   7    2.28    1.41
  -9  -3   7   21.06    2.65
  -7  -3   7   13.57    2.16
  -5  -3   7    0.52    0.72
  -3  -3   7    0.58    0.80
  -1  -3   7   47.26    3.16
   1  -3   7    8.68    1.54
   3  -3   7   49.94    3.24
   5  -3   7    0.50    0.93
   7  -3   7  116.02    8.16
 -18  -2   7    5.58    1.18
 -16  -2   7   10.87    1.55
 -14  -2   7   54.82    3.93
 -12  -2   7   12.71    2.58
 -10  -2   7  183.04    6.40
  -8  -2   7   37.54    2.29
  -6  -2   7    2.16    0.76
  -4  -2   7    2.50    0.91
  -2  -2   7   20.85    2.11
   0  -2   7   99.71    4.49
   2  -2   7  122.53    5.04
   4  -2   7   92.19    4.31
   6  -2   7    2.84    1.70
   8  -2   7    3.89    1.88
  10  -2   7   -0.08    1.51
 -21  -1   7   -0.03    1.50
 -19  -1   7    0.85    1.13
 -17  -1   7   88.68    6.78
 -15  -1   7   53.51    3.61
 -13  -1   7  116.92    3.96
 -11  -1   7    5.23    0.98
  -9  -1   7   22.37    1.78
  -7  -1   7   15.73    1.48
  -5  -1   7    0.37    0.58
  -3  -1   7    0.29    0.63
  -1  -1   7   64.56    3.24
   1  -1   7   10.18    1.49
   3  -1   7   67.29    5.34
   5  -1   7    1.74    1.36
   7  -1   7  167.64    9.64
   9  -1   7    0.82    1.38
  11  -1   7   27.47    4.30
 -20   0   7   18.09    2.37
 -18   0   7    9.22    1.79
 -16   0   7   13.05    1.46
 -14   0   7   69.43    2.94
 -12   0   7   16.27    1.56
 -10   0   7  207.86    5.87
  -8   0   7   48.35    2.25
  -6   0   7    2.55    0.71
  -4   0   7    3.69    0.79
  -2   0   7   25.34    2.26
   0   0   7  118.69    4.77
   4   0   7  111.67    7.08
   6   0   7    3.81    1.19
   8   0   7    0.77    1.02
  10   0   7    1.88    1.18
  12   0   7    1.57    1.27
 -19   1   7    0.91    0.82
 -17   1   7   80.74    3.46
 -15   1   7   59.31    2.93
 -13   1   7  112.32    4.04
 -11   1   7    9.07    1.23
  -9   1   7   23.38    1.87
  -7   1   7   14.59    1.85
  -5   1   7    0.13    0.73
  -3   1   7    0.20    0.68
  -1   1   7   76.45    5.16
   1   1   7   10.74    2.31
   3   1   7   68.51    5.27
   5   1   7   -0.61    0.74
   7   1   7  159.24    6.34
   9   1   7    0.08    1.06
  11   1   7   24.59    3.95
 -18   2   7    7.14    1.61
 -16   2   7   13.24    1.94
 -14   2   7   65.72    3.66
 -12   2   7   12.84    1.94
 -10   2   7  191.67    7.16
  -8   2   7   39.77    3.35
  -6   2   7    3.48    1.23
  -4   2   7    3.51    1.27
  -2   2   7   24.55    3.41
   0   2   7  103.20    6.69
   2   2   7  112.58    7.32
   4   2   7   87.95    6.27
   6   2   7    2.83    1.60
   8   2   7    6.54    2.24
  10   2   7   -0.28    1.71
 -17   3   7   76.78    4.41
 -15   3   7   44.80    3.83
 -13   3   7   87.73    4.79
 -11   3   7    6.80    1.56
  -9   3   7   18.98    2.56
  -7   3   7    9.41    1.85
  -5   3   7    0.79    1.08
  -3   3   7   -0.63    1.12
  -1   3   7   50.20    4.67
   1   3   7    8.95    2.50
   9   3   7    1.04    1.93
 -12   4   7   10.74    2.34
 -10   4   7  126.30    6.35
  -8   4   7   20.67    3.62
  -6   4   7    1.58    1.44
  -4   4   7    1.44    1.73
 -10  -4   8   75.00    9.87
  -6  -4   8   19.80    3.57
  -4  -4   8   29.27    4.30
   0  -4   8   12.56    3.13
 -15  -3   8    1.45    1.34
 -13  -3   8    0.78    1.42
 -11  -3   8   24.73    3.79
  -9  -3   8   -0.46    0.99
  -7  -3   8   59.84    4.99
  -5  -3   8  171.47    6.56
  -3  -3   8   62.95    3.60
  -1  -3   8    4.03    1.30
   1  -3   8    1.45    1.08
   3  -3   8   13.55    2.09
 -16  -2   8    6.53    1.84
 -14  -2   8   10.72    1.92
 -12  -2   8    4.05    1.49
 -10  -2   8  114.55    5.48
  -8  -2   8   23.59    2.02
  -6  -2   8   34.02    2.79
  -4  -2   8   49.14    2.98
  -2  -2   8   53.41    3.36
   0  -2   8   27.88    2.61
   2  -2   8   17.21    2.16
   4  -2   8   22.70    3.83
   6  -2   8   70.08    6.31
 -17  -1   8    1.26    1.17
 -15  -1   8   -0.18    0.93
 -13  -1   8    1.46    0.81
 -11  -1   8   36.93    2.33
  -9  -1   8    0.69    0.66
  -7  -1   8   75.44    3.05
  -5  -1   8  202.74    7.30
  -3  -1   8   80.14    3.87
  -1  -1   8    5.76    1.34
   1  -1   8   -0.10    1.12
   3  -1   8   16.62    3.12
   5  -1   8   47.31    5.37
   7  -1   8   10.54    2.86
 -18   0   8    4.46    1.54
 -16   0   8    7.92    1.32
 -14   0   8   11.42    1.43
 -12   0   8    3.24    0.87
 -10   0   8  127.81    4.26
  -8   0   8   28.85    2.04
  -6   0   8   38.36    2.71
  -4   0   8   58.06    3.19
  -2   0   8   52.63    3.05
   0   0   8   39.43    4.47
   2   0   8   19.58    3.38
   4   0   8   18.24    3.27
   6   0   8   85.75    6.47
   8   0   8   -0.31    1.47
 -19   1   8  160.67    8.82
 -17   1   8    1.30    0.86
 -15   1   8    1.06    0.78
 -13   1   8    1.07    0.78
 -11   1   8   43.86    3.90
  -9   1   8    0.49    0.79
  -7   1   8   74.62    3.95
  -5   1   8  211.38    7.62
  -3   1   8   79.26    5.73
  -1   1   8    5.75    1.80
   1   1   8   -0.14    1.11
   3   1   8   19.80    3.34
   5   1   8   35.79    4.76
   7   1   8   15.16    3.23
 -16   2   8    3.36    1.28
 -14   2   8   10.69    1.93
 -12   2   8    5.50    1.43
 -10   2   8  109.06    5.32
  -8   2   8   24.90    2.85
  -6   2   8   27.70    3.05
  -4   2   8   35.47    4.43
  -2   2   8   62.57    5.10
   0   2   8   21.58    3.56
   2   2   8   15.69    3.21
   4   2   8   14.40    3.18
 -15   3   8   -0.38    2.04
 -13   3   8    0.18    1.17
 -11   3   8   32.03    3.51
  -9   3   8   -0.78    1.17
  -7   3   8   64.15    5.29
  -5   3   8  167.63    9.74
  -3   3   8   67.87    5.82
  -1   3   8    3.95    1.99
  -8   4   8   24.08    4.08
  -6   4   8   23.48    4.25
  -4   4   8   46.22    5.88
  -9  -3   9   13.01    2.94
  -7  -3   9    9.39    2.55
  -5  -3   9   26.46    2.77
  -3  -3   9    5.64    1.59
  -1  -3   9   13.38    2.12
 -14  -2   9    1.99    1.36
 -12  -2   9    2.46    1.25
 -10  -2   9   11.20    2.65
  -8  -2   9   21.76    2.35
  -6  -2   9    1.16    0.88
  -4  -2   9   22.17    2.47
  -2  -2   9   46.02    3.71
   0  -2   9   48.89    3.43
   2  -2   9    0.63    1.60
 -15  -1   9   38.65    4.95
 -13  -1   9  107.69    4.86
 -11  -1   9   70.64    3.25
  -9  -1   9   23.82    2.50
  -7  -1   9    6.72    1.39
  -5  -1   9   24.42    2.52
  -3  -1   9    5.40    1.39
  -1  -1   9   17.37    3.31
   1  -1   9  173.23   10.44
   3  -1   9    1.01    1.36
 -16   0   9  199.41    7.49
 -14   0   9   -0.02    0.69
 -12   0   9    1.69    0.87
 -10   0   9   14.34    1.62
  -8   0   9   25.20    2.59
  -6   0   9    2.26    1.09
  -4   0   9   24.74    2.51
  -2   0   9   62.08    5.32
   0   0   9   57.26    5.18
   2   0   9   -0.05    1.29
   4   0   9   48.50    5.74
 -17   1   9   -0.10    1.34
 -15   1   9   39.58    3.42
 -13   1   9  109.68    6.95
 -11   1   9   66.26    5.47
  -9   1   9   20.57    3.38
  -7   1   9    5.50    1.39
  -5   1   9   22.51    3.66
  -3   1   9    5.29    2.02
  -1   1   9   19.10    3.41
   1   1   9  178.42   10.14
   3   1   9   -0.18    1.44
   5   1   9   24.24    3.92
 -14   2   9    0.72    1.14
 -12   2   9    2.95    1.36
 -10   2   9   13.00    2.18
  -8   2   9   21.39    3.60
  -6   2   9    0.98    1.34
  -4   2   9   18.99    3.49
  -2   2   9   54.93    5.22
   0   2   9   39.54    5.24
   2   2   9    0.56    1.67
  -9   3   9   18.80    3.47
  -7   3   9    5.32    2.23
  -5   3   9   19.36    3.73
  -3   3   9    3.63    2.17
  -1   3   9    9.48    2.94
  -8  -2  10   88.32    6.43
  -6  -2  10    5.86    1.55
  -4  -2  10   35.63    4.73
 -13  -1  10   19.20    3.21
 -11  -1  10    5.61    1.53
  -9  -1  10   44.18    5.04
  -7  -1  10   11.53    1.83
  -5  -1  10   62.76    3.74
  -3  -1  10    0.73    1.42
 -14   0  10    1.99    1.21
 -12   0  10    1.47    1.11
 -10   0  10   90.25    6.38
  -8   0  10   79.36    6.26
  -6   0  10    7.86    2.40
  -4   0  10   49.64    5.57
  -2   0  10   19.25    3.43
 -11   1  10    5.15    1.59
  -9   1  10   42.70    5.08
  -7   1  10   10.20    2.67
  -5   1  10   66.62    5.84
  -3   1  10    1.50    1.73
   0   0   0    0.00    0.00
;
_shelx_hkl_checksum              96024
#END Tags that were not found in dictionaries
loop_
_space_group_symop_operation_xyz
'x, y, z'
'-x, y, -z'
'x+1/2, y+1/2, z'
'-x+1/2, y+1/2, -z'
'-x, -y, -z'
'x, -y, z'
'-x+1/2, -y+1/2, -z'
'x+1/2, -y+1/2, z'
loop_
_atom_site_label
_atom_site_type_symbol
_atom_site_fract_x
_atom_site_fract_y
_atom_site_fract_z
_atom_site_U_iso_or_equiv
_atom_site_adp_type
_atom_site_occupancy
_atom_site_site_symmetry_order
_atom_site_calc_flag
_atom_site_refinement_flags_posn
_atom_site_refinement_flags_adp
_atom_site_refinement_flags_occupancy
Ho1 Ho 0.34818(2) 0.0000 0.06760(5) 0.00653(10) Uani 1 2 d S T P
Ho2 Ho 0.58723(2) 0.0000 0.38370(5) 0.00611(10) Uani 1 2 d S T P
Ru Ru 0.22041(4) 0.0000 0.63283(9) 0.00762(14) Uani 1 2 d S T P
In In 0.0000 0.0000 0.0000 0.0080(2) Uani 0.962(4) 4 d S T .
Ge1 Ge 0.06444(5) 0.0000 0.66003(13) 0.00689(17) Uani 1 2 d S T P
Ge2 Ge 0.20063(6) 0.0000 0.26062(13) 0.00796(17) Uani 1 2 d S T P
loop_
_atom_site_aniso_label
_atom_site_aniso_U_11
_atom_site_aniso_U_22
_atom_site_aniso_U_33
_atom_site_aniso_U_23
_atom_site_aniso_U_13
_atom_site_aniso_U_12
Ho1 0.00650(17) 0.00549(16) 0.00681(17) 0.000 0.00068(12) 0.000
Ho2 0.00569(17) 0.00485(16) 0.00840(18) 0.000 0.00298(13) 0.000
Ru 0.0074(3) 0.0066(3) 0.0089(3) 0.000 0.0024(2) 0.000
In 0.0062(4) 0.0104(4) 0.0076(4) 0.000 0.0024(3) 0.000
Ge1 0.0058(4) 0.0049(3) 0.0088(4) 0.000 0.0002(3) 0.000
Ge2 0.0121(4) 0.0043(3) 0.0077(4) 0.000 0.0033(3) 0.000
loop_
_atom_type_symbol
_atom_type_description
_atom_type_scat_dispersion_real
_atom_type_scat_dispersion_imag
_atom_type_scat_source
Ge Ge 0.1547 1.8001 'International Tables Vol C Tables 4.2.6.8 and 6.1.1.4'
Ru Ru -1.2594 0.8363 'International Tables Vol C Tables 4.2.6.8 and 6.1.1.4'
In In -0.7276 1.3100 'International Tables Vol C Tables 4.2.6.8 and 6.1.1.4'
Ho Ho -0.2175 4.6783 'International Tables Vol C Tables 4.2.6.8 and 6.1.1.4'
loop_
_geom_angle_atom_site_label_1
_geom_angle_atom_site_label_2
_geom_angle_atom_site_label_3
_geom_angle
_geom_angle_site_symmetry_1
_geom_angle_site_symmetry_3
Ge1 Ho1 Ge1 93.75(3) 7_556 7_546
Ge1 Ho1 Ge2 89.03(3) 7_556 .
Ge1 Ho1 Ge2 89.03(3) 7_546 .
Ge1 Ho1 Ge2 164.70(3) 7_556 7_545
Ge1 Ho1 Ge2 87.03(3) 7_546 7_545
Ge2 Ho1 Ge2 106.26(2) . 7_545
Ge1 Ho1 Ge2 87.03(3) 7_556 7
Ge1 Ho1 Ge2 164.70(3) 7_546 7
Ge2 Ho1 Ge2 106.26(2) . 7
Ge2 Ho1 Ge2 88.25(3) 7_545 7
Ge1 Ho1 Ru 133.047(16) 7_556 1_554
Ge1 Ho1 Ru 133.047(16) 7_546 1_554
Ge2 Ho1 Ru 94.50(3) . 1_554
Ge2 Ho1 Ru 47.089(18) 7_545 1_554
Ge2 Ho1 Ru 47.089(18) 7 1_554
Ge1 Ho1 In 53.55(2) 7_556 3
Ge1 Ho1 In 109.96(2) 7_546 3
Ge2 Ho1 In 137.758(13) . 3
Ge2 Ho1 In 111.91(2) 7_545 3
Ge2 Ho1 In 58.73(2) 7 3
Ru Ho1 In 98.315(18) 1_554 3
Ge1 Ho1 In 109.96(2) 7_556 3_545
Ge1 Ho1 In 53.55(2) 7_546 3_545
Ge2 Ho1 In 137.758(13) . 3_545
Ge2 Ho1 In 58.73(2) 7_545 3_545
Ge2 Ho1 In 111.91(2) 7 3_545
Ru Ho1 In 98.315(18) 1_554 3_545
In Ho1 In 79.70(2) 3 3_545
Ge1 Ho1 Ru 46.18(2) 7_556 7_556
Ge1 Ho1 Ru 103.29(3) 7_546 7_556
Ge2 Ho1 Ru 45.128(14) . 7_556
Ge2 Ho1 Ru 148.17(2) 7_545 7_556
Ge2 Ho1 Ru 88.27(3) 7 7_556
Ru Ho1 Ru 112.04(2) 1_554 7_556
In Ho1 Ru 92.992(19) 3 7_556
In Ho1 Ru 149.533(16) 3_545 7_556
Ge1 Ho1 Ru 103.29(3) 7_556 7_546
Ge1 Ho1 Ru 46.18(2) 7_546 7_546
Ge2 Ho1 Ru 45.128(14) . 7_546
Ge2 Ho1 Ru 88.27(3) 7_545 7_546
Ge2 Ho1 Ru 148.17(2) 7 7_546
Ru Ho1 Ru 112.04(2) 1_554 7_546
In Ho1 Ru 149.533(16) 3 7_546
In Ho1 Ru 92.992(19) 3_545 7_546
Ru Ho1 Ru 78.37(2) 7_556 7_546
Ge1 Ho1 Ho2 112.07(2) 7_556 5_655
Ge1 Ho1 Ho2 112.07(2) 7_546 5_655
Ge2 Ho1 Ho2 148.07(2) . 5_655
Ge2 Ho1 Ho2 54.042(19) 7_545 5_655
Ge2 Ho1 Ho2 54.042(19) 7 5_655
Ru Ho1 Ho2 53.58(2) 1_554 5_655
In Ho1 Ho2 58.612(9) 3 5_655
In Ho1 Ho2 58.612(9) 3_545 5_655
Ru Ho1 Ho2 140.225(13) 7_556 5_655
Ru Ho1 Ho2 140.225(13) 7_546 5_655
Ge1 Ho1 Ho1 143.02(2) 7_556 7_545
Ge1 Ho1 Ho1 86.70(2) 7_546 7_545
Ge2 Ho1 Ho1 53.99(2) . 7_545
Ge2 Ho1 Ho1 52.270(19) 7_545 7_545
Ge2 Ho1 Ho1 101.83(2) 7 7_545
Ru Ho1 Ho1 59.392(15) 1_554 7_545
In Ho1 Ho1 157.574(18) 3 7_545
In Ho1 Ho1 99.93(2) 3_545 7_545
Ru Ho1 Ho1 97.74(2) 7_556 7_545
Ru Ho1 Ho1 52.652(17) 7_546 7_545
Ho2 Ho1 Ho1 101.797(17) 5_655 7_545
Ge1 Ho2 Ge1 91.87(3) 3 3_545
Ge1 Ho2 Ru 109.35(2) 3 5_656
Ge1 Ho2 Ru 109.35(2) 3_545 5_656
Ge1 Ho2 Ge2 82.60(3) 3 3
Ge1 Ho2 Ge2 151.00(3) 3_545 3
Ru Ho2 Ge2 47.744(17) 5_656 3
Ge1 Ho2 Ge2 151.00(3) 3 3_545
Ge1 Ho2 Ge2 82.60(3) 3_545 3_545
Ru Ho2 Ge2 47.744(17) 5_656 3_545
Ge2 Ho2 Ge2 88.58(3) 3 3_545
Ge1 Ho2 Ru 48.36(2) 3 3
Ge1 Ho2 Ru 108.25(3) 3_545 3
Ru Ho2 Ru 61.007(19) 5_656 3
Ge2 Ho2 Ru 48.24(2) 3 3
Ge2 Ho2 Ru 106.50(3) 3_545 3
Ge1 Ho2 Ru 108.25(3) 3 3_545
Ge1 Ho2 Ru 48.36(2) 3_545 3_545
Ru Ho2 Ru 61.007(19) 5_656 3_545
Ge2 Ho2 Ru 106.50(3) 3 3_545
Ge2 Ho2 Ru 48.24(2) 3_545 3_545
Ru Ho2 Ru 85.73(3) 3 3_545
Ge1 Ho2 Ge1 108.73(2) 3 7_546
Ge1 Ho2 Ge1 49.10(3) 3_545 7_546
Ru Ho2 Ge1 136.408(16) 5_656 7_546
Ge2 Ho2 Ge1 158.73(3) 3 7_546
Ge2 Ho2 Ge1 89.05(3) 3_545 7_546
Ru Ho2 Ge1 151.49(2) 3 7_546
Ru Ho2 Ge1 87.41(2) 3_545 7_546
Ge1 Ho2 Ge1 49.10(3) 3 7_556
Ge1 Ho2 Ge1 108.73(2) 3_545 7_556
Ru Ho2 Ge1 136.408(16) 5_656 7_556
Ge2 Ho2 Ge1 89.05(3) 3 7_556
Ge2 Ho2 Ge1 158.73(3) 3_545 7_556
Ru Ho2 Ge1 87.41(2) 3 7_556
Ru Ho2 Ge1 151.49(2) 3_545 7_556
Ge1 Ho2 Ge1 85.54(3) 7_546 7_556
Ge1 Ho2 In 150.52(2) 3 3_545
Ge1 Ho2 In 88.07(3) 3_545 3_545
Ru Ho2 In 98.401(15) 5_656 3_545
Ge2 Ho2 In 110.50(2) 3 3_545
Ge2 Ho2 In 58.10(2) 3_545 3_545
Ru Ho2 In 156.717(16) 3 3_545
Ru Ho2 In 93.58(2) 3_545 3_545
Ge1 Ho2 In 51.365(18) 7_546 3_545
Ge1 Ho2 In 103.31(2) 7_556 3_545
Ge1 Ho2 In 88.07(3) 3 3
Ge1 Ho2 In 150.52(2) 3_545 3
Ru Ho2 In 98.401(15) 5_656 3
Ge2 Ho2 In 58.10(2) 3 3
Ge2 Ho2 In 110.50(2) 3_545 3
Ru Ho2 In 93.58(2) 3 3
Ru Ho2 In 156.717(16) 3_545 3
Ge1 Ho2 In 103.31(2) 7_546 3
Ge1 Ho2 In 51.365(18) 7_556 3
In Ho2 In 77.98(2) 3_545 3
Ge1 Ho2 Ho2 56.621(17) 3 5_656
Ge1 Ho2 Ho2 56.621(17) 3_545 5_656
Ru Ho2 Ho2 156.16(2) 5_656 5_656
Ge2 Ho2 Ho2 135.584(15) 3 5_656
Ge2 Ho2 Ho2 135.584(15) 3_545 5_656
Ru Ho2 Ho2 102.78(2) 3 5_656
Ru Ho2 Ho2 102.78(2) 3_545 5_656
Ge1 Ho2 Ho2 52.108(18) 7_546 5_656
Ge1 Ho2 Ho2 52.108(18) 7_556 5_656
In Ho2 Ho2 100.071(19) 3_545 5_656
In Ho2 Ho2 100.071(19) 3 5_656
Ge2 Ru Ge2 119.44(5) 7_556 7_546
Ge2 Ru Ge1 113.03(3) 7_556 .
Ge2 Ru Ge1 113.03(3) 7_546 .
Ge2 Ru Ge2 102.22(3) 7_556 .
Ge2 Ru Ge2 102.22(3) 7_546 .
Ge1 Ru Ge2 104.28(4) . .
Ge2 Ru Ho2 66.26(2) 7_556 5_656
Ge2 Ru Ho2 66.26(2) 7_546 5_656
Ge1 Ru Ho2 177.91(3) . 5_656
Ge2 Ru Ho2 77.81(3) . 5_656
Ge2 Ru Ho1 65.29(2) 7_556 1_556
Ge2 Ru Ho1 65.29(2) 7_546 1_556
Ge1 Ru Ho1 106.89(3) . 1_556
Ge2 Ru Ho1 148.83(3) . 1_556
Ho2 Ru Ho1 71.02(2) 5_656 1_556
Ge2 Ru Ho2 161.72(3) 7_556 3_445
Ge2 Ru Ho2 76.97(3) 7_546 3_445
Ge1 Ru Ho2 62.33(2) . 3_445
Ge2 Ru Ho2 64.21(2) . 3_445
Ho2 Ru Ho2 118.992(19) 5_656 3_445
Ho1 Ru Ho2 132.652(15) 1_556 3_445
Ge2 Ru Ho2 76.97(3) 7_556 3_455
Ge2 Ru Ho2 161.72(3) 7_546 3_455
Ge1 Ru Ho2 62.33(2) . 3_455
Ge2 Ru Ho2 64.21(2) . 3_455
Ho2 Ru Ho2 118.992(19) 5_656 3_455
Ho1 Ru Ho2 132.652(15) 1_556 3_455
Ho2 Ru Ho2 85.73(3) 3_445 3_455
Ge2 Ru Ru 123.87(4) 7_556 7_546
Ge2 Ru Ru 51.97(3) 7_546 7_546
Ge1 Ru Ru 120.44(3) . 7_546
Ge2 Ru Ru 50.25(2) . 7_546
Ho2 Ru Ru 60.86(2) 5_656 7_546
Ho1 Ru Ru 111.15(3) 1_556 7_546
Ho2 Ru Ru 58.13(2) 3_445 7_546
Ho2 Ru Ru 113.34(3) 3_455 7_546
Ge2 Ru Ru 51.97(3) 7_556 7_556
Ge2 Ru Ru 123.87(4) 7_546 7_556
Ge1 Ru Ru 120.44(3) . 7_556
Ge2 Ru Ru 50.25(2) . 7_556
Ho2 Ru Ru 60.86(2) 5_656 7_556
Ho1 Ru Ru 111.15(3) 1_556 7_556
Ho2 Ru Ru 113.34(3) 3_445 7_556
Ho2 Ru Ru 58.13(2) 3_455 7_556
Ru Ru Ru 85.58(4) 7_546 7_556
Ge2 Ru Ho1 59.25(3) 7_556 7_556
Ge2 Ru Ho1 125.45(3) 7_546 7_556
Ge1 Ru Ho1 57.323(18) . 7_556
Ge2 Ru Ho1 132.23(2) . 7_556
Ho2 Ru Ho1 121.284(17) 5_656 7_556
Ho1 Ru Ho1 67.96(2) 1_556 7_556
Ho2 Ru Ho1 119.64(3) 3_445 7_556
Ho2 Ru Ho1 68.59(2) 3_455 7_556
Ru Ru Ho1 176.37(2) 7_546 7_556
Ru Ru Ho1 98.02(2) 7_556 7_556
Ge2 Ru Ho1 125.45(3) 7_556 7_546
Ge2 Ru Ho1 59.25(3) 7_546 7_546
Ge1 Ru Ho1 57.323(18) . 7_546
Ge2 Ru Ho1 132.23(2) . 7_546
Ho2 Ru Ho1 121.284(17) 5_656 7_546
Ho1 Ru Ho1 67.96(2) 1_556 7_546
Ho2 Ru Ho1 68.59(2) 3_445 7_546
Ho2 Ru Ho1 119.64(3) 3_455 7_546
Ru Ru Ho1 98.02(2) 7_546 7_546
Ru Ru Ho1 176.37(2) 7_556 7_546
Ho1 Ru Ho1 78.37(2) 7_556 7_546
Ge1 In Ge1 180.00(3) 5_556 1_554
Ge1 In Ge2 86.98(3) 5_556 5
Ge1 In Ge2 93.02(3) 1_554 5
Ge1 In Ge2 93.02(3) 5_556 .
Ge1 In Ge2 86.98(3) 1_554 .
Ge2 In Ge2 180.0 5 .
Ge1 In Ho1 55.886(13) 5_556 3_445
Ge1 In Ho1 124.114(13) 1_554 3_445
Ge2 In Ho1 56.423(18) 5 3_445
Ge2 In Ho1 123.578(18) . 3_445
Ge1 In Ho1 124.114(13) 5_556 7
Ge1 In Ho1 55.886(13) 1_554 7
Ge2 In Ho1 123.577(18) 5 7
Ge2 In Ho1 56.422(18) . 7
Ho1 In Ho1 180.0 3_445 7
Ge1 In Ho1 55.886(13) 5_556 3_455
Ge1 In Ho1 124.114(13) 1_554 3_455
Ge2 In Ho1 56.423(18) 5 3_455
Ge2 In Ho1 123.578(18) . 3_455
Ho1 In Ho1 79.70(2) 3_445 3_455
Ho1 In Ho1 100.30(2) 7 3_455
Ge1 In Ho1 124.114(13) 5_556 7_545
Ge1 In Ho1 55.886(13) 1_554 7_545
Ge2 In Ho1 123.577(18) 5 7_545
Ge2 In Ho1 56.422(18) . 7_545
Ho1 In Ho1 100.30(2) 3_445 7_545
Ho1 In Ho1 79.70(2) 7 7_545
Ho1 In Ho1 180.000(12) 3_455 7_545
Ge1 In Ho2 59.785(19) 5_556 3_455
Ge1 In Ho2 120.215(19) 1_554 3_455
Ge2 In Ho2 124.402(13) 5 3_455
Ge2 In Ho2 55.598(13) . 3_455
Ho1 In Ho2 115.561(16) 3_445 3_455
Ho1 In Ho2 64.439(16) 7 3_455
Ho1 In Ho2 67.982(16) 3_455 3_455
Ho1 In Ho2 112.018(17) 7_545 3_455
Ge1 In Ho2 120.215(19) 5_556 7_545
Ge1 In Ho2 59.785(19) 1_554 7_545
Ge2 In Ho2 55.598(13) 5 7_545
Ge2 In Ho2 124.402(13) . 7_545
Ho1 In Ho2 64.439(16) 3_445 7_545
Ho1 In Ho2 115.561(16) 7 7_545
Ho1 In Ho2 112.018(17) 3_455 7_545
Ho1 In Ho2 67.982(16) 7_545 7_545
Ho2 In Ho2 180.0 3_455 7_545
Ge1 In Ho2 120.215(19) 5_556 7
Ge1 In Ho2 59.785(19) 1_554 7
Ge2 In Ho2 55.598(13) 5 7
Ge2 In Ho2 124.402(13) . 7
Ho1 In Ho2 112.018(17) 3_445 7
Ho1 In Ho2 67.982(16) 7 7
Ho1 In Ho2 64.439(16) 3_455 7
Ho1 In Ho2 115.561(16) 7_545 7
Ho2 In Ho2 102.02(2) 3_455 7
Ho2 In Ho2 77.98(2) 7_545 7
Ge1 In Ho2 59.785(19) 5_556 3_445
Ge1 In Ho2 120.215(19) 1_554 3_445
Ge2 In Ho2 124.402(13) 5 3_445
Ge2 In Ho2 55.598(13) . 3_445
Ho1 In Ho2 67.982(16) 3_445 3_445
Ho1 In Ho2 112.018(17) 7 3_445
Ho1 In Ho2 115.561(16) 3_455 3_445
Ho1 In Ho2 64.439(16) 7_545 3_445
Ho2 In Ho2 77.98(2) 3_455 3_445
Ho2 In Ho2 102.02(2) 7_545 3_445
Ho2 In Ho2 180.0 7 3_445
Ru Ge1 Ge1 118.43(5) . 5_556
Ru Ge1 In 130.90(4) . 1_556
Ge1 Ge1 In 110.66(5) 5_556 1_556
Ru Ge1 Ho1 76.50(2) . 7_556
Ge1 Ge1 Ho1 132.542(17) 5_556 7_556
In Ge1 Ho1 70.56(2) 1_556 7_556
Ru Ge1 Ho1 76.50(2) . 7_546
Ge1 Ge1 Ho1 132.542(17) 5_556 7_546
In Ge1 Ho1 70.56(2) 1_556 7_546
Ho1 Ge1 Ho1 93.75(3) 7_556 7_546
Ru Ge1 Ho2 69.31(2) . 3_445
Ge1 Ge1 Ho2 68.99(3) 5_556 3_445
In Ge1 Ho2 133.167(17) 1_556 3_445
Ho1 Ge1 Ho2 145.78(3) 7_556 3_445
Ho1 Ge1 Ho2 77.17(2) 7_546 3_445
Ru Ge1 Ho2 69.31(2) . 3_455
Ge1 Ge1 Ho2 68.99(3) 5_556 3_455
In Ge1 Ho2 133.167(17) 1_556 3_455
Ho1 Ge1 Ho2 77.17(2) 7_556 3_455
Ho1 Ge1 Ho2 145.78(3) 7_546 3_455
Ho2 Ge1 Ho2 91.87(3) 3_445 3_455
Ru Ge1 Ho2 136.009(17) . 7_546
Ge1 Ge1 Ho2 61.91(3) 5_556 7_546
In Ge1 Ho2 68.849(19) 1_556 7_546
Ho1 Ge1 Ho2 139.22(3) 7_556 7_546
Ho1 Ge1 Ho2 76.47(2) 7_546 7_546
Ho2 Ge1 Ho2 71.27(2) 3_445 7_546
Ho2 Ge1 Ho2 130.90(3) 3_455 7_546
Ru Ge1 Ho2 136.009(17) . 7_556
Ge1 Ge1 Ho2 61.91(3) 5_556 7_556
In Ge1 Ho2 68.849(19) 1_556 7_556
Ho1 Ge1 Ho2 76.47(2) 7_556 7_556
Ho1 Ge1 Ho2 139.22(3) 7_546 7_556
Ho2 Ge1 Ho2 130.90(3) 3_445 7_556
Ho2 Ge1 Ho2 71.27(2) 3_455 7_556
Ho2 Ge1 Ho2 85.54(3) 7_546 7_556
Ru Ge2 Ru 119.44(5) 7_556 7_546
Ru Ge2 Ru 77.78(3) 7_556 .
Ru Ge2 Ru 77.78(3) 7_546 .
Ru Ge2 Ho1 75.62(3) 7_556 .
Ru Ge2 Ho1 75.62(3) 7_546 .
Ru Ge2 Ho1 125.66(4) . .
Ru Ge2 Ho2 143.06(4) 7_556 3_445
Ru Ge2 Ho2 66.00(2) 7_546 3_445
Ru Ge2 Ho2 67.55(2) . 3_445
Ho1 Ge2 Ho2 135.607(15) . 3_445
Ru Ge2 Ho2 66.00(2) 7_556 3_455
Ru Ge2 Ho2 143.06(4) 7_546 3_455
Ru Ge2 Ho2 67.55(2) . 3_455
Ho1 Ge2 Ho2 135.607(16) . 3_455
Ho2 Ge2 Ho2 88.58(3) 3_445 3_455
Ru Ge2 Ho1 145.26(4) 7_556 7_545
Ru Ge2 Ho1 67.62(2) 7_546 7_545
Ru Ge2 Ho1 134.447(18) . 7_545
Ho1 Ge2 Ho1 73.74(2) . 7_545
Ho2 Ge2 Ho1 71.68(2) 3_445 7_545
Ho2 Ge2 Ho1 131.15(3) 3_455 7_545
Ru Ge2 Ho1 67.62(2) 7_556 7
Ru Ge2 Ho1 145.26(4) 7_546 7
Ru Ge2 Ho1 134.447(18) . 7
Ho1 Ge2 Ho1 73.74(2) . 7
Ho2 Ge2 Ho1 131.15(3) 3_445 7
Ho2 Ge2 Ho1 71.68(2) 3_455 7
Ho1 Ge2 Ho1 88.25(3) 7_545 7
Ru Ge2 In 120.27(2) 7_556 .
Ru Ge2 In 120.27(2) 7_546 .
Ru Ge2 In 113.60(3) . .
Ho1 Ge2 In 120.74(4) . .
Ho2 Ge2 In 66.30(2) 3_445 .
Ho2 Ge2 In 66.30(2) 3_455 .
Ho1 Ge2 In 64.849(19) 7_545 .
Ho1 Ge2 In 64.849(19) 7 .
loop_
_geom_bond_atom_site_label_1
_geom_bond_atom_site_label_2
_geom_bond_distance
_geom_bond_site_symmetry_2
Ho1 Ge1 2.9011(8) 7_556
Ho1 Ge1 2.9011(8) 7_546
Ho1 Ge2 2.9735(11) .
Ho1 Ge2 3.0413(9) 7_545
Ho1 Ge2 3.0413(9) 7
Ho1 Ru 3.0956(10) 1_554
Ho1 In 3.3044(7) 3
Ho1 In 3.3044(7) 3_545
Ho1 Ru 3.3514(8) 7_556
Ho1 Ru 3.3514(8) 7_546
Ho1 Ho2 3.5564(10) 5_655
Ho1 Ho1 3.6093(9) 7_545
Ho2 Ge1 2.9468(8) 3
Ho2 Ge1 2.9468(8) 3_545
Ho2 Ru 3.0263(11) 5_656
Ho2 Ge2 3.0324(8) 3
Ho2 Ge2 3.0324(8) 3_545
Ho2 Ru 3.1126(7) 3
Ho2 Ru 3.1126(7) 3_545
Ho2 Ge1 3.1181(9) 7_546
Ho2 Ge1 3.1181(9) 7_556
Ho2 In 3.3654(7) 3_545
Ho2 In 3.3654(7) 3
Ho2 Ho2 3.5364(10) 5_656
Ru Ge2 2.4520(8) 7_556
Ru Ge2 2.4520(8) 7_546
Ru Ge1 2.4866(12) .
Ru Ge2 2.5123(13) .
Ru Ho2 3.0263(11) 5_656
Ru Ho1 3.0956(10) 1_556
Ru Ho2 3.1126(7) 3_445
Ru Ho2 3.1126(7) 3_455
Ru Ru 3.1170(10) 7_546
Ru Ru 3.1170(10) 7_556
Ru Ho1 3.3514(8) 7_556
Ru Ho1 3.3514(8) 7_546
In Ge1 2.8187(10) 5_556
In Ge1 2.8187(10) 1_554
In Ge2 3.1201(11) 5
In Ge2 3.1201(11) .
In Ho1 3.3043(7) 3_445
In Ho1 3.3043(7) 7
In Ho1 3.3043(7) 3_455
In Ho1 3.3043(7) 7_545
In Ho2 3.3654(7) 3_455
In Ho2 3.3654(7) 7_545
In Ho2 3.3654(7) 7
In Ho2 3.3654(7) 3_445
Ge1 Ge1 2.5245(17) 5_556
Ge1 In 2.8187(10) 1_556
Ge1 Ho1 2.9011(8) 7_556
Ge1 Ho1 2.9011(8) 7_546
Ge1 Ho2 2.9468(8) 3_445
Ge1 Ho2 2.9468(8) 3_455
Ge1 Ho2 3.1182(9) 7_546
Ge1 Ho2 3.1182(9) 7_556
Ge2 Ru 2.4519(8) 7_556
Ge2 Ru 2.4519(8) 7_546
Ge2 Ho2 3.0324(8) 3_445
Ge2 Ho2 3.0324(8) 3_455
Ge2 Ho1 3.0413(9) 7_545
Ge2 Ho1 3.0413(9) 7
