#------------------------------------------------------------------------------
#$Date: 2016-03-24 00:14:39 +0200 (Thu, 24 Mar 2016) $
#$Revision: 179528 $
#$URL: svn://www.crystallography.net/cod/cif/4/34/25/4342570.cif $
#------------------------------------------------------------------------------
#
# This file is available in the Crystallography Open Database (COD),
# http://www.crystallography.net/
#
# All data on this site have been placed in the public domain by the
# contributors.
#
data_4342570
loop_
_publ_author_name
'Oliynyk, Anton O.'
'Stoyko, Stanislav S.'
'Mar, Arthur'
_publ_section_title
;
 Many Metals Make the Cut: Quaternary Rare-Earth Germanides RE4M2InGe4 (M
 = Fe, Co, Ni, Ru, Rh, Ir) and RE4RhInGe4 Derived from Excision of Slabs
 in RE2InGe2.
;
_journal_issue                   6
_journal_name_full               'Inorganic chemistry'
_journal_page_first              2780
_journal_page_last               2792
_journal_paper_doi               10.1021/ic502955h
_journal_volume                  54
_journal_year                    2015
_chemical_formula_structural     'Sm4 Rh2 In Ge4'
_chemical_formula_sum            'Ge4 In Rh2 Sm4'
_chemical_formula_weight         1212.40
_chemical_name_common            'samarium rhodium indium germanide (4/2/1/4)'
_chemical_name_systematic        'samarium rhodium indium germanide (4/2/1/4)'
_space_group_crystal_system      monoclinic
_space_group_IT_number           12
_space_group_name_Hall           '-C 2y'
_space_group_name_H-M_alt        'C 1 2/m 1'
_symmetry_space_group_name_Hall  '-C 2y'
_symmetry_space_group_name_H-M   'C 1 2/m 1'
_atom_sites_solution_primary     direct
_atom_sites_solution_secondary   difmap
_audit_creation_method           SHELXL-2013
_cell_angle_alpha                90
_cell_angle_beta                 106.878(3)
_cell_angle_gamma                90
_cell_formula_units_Z            2
_cell_length_a                   15.857(3)
_cell_length_b                   4.3147(8)
_cell_length_c                   7.0971(14)
_cell_measurement_reflns_used    2271
_cell_measurement_temperature    173(2)
_cell_measurement_theta_max      32.57
_cell_measurement_theta_min      2.68
_cell_volume                     464.65(15)
_computing_cell_refinement       'Bruker SAINT 8.27B (Bruker, 2011)'
_computing_data_collection       'Bruker APEX 2 (Bruker, 2008)'
_computing_data_reduction        'Bruker SAINT 8.27B'
_computing_molecular_graphics    'ATOMS 5.1 (Dowty, 1999)'
_computing_publication_material  'Bruker SHELXTL'
_computing_structure_refinement  'Bruker SHELXTL'
_computing_structure_solution    'Bruker SHELXTL'
_diffrn_ambient_temperature      173(2)
_diffrn_measured_fraction_theta_full 1.000
_diffrn_measured_fraction_theta_max 0.982
_diffrn_measurement_device_type  'Bruker PLATFORM/SMART APEX II CCD'
_diffrn_measurement_method       '\w and \f scans'
_diffrn_radiation_type           MoK\a
_diffrn_radiation_wavelength     0.71073
_diffrn_reflns_av_R_equivalents  0.0320
_diffrn_reflns_av_unetI/netI     0.0290
_diffrn_reflns_Laue_measured_fraction_full 1.000
_diffrn_reflns_Laue_measured_fraction_max 0.982
_diffrn_reflns_limit_h_max       23
_diffrn_reflns_limit_h_min       -24
_diffrn_reflns_limit_k_max       6
_diffrn_reflns_limit_k_min       -6
_diffrn_reflns_limit_l_max       10
_diffrn_reflns_limit_l_min       -10
_diffrn_reflns_number            3381
_diffrn_reflns_point_group_measured_fraction_full 1.000
_diffrn_reflns_point_group_measured_fraction_max 0.982
_diffrn_reflns_theta_full        25.242
_diffrn_reflns_theta_max         33.233
_diffrn_reflns_theta_min         2.685
_diffrn_source                   'fine-focus sealed tube'
_exptl_absorpt_coefficient_mu    43.358
_exptl_absorpt_correction_T_max  0.6771
_exptl_absorpt_correction_T_min  0.0952
_exptl_absorpt_correction_type   numerical
_exptl_absorpt_process_details   'Bruker SHELXTL (Sheldrick, 2013)'
_exptl_crystal_colour            grey
_exptl_crystal_density_diffrn    8.666
_exptl_crystal_density_method    'not measured'
_exptl_crystal_description       irregular
_exptl_crystal_F_000             1030
_exptl_crystal_size_max          0.100
_exptl_crystal_size_mid          0.018
_exptl_crystal_size_min          0.014
_refine_diff_density_max         1.655
_refine_diff_density_min         -1.750
_refine_diff_density_rms         0.397
_refine_ls_extinction_coef       0.00190(7)
_refine_ls_extinction_expression Fc^*^=kFc[1+0.001xFc^2^\l^3^/sin(2\q)]^-1/4^
_refine_ls_extinction_method     SHELXL
_refine_ls_goodness_of_fit_ref   1.018
_refine_ls_hydrogen_treatment    undef
_refine_ls_matrix_type           full
_refine_ls_number_parameters     37
_refine_ls_number_reflns         977
_refine_ls_number_restraints     0
_refine_ls_restrained_S_all      1.018
_refine_ls_R_factor_all          0.0251
_refine_ls_R_factor_gt           0.0196
_refine_ls_shift/su_max          0.000
_refine_ls_shift/su_mean         0.000
_refine_ls_structure_factor_coef Fsqd
_refine_ls_weighting_details
'w=1/[\s^2^(Fo^2^)+(0.0161P)^2^] where P=(Fo^2^+2Fc^2^)/3'
_refine_ls_weighting_scheme      calc
_refine_ls_wR_factor_gt          0.0379
_refine_ls_wR_factor_ref         0.0393
_reflns_Friedel_coverage         0.000
_reflns_number_gt                852
_reflns_number_total             977
_reflns_threshold_expression     'I > 2\s(I)'
_cod_data_source_file            ic502955h_si_005.cif
_cod_data_source_block           Sm4Rh2InGe4
_cod_depositor_comments
'Adding full bibliography for 4342570--4342590.cif.'
_cod_original_cell_volume        464.65(16)
_cod_database_code               4342570
#BEGIN Tags that were not found in dictionaries:
_shelx_space_group_comment
;
The symmetry employed for this shelxl refinement is uniquely defined
by the following loop, which should always be used as a source of
symmetry information in preference to the above space-group names.
They are only intended as comments.
;
_shelx_estimated_absorpt_t_min   0.098
_shelx_estimated_absorpt_t_max   0.582
_shelxl_version_number           2013-4
_shelx_res_file
;
TITL Sm4Rh2InGe4 C2/m lsf final refinement
CELL 0.71073  15.85670   4.31470   7.09710  90.0000 106.8784  90.0000
ZERR    2.00   0.00310   0.00080   0.00140   0.0000   0.0027   0.0000
LATT  7
SYMM -X, Y, -Z
SFAC GE RH IN SM
UNIT 8 4 2 8
TEMP -100
SIZE 0.014 0.018 0.10

L.S. 4
ACTA

WGHT    0.016100
EXTI    0.001900
FVAR       0.05280
SM1   4    0.346398    0.000000    0.067040    10.50000    0.00594    0.00599 =
         0.00577    0.00000    0.00124    0.00000
SM2   4    0.586924    0.000000    0.381246    10.50000    0.00536    0.00502 =
         0.00668    0.00000    0.00230    0.00000
RH    2    0.219768    0.000000    0.625182    10.50000    0.00603    0.00518 =
         0.00656    0.00000    0.00227    0.00000
IN    3    0.000000    0.000000    0.000000     0.24313    0.00793    0.00715 =
         0.00745    0.00000    0.00323    0.00000
GE1   1    0.064720    0.000000    0.657315    10.50000    0.00605    0.00536 =
         0.00573    0.00000    0.00159    0.00000
GE2   1    0.203013    0.000000    0.260944    10.50000    0.00740    0.00495 =
         0.00653    0.00000    0.00262    0.00000
HKLF 4

REM  Sm4Rh2InGe4 C2/m lsf final refinement
REM R1 =  0.0196 for     852 Fo > 4sig(Fo)  and  0.0251 for all     977 data
REM     37 parameters refined using      0 restraints

END

WGHT      0.0161      0.0000

REM Highest difference peak  1.655,  deepest hole -1.750,  1-sigma level  0.397
Q1    1   0.5914  0.0000  0.2786  10.50000  0.05    1.66
Q2    1   0.3776  0.1159  0.0830  11.00000  0.05    1.35
Q3    1   0.4086  0.2569  0.0277  11.00000  0.05    1.27
Q4    1   0.0402  0.0987  0.0447  11.00000  0.05    1.24
Q5    1   0.0073  0.0000 -0.0940  10.50000  0.05    1.21
Q6    1   0.5812  0.0000  0.4814  10.50000  0.05    1.21
Q7    1   0.3294  0.1453 -0.0335  11.00000  0.05    1.20
Q8    1   0.3166  0.1778  0.0587  11.00000  0.05    1.17
Q9    1   0.6119 -0.1405  0.4014  11.00000  0.05    1.17
Q10   1   0.2734  0.1485  0.2429  11.00000  0.05    1.16
Q11   1  -0.0207 -0.3059  0.0723  11.00000  0.05    1.13
Q12   1   0.2915  0.0000  0.2958  10.50000  0.05    1.12
Q13   1   0.2685  0.0000  0.6401  10.50000  0.05    1.12
Q14   1   0.0605  0.1890  0.0294  11.00000  0.05    1.11
Q15   1   0.0277  0.1742  0.1760  11.00000  0.05    1.09
Q16   1   0.5454 -0.1187  0.3398  11.00000  0.05    1.08
Q17   1   0.5905 -0.1279  0.3049  11.00000  0.05    1.05
Q18   1   0.2172  0.1378  0.3783  11.00000  0.05    1.05
Q19   1   0.1881  0.3336  0.6312  11.00000  0.05    1.04
Q20   1   0.1475  0.1838  0.6162  11.00000  0.05    1.03
;
_shelx_res_checksum              28161
_shelx_hkl_file
;
   4  -2 -10   34.11    5.43
   6  -2 -10    0.85    1.24
   8  -2 -10   72.17    6.76
  -1  -1 -10   -0.51    1.84
   1  -1 -10    0.34    1.30
   3  -1 -10   -0.26    0.92
   5  -1 -10   74.55    7.56
   7  -1 -10    3.23    1.38
   9  -1 -10   31.13    4.86
  11  -1 -10    7.22    1.64
  13  -1 -10   23.83    2.65
   0   0 -10    5.83    1.86
   2   0 -10    6.43    1.75
   4   0 -10   38.82    2.86
   6   0 -10    1.23    1.17
  10   0 -10   94.61    4.52
  12   0 -10    8.95    1.70
  14   0 -10   -0.88    0.97
   1   1 -10    0.67    1.38
   3   1 -10    0.99    1.32
   5   1 -10   91.16    4.76
   7   1 -10    3.21    1.47
   9   1 -10   22.01    3.58
  11   1 -10    2.47    1.83
  13   1 -10   24.31    3.74
  15   1 -10    0.63    1.86
   2   2 -10    8.09    2.93
   4   2 -10   30.74    4.58
  -1  -3  -9  127.80    5.94
   1  -3  -9   10.85    1.76
   3  -3  -9    2.41    1.33
   5  -3  -9   27.89    3.11
   7  -3  -9   18.20    2.42
   9  -3  -9   23.29    2.69
  11  -3  -9   94.20    3.90
  13  -3  -9   68.20    6.78
  -4  -2  -9   28.20    3.33
  -2  -2  -9   -0.06    1.30
   0  -2  -9   55.81    3.50
   2  -2  -9   83.51    5.02
   4  -2  -9   10.86    2.00
   6  -2  -9    0.48    0.98
   8  -2  -9    7.64    1.64
  10  -2  -9   12.68    1.64
  12  -2  -9    1.17    0.89
  14  -2  -9    0.69    1.05
  -5  -1  -9   25.80    4.46
  -3  -1  -9    9.06    1.98
  -1  -1  -9  142.58    6.40
   1  -1  -9   16.01    1.84
   3  -1  -9    7.39    1.29
   5  -1  -9   41.21    5.39
   7  -1  -9   14.48    2.14
   9  -1  -9   29.19    2.27
  11  -1  -9  111.58    4.14
  13  -1  -9   77.19    3.97
  15  -1  -9   27.24    2.76
  17  -1  -9    0.67    1.06
  -6   0  -9   12.48    2.27
  -4   0  -9   36.31    5.18
  -2   0  -9    2.03    1.24
   0   0  -9   62.49    4.57
   2   0  -9   90.74    3.73
   4   0  -9   12.29    1.59
   6   0  -9    0.63    0.91
   8   0  -9   15.17    1.65
  10   0  -9   14.83    1.97
  12   0  -9    0.17    0.82
  14   0  -9    0.68    0.80
  16   0  -9  234.71    6.38
  18   0  -9    0.31    1.45
  -5   1  -9   25.81    2.49
  -3   1  -9    8.22    1.51
  -1   1  -9  149.75    6.10
   1   1  -9   16.34    2.42
   3   1  -9    3.93    1.45
   5   1  -9   37.28    2.60
   7   1  -9   16.67    2.22
   9   1  -9   32.00    2.64
  11   1  -9  117.22    4.72
  13   1  -9   68.72    3.68
  15   1  -9   30.56    2.84
  17   1  -9   -0.34    1.10
  -4   2  -9   37.63    4.98
  -2   2  -9    2.67    1.38
   0   2  -9   69.88    4.72
   2   2  -9   80.93    4.29
   4   2  -9   12.66    1.95
   6   2  -9   -0.10    0.93
  10   2  -9   16.96    4.98
  12   2  -9    1.43    1.33
  14   2  -9   -0.98    1.32
  16   2  -9  210.87   10.70
   1   3  -9   12.66    2.25
   3   3  -9    5.77    1.65
   5   3  -9   26.10    4.11
   7   3  -9   13.36    2.21
   9   3  -9   16.70    3.45
  11   3  -9   86.76    6.01
   0  -4  -8   31.49    2.81
   2  -4  -8   20.42    2.61
   4  -4  -8   39.38    3.39
   6  -4  -8   32.25    3.16
   8  -4  -8    4.25    1.44
  10  -4  -8   67.47    4.65
  -5  -3  -8   52.05    4.63
  -3  -3  -8   17.48    4.15
  -1  -3  -8    0.69    0.95
   1  -3  -8    3.51    1.16
   3  -3  -8   36.90    2.73
   5  -3  -8  174.02    6.49
   7  -3  -8   40.66    3.30
   9  -3  -8   -0.08    0.71
  11  -3  -8   38.67    2.71
  13  -3  -8    0.36    0.79
  15  -3  -8    1.31    1.16
  -8  -2  -8   -1.97    1.69
  -6  -2  -8   87.83    5.28
  -4  -2  -8   18.56    2.61
  -2  -2  -8   13.64    1.72
   0  -2  -8   48.07    4.03
   2  -2  -8   36.13    2.60
   4  -2  -8   61.75    3.39
   6  -2  -8   37.05    3.10
   8  -2  -8    9.28    1.31
  10  -2  -8  100.32    3.67
  12  -2  -8    4.59    1.07
  14  -2  -8   13.74    1.97
  16  -2  -8    1.33    1.05
  18  -2  -8    4.46    1.43
  -9  -1  -8    2.74    1.49
  -7  -1  -8    7.43    1.81
  -5  -1  -8   59.83    4.48
  -3  -1  -8   31.14    3.16
  -1  -1  -8    0.96    0.78
   1  -1  -8    3.96    1.02
   3  -1  -8   49.33    2.93
   5  -1  -8  241.71    6.34
   7  -1  -8   58.28    2.71
   9  -1  -8    0.07    0.61
  11  -1  -8   56.35    2.86
  13  -1  -8    0.96    0.79
  15  -1  -8   -0.59    0.72
  17  -1  -8    7.52    1.55
  19  -1  -8  147.03    6.15
 -10   0  -8  154.69    6.52
  -8   0  -8    0.35    0.90
  -6   0  -8   96.09    3.90
  -4   0  -8   15.41    1.74
  -2   0  -8   18.19    1.82
   0   0  -8   48.00    3.67
   2   0  -8   41.59    2.56
   4   0  -8   74.77    3.03
   6   0  -8   50.64    2.23
   8   0  -8    9.96    1.27
  10   0  -8  120.33    3.88
  12   0  -8    6.12    1.02
  14   0  -8   17.32    1.67
  16   0  -8    4.99    1.06
  18   0  -8    1.93    1.12
  20   0  -8    2.13    1.28
  -9   1  -8    2.26    1.37
  -7   1  -8    7.51    1.72
  -5   1  -8   62.68    3.36
  -3   1  -8   33.57    2.60
  -1   1  -8    1.05    0.76
   1   1  -8    2.58    0.94
   3   1  -8   51.34    2.74
   5   1  -8  237.68    5.28
   7   1  -8   56.72    1.91
   9   1  -8   -0.85    0.48
  11   1  -8   46.93    2.57
  13   1  -8   -0.89    0.66
  15   1  -8    0.67    0.88
  17   1  -8    4.33    1.31
  19   1  -8  155.55    6.21
  -8   2  -8   -0.76    1.59
  -6   2  -8   75.61    4.97
  -4   2  -8   14.14    2.29
  -2   2  -8   14.06    2.14
   0   2  -8   42.66    3.46
   2   2  -8   33.84    2.95
   4   2  -8   62.09    2.74
   6   2  -8   45.16    2.62
   8   2  -8   11.19    1.61
  10   2  -8  107.58    4.17
  12   2  -8    6.94    1.80
  14   2  -8   16.86    2.53
  16   2  -8    3.72    1.62
  18   2  -8    5.27    1.87
  -5   3  -8   50.47    4.62
  -3   3  -8   25.74    3.16
  -1   3  -8    0.36    0.94
   1   3  -8    3.63    1.10
   3   3  -8   42.64    2.84
   5   3  -8  170.07    9.18
   7   3  -8   44.45    3.16
   9   3  -8    0.17    1.37
  11   3  -8   37.90    4.32
  13   3  -8    1.27    1.33
  15   3  -8   -0.39    1.39
  -2   4  -8    3.96    2.46
   0   4  -8   28.38    4.51
   2   4  -8   23.17    2.79
   4   4  -8   43.03    3.76
   6   4  -8   30.76    3.12
   8   4  -8    8.37    1.84
  10   4  -8   68.90    5.81
   1  -5  -7   46.75    7.01
  -6  -4  -7    4.55    2.84
  -4  -4  -7   72.36    5.49
  -2  -4  -7   53.10    4.62
   0  -4  -7   68.96    3.61
   2  -4  -7   15.42    1.84
   4  -4  -7    2.97    1.17
   6  -4  -7    9.11    1.74
   8  -4  -7   23.87    2.63
  10  -4  -7  132.35    5.62
  12  -4  -7   16.02    1.87
  14  -4  -7   26.51    2.37
  -7  -3  -7  106.84    6.10
  -5  -3  -7    0.90    1.34
  -3  -3  -7   33.90    2.62
  -1  -3  -7    1.57    0.91
   1  -3  -7   63.32    3.24
   3  -3  -7    1.11    0.80
   5  -3  -7    1.40    0.83
   7  -3  -7    7.92    1.48
   9  -3  -7    8.96    1.25
  11  -3  -7    8.09    1.22
  13  -3  -7   82.82    3.34
  15  -3  -7   34.86    3.09
  17  -3  -7   75.66    4.42
 -10  -2  -7    1.20    1.42
  -8  -2  -7    1.20    1.31
  -6  -2  -7    2.50    1.32
  -4  -2  -7   93.85    4.99
  -2  -2  -7   79.84    3.37
   0  -2  -7  100.39    3.73
   2  -2  -7   19.45    1.82
   4  -2  -7    4.90    0.99
   6  -2  -7   11.07    1.29
   8  -2  -7   36.95    2.31
  10  -2  -7  188.64    5.17
  12  -2  -7   26.46    2.00
  14  -2  -7   41.35    3.11
  16  -2  -7    9.51    1.55
  18  -2  -7    5.74    1.42
  20  -2  -7   15.81    2.27
 -11  -1  -7   27.25    2.39
  -9  -1  -7   -0.49    0.77
  -7  -1  -7  133.37    4.55
  -5  -1  -7    1.93    0.86
  -3  -1  -7   54.07    2.73
  -1  -1  -7    7.80    1.20
   1  -1  -7   80.81    3.19
   3  -1  -7    0.76    0.60
   5  -1  -7    1.31    0.53
   7  -1  -7   13.42    1.37
   9  -1  -7   11.14    1.29
  11  -1  -7   13.55    1.39
  13  -1  -7  101.80    3.45
  15  -1  -7   38.06    2.43
  17  -1  -7  107.18    3.81
  19  -1  -7    2.15    0.95
  21  -1  -7   -0.41    0.86
 -12   0  -7    1.55    1.25
 -10   0  -7    1.75    0.93
  -8   0  -7   -0.57    0.71
  -6   0  -7    4.24    1.06
  -4   0  -7  111.39    3.91
  -2   0  -7   88.52    3.27
   0   0  -7  113.09    3.12
   2   0  -7   23.11    1.48
   4   0  -7    4.59    0.71
   6   0  -7   12.29    1.06
   8   0  -7   50.17    1.94
  10   0  -7  233.82    4.93
  12   0  -7   33.70    2.02
  14   0  -7   44.42    2.49
  16   0  -7   11.69    1.34
  18   0  -7    3.75    0.93
  20   0  -7   16.32    2.27
 -11   1  -7   26.27    3.03
  -9   1  -7    0.39    1.05
  -7   1  -7  124.95    4.59
  -5   1  -7    0.24    0.70
  -3   1  -7   47.34    2.91
  -1   1  -7    6.69    1.11
   1   1  -7   85.05    3.15
   3   1  -7    2.02    0.53
   5   1  -7    0.86    0.35
   7   1  -7   14.86    0.84
   9   1  -7   10.95    0.98
  11   1  -7   13.98    1.23
  13   1  -7  110.14    3.86
  15   1  -7   40.39    3.02
  17   1  -7  100.39    4.53
  19   1  -7    3.40    1.27
  21   1  -7    2.34    1.28
 -10   2  -7   -0.09    1.31
  -8   2  -7    0.56    1.16
  -6   2  -7    7.26    1.75
  -4   2  -7   98.10    4.90
  -2   2  -7   83.89    3.37
   0   2  -7  103.14    3.59
   2   2  -7   22.97    1.83
   4   2  -7    5.01    0.87
   6   2  -7    9.43    0.94
   8   2  -7   43.35    2.14
  10   2  -7  193.54    4.69
  12   2  -7   28.05    2.21
  14   2  -7   41.13    2.77
  16   2  -7   10.98    1.55
  18   2  -7    2.84    1.02
  20   2  -7   15.23    1.99
  -9   3  -7    1.76    3.53
  -7   3  -7  100.37    4.64
  -5   3  -7    1.25    0.97
  -3   3  -7   36.37    2.78
  -1   3  -7    3.83    1.04
   1   3  -7   63.85    3.07
   3   3  -7    1.49    0.95
   5   3  -7    0.45    0.72
   7   3  -7    9.35    1.36
   9   3  -7   11.71    1.49
  11   3  -7    9.39    1.55
  13   3  -7   79.44    4.99
  15   3  -7   31.45    3.69
  17   3  -7   87.65    5.76
  -6   4  -7    0.90    2.06
  -4   4  -7   68.71    4.88
  -2   4  -7   60.84    4.43
   0   4  -7   59.06    4.32
   2   4  -7   10.26    1.90
   4   4  -7    2.67    1.10
   6   4  -7    6.88    1.44
   8   4  -7   23.50    3.04
  10   4  -7  136.20   11.03
  12   4  -7   19.18    3.09
  14   4  -7   34.09    3.82
   5   5  -7   -3.15    2.31
   7   5  -7    9.54    3.93
  -3  -5  -6    0.37    1.48
  -1  -5  -6  100.17    5.62
   1  -5  -6    3.29    1.56
   3  -5  -6    0.41    1.53
   5  -5  -6   79.21    6.21
   7  -5  -6   59.75    6.17
   9  -5  -6   16.11    2.20
  11  -5  -6    5.49    2.17
  -8  -4  -6   16.77    4.49
  -6  -4  -6   -0.65    1.26
  -4  -4  -6    9.20    1.96
  -2  -4  -6   40.56    3.65
   0  -4  -6    8.76    1.32
   2  -4  -6   30.13    2.27
   4  -4  -6  165.53    5.02
   6  -4  -6   44.61    3.30
   8  -4  -6    4.77    1.25
  10  -4  -6   14.88    1.63
  12  -4  -6   46.50    2.84
  14  -4  -6    2.16    1.16
  16  -4  -6   71.11    4.34
 -11  -3  -6    9.03    3.50
  -9  -3  -6  119.04    9.20
  -7  -3  -6    0.12    1.17
  -5  -3  -6   33.86    3.30
  -3  -3  -6    2.22    0.88
  -1  -3  -6  149.35    4.63
   1  -3  -6    4.17    0.92
   3  -3  -6    1.29    0.69
   5  -3  -6  118.85    3.89
   7  -3  -6   94.49    3.29
   9  -3  -6   25.35    1.88
  11  -3  -6    7.52    1.10
  13  -3  -6   86.14    3.28
  15  -3  -6   24.81    2.03
  17  -3  -6   -0.08    0.87
  19  -3  -6    8.97    1.82
 -14  -2  -6    4.15    2.21
 -12  -2  -6   29.54    3.25
 -10  -2  -6   44.69    3.03
  -8  -2  -6   16.69    1.81
  -6  -2  -6    0.11    0.73
  -4  -2  -6   14.81    1.55
  -2  -2  -6   70.43    2.93
   0  -2  -6   19.38    1.73
   2  -2  -6   47.36    2.47
   4  -2  -6  263.70    6.39
   6  -2  -6   70.08    2.32
   8  -2  -6   10.02    1.14
  10  -2  -6   24.16    1.77
  12  -2  -6   72.84    2.79
  14  -2  -6    6.02    0.96
  16  -2  -6  104.32    4.52
  18  -2  -6   41.12    3.27
  20  -2  -6  158.41    6.14
 -13  -1  -6   48.52    4.06
 -11  -1  -6   12.52    1.59
  -9  -1  -6  159.78    6.35
  -7  -1  -6    0.73    0.73
  -5  -1  -6   42.76    2.39
  -3  -1  -6    3.70    0.75
  -1  -1  -6  213.79    4.64
   1  -1  -6    8.87    0.87
   3  -1  -6    3.00    0.76
   5  -1  -6  185.80    4.02
   7  -1  -6  138.69    3.27
   9  -1  -6   35.51    2.00
  11  -1  -6   10.94    1.02
  13  -1  -6  123.07    3.74
  15  -1  -6   35.94    2.25
  17  -1  -6    0.74    0.61
  19  -1  -6    7.28    1.18
  21  -1  -6   73.89    3.42
  23  -1  -6    6.01    2.30
 -14   0  -6    4.08    1.40
 -12   0  -6   33.46    2.57
 -10   0  -6   50.53    3.05
  -8   0  -6   21.76    1.95
  -6   0  -6    0.68    0.71
  -4   0  -6   19.28    1.71
  -2   0  -6   84.68    3.05
   0   0  -6   22.30    1.41
   2   0  -6   59.76    1.95
   4   0  -6  323.74    4.79
   6   0  -6   89.73    1.90
   8   0  -6   11.86    0.84
  10   0  -6   32.50    1.63
  12   0  -6   86.97    2.85
  14   0  -6    6.07    0.93
  16   0  -6  126.43    3.89
  18   0  -6   43.29    2.58
  20   0  -6  141.80    5.83
  22   0  -6    2.02    1.22
 -15   1  -6   15.41    3.36
 -13   1  -6   54.59    4.26
 -11   1  -6   10.61    1.96
  -9   1  -6  166.77    6.48
  -7   1  -6    0.11    0.68
  -5   1  -6   42.50    2.69
  -3   1  -6    4.36    0.78
  -1   1  -6  205.11    4.60
   1   1  -6    7.34    0.84
   3   1  -6    3.00    0.41
   5   1  -6  182.23    2.84
   7   1  -6  144.15    2.41
   9   1  -6   36.62    1.60
  11   1  -6    9.08    0.96
  13   1  -6  123.43    3.37
  15   1  -6   30.54    2.31
  17   1  -6    1.54    0.93
  19   1  -6    9.42    1.72
  21   1  -6   75.18    4.77
 -14   2  -6    5.39    2.90
 -12   2  -6   30.94    3.50
 -10   2  -6   40.48    3.84
  -8   2  -6   23.72    2.19
  -6   2  -6    1.06    0.78
  -4   2  -6   16.64    1.67
  -2   2  -6   73.58    2.90
   0   2  -6   16.25    1.49
   2   2  -6   49.94    2.03
   4   2  -6  269.43    4.29
   6   2  -6   76.66    1.71
   8   2  -6   10.80    0.92
  10   2  -6   24.46    1.61
  12   2  -6   69.67    3.01
  14   2  -6    4.41    1.02
  16   2  -6  112.91    4.31
  18   2  -6   40.88    2.99
  20   2  -6  142.39    5.36
 -11   3  -6    9.02    1.74
  -9   3  -6  121.34    5.09
  -7   3  -6   -0.82    0.77
  -5   3  -6   36.00    2.66
  -3   3  -6    2.01    0.82
  -1   3  -6  152.05    4.67
   1   3  -6    4.92    0.87
   3   3  -6    4.27    0.95
   5   3  -6  127.72    4.24
   7   3  -6  105.90    3.11
   9   3  -6   24.81    2.04
  11   3  -6    7.88    1.32
  13   3  -6   92.85    5.16
  15   3  -6   23.28    3.21
  17   3  -6    0.33    1.31
  19   3  -6    5.88    2.19
  -8   4  -6    9.24    2.04
  -6   4  -6    0.85    1.14
  -4   4  -6    9.35    1.77
  -2   4  -6   37.10    3.25
   0   4  -6   11.57    1.83
   2   4  -6   26.65    2.28
   4   4  -6  162.46    5.37
   6   4  -6   47.17    3.09
   8   4  -6    6.85    1.72
  10   4  -6   15.56    1.83
  12   4  -6   39.52    2.97
  14   4  -6    2.53    1.59
  16   4  -6   79.80    5.98
  -1   5  -6   83.45    4.80
   1   5  -6    1.09    1.26
   3   5  -6    1.53    1.05
   7   5  -6   49.01    4.46
   9   5  -6   14.18    2.65
  -5  -5  -5   33.92    3.52
  -3  -5  -5    9.90    2.08
  -1  -5  -5  105.50    5.18
   1  -5  -5   81.55    4.41
   3  -5  -5    2.77    1.23
   5  -5  -5   39.27    4.87
   7  -5  -5   45.38    5.29
   9  -5  -5    3.72    1.30
  11  -5  -5   66.86    4.45
  13  -5  -5    0.16    1.15
 -10  -4  -5    3.50    2.67
  -8  -4  -5   29.42    5.04
  -6  -4  -5  174.61    6.88
  -4  -4  -5   10.63    1.88
  -2  -4  -5   33.32    3.01
   0  -4  -5   23.59    1.91
   2  -4  -5    0.49    0.63
   4  -4  -5    2.84    0.83
   6  -4  -5   10.50    1.58
   8  -4  -5   26.60    1.91
  10  -4  -5  130.40    5.14
  12  -4  -5    9.28    1.59
  14  -4  -5   32.92    2.95
  16  -4  -5    2.61    1.22
 -13  -3  -5   28.05    3.43
 -11  -3  -5    3.12    1.44
  -9  -3  -5   18.10    1.97
  -7  -3  -5   28.25    2.27
  -5  -3  -5   61.19    2.91
  -3  -3  -5   19.43    1.69
  -1  -3  -5  188.88    5.01
   1  -3  -5  148.79    4.24
   3  -3  -5    2.41    0.69
   5  -3  -5   93.63    2.66
   7  -3  -5   93.33    3.05
   9  -3  -5    7.16    1.00
  11  -3  -5  100.49    3.32
  13  -3  -5   -0.13    0.53
  15  -3  -5   90.34    3.29
  17  -3  -5    0.84    0.98
  19  -3  -5   20.97    2.47
  21  -3  -5    3.79    2.13
 -16  -2  -5    1.05    2.50
 -14  -2  -5   77.70    4.80
 -12  -2  -5   11.85    2.06
 -10  -2  -5   15.37    1.75
  -8  -2  -5   60.02    3.09
  -6  -2  -5  256.58    6.70
  -4  -2  -5   18.23    1.35
  -2  -2  -5   50.08    1.89
   0  -2  -5   37.31    2.02
   2  -2  -5   -0.27    0.45
   4  -2  -5    6.66    0.76
   6  -2  -5   20.12    1.29
   8  -2  -5   36.28    1.86
  10  -2  -5  206.40    5.02
  12  -2  -5   17.42    1.41
  14  -2  -5   51.56    2.31
  16  -2  -5    7.55    1.36
  18  -2  -5   25.16    2.43
  20  -2  -5    3.23    1.20
  22  -2  -5   39.08    3.45
 -17  -1  -5   25.03    4.12
 -15  -1  -5   59.25    4.39
 -13  -1  -5   39.72    3.47
 -11  -1  -5    1.85    0.87
  -9  -1  -5   25.15    2.06
  -7  -1  -5   36.06    2.34
  -5  -1  -5   78.36    2.94
  -3  -1  -5   31.58    1.71
  -1  -1  -5  266.33    5.30
   1  -1  -5  228.92    4.57
   3  -1  -5    5.91    0.54
   5  -1  -5  144.38    3.19
   7  -1  -5  140.81    3.05
   9  -1  -5    9.42    0.87
  11  -1  -5  133.63    3.19
  13  -1  -5    1.30    0.45
  15  -1  -5  120.16    3.71
  17  -1  -5    1.39    0.67
  19  -1  -5   28.05    2.13
  21  -1  -5    4.30    1.11
  23  -1  -5   10.12    1.59
 -16   0  -5    0.89    1.16
 -14   0  -5   93.93    4.77
 -12   0  -5   12.97    1.59
 -10   0  -5   17.47    1.75
  -8   0  -5   75.89    3.01
  -6   0  -5  313.96    7.43
  -4   0  -5   22.25    1.72
  -2   0  -5   64.30    1.91
   0   0  -5   45.26    1.34
   2   0  -5    0.37    0.26
   4   0  -5   10.31    0.58
   6   0  -5   24.61    0.91
   8   0  -5   49.19    1.36
  10   0  -5  247.12    4.71
  12   0  -5   19.77    1.42
  14   0  -5   57.07    2.27
  16   0  -5    9.96    1.15
  18   0  -5   26.47    1.95
  20   0  -5    4.24    1.00
  22   0  -5   48.22    3.75
 -15   1  -5   63.69    4.60
 -13   1  -5   36.58    3.39
 -11   1  -5    2.83    1.24
  -9   1  -5   24.22    1.96
  -7   1  -5   36.85    2.00
  -5   1  -5   74.70    2.42
  -3   1  -5   31.77    1.60
  -1   1  -5  277.99    4.92
   1   1  -5  232.64    3.88
   3   1  -5    4.92    0.44
   5   1  -5  143.60    2.28
   7   1  -5  140.31    2.28
   9   1  -5    8.15    0.76
  11   1  -5  138.67    3.40
  13   1  -5    0.41    0.44
  15   1  -5  115.22    4.08
  17   1  -5    2.29    0.78
  19   1  -5   25.04    2.57
  21   1  -5    6.00    1.43
  23   1  -5    8.09    1.75
 -14   2  -5   78.51    4.00
 -12   2  -5   10.04    1.58
 -10   2  -5   14.00    1.79
  -8   2  -5   60.18    2.99
  -6   2  -5  278.17    6.97
  -4   2  -5   19.81    1.67
  -2   2  -5   54.52    2.33
   0   2  -5   37.53    1.68
   2   2  -5   -0.13    0.29
   4   2  -5    7.28    0.60
   6   2  -5   20.06    0.97
   8   2  -5   38.04    1.69
  10   2  -5  201.54    4.59
  12   2  -5   18.68    1.67
  14   2  -5   47.38    2.89
  16   2  -5    6.32    1.21
  18   2  -5   21.91    2.17
  20   2  -5    3.57    1.18
  22   2  -5   34.25    3.37
 -13   3  -5   27.96    2.72
 -11   3  -5    1.31    1.00
  -9   3  -5   16.55    1.95
  -7   3  -5   29.37    2.34
  -5   3  -5   59.84    2.88
  -3   3  -5   22.42    1.76
  -1   3  -5  185.01    4.44
   1   3  -5  152.84    4.48
   3   3  -5    1.24    0.66
   5   3  -5   93.07    2.75
   7   3  -5   93.97    3.29
   9   3  -5    3.48    0.88
  11   3  -5  102.95    4.78
  13   3  -5    0.38    0.89
  15   3  -5   96.57    5.46
  17   3  -5    1.62    1.45
  19   3  -5   21.86    3.47
 -10   4  -5    8.90    2.00
  -8   4  -5   37.72    3.43
  -6   4  -5  171.10    6.72
  -4   4  -5   10.32    1.78
  -2   4  -5   35.87    2.49
   0   4  -5   23.57    2.06
   2   4  -5   -0.55    0.59
   4   4  -5    3.56    0.91
   6   4  -5   12.20    1.96
   8   4  -5   20.93    1.96
  10   4  -5  130.17    5.80
  12   4  -5    8.70    1.47
  14   4  -5   29.01    3.41
  16   4  -5    5.31    1.94
  -5   5  -5   30.62    3.35
  -3   5  -5   13.74    2.21
  -1   5  -5  101.69    4.21
   1   5  -5   77.32    3.65
   3   5  -5    2.69    1.04
   5   5  -5   47.65    4.15
   7   5  -5   47.33    4.15
   9   5  -5    1.06    1.29
  11   5  -5   61.71    4.85
  13   5  -5    1.45    1.99
  -2  -6  -4   27.46    4.40
   0  -6  -4   31.18    3.39
   2  -6  -4   21.89    2.91
  -7  -5  -4    0.99    2.10
  -5  -5  -4    5.60    1.64
  -3  -5  -4    1.01    1.17
  -1  -5  -4    0.25    1.07
   1  -5  -4   85.25    4.28
   3  -5  -4   -0.71    0.91
   5  -5  -4   67.83    3.79
   7  -5  -4    4.98    1.96
   9  -5  -4   16.92    2.15
  11  -5  -4   41.76    3.37
  13  -5  -4    4.02    1.39
  15  -5  -4   37.47    4.79
 -14  -4  -4    2.44    2.30
 -12  -4  -4   62.89    4.91
 -10  -4  -4    2.49    2.12
  -8  -4  -4   57.79    6.45
  -6  -4  -4   52.32    3.81
  -4  -4  -4   14.64    1.97
  -2  -4  -4   50.10    3.45
   0  -4  -4   54.88    3.34
   2  -4  -4   63.68    2.52
   4  -4  -4   19.37    1.58
   6  -4  -4  164.69    4.56
   8  -4  -4    2.33    0.92
  10  -4  -4   21.13    2.16
  12  -4  -4    5.92    1.23
  14  -4  -4   53.25    3.64
  16  -4  -4   35.52    3.14
  18  -4  -4   14.51    3.09
 -15  -3  -4   17.02    2.87
 -13  -3  -4   -1.40    1.06
 -11  -3  -4  138.11    6.16
  -9  -3  -4    3.38    1.23
  -7  -3  -4   -0.15    0.68
  -5  -3  -4   23.91    1.51
  -3  -3  -4   -0.11    0.42
  -1  -3  -4   -0.12    0.45
   1  -3  -4  158.88    4.10
   3  -3  -4    0.04    0.40
   5  -3  -4  131.32    3.06
   7  -3  -4   14.67    1.05
   9  -3  -4   35.33    1.98
  11  -3  -4   76.68    2.72
  13  -3  -4    8.86    1.15
  15  -3  -4   59.83    2.68
  17  -3  -4  113.88    4.80
  19  -3  -4   35.23    3.09
 -16  -2  -4   77.14    4.93
 -14  -2  -4    2.87    1.37
 -12  -2  -4   99.23    4.96
 -10  -2  -4    3.55    1.04
  -8  -2  -4   89.49    3.39
  -6  -2  -4   91.10    3.22
  -4  -2  -4   25.67    1.45
  -2  -2  -4   77.04    2.20
   0  -2  -4   95.50    2.35
   2  -2  -4  114.15    3.12
   4  -2  -4   36.71    1.37
   6  -2  -4  286.89    5.21
   8  -2  -4    3.18    0.62
  10  -2  -4   40.95    1.74
  12  -2  -4    8.08    0.97
  14  -2  -4   76.22    2.61
  16  -2  -4   49.54    2.74
  18  -2  -4   19.44    1.83
  20  -2  -4   10.77    1.86
  22  -2  -4   46.52    3.83
 -17  -1  -4    4.61    2.19
 -15  -1  -4   19.60    2.41
 -13  -1  -4    0.59    0.89
 -11  -1  -4  197.75    5.48
  -9  -1  -4    1.37    0.75
  -7  -1  -4    0.44    0.57
  -5  -1  -4   39.82    2.11
  -3  -1  -4    0.57    0.38
  -1  -1  -4    1.46    0.42
   1  -1  -4  243.73    4.54
   3  -1  -4    0.19    0.22
   5  -1  -4  203.57    3.81
   7  -1  -4   20.53    0.91
   9  -1  -4   54.19    1.62
  11  -1  -4  117.24    2.72
  13  -1  -4   13.25    1.02
  15  -1  -4   78.92    2.84
  17  -1  -4  138.10    4.21
  19  -1  -4   42.43    2.59
  21  -1  -4  103.46    3.88
  23  -1  -4    3.40    1.39
 -18   0  -4    3.30    2.10
 -16   0  -4   85.34    4.37
 -14   0  -4    1.58    1.05
 -12   0  -4  115.39    4.93
 -10   0  -4    7.93    0.91
  -8   0  -4  109.34    2.90
  -6   0  -4  121.28    3.02
  -4   0  -4   31.68    1.37
  -2   0  -4   98.25    2.10
   0   0  -4  125.34    2.40
   2   0  -4  142.35    2.33
   4   0  -4   50.08    1.01
   6   0  -4  364.02    5.08
   8   0  -4    4.26    0.41
  10   0  -4   50.18    1.57
  12   0  -4   10.66    1.03
  14   0  -4   85.23    2.76
  16   0  -4   53.55    2.34
  18   0  -4   23.74    1.82
  20   0  -4   17.61    1.71
  22   0  -4   58.80    4.06
 -17   1  -4    4.69    2.27
 -15   1  -4   20.40    2.02
 -13   1  -4    0.67    0.73
 -11   1  -4  187.56    5.44
  -9   1  -4    2.52    0.76
  -7   1  -4    0.80    0.57
  -5   1  -4   37.38    1.72
  -3   1  -4    0.28    0.32
  -1   1  -4    0.44    0.32
   1   1  -4  246.75    3.41
   3   1  -4    0.31    0.20
   5   1  -4  197.16    2.68
   7   1  -4   21.55    0.94
   9   1  -4   48.97    1.68
  11   1  -4  118.36    2.96
  13   1  -4   14.62    1.14
  15   1  -4   78.87    2.54
  17   1  -4  145.77    4.74
  19   1  -4   38.02    3.12
  21   1  -4  108.07    4.92
  23   1  -4    1.37    1.29
 -16   2  -4   73.07    4.55
 -14   2  -4    3.53    1.16
 -12   2  -4  102.27    3.99
 -10   2  -4    6.41    1.18
  -8   2  -4   92.70    3.43
  -6   2  -4   91.42    3.20
  -4   2  -4   25.44    1.36
  -2   2  -4   81.46    2.27
   0   2  -4   94.97    2.05
   2   2  -4  112.48    2.05
   4   2  -4   39.94    1.19
   6   2  -4  288.05    4.27
   8   2  -4    3.47    0.61
  10   2  -4   38.94    1.79
  12   2  -4    8.42    1.12
  14   2  -4   66.23    3.01
  16   2  -4   50.42    2.88
  18   2  -4   19.39    2.05
  20   2  -4   11.71    1.70
  22   2  -4   52.37    4.04
 -15   3  -4   14.11    2.36
 -13   3  -4   -0.68    0.84
 -11   3  -4  148.28    5.03
  -9   3  -4    1.83    0.83
  -7   3  -4    0.78    0.64
  -5   3  -4   24.06    1.59
  -3   3  -4   -0.05    0.43
  -1   3  -4    0.55    0.51
   1   3  -4  151.21    4.35
   3   3  -4    0.43    0.41
   5   3  -4  128.08    3.25
   7   3  -4   10.63    1.21
   9   3  -4   30.82    2.14
  11   3  -4   73.64    3.10
  13   3  -4   12.73    1.39
  15   3  -4   54.43    2.97
  17   3  -4  112.62    4.50
  19   3  -4   35.00    2.96
  21   3  -4   78.73    5.26
 -12   4  -4   68.89    5.12
 -10   4  -4    4.20    1.51
  -8   4  -4   57.51    4.17
  -6   4  -4   58.54    3.68
  -4   4  -4   16.42    1.69
  -2   4  -4   44.72    2.77
   0   4  -4   55.36    2.74
   2   4  -4   60.02    2.74
   4   4  -4   18.61    1.76
   6   4  -4  164.71    4.89
   8   4  -4    1.95    0.81
  10   4  -4   19.50    1.89
  12   4  -4    5.28    1.19
  14   4  -4   54.90    4.38
  16   4  -4   33.38    3.74
  18   4  -4   18.84    3.27
  -9   5  -4    1.70    2.44
  -7   5  -4   -0.06    1.12
  -5   5  -4   10.86    1.98
  -3   5  -4   -0.37    0.80
  -1   5  -4    0.48    0.76
   1   5  -4   80.40    3.61
   3   5  -4   -0.09    0.90
   5   5  -4   66.76    4.79
   7   5  -4    4.97    1.49
   9   5  -4   14.76    1.78
  11   5  -4   46.92    3.30
  13   5  -4    5.47    1.42
  -2   6  -4   22.45    4.66
   0   6  -4   34.01    5.61
   2   6  -4   37.57    3.93
   4   6  -4   16.33    3.67
  -2  -6  -3   16.94    2.46
   0  -6  -3  101.46    5.15
   2  -6  -3    3.81    1.46
   4  -6  -3   72.76    4.55
   6  -6  -3   22.12    3.86
  -9  -5  -3   33.67    5.02
  -7  -5  -3   35.56    5.05
  -5  -5  -3  182.15    6.74
  -3  -5  -3    3.03    1.16
  -1  -5  -3   11.35    1.88
   1  -5  -3    5.60    1.31
   3  -5  -3    3.80    1.18
   5  -5  -3    8.93    1.64
   7  -5  -3    4.36    1.87
   9  -5  -3  137.76    5.43
  11  -5  -3   80.17    4.12
  13  -5  -3    0.91    0.96
  15  -5  -3    6.28    1.74
 -14  -4  -3   30.22    3.56
 -12  -4  -3    3.36    1.65
 -10  -4  -3   40.26    3.64
  -8  -4  -3    8.90    1.73
  -6  -4  -3    0.14    0.66
  -4  -4  -3  111.94    4.58
  -2  -4  -3   41.54    2.72
   0  -4  -3  201.14    6.37
   2  -4  -3    5.67    0.90
   4  -4  -3  161.26    4.29
   6  -4  -3   52.43    2.22
   8  -4  -3   48.55    2.85
  10  -4  -3    5.61    1.19
  12  -4  -3  114.37    4.67
  14  -4  -3   69.25    3.69
  16  -4  -3    9.62    1.77
  18  -4  -3   38.05    4.85
 -17  -3  -3   61.97    5.15
 -15  -3  -3   34.35    3.68
 -13  -3  -3    0.06    1.16
 -11  -3  -3   13.65    2.04
  -9  -3  -3   66.35    3.90
  -7  -3  -3   60.02    2.54
  -5  -3  -3  341.32    6.28
  -3  -3  -3   12.13    0.94
  -1  -3  -3   34.44    1.41
   1  -3  -3    7.26    0.70
   3  -3  -3   20.23    1.38
   5  -3  -3   15.77    1.03
   7  -3  -3    5.71    0.64
   9  -3  -3  266.62    5.89
  11  -3  -3  140.65    3.87
  13  -3  -3    2.71    0.73
  15  -3  -3   13.09    1.39
  17  -3  -3   19.10    2.20
  19  -3  -3    9.02    2.47
 -18  -2  -3    8.79    2.88
 -16  -2  -3    2.16    1.39
 -14  -2  -3   44.33    3.79
 -12  -2  -3    8.57    1.72
 -10  -2  -3   61.70    2.72
  -8  -2  -3   13.48    1.37
  -6  -2  -3    0.42    0.54
  -4  -2  -3  202.19    4.05
  -2  -2  -3   78.99    2.04
   0  -2  -3  373.37    6.34
   2  -2  -3    9.40    0.57
   4  -2  -3  302.97    5.21
   6  -2  -3   93.46    2.15
   8  -2  -3   91.10    2.14
  10  -2  -3    5.98    0.79
  12  -2  -3  184.89    4.50
  14  -2  -3  122.16    3.11
  16  -2  -3   11.96    1.39
  18  -2  -3   59.90    3.46
  20  -2  -3   58.87    3.55
  22  -2  -3    1.54    1.29
 -19  -1  -3   10.17    2.92
 -17  -1  -3   76.79    6.24
 -15  -1  -3   63.74    3.97
 -13  -1  -3   -0.58    0.83
 -11  -1  -3   15.89    1.25
  -9  -1  -3   93.68    2.65
  -7  -1  -3   89.42    2.40
  -5  -1  -3  500.34    8.53
  -3  -1  -3   17.12    0.69
  -1  -1  -3   65.50    1.71
   1  -1  -3   12.29    0.61
   3  -1  -3   36.72    0.87
   5  -1  -3   22.68    0.90
   7  -1  -3    9.50    0.56
   9  -1  -3  401.13    6.50
  11  -1  -3  216.71    4.08
  13  -1  -3    5.92    0.66
  15  -1  -3   17.09    1.44
  17  -1  -3   39.42    2.31
  19  -1  -3   17.07    1.65
  21  -1  -3   14.42    1.99
  23  -1  -3   -0.24    1.07
 -18   0  -3    7.15    2.43
 -16   0  -3    1.95    1.05
 -14   0  -3   52.43    2.70
 -12   0  -3    7.40    1.10
 -10   0  -3   70.54    2.25
  -8   0  -3   12.79    1.02
  -6   0  -3    0.72    0.37
  -4   0  -3  251.24    4.77
  -2   0  -3  102.77    2.04
   0   0  -3  490.55    7.07
   2   0  -3   13.85    0.51
   4   0  -3  388.78    4.44
   6   0  -3  123.27    2.04
   8   0  -3  115.35    2.27
  10   0  -3   11.17    0.75
  12   0  -3  221.98    4.99
  14   0  -3  141.10    3.77
  16   0  -3   16.06    1.40
  18   0  -3   67.51    2.68
  20   0  -3   65.56    2.89
  22   0  -3    1.81    1.10
 -19   1  -3    8.30    1.85
 -17   1  -3   84.28    4.41
 -15   1  -3   51.43    3.83
 -13   1  -3    0.60    0.75
 -11   1  -3   18.73    1.77
  -9   1  -3  101.43    3.48
  -7   1  -3   89.80    3.09
  -5   1  -3  502.09    7.75
  -3   1  -3   17.44    0.82
  -1   1  -3   64.58    1.28
   1   1  -3   12.44    0.48
   3   1  -3   36.30    0.77
   5   1  -3   21.33    0.66
   7   1  -3    9.45    0.62
   9   1  -3  398.48    6.79
  11   1  -3  210.70    4.36
  13   1  -3    5.13    0.72
  15   1  -3   17.26    1.25
  17   1  -3   32.48    2.37
  19   1  -3   15.84    1.86
  21   1  -3   15.26    2.10
  23   1  -3    0.29    1.11
 -18   2  -3    8.21    1.81
 -16   2  -3    4.46    1.43
 -14   2  -3   50.35    3.81
 -12   2  -3    6.35    1.19
 -10   2  -3   56.47    2.73
  -8   2  -3   14.82    1.44
  -6   2  -3    0.67    0.40
  -4   2  -3  199.12    4.15
  -2   2  -3   80.02    1.66
   0   2  -3  380.13    5.77
   2   2  -3    8.77    0.55
   4   2  -3  303.08    4.75
   6   2  -3   95.05    1.88
   8   2  -3   91.66    2.40
  10   2  -3    7.43    0.81
  12   2  -3  192.26    5.03
  14   2  -3  120.53    4.03
  16   2  -3   12.97    1.57
  18   2  -3   53.10    3.34
  20   2  -3   58.98    3.56
  22   2  -3    2.31    1.26
 -17   3  -3   66.37    5.06
 -15   3  -3   41.84    3.81
 -13   3  -3   -0.39    0.90
 -11   3  -3   12.72    1.59
  -9   3  -3   65.54    2.84
  -7   3  -3   60.73    2.21
  -5   3  -3  329.35    6.64
  -3   3  -3    9.85    1.03
  -1   3  -3   31.73    1.93
   1   3  -3    8.93    0.81
   3   3  -3   21.99    1.30
   5   3  -3   13.88    1.26
   7   3  -3    6.98    0.99
   9   3  -3  270.06    6.11
  11   3  -3  145.51    3.61
  13   3  -3    2.48    0.79
  15   3  -3   13.27    1.55
  17   3  -3   25.98    2.25
  19   3  -3   10.61    1.62
  21   3  -3   13.50    2.02
 -14   4  -3   37.67    3.95
 -12   4  -3    6.20    1.79
 -10   4  -3   39.71    3.54
  -8   4  -3    9.73    1.74
  -6   4  -3   -0.49    0.56
  -4   4  -3  110.98    3.84
  -2   4  -3   37.89    2.40
   0   4  -3  187.17    5.39
   2   4  -3    3.35    0.79
   4   4  -3  157.67    4.53
   6   4  -3   50.57    2.62
   8   4  -3   52.17    2.71
  10   4  -3    3.93    0.97
  12   4  -3  114.01    4.22
  14   4  -3   70.61    4.92
  16   4  -3    5.11    1.79
  18   4  -3   36.61    4.12
  -9   5  -3   37.59    3.64
  -7   5  -3   37.19    2.79
  -5   5  -3  183.13    5.75
  -3   5  -3    6.44    1.22
  -1   5  -3   12.25    1.58
   1   5  -3    3.77    1.04
   3   5  -3    5.56    1.33
   5   5  -3    6.53    1.57
   7   5  -3    6.05    1.19
   9   5  -3  146.79    4.95
  11   5  -3   80.81    3.99
  13   5  -3    1.91    1.35
  15   5  -3    7.36    2.15
  -4   6  -3   58.82    4.72
  -2   6  -3   12.61    1.91
   0   6  -3   99.58    5.57
   2   6  -3    1.99    1.38
   4   6  -3   79.67    5.16
   6   6  -3   27.95    3.36
   8   6  -3   30.10    4.78
  -4  -6  -2    2.33    1.91
  -2  -6  -2   40.60    3.53
   0  -6  -2    1.44    1.27
   2  -6  -2    8.17    1.77
   4  -6  -2   11.59    2.08
   6  -6  -2   96.34    6.95
   8  -6  -2    4.88    2.30
 -13  -5  -2   -1.92    1.99
 -11  -5  -2   49.66    4.15
  -9  -5  -2   49.06    4.05
  -7  -5  -2    7.69    2.54
  -5  -5  -2    3.74    1.16
  -3  -5  -2    1.98    1.00
  -1  -5  -2  146.05    5.58
   1  -5  -2   62.38    3.39
   3  -5  -2  157.64    5.83
   5  -5  -2    3.58    1.13
   7  -5  -2   -0.84    0.70
   9  -5  -2    0.61    1.27
  11  -5  -2    8.27    1.63
  13  -5  -2    0.70    1.12
  15  -5  -2   96.89    4.90
 -16  -4  -2    2.09    1.71
 -14  -4  -2   77.72    7.49
 -12  -4  -2   82.55    4.45
 -10  -4  -2   90.17    4.49
  -8  -4  -2   64.04    3.56
  -6  -4  -2    5.74    0.99
  -4  -4  -2    0.34    0.55
  -2  -4  -2   90.53    2.98
   0  -4  -2    4.99    0.83
   2  -4  -2   18.18    1.39
   4  -4  -2   18.32    1.39
   6  -4  -2  182.42    4.57
   8  -4  -2    9.45    1.12
  10  -4  -2   11.20    1.54
  12  -4  -2    6.72    1.35
  14  -4  -2   30.68    2.71
  16  -4  -2   51.02    3.66
  18  -4  -2   55.57    5.91
 -17  -3  -2   75.48    5.51
 -15  -3  -2  116.06    5.64
 -13  -3  -2    1.64    1.15
 -11  -3  -2   94.60    4.44
  -9  -3  -2   97.36    4.16
  -7  -3  -2   28.31    1.84
  -5  -3  -2   14.16    1.01
  -3  -3  -2    2.04    0.47
  -1  -3  -2  303.93    5.41
   1  -3  -2  136.21    2.84
   3  -3  -2  332.73    5.70
   5  -3  -2    8.60    0.60
   7  -3  -2    0.38    0.36
   9  -3  -2    0.17    0.34
  11  -3  -2   15.77    1.30
  13  -3  -2    3.06    0.76
  15  -3  -2  141.41    5.22
  17  -3  -2    6.41    2.11
  19  -3  -2    6.38    2.28
 -18  -2  -2   18.67    3.75
 -16  -2  -2    2.69    1.31
 -14  -2  -2   99.61    4.85
 -12  -2  -2  119.00    3.84
 -10  -2  -2  141.68    4.05
  -8  -2  -2  112.27    2.79
  -6  -2  -2    8.65    0.77
  -4  -2  -2    0.94    0.30
  -2  -2  -2  170.56    3.24
   0  -2  -2   13.24    0.75
   2  -2  -2   28.24    0.82
   4  -2  -2   31.48    0.83
   6  -2  -2  354.81    5.87
   8  -2  -2   17.60    0.87
  10  -2  -2   18.06    1.24
  12  -2  -2   16.35    1.27
  14  -2  -2   56.64    2.05
  16  -2  -2   60.50    3.12
  18  -2  -2   94.57    4.23
  20  -2  -2  103.66    4.71
  22  -2  -2    1.42    1.18
 -19  -1  -2    2.28    1.85
 -17  -1  -2   92.15    4.47
 -15  -1  -2  160.23    4.87
 -13  -1  -2    0.14    0.62
 -11  -1  -2  136.05    3.34
  -9  -1  -2  132.68    3.13
  -7  -1  -2   41.98    1.51
  -5  -1  -2   21.37    1.01
  -3  -1  -2    6.15    0.44
  -1  -1  -2  492.84    7.79
   1  -1  -2  249.38    3.63
   3  -1  -2  552.97    8.31
   5  -1  -2   18.61    0.63
   7  -1  -2    1.48    0.32
   9  -1  -2   -0.05    0.25
  11  -1  -2   24.36    1.15
  13  -1  -2    4.55    0.59
  15  -1  -2  180.48    4.60
  17  -1  -2    6.66    0.99
  19  -1  -2   13.70    1.77
  21  -1  -2   -0.11    0.88
  23  -1  -2   37.99    3.43
 -20   0  -2   11.60    2.06
 -18   0  -2   17.74    2.31
 -16   0  -2    2.12    1.05
 -14   0  -2  112.61    3.82
 -12   0  -2  149.10    4.33
 -10   0  -2  169.49    4.48
  -8   0  -2  142.31    2.78
  -6   0  -2   13.35    0.61
  -4   0  -2    1.70    0.39
  -2   0  -2  235.24    4.13
   0   0  -2   22.36    0.57
   2   0  -2   38.66    0.69
   4   0  -2   46.01    0.91
   6   0  -2  479.42    6.82
   8   0  -2   24.29    0.81
  10   0  -2   23.65    0.92
  12   0  -2   17.78    1.26
  14   0  -2   63.38    2.31
  16   0  -2   73.53    2.67
  18   0  -2  104.99    3.47
  20   0  -2  100.36    3.55
  22   0  -2   -0.63    0.87
 -21   1  -2    9.17    2.08
 -19   1  -2    1.27    1.16
 -17   1  -2  102.97    4.90
 -15   1  -2  150.13    5.97
 -13   1  -2    1.07    0.76
 -11   1  -2  137.39    4.17
  -9   1  -2  125.50    3.12
  -7   1  -2   45.47    1.51
  -5   1  -2   21.82    0.98
  -3   1  -2    6.85    0.55
  -1   1  -2  498.31    6.97
   1   1  -2  249.06    3.11
   3   1  -2  555.11    6.90
   5   1  -2   17.91    0.65
   7   1  -2    0.64    0.25
   9   1  -2    0.08    0.26
  11   1  -2   26.64    1.28
  13   1  -2    4.16    0.66
  15   1  -2  181.12    4.19
  17   1  -2    9.40    1.33
  19   1  -2   10.53    1.70
  21   1  -2   -0.49    0.96
  23   1  -2   28.53    4.19
 -20   2  -2   15.04    2.58
 -18   2  -2   18.99    2.64
 -16   2  -2    4.25    1.37
 -14   2  -2  100.36    4.69
 -12   2  -2  118.70    3.90
 -10   2  -2  136.08    3.42
  -8   2  -2  105.35    2.79
  -6   2  -2   10.85    0.88
  -4   2  -2    1.25    0.39
  -2   2  -2  167.79    2.87
   0   2  -2   14.05    0.79
   2   2  -2   30.03    0.81
   4   2  -2   30.71    0.93
   6   2  -2  355.33    6.18
   8   2  -2   17.69    1.10
  10   2  -2   18.99    1.44
  12   2  -2   18.88    1.56
  14   2  -2   52.83    2.59
  16   2  -2   67.72    3.20
  18   2  -2   98.26    4.07
  20   2  -2   92.84    4.61
  22   2  -2    0.06    1.18
 -17   3  -2   68.19    5.19
 -15   3  -2  111.71    5.59
 -13   3  -2   -0.69    0.92
 -11   3  -2   93.06    3.47
  -9   3  -2   90.52    2.77
  -7   3  -2   27.65    1.88
  -5   3  -2   13.81    1.26
  -3   3  -2    3.12    0.64
  -1   3  -2  300.92    5.59
   1   3  -2  128.45    2.98
   3   3  -2  330.71    6.12
   5   3  -2    9.80    0.74
   7   3  -2    0.90    0.41
   9   3  -2    0.12    0.39
  11   3  -2   15.56    1.44
  13   3  -2    3.17    0.85
  15   3  -2  141.57    4.67
  17   3  -2    6.92    1.41
  19   3  -2    8.23    1.69
  21   3  -2    1.07    1.22
 -14   4  -2   76.00    5.55
 -12   4  -2   73.29    4.60
 -10   4  -2   90.86    3.61
  -8   4  -2   52.65    2.71
  -6   4  -2    4.91    0.96
  -4   4  -2    1.19    0.61
  -2   4  -2   83.23    3.11
   0   4  -2    7.38    0.84
   2   4  -2   19.17    1.33
   4   4  -2   18.10    1.55
   6   4  -2  184.54    5.03
   8   4  -2    8.36    1.16
  10   4  -2   12.10    1.43
  12   4  -2   12.23    1.97
  14   4  -2   33.13    3.36
  16   4  -2   39.99    3.89
  18   4  -2   64.16    5.37
 -11   5  -2   50.75    6.06
  -9   5  -2   55.17    4.38
  -7   5  -2   13.62    1.63
  -5   5  -2    8.18    1.35
  -3   5  -2    0.33    0.69
  -1   5  -2  148.50    4.83
   1   5  -2   63.31    3.90
   3   5  -2  157.38    4.86
   5   5  -2    2.60    0.82
   7   5  -2   -0.27    0.67
   9   5  -2    0.07    0.76
  11   5  -2    7.57    1.40
  13   5  -2    0.51    1.15
  15   5  -2   94.80    6.40
  -6   6  -2    3.13    1.49
  -4   6  -2   -0.09    1.21
  -2   6  -2   46.32    4.14
   0   6  -2    1.89    1.40
   2   6  -2   10.13    2.13
   4   6  -2   10.56    2.16
   6   6  -2   97.42    5.40
   8   6  -2    3.15    1.26
  10   6  -2    5.88    2.52
  -6  -6  -1  110.00    7.91
  -4  -6  -1    3.82    2.04
  -2  -6  -1    0.59    1.15
   0  -6  -1    2.13    1.32
   2  -6  -1   -0.08    1.00
   4  -6  -1   -0.90    0.88
   6  -6  -1   89.18    4.51
   8  -6  -1   -0.51    1.64
 -13  -5  -1    3.13    1.58
 -11  -5  -1   49.79    4.12
  -9  -5  -1    0.51    1.11
  -7  -5  -1   36.93    3.23
  -5  -5  -1    7.68    1.55
  -3  -5  -1  140.94    4.30
  -1  -5  -1    1.77    0.94
   1  -5  -1    0.31    0.72
   3  -5  -1    7.58    1.40
   5  -5  -1  111.43    4.65
   7  -5  -1    7.13    1.47
   9  -5  -1   71.40    5.43
  11  -5  -1  118.81    5.02
  13  -5  -1   10.50    1.86
  15  -5  -1    1.40    1.26
 -16  -4  -1    2.71    1.59
 -14  -4  -1    0.55    1.25
 -12  -4  -1   26.85    2.84
 -10  -4  -1   10.72    1.80
  -8  -4  -1  119.41    4.85
  -6  -4  -1  212.34    5.32
  -4  -4  -1   12.72    1.25
  -2  -4  -1    0.24    0.50
   0  -4  -1    2.91    0.67
   2  -4  -1   -0.42    0.42
   4  -4  -1    0.04    0.37
   6  -4  -1  179.97    4.54
   8  -4  -1    0.12    0.53
  10  -4  -1   71.42    3.47
  12  -4  -1   93.15    4.20
  14  -4  -1   -0.46    0.87
  16  -4  -1   21.29    2.55
  18  -4  -1   -0.77    1.63
 -19  -3  -1    4.59    2.72
 -17  -3  -1    1.32    1.81
 -15  -3  -1   11.35    2.04
 -13  -3  -1    3.86    1.26
 -11  -3  -1   73.68    2.94
  -9  -3  -1    0.72    0.62
  -7  -3  -1   68.22    1.99
  -5  -3  -1   16.63    1.26
  -3  -3  -1  299.99    5.20
  -1  -3  -1    6.59    0.59
   1  -3  -1   -0.08    0.27
   3  -3  -1   15.23    1.08
   5  -3  -1  227.22    4.11
   7  -3  -1   15.82    0.96
   9  -3  -1  138.63    2.99
  11  -3  -1  214.74    6.37
  13  -3  -1   16.68    1.82
  15  -3  -1    3.57    1.16
  17  -3  -1    1.02    0.99
  19  -3  -1   83.66    6.11
 -18  -2  -1   18.05    3.64
 -16  -2  -1    7.05    1.30
 -14  -2  -1   -0.59    0.66
 -12  -2  -1   46.09    2.42
 -10  -2  -1   23.02    1.68
  -8  -2  -1  214.58    4.23
  -6  -2  -1  391.39    6.67
  -4  -2  -1   21.11    0.86
  -2  -2  -1    0.53    0.24
   0  -2  -1    6.23    0.48
   2  -2  -1    0.10    0.20
   4  -2  -1    0.46    0.24
   6  -2  -1  344.63    5.57
   8  -2  -1    0.87    0.32
  10  -2  -1  124.59    2.69
  12  -2  -1  169.46    4.24
  14  -2  -1   -0.30    0.48
  16  -2  -1   29.65    2.49
  18  -2  -1   -0.27    0.74
  20  -2  -1    2.36    1.11
  22  -2  -1   31.16    3.17
 -21  -1  -1    1.79    1.35
 -19  -1  -1    5.04    1.59
 -17  -1  -1    1.18    0.92
 -15  -1  -1   21.80    1.87
 -13  -1  -1    2.06    0.76
 -11  -1  -1  102.59    2.65
  -9  -1  -1    1.45    0.45
  -7  -1  -1   98.24    2.31
  -5  -1  -1   33.15    1.08
  -3  -1  -1  502.83    6.99
  -1  -1  -1   12.11    0.53
   1  -1  -1    0.64    0.17
   3  -1  -1   34.68    0.86
   5  -1  -1  403.97    5.38
   7  -1  -1   31.48    0.80
   9  -1  -1  219.29    3.87
  11  -1  -1  319.49    5.54
  13  -1  -1   19.27    1.16
  15  -1  -1    3.42    0.78
  17  -1  -1    0.13    0.73
  19  -1  -1  100.13    4.36
  21  -1  -1  129.98    5.44
  23  -1  -1   16.93    3.30
 -22   0  -1    2.68    1.60
 -20   0  -1  187.35    7.35
 -18   0  -1   28.59    2.89
 -16   0  -1    8.88    1.63
 -14   0  -1    0.60    0.69
 -12   0  -1   65.21    2.16
 -10   0  -1   28.11    1.44
  -8   0  -1  268.57    5.18
  -6   0  -1  491.27    9.69
  -4   0  -1   30.80    0.89
  -2   0  -1    1.07    0.26
   0   0  -1   11.58    0.31
   2   0  -1    0.41    0.15
   4   0  -1   -0.01    0.17
   6   0  -1  474.46    6.66
   8   0  -1    2.04    0.29
  10   0  -1  159.20    3.04
  12   0  -1  211.15    3.93
  14   0  -1    0.56    0.43
  16   0  -1   41.72    2.12
  18   0  -1    0.71    0.65
  20   0  -1    2.37    1.09
  22   0  -1   33.86    3.14
 -21   1  -1   -0.24    1.20
 -19   1  -1    4.13    1.37
 -17   1  -1    0.30    0.82
 -15   1  -1   17.64    2.17
 -13   1  -1    3.67    0.71
 -11   1  -1  105.26    2.81
  -9   1  -1    2.67    0.55
  -7   1  -1  100.79    2.36
  -5   1  -1   32.92    1.08
  -3   1  -1  509.93    8.15
  -1   1  -1   12.30    0.45
   1   1  -1    0.73    0.16
   3   1  -1   34.48    0.93
   5   1  -1  388.08    6.17
   7   1  -1   33.25    1.03
   9   1  -1  212.07    4.06
  11   1  -1  324.78    5.95
  13   1  -1   19.56    1.29
  15   1  -1    2.17    0.60
  17   1  -1    0.92    0.59
  19   1  -1   98.02    4.36
  21   1  -1  132.95    8.11
 -20   2  -1  176.77    7.36
 -18   2  -1   17.94    2.53
 -16   2  -1    7.54    1.66
 -14   2  -1    0.70    0.99
 -12   2  -1   51.56    2.05
 -10   2  -1   23.74    1.44
  -8   2  -1  209.25    4.36
  -6   2  -1  392.90    5.86
  -4   2  -1   20.34    0.75
  -2   2  -1    0.21    0.22
   0   2  -1    6.56    0.54
   2   2  -1    0.19    0.17
   4   2  -1   -0.10    0.20
   6   2  -1  337.03    5.89
   8   2  -1    1.20    0.25
  10   2  -1  123.10    3.57
  12   2  -1  165.13    4.64
  14   2  -1   -0.01    0.56
  16   2  -1   36.72    2.61
  18   2  -1    0.56    0.81
  20   2  -1    3.17    1.26
  22   2  -1   26.64    3.00
 -19   3  -1    3.20    2.24
 -17   3  -1    0.06    1.76
 -15   3  -1   14.34    2.24
 -13   3  -1    2.52    0.91
 -11   3  -1   75.81    3.07
  -9   3  -1    1.14    0.56
  -7   3  -1   62.63    2.41
  -5   3  -1   17.84    1.37
  -3   3  -1  293.03    5.40
  -1   3  -1    5.35    0.61
   1   3  -1   -0.16    0.28
   3   3  -1   13.55    0.78
   5   3  -1  221.59    4.32
   7   3  -1   16.69    1.11
   9   3  -1  135.32    3.30
  11   3  -1  220.35    5.52
  13   3  -1   14.75    1.52
  15   3  -1    2.30    0.93
  17   3  -1    1.15    1.05
  19   3  -1   81.76    4.55
  21   3  -1  113.82    5.44
 -16   4  -1    1.81    2.09
 -14   4  -1   -0.06    1.64
 -12   4  -1   26.79    2.88
 -10   4  -1   11.55    1.44
  -8   4  -1  112.85    3.85
  -6   4  -1  212.27    5.62
  -4   4  -1   10.94    1.22
  -2   4  -1    0.30    0.38
   0   4  -1    2.82    0.58
   2   4  -1    0.19    0.45
   4   4  -1    0.19    0.52
   6   4  -1  184.11    4.98
   8   4  -1    0.31    0.58
  10   4  -1   78.12    3.15
  12   4  -1  101.84    4.82
  14   4  -1    0.35    1.04
  16   4  -1   20.22    2.75
  18   4  -1    0.50    1.68
 -13   5  -1    2.93    2.27
 -11   5  -1   48.09    4.14
  -9   5  -1    0.76    1.07
  -7   5  -1   34.95    3.32
  -5   5  -1    4.95    1.33
  -3   5  -1  141.72    4.64
  -1   5  -1    1.10    0.88
   1   5  -1   -0.22    0.61
   3   5  -1    6.39    1.11
   5   5  -1  117.21    4.05
   7   5  -1    8.88    1.35
   9   5  -1   70.98    3.38
  11   5  -1  113.29    5.57
  13   5  -1    7.04    1.88
  15   5  -1    1.13    2.68
  -8   6  -1   53.24    4.68
  -6   6  -1  100.85    5.68
  -4   6  -1    7.76    1.89
  -2   6  -1    0.26    1.06
   0   6  -1    1.11    1.20
   2   6  -1    0.07    1.05
   4   6  -1    0.61    1.81
   6   6  -1   91.65    4.95
   8   6  -1    0.36    1.32
 -10  -6   0    3.57    2.51
  -8  -6   0    8.59    1.98
  -6  -6   0    0.69    1.63
  -4  -6   0    1.09    1.71
  -2  -6   0   -0.09    1.12
   0  -6   0  318.75    9.78
   2  -6   0    0.23    1.01
   4  -6   0    3.72    1.38
   6  -6   0    3.01    1.36
   8  -6   0    4.26    2.34
 -15  -5   0   47.56    5.99
 -13  -5   0   18.28    2.66
 -11  -5   0   21.35    2.64
  -9  -5   0   41.97    3.51
  -7  -5   0   36.99    3.17
  -5  -5   0  100.64    4.49
  -3  -5   0   22.79    1.80
  -1  -5   0    3.94    0.88
   1  -5   0    4.50    0.92
   3  -5   0   14.10    1.85
   5  -5   0  104.04    4.48
   7  -5   0   37.57    3.05
   9  -5   0   43.98    4.99
  11  -5   0   20.67    2.43
  13  -5   0   19.86    2.56
  15  -5   0   51.80    6.03
 -16  -4   0   44.76    3.94
 -14  -4   0  127.73    5.73
 -12  -4   0   34.08    2.42
 -10  -4   0    5.11    1.02
  -8  -4   0   17.22    1.99
  -6  -4   0    3.34    0.77
  -4  -4   0    5.33    0.86
  -2  -4   0    2.37    0.64
   0  -4   0  616.10   11.96
   2  -4   0    3.15    0.68
   4  -4   0    4.44    0.78
   6  -4   0    3.84    0.76
   8  -4   0   16.40    1.42
  10  -4   0    6.58    1.01
  12  -4   0   32.98    2.80
  14  -4   0  127.69    5.30
  16  -4   0   63.46    4.29
  18  -4   0    0.73    1.93
 -19  -3   0    7.37    2.74
 -17  -3   0   90.41    4.76
 -15  -3   0   82.65    3.45
 -13  -3   0   32.75    2.36
 -11  -3   0   33.12    2.18
  -9  -3   0   86.58    2.91
  -7  -3   0   89.64    2.64
  -5  -3   0  223.38    4.95
  -3  -3   0   44.80    1.67
  -1  -3   0    7.54    0.59
   1  -3   0    8.18    0.75
   3  -3   0   42.76    1.57
   5  -3   0  218.27    4.82
   7  -3   0   85.96    2.62
   9  -3   0   85.75    2.69
  11  -3   0   30.71    1.73
  13  -3   0   41.31    2.92
  15  -3   0   83.66    3.91
  17  -3   0  101.79    4.54
  19  -3   0    8.20    2.53
 -20  -2   0   18.45    2.57
 -18  -2   0    2.72    1.23
 -16  -2   0   74.89    4.01
 -14  -2   0  207.47    5.54
 -12  -2   0   55.48    2.34
 -10  -2   0   13.06    1.26
  -8  -2   0   29.08    1.19
  -6  -2   0    8.32    0.71
  -4  -2   0    8.32    0.70
  -2  -2   0    5.70    0.39
   0  -2   0  982.38   16.63
   2  -2   0    5.17    0.38
   4  -2   0    8.40    0.53
   6  -2   0    7.46    0.57
   8  -2   0   30.07    1.11
  10  -2   0   13.90    0.92
  12  -2   0   56.23    2.14
  14  -2   0  200.04    5.02
  16  -2   0   75.71    2.83
  18  -2   0    2.21    1.03
  20  -2   0   13.00    2.94
 -23  -1   0    1.09    2.32
 -21  -1   0   26.91    3.12
 -19  -1   0   13.10    2.06
 -17  -1   0  125.37    5.32
 -15  -1   0  118.99    4.08
 -13  -1   0   49.11    2.36
 -11  -1   0   47.23    2.02
  -9  -1   0  129.24    2.73
  -7  -1   0  155.64    2.99
  -5  -1   0  390.66    6.26
  -3  -1   0   77.49    1.80
  -1  -1   0   11.62    0.41
   1  -1   0   11.79    0.40
   3  -1   0   82.38    1.52
   5  -1   0  394.91    5.97
   7  -1   0  159.02    2.89
   9  -1   0  126.29    2.66
  11  -1   0   46.71    1.53
  13  -1   0   49.54    1.68
  15  -1   0  110.69    4.30
  17  -1   0  128.24    6.89
  19  -1   0   11.68    1.77
  21  -1   0   23.84    2.71
 -22   0   0   -0.51    1.19
 -20   0   0   20.29    2.60
 -18   0   0   -0.04    0.91
 -16   0   0   95.24    4.41
 -14   0   0  258.21    6.46
 -12   0   0   71.63    2.29
 -10   0   0   15.24    1.14
  -8   0   0   41.80    1.52
  -6   0   0   13.19    0.89
  -4   0   0   11.14    0.72
  -2   0   0   10.19    0.47
   2   0   0   10.26    0.36
   4   0   0   11.13    0.47
   6   0   0   11.71    0.57
   8   0   0   40.00    1.14
  10   0   0   17.74    0.88
  12   0   0   69.35    1.85
  14   0   0  252.18    5.73
  16   0   0   95.18    3.11
  18   0   0    0.35    0.82
  20   0   0   17.98    2.24
  22   0   0    0.36    1.16
 -21   1   0   25.61    2.89
 -19   1   0    6.95    1.61
 -17   1   0  127.88    5.38
 -15   1   0  122.24    4.01
 -13   1   0   44.96    2.32
 -11   1   0   47.62    1.73
  -9   1   0  132.13    2.96
  -7   1   0  155.68    3.16
  -5   1   0  392.18    6.49
  -3   1   0   82.80    1.42
  -1   1   0   11.54    0.48
   1   1   0   11.67    0.48
   3   1   0   80.88    1.39
   5   1   0  388.94    6.16
   7   1   0  153.68    3.00
   9   1   0  136.50    2.88
  11   1   0   46.36    1.69
  13   1   0   48.26    1.83
  15   1   0  115.09    3.42
  17   1   0  121.33    3.76
  19   1   0   12.82    2.76
  21   1   0   26.12    4.04
 -20   2   0   12.62    3.38
 -18   2   0    0.22    1.08
 -16   2   0   81.94    3.47
 -14   2   0  207.14    5.89
 -12   2   0   51.61    2.69
 -10   2   0   13.10    0.86
  -8   2   0   30.54    1.23
  -6   2   0    8.30    0.64
  -4   2   0    8.16    0.59
  -2   2   0    4.95    0.46
   0   2   0  972.87   14.98
   2   2   0    4.55    0.43
   4   2   0    8.38    0.43
   6   2   0    7.04    0.48
   8   2   0   29.45    1.16
  10   2   0   13.42    0.93
  12   2   0   56.19    2.38
  14   2   0  205.13    5.68
  16   2   0   73.75    3.64
  18   2   0   -0.73    0.74
  20   2   0   18.55    2.34
 -19   3   0    4.94    2.49
 -17   3   0   94.70    7.33
 -15   3   0   93.07    4.62
 -13   3   0   36.19    2.59
 -11   3   0   31.34    2.16
  -9   3   0   82.15    2.90
  -7   3   0   91.97    2.33
  -5   3   0  222.47    4.30
  -3   3   0   39.77    1.39
  -1   3   0    8.66    0.55
   1   3   0    7.68    0.61
   3   3   0   44.49    1.39
   5   3   0  218.98    4.30
   7   3   0   84.46    2.35
   9   3   0   82.49    2.85
  11   3   0   30.87    2.07
  13   3   0   36.47    2.36
  15   3   0   82.43    3.95
  17   3   0   94.80    4.46
  19   3   0    9.49    1.85
 -16   4   0   45.83    5.96
 -14   4   0  139.74    6.22
 -12   4   0   41.07    3.51
 -10   4   0    6.48    1.49
  -8   4   0   12.70    1.81
  -6   4   0    6.14    0.96
  -4   4   0    5.67    0.73
  -2   4   0    1.99    0.55
   0   4   0  613.92   12.21
   2   4   0    1.82    0.64
   4   4   0    6.38    0.95
   6   4   0    2.98    0.76
   8   4   0   13.20    1.41
  10   4   0    6.43    1.40
  12   4   0   37.01    2.48
  14   4   0  131.61    5.30
  16   4   0   57.15    3.91
  18   4   0   -0.57    1.60
 -15   5   0   54.64    6.90
 -13   5   0   14.41    2.55
 -11   5   0   16.04    2.49
  -9   5   0   45.43    3.86
  -7   5   0   41.80    3.60
  -5   5   0  105.31    4.92
  -3   5   0   19.50    2.34
  -1   5   0    5.99    1.09
   1   5   0    4.33    0.92
   3   5   0   20.89    1.82
   5   5   0  110.23    4.92
   7   5   0   42.32    3.48
   9   5   0   44.95    3.72
  11   5   0   14.83    2.27
  13   5   0   17.45    3.40
  -8   6   0    9.61    2.31
  -6   6   0    1.86    1.31
  -4   6   0    1.28    1.31
  -2   6   0    1.32    1.57
   0   6   0  295.99   16.02
   2   6   0    0.92    1.05
   4   6   0    2.51    1.41
   6   6   0    0.97    1.27
   8   6   0    6.37    1.86
  -8  -6   1    0.22    1.20
  -6  -6   1   91.30    4.82
  -4  -6   1    1.36    1.18
  -2  -6   1    1.07    0.97
   0  -6   1    3.30    1.32
   2  -6   1    0.65    1.04
   4  -6   1    5.82    1.66
   6  -6   1  114.92    5.43
 -15  -5   1    0.39    1.99
 -13  -5   1    8.77    1.90
 -11  -5   1  120.65    5.31
  -9  -5   1   69.71    3.90
  -7  -5   1    3.77    1.19
  -5  -5   1  111.39    4.81
  -3  -5   1    7.57    1.14
  -1  -5   1    0.27    0.63
   1  -5   1    3.05    0.85
   3  -5   1  148.30    4.43
   5  -5   1    5.84    1.34
   7  -5   1   37.51    3.08
   9  -5   1    0.86    0.98
  11  -5   1   45.31    5.26
  13  -5   1    1.29    1.29
 -18  -4   1   -0.97    1.67
 -16  -4   1   24.56    2.94
 -14  -4   1    0.60    0.85
 -12  -4   1   94.10    3.57
 -10  -4   1   80.15    3.06
  -8  -4   1    0.26    0.68
  -6  -4   1  175.61    5.94
  -4  -4   1    0.53    0.50
  -2  -4   1    0.24    0.45
   0  -4   1    3.16    0.72
   2  -4   1    0.17    0.62
   4  -4   1   11.19    1.10
   6  -4   1  206.77    5.16
   8  -4   1  122.45    3.71
  10  -4   1   11.38    1.36
  12  -4   1   31.87    2.86
  14  -4   1    0.78    1.05
  16  -4   1    1.47    1.27
 -21  -3   1  120.62    8.34
 -19  -3   1   85.27    5.04
 -17  -3   1    0.60    1.09
 -15  -3   1    2.16    0.90
 -13  -3   1   18.24    1.72
 -11  -3   1  208.65    5.45
  -9  -3   1  138.53    3.85
  -7  -3   1   18.75    1.23
  -5  -3   1  221.59    4.93
  -3  -3   1   12.75    1.02
  -1  -3   1    0.11    0.29
   1  -3   1    5.56    0.64
   3  -3   1  292.38    6.07
   5  -3   1   17.87    1.29
   7  -3   1   62.00    2.24
   9  -3   1    0.50    0.52
  11  -3   1   76.01    2.74
  13  -3   1    2.03    0.96
  15  -3   1   14.86    1.95
  17  -3   1    1.43    1.08
  19  -3   1    1.43    1.85
 -22  -2   1   29.34    3.43
 -20  -2   1    2.05    1.25
 -18  -2   1   -0.20    0.94
 -16  -2   1   31.39    2.92
 -14  -2   1    0.00    0.60
 -12  -2   1  182.19    4.69
 -10  -2   1  125.73    3.51
  -8  -2   1    1.27    0.34
  -6  -2   1  342.40    6.55
  -4  -2   1    0.12    0.27
  -2  -2   1    0.22    0.19
   0  -2   1    6.41    0.54
   2  -2   1    0.25    0.27
   4  -2   1   21.66    0.81
   6  -2   1  388.49    7.36
   8  -2   1  217.10    4.71
  10  -2   1   24.40    1.54
  12  -2   1   46.49    2.09
  14  -2   1    0.67    0.61
  16  -2   1    9.88    1.23
  18  -2   1   20.48    3.33
  20  -2   1  175.06    9.63
 -23  -1   1   22.51    3.06
 -21  -1   1  149.62    6.25
 -19  -1   1   85.56    4.58
 -17  -1   1    0.77    0.79
 -15  -1   1    4.45    1.03
 -13  -1   1   20.11    1.57
 -11  -1   1  323.51    6.86
  -9  -1   1  208.06    4.76
  -7  -1   1   31.97    1.24
  -5  -1   1  402.67    7.05
  -3  -1   1   33.65    0.96
  -1  -1   1    1.14    0.23
   1  -1   1   12.80    0.77
   3  -1   1  510.13    8.79
   5  -1   1   33.76    0.87
   7  -1   1  100.59    2.09
   9  -1   1    2.00    0.43
  11  -1   1  106.17    2.96
  13  -1   1    3.11    0.68
  15  -1   1   18.66    1.98
  17  -1   1    0.95    0.94
  19  -1   1    3.19    1.22
  21  -1   1    3.57    1.35
 -22   0   1   33.20    3.41
 -20   0   1   -0.77    0.95
 -18   0   1    1.18    0.80
 -16   0   1   38.71    2.56
 -14   0   1    0.71    0.64
 -12   0   1  213.29    5.49
 -10   0   1  167.20    3.66
  -8   0   1    1.08    0.42
  -6   0   1  468.46   10.97
  -4   0   1    0.58    0.38
  -2   0   1    0.34    0.17
   0   0   1   11.88    0.47
   2   0   1    0.71    0.21
   4   0   1   30.70    0.96
   6   0   1  504.03    8.72
   8   0   1  270.33    4.59
  10   0   1   25.18    1.15
  12   0   1   55.05    1.72
  14   0   1    1.31    0.77
  16   0   1    8.17    1.41
  18   0   1   27.48    2.52
  20   0   1  200.30    9.66
  22   0   1    6.06    1.68
 -23   1   1   22.22    4.08
 -21   1   1  135.65    8.76
 -19   1   1   97.94    4.75
 -17   1   1    1.30    0.79
 -15   1   1    3.39    0.93
 -13   1   1   23.11    1.86
 -11   1   1  311.30    7.42
  -9   1   1  218.08    4.19
  -7   1   1   32.49    1.43
  -5   1   1  377.26    7.66
  -3   1   1   35.67    0.89
  -1   1   1    1.27    0.26
   1   1   1   11.77    0.50
   3   1   1  507.81    7.72
   5   1   1   33.29    1.00
   7   1   1   99.61    2.20
   9   1   1    2.17    0.47
  11   1   1  103.72    2.72
  13   1   1    3.88    0.71
  15   1   1   17.87    1.48
  17   1   1    0.32    0.72
  19   1   1    3.88    1.85
  21   1   1    4.18    1.96
 -22   2   1   33.22    5.25
 -20   2   1    0.08    1.61
 -18   2   1    0.08    1.04
 -16   2   1   38.04    3.37
 -14   2   1    1.62    0.83
 -12   2   1  178.57    4.20
 -10   2   1  136.51    3.18
  -8   2   1    1.96    0.42
  -6   2   1  339.93    5.86
  -4   2   1    0.28    0.23
  -2   2   1    0.39    0.23
   0   2   1    6.17    0.49
   2   2   1    0.39    0.24
   4   2   1   20.82    0.95
   6   2   1  385.78    6.48
   8   2   1  213.64    4.09
  10   2   1   21.56    1.25
  12   2   1   50.76    2.65
  14   2   1    0.05    0.71
  16   2   1    6.65    1.37
  18   2   1   21.40    2.39
  20   2   1  174.57    9.75
 -19   3   1   69.59    7.54
 -17   3   1    2.15    1.36
 -15   3   1    1.76    1.17
 -13   3   1   15.37    2.17
 -11   3   1  214.24    7.39
  -9   3   1  135.04    3.21
  -7   3   1   18.18    1.12
  -5   3   1  225.47    4.36
  -3   3   1   14.17    0.77
  -1   3   1   -0.25    0.27
   1   3   1    5.71    0.58
   3   3   1  299.46    5.36
   5   3   1   19.02    1.14
   7   3   1   61.55    1.96
   9   3   1    0.84    0.54
  11   3   1   78.47    2.95
  13   3   1    3.19    1.02
  15   3   1   17.00    2.07
  17   3   1    0.97    1.12
  19   3   1    2.47    1.26
 -18   4   1    0.01    1.46
 -16   4   1   22.20    2.90
 -14   4   1    0.41    1.02
 -12   4   1   95.50    4.86
 -10   4   1   85.00    4.25
  -8   4   1    0.19    0.74
  -6   4   1  187.40    4.89
  -4   4   1    0.20    0.49
  -2   4   1    1.04    0.49
   0   4   1    2.95    0.70
   2   4   1    0.08    0.42
   4   4   1   12.17    1.25
   6   4   1  208.63    6.92
   8   4   1  114.64    3.70
  10   4   1   12.67    1.46
  12   4   1   35.26    2.87
  14   4   1   -0.59    0.76
  16   4   1    7.00    1.68
 -15   5   1    1.85    1.72
 -13   5   1    4.71    1.79
 -11   5   1  107.05    5.64
  -9   5   1   66.90    4.75
  -7   5   1    8.14    1.74
  -5   5   1  121.58    5.20
  -3   5   1    7.00    1.13
  -1   5   1    0.03    0.68
   1   5   1    4.78    1.24
   3   5   1  130.90    5.60
   5   5   1    5.14    1.38
   7   5   1   34.89    3.25
   9   5   1   -0.16    0.85
  11   5   1   36.44    4.73
  13   5   1   -0.39    1.55
  -8   6   1    0.70    2.12
  -6   6   1   87.39    7.80
  -4   6   1    1.25    1.97
  -2   6   1   -0.56    1.30
   0   6   1    1.34    1.17
   2   6   1   -0.18    1.03
   4   6   1    8.83    2.01
   6   6   1  115.64    5.79
   8   6   1   51.18    6.75
  -8  -6   2    2.95    1.49
  -6  -6   2   97.19    4.99
  -4  -6   2    5.76    1.70
  -2  -6   2    4.72    1.53
   0  -6   2    1.86    1.03
   2  -6   2   43.83    3.01
   4  -6   2    1.73    1.39
   6  -6   2    1.84    1.48
 -15  -5   2   98.81    7.55
 -13  -5   2    1.45    1.10
 -11  -5   2    7.99    1.39
  -9  -5   2   -0.90    0.84
  -7  -5   2    0.49    0.91
  -5  -5   2    4.06    1.18
  -3  -5   2  161.25    4.73
  -1  -5   2   64.77    2.76
   1  -5   2  151.80    4.61
   3  -5   2   -0.18    0.80
   5  -5   2    5.55    1.37
   7  -5   2   12.38    1.94
   9  -5   2   52.78    3.95
  11  -5   2   47.74    5.69
 -18  -4   2   63.12    4.94
 -16  -4   2   46.96    4.04
 -14  -4   2   33.47    2.50
 -12  -4   2   10.27    1.36
 -10  -4   2    9.82    1.54
  -8  -4   2   10.05    1.54
  -6  -4   2  176.95    5.92
  -4  -4   2   18.36    1.47
  -2  -4   2   19.15    1.50
   0  -4   2    5.53    1.10
   2  -4   2   85.14    3.63
   4  -4   2    0.28    0.74
   6  -4   2    6.28    1.00
   8  -4   2   65.18    2.74
  10  -4   2   94.08    3.50
  12  -4   2   72.31    3.95
  14  -4   2   71.25    4.65
  16  -4   2    4.93    1.70
 -21  -3   2    1.36    1.42
 -19  -3   2    7.69    1.89
 -17  -3   2    2.80    1.34
 -15  -3   2  136.96    5.74
 -13  -3   2    2.79    0.78
 -11  -3   2   17.60    1.50
  -9  -3   2    0.68    0.68
  -7  -3   2    1.01    0.43
  -5  -3   2    7.55    0.82
  -3  -3   2  325.76    6.82
  -1  -3   2  132.34    3.13
   1  -3   2  308.51    6.26
   3  -3   2    2.04    0.56
   5  -3   2   14.84    1.24
   7  -3   2   29.01    1.87
   9  -3   2   89.16    3.11
  11  -3   2   93.39    3.29
  13  -3   2    0.43    0.86
  15  -3   2  110.57    4.96
  17  -3   2   72.18    4.65
 -22  -2   2    0.81    1.45
 -20  -2   2   95.15    4.41
 -18  -2   2   94.72    4.73
 -16  -2   2   69.71    3.79
 -14  -2   2   57.67    3.47
 -12  -2   2   17.30    1.41
 -10  -2   2   17.09    1.28
  -8  -2   2   17.92    1.43
  -6  -2   2  362.78    6.86
  -4  -2   2   31.98    1.20
  -2  -2   2   27.70    1.01
   0  -2   2   13.87    0.87
   2  -2   2  171.87    3.05
   4  -2   2    0.86    0.35
   6  -2   2   12.68    0.97
   8  -2   2  110.23    3.04
  10  -2   2  139.67    3.73
  12  -2   2  121.74    3.62
  14  -2   2  103.86    4.29
  16  -2   2    1.48    1.01
  18  -2   2   13.86    2.96
 -23  -1   2   41.43    3.85
 -21  -1   2    0.42    1.19
 -19  -1   2   11.02    1.60
 -17  -1   2    6.99    1.30
 -15  -1   2  177.41    6.23
 -13  -1   2    2.63    0.91
 -11  -1   2   25.00    1.40
  -9  -1   2    0.24    0.33
  -7  -1   2    1.61    0.37
  -5  -1   2   18.25    0.72
  -3  -1   2  555.82   11.87
  -1  -1   2  247.41    5.70
   1  -1   2  495.82    8.71
   3  -1   2    7.40    0.62
   5  -1   2   21.76    1.12
   7  -1   2   49.30    1.30
   9  -1   2  133.70    3.44
  11  -1   2  139.76    3.75
  13  -1   2    0.89    0.58
  15  -1   2  161.89    4.46
  17  -1   2  110.94    4.70
  19  -1   2    0.53    1.05
  21  -1   2    6.30    2.41
 -22   0   2    2.14    1.36
 -20   0   2  104.41    4.15
 -18   0   2  110.09    4.08
 -16   0   2   81.59    3.27
 -14   0   2   65.42    2.78
 -12   0   2   20.90    1.69
 -10   0   2   25.54    1.72
  -8   0   2   21.46    1.45
  -6   0   2  475.63    8.62
  -4   0   2   46.14    1.51
   0   0   2   20.48    0.89
   2   0   2  233.54    4.27
   4   0   2    0.72    0.28
   6   0   2   13.47    0.87
   8   0   2  143.50    3.32
  10   0   2  164.23    3.38
  12   0   2  149.40    3.92
  14   0   2  121.58    4.53
  16   0   2    4.32    1.10
  18   0   2   23.04    2.49
  20   0   2   11.14    2.77
 -23   1   2   42.30    5.59
 -21   1   2    0.83    1.61
 -19   1   2    8.29    1.82
 -17   1   2    7.30    1.32
 -15   1   2  180.22    5.34
 -13   1   2    4.90    1.03
 -11   1   2   22.41    1.77
  -9   1   2    0.22    0.50
  -7   1   2    1.63    0.51
  -5   1   2   19.72    0.75
  -3   1   2  536.72   10.03
  -1   1   2  246.21    4.70
   1   1   2  508.48    8.92
   3   1   2    7.06    0.57
   5   1   2   22.72    0.86
   7   1   2   45.15    1.38
   9   1   2  137.97    4.01
  11   1   2  134.77    3.58
  13   1   2    1.01    0.58
  15   1   2  157.88    5.53
  17   1   2   99.92    4.32
  19   1   2    2.31    1.78
 -22   2   2   -1.30    1.79
 -20   2   2  108.63    5.55
 -18   2   2   93.24    4.98
 -16   2   2   71.25    4.15
 -14   2   2   64.16    3.30
 -12   2   2   19.05    1.76
 -10   2   2   16.29    1.16
  -8   2   2   18.33    0.95
  -6   2   2  359.92    6.14
  -4   2   2   32.96    1.31
  -2   2   2   30.44    0.99
   0   2   2   14.39    0.71
   2   2   2  171.15    3.18
   4   2   2    1.06    0.39
   6   2   2   10.34    0.78
   8   2   2  114.87    2.67
  10   2   2  135.15    3.61
  12   2   2  119.89    3.48
  14   2   2   96.01    4.18
  16   2   2    2.91    1.09
  18   2   2   13.40    2.89
 -19   3   2   14.11    2.53
 -17   3   2    5.47    1.76
 -15   3   2  147.66    6.43
 -13   3   2    4.31    1.40
 -11   3   2   17.22    1.61
  -9   3   2   -0.20    0.45
  -7   3   2    0.86    0.51
  -5   3   2   10.11    1.02
  -3   3   2  330.28    5.85
  -1   3   2  133.31    2.88
   1   3   2  310.26    5.48
   3   3   2    2.51    0.49
   5   3   2   12.49    0.92
   7   3   2   28.72    1.81
   9   3   2   95.47    3.82
  11   3   2   92.84    3.98
  13   3   2   -0.19    0.78
  15   3   2  111.16    4.93
  17   3   2   78.31    5.80
 -18   4   2   61.73    5.40
 -16   4   2   42.11    4.32
 -14   4   2   33.53    3.62
 -12   4   2    7.81    1.79
 -10   4   2    9.91    1.68
  -8   4   2   10.90    1.29
  -6   4   2  182.01    4.91
  -4   4   2   17.92    1.50
  -2   4   2   16.44    1.41
   0   4   2    8.58    1.38
   2   4   2   91.63    2.98
   4   4   2    0.85    0.58
   6   4   2    7.45    1.07
   8   4   2   63.58    2.82
  10   4   2   83.70    3.99
  12   4   2   74.99    4.14
  14   4   2   54.01    5.69
  16   4   2    1.35    1.36
 -15   5   2  101.36    6.46
 -13   5   2    1.20    1.41
 -11   5   2    6.70    1.78
  -9   5   2   -0.43    0.95
  -7   5   2    0.24    1.36
  -5   5   2    3.08    1.04
  -3   5   2  159.29    6.15
  -1   5   2   63.49    3.81
   1   5   2  153.23    6.02
   3   5   2    0.99    0.92
   5   5   2    2.12    1.14
   7   5   2   12.71    2.08
   9   5   2   55.79    5.80
  11   5   2   48.99    5.57
  -8   6   2    7.03    3.17
  -6   6   2   91.21    8.05
  -4   6   2   14.34    3.60
  -2   6   2    6.76    1.87
   0   6   2    2.63    1.42
   2   6   2   47.04    4.15
   4   6   2    1.86    1.48
   6   6   2    2.47    1.48
  -8  -6   3   30.15    4.70
  -6  -6   3   26.48    4.43
  -4  -6   3   85.82    6.60
  -2  -6   3    1.10    1.23
   0  -6   3  104.47    5.12
   2  -6   3   15.75    1.95
   4  -6   3   60.29    6.56
 -15  -5   3    7.79    2.83
 -13  -5   3    1.48    1.00
 -11  -5   3   89.47    4.51
  -9  -5   3  134.73    5.72
  -7  -5   3    4.29    1.24
  -5  -5   3    8.32    1.58
  -3  -5   3    7.49    1.22
  -1  -5   3    3.51    0.93
   1  -5   3   12.72    1.88
   3  -5   3    7.65    1.59
   5  -5   3  181.92    6.88
   7  -5   3   33.07    3.20
   9  -5   3   43.99    3.70
 -18  -4   3   43.71    4.06
 -16  -4   3    9.19    1.90
 -14  -4   3   74.62    3.34
 -12  -4   3  111.40    3.89
 -10  -4   3    3.19    0.97
  -8  -4   3   44.30    3.15
  -6  -4   3   50.37    2.99
  -4  -4   3  154.25    4.28
  -2  -4   3    6.29    1.16
   0  -4   3  202.77    6.37
   2  -4   3   38.49    2.88
   4  -4   3  117.87    4.77
   6  -4   3    1.18    0.71
   8  -4   3    8.62    1.30
  10  -4   3   40.07    2.73
  12  -4   3    4.87    1.20
  14  -4   3   34.90    3.34
 -21  -3   3    9.29    2.26
 -19  -3   3   13.27    2.35
 -17  -3   3   21.55    2.69
 -15  -3   3   10.73    1.80
 -13  -3   3    2.52    0.80
 -11  -3   3  139.62    4.09
  -9  -3   3  255.91    7.47
  -7  -3   3    4.32    0.93
  -5  -3   3   12.92    1.10
  -3  -3   3   21.04    1.73
  -1  -3   3    8.24    0.86
   1  -3   3   36.51    1.68
   3  -3   3   11.97    1.15
   5  -3   3  334.32    7.39
   7  -3   3   62.61    2.57
   9  -3   3   65.80    2.89
  11  -3   3   11.04    1.71
  13  -3   3    0.97    0.86
  15  -3   3   39.21    3.44
  17  -3   3   61.36    4.46
 -22  -2   3    2.84    1.32
 -20  -2   3   60.23    3.92
 -18  -2   3   57.44    4.27
 -16  -2   3   11.58    1.89
 -14  -2   3  124.62    4.96
 -12  -2   3  192.51    4.73
 -10  -2   3    8.57    0.91
  -8  -2   3   90.39    3.16
  -6  -2   3   92.04    1.95
  -4  -2   3  302.52    5.79
  -2  -2   3    8.67    0.76
   0  -2   3  381.20    6.95
   2  -2   3   81.93    2.14
   4  -2   3  205.65    5.79
   6  -2   3    0.41    0.47
   8  -2   3   14.91    1.27
  10  -2   3   57.89    3.00
  12  -2   3    7.13    1.33
  14  -2   3   49.82    3.46
  16  -2   3    2.86    1.19
  18  -2   3    6.99    2.39
 -23  -1   3    1.39    1.40
 -21  -1   3   17.40    2.03
 -19  -1   3   17.74    1.98
 -17  -1   3   29.40    2.45
 -15  -1   3   17.91    2.04
 -13  -1   3    4.78    1.14
 -11  -1   3  213.01    4.78
  -9  -1   3  393.60    7.69
  -7  -1   3    9.19    0.72
  -5  -1   3   19.35    1.08
  -1  -1   3   12.31    1.36
   1  -1   3   65.18    1.57
   3  -1   3   15.98    0.63
   5  -1   3  492.38    9.41
   7  -1   3   90.96    2.67
   9  -1   3   99.45    2.97
  11  -1   3   18.29    1.52
  13  -1   3    0.86    0.64
  15  -1   3   62.24    2.65
  17  -1   3   87.61    4.28
  19  -1   3   16.87    2.28
 -22   0   3    2.77    1.44
 -20   0   3   64.20    4.71
 -18   0   3   69.89    3.31
 -16   0   3   14.30    1.62
 -14   0   3  147.97    4.49
 -12   0   3  234.77    5.93
 -10   0   3    8.80    1.02
  -8   0   3  115.54    2.45
  -6   0   3  128.33    3.22
  -4   0   3  386.42   12.61
  -2   0   3   10.23    2.11
   0   0   3  503.15    8.93
   2   0   3  106.62    2.37
   4   0   3  261.44    4.96
   6   0   3   -0.09    0.30
   8   0   3   18.30    1.18
  10   0   3   73.71    2.51
  12   0   3    8.40    1.04
  14   0   3   53.56    3.19
  16   0   3    1.59    1.00
  18   0   3    7.94    1.64
  20   0   3   55.03    4.15
 -23   1   3   -1.61    1.11
 -21   1   3   18.92    2.72
 -19   1   3   25.96    2.94
 -17   1   3   33.79    3.29
 -15   1   3   16.76    2.30
 -13   1   3    4.82    1.08
 -11   1   3  212.36    5.64
  -9   1   3  373.96    8.52
  -7   1   3    8.74    0.83
  -5   1   3   18.69    1.20
  -3   1   3   34.79    1.29
  -1   1   3   12.88    0.85
   1   1   3   62.59    1.77
   3   1   3   19.19    0.88
   5   1   3  512.74    8.04
   7   1   3   89.74    2.56
   9   1   3   98.82    2.87
  11   1   3   15.79    1.31
  13   1   3    0.62    0.67
  15   1   3   59.10    3.46
  17   1   3   79.58    4.19
  19   1   3    9.20    2.64
 -22   2   3    1.98    1.54
 -20   2   3   47.80    4.41
 -18   2   3   60.50    4.79
 -16   2   3    8.94    1.55
 -14   2   3  119.34    4.36
 -12   2   3  189.34    5.40
 -10   2   3    8.71    1.18
  -8   2   3   92.75    2.99
  -6   2   3   89.77    2.72
  -4   2   3  300.67    6.21
  -2   2   3    9.38    0.63
   0   2   3  372.45    7.40
   2   2   3   77.74    2.31
   4   2   3  200.31    4.56
   6   2   3    0.09    0.41
   8   2   3   13.91    1.19
  10   2   3   61.75    2.32
  12   2   3    9.31    1.12
  14   2   3   41.30    3.04
  16   2   3    1.88    1.63
  18   2   3    6.08    2.25
 -21   3   3   11.35    2.46
 -19   3   3   16.25    2.87
 -17   3   3   24.89    3.27
 -15   3   3   12.31    2.17
 -13   3   3    2.48    0.93
 -11   3   3  148.54    4.49
  -9   3   3  263.62    6.42
  -7   3   3    7.41    0.98
  -5   3   3   16.08    1.27
  -3   3   3   18.65    1.09
  -1   3   3    7.02    0.87
   1   3   3   37.54    1.75
   3   3   3   12.66    1.18
   5   3   3  343.90    6.20
   7   3   3   64.30    3.01
   9   3   3   68.90    3.32
  11   3   3    9.56    1.55
  13   3   3    0.07    0.85
  15   3   3   40.63    3.37
 -18   4   3   38.33    4.44
 -16   4   3    5.84    2.04
 -14   4   3   66.31    5.19
 -12   4   3  118.26    5.57
 -10   4   3    6.32    1.15
  -8   4   3   53.69    2.50
  -6   4   3   51.49    3.23
  -4   4   3  163.46    5.75
  -2   4   3    4.74    0.84
   0   4   3  207.39    5.17
   2   4   3   41.12    2.16
   4   4   3  120.56    3.74
   6   4   3    0.41    0.75
   8   4   3    9.24    1.63
  10   4   3   39.54    3.15
  12   4   3    5.39    1.43
  14   4   3   33.09    3.22
 -13   5   3    1.29    2.26
 -11   5   3   83.27    8.64
  -9   5   3  140.14    9.65
  -7   5   3    3.41    1.35
  -5   5   3    4.34    1.34
  -3   5   3   10.82    1.86
  -1   5   3    3.03    1.15
   1   5   3   10.97    1.77
   3   5   3    4.69    1.37
   5   5   3  185.16    7.03
   7   5   3   32.91    4.46
   9   5   3   31.19    4.59
  -6   6   3   19.40    4.42
  -4   6   3   77.07    5.31
  -2   6   3    3.52    1.53
   0   6   3  107.25    8.33
   2   6   3   12.67    2.35
  -4  -6   4   10.44    2.97
  -2  -6   4   28.99    4.47
   0  -6   4   33.64    3.37
 -13  -5   4    5.21    1.35
 -11  -5   4   46.61    3.75
  -9  -5   4   15.15    2.15
  -7  -5   4    8.55    1.66
  -5  -5   4   72.33    3.90
  -3  -5   4   -0.33    0.64
  -1  -5   4   86.55    4.19
   1  -5   4    0.23    0.93
   3  -5   4   -0.43    0.97
   5  -5   4    8.09    1.90
   7  -5   4   -1.53    1.17
   9  -5   4    2.25    2.52
 -18  -4   4   14.67    2.54
 -16  -4   4   34.84    3.41
 -14  -4   4   40.94    3.55
 -12  -4   4    4.61    1.04
 -10  -4   4   20.61    2.22
  -8  -4   4    2.14    0.92
  -6  -4   4  176.44    5.94
  -4  -4   4   22.95    1.72
  -2  -4   4   61.92    3.15
   0  -4   4   56.66    3.12
   2  -4   4   46.57    3.40
   4  -4   4   12.53    1.73
   6  -4   4   58.71    4.09
   8  -4   4   59.82    3.41
  10  -4   4    3.66    1.18
  12  -4   4   69.38    3.93
 -21  -3   4   79.33    7.85
 -19  -3   4   35.19    3.67
 -17  -3   4   91.98    7.22
 -15  -3   4   55.69    3.98
 -13  -3   4   11.12    1.69
 -11  -3   4   75.03    3.37
  -9  -3   4   33.06    2.43
  -7  -3   4    9.73    1.31
  -5  -3   4  128.54    3.58
  -3  -3   4   -0.03    0.50
  -1  -3   4  156.25    5.10
   1  -3   4    0.61    0.51
   3  -3   4   -0.24    0.53
   5  -3   4   24.92    2.26
   7  -3   4    0.48    0.72
   9  -3   4    3.04    1.07
  11  -3   4  146.73    5.75
  13  -3   4   -0.37    0.97
  15  -3   4   21.09    2.71
 -22  -2   4   54.43    3.91
 -20  -2   4   12.32    1.95
 -18  -2   4   22.31    2.71
 -16  -2   4   52.77    3.84
 -14  -2   4   67.29    3.51
 -12  -2   4    9.64    1.40
 -10  -2   4   39.92    1.75
  -8  -2   4    1.85    0.66
  -6  -2   4  288.83    6.02
  -4  -2   4   41.28    1.51
  -2  -2   4  111.80    2.74
   0  -2   4   96.55    2.51
   2  -2   4   76.81    2.30
   4  -2   4   23.30    1.99
   6  -2   4   91.14    3.70
   8  -2   4   94.36    3.96
  10  -2   4    6.19    1.33
  12  -2   4  100.57    4.46
  14  -2   4    0.61    0.99
  16  -2   4   74.17    4.36
 -23  -1   4    1.96    1.53
 -21  -1   4  110.86    5.76
 -19  -1   4   48.49    3.20
 -17  -1   4  152.71    5.10
 -15  -1   4   78.67    3.77
 -13  -1   4   13.15    1.65
 -11  -1   4  113.48    4.14
  -9  -1   4   51.88    1.76
  -7  -1   4   22.98    1.33
  -1  -1   4  248.49    5.93
   1  -1   4    0.78    0.30
   3  -1   4   -0.10    0.41
   5  -1   4   35.32    1.68
   7  -1   4    1.03    0.52
   9  -1   4    3.17    0.75
  11  -1   4  206.54    5.15
  13  -1   4   -0.18    0.58
  15  -1   4   24.38    2.04
  17  -1   4    6.27    1.58
 -24   0   4   19.80    4.34
 -22   0   4   56.98    4.65
 -20   0   4   11.65    2.20
 -18   0   4   21.46    2.69
 -16   0   4   59.48    3.99
 -14   0   4   86.04    3.24
 -12   0   4   14.92    1.42
 -10   0   4   55.78    2.24
  -8   0   4    4.63    0.73
  -6   0   4  369.11    7.61
  -4   0   4   47.62    2.23
  -2   0   4  143.19    4.21
   0   0   4  125.28    2.93
   2   0   4  100.56    2.06
   4   0   4   30.08    1.34
   6   0   4  123.62    4.03
   8   0   4  109.10    3.93
  10   0   4    6.79    1.15
  12   0   4  116.85    3.70
  14   0   4    3.05    0.94
  16   0   4   75.06    4.06
  18   0   4    4.58    1.51
 -23   1   4    3.20    1.71
 -21   1   4  104.03    5.74
 -19   1   4   39.51    3.79
 -17   1   4  142.75    6.45
 -15   1   4   86.57    4.81
 -13   1   4   14.03    2.30
 -11   1   4  115.77    5.64
  -9   1   4   53.68    3.54
  -7   1   4   23.29    1.67
  -5   1   4  188.01    4.65
  -3   1   4    0.32    0.38
  -1   1   4  238.49    5.08
   1   1   4    1.04    0.35
   3   1   4    0.18    0.36
   5   1   4   35.09    1.56
   7   1   4    0.42    0.42
   9   1   4    3.30    0.68
  11   1   4  180.69    6.03
  13   1   4   -0.13    0.71
  15   1   4   26.39    2.60
  17   1   4    3.62    1.38
 -22   2   4   49.40    4.72
 -20   2   4   13.45    2.53
 -18   2   4   17.14    2.12
 -16   2   4   49.89    3.37
 -14   2   4   64.95    3.45
 -12   2   4    8.72    1.38
 -10   2   4   39.90    2.52
  -8   2   4    2.96    0.74
  -6   2   4  285.99    6.29
  -4   2   4   37.29    1.46
  -2   2   4  113.99    3.07
   0   2   4   93.05    2.70
   2   2   4   80.38    2.43
   4   2   4   23.05    1.85
   6   2   4   93.65    2.82
   8   2   4   93.94    2.97
  10   2   4    5.83    0.97
  12   2   4  100.73    3.41
  14   2   4    0.37    1.15
  16   2   4   67.54    6.59
 -21   3   4   82.43    6.57
 -19   3   4   38.96    4.59
 -17   3   4  110.44    6.56
 -15   3   4   65.47    4.06
 -13   3   4   13.26    1.77
 -11   3   4   85.80    3.37
  -9   3   4   34.24    2.19
  -7   3   4   12.93    1.66
  -5   3   4  131.87    3.72
  -3   3   4    0.17    0.41
  -1   3   4  157.97    4.14
   1   3   4   -0.25    0.42
   3   3   4    0.01    0.48
   5   3   4   21.75    1.54
   7   3   4   -0.06    0.53
   9   3   4    1.16    0.85
  11   3   4  145.19    5.55
  13   3   4   -0.03    0.95
 -18   4   4   15.29    3.19
 -16   4   4   36.23    6.20
 -14   4   4   36.59    5.99
 -12   4   4    4.18    1.48
 -10   4   4   21.53    2.46
  -8   4   4    1.50    0.74
  -6   4   4  165.46    4.68
  -4   4   4   20.62    1.69
  -2   4   4   65.48    2.64
   0   4   4   62.08    2.67
   2   4   4   50.40    2.46
   4   4   4   14.86    1.84
   6   4   4   60.12    3.80
   8   4   4   52.02    3.66
  10   4   4    4.81    1.45
  12   4   4   67.37    4.54
 -13   5   4    9.95    3.63
 -11   5   4   44.60    6.48
  -9   5   4   16.15    2.43
  -7   5   4    8.21    1.79
  -5   5   4   76.13    4.18
  -3   5   4    1.39    1.05
  -1   5   4   83.93    4.41
   1   5   4   -0.08    0.90
   3   5   4    0.88    1.44
   5   5   4    7.48    2.21
   7   5   4    1.51    1.88
   9   5   4    0.54    1.75
  -4   6   4   10.12    2.24
  -2   6   4   27.47    3.30
   0   6   4   33.19    3.62
 -11  -5   5   60.34    4.36
  -9  -5   5    1.50    1.17
  -7  -5   5   43.72    3.60
  -5  -5   5   48.02    3.69
  -3  -5   5    1.23    1.03
  -1  -5   5   74.19    4.16
   1  -5   5   99.99    5.01
   3  -5   5   10.76    2.13
   5  -5   5   33.51    3.67
 -16  -4   5    5.04    1.58
 -14  -4   5   31.02    3.10
 -12  -4   5    8.99    1.58
 -10  -4   5  141.98    5.45
  -8  -4   5   24.63    2.40
  -6  -4   5    7.92    1.37
  -4  -4   5    5.34    1.24
  -2  -4   5    0.67    0.81
   0  -4   5   19.75    2.24
   2  -4   5   32.47    3.02
   4  -4   5    7.88    1.74
   6  -4   5  172.18    6.98
   8  -4   5   34.65    2.81
  10  -4   5    6.57    1.49
  12  -4   5   10.09    2.27
 -19  -3   5   20.30    2.87
 -17  -3   5    4.15    1.54
 -15  -3   5   87.97    4.46
 -13  -3   5    2.16    0.96
 -11  -3   5   99.24    4.09
  -9  -3   5    6.48    1.13
  -7  -3   5   91.71    3.77
  -5  -3   5  100.84    3.78
  -3  -3   5    2.60    0.84
  -1  -3   5  148.84    5.31
   1  -3   5  185.35    4.98
   3  -3   5   19.14    2.10
   5  -3   5   52.62    3.62
   7  -3   5   22.65    2.43
   9  -3   5   15.30    2.11
  11  -3   5    0.94    1.09
  13  -3   5   25.83    2.91
 -22  -2   5   48.78    7.54
 -20  -2   5    3.64    1.34
 -18  -2   5   21.55    2.59
 -16  -2   5    5.53    1.37
 -14  -2   5   53.43    3.24
 -12  -2   5   16.98    1.90
 -10  -2   5  206.52    5.04
  -8  -2   5   38.99    2.08
  -6  -2   5   20.24    1.33
  -4  -2   5    7.64    0.90
  -2  -2   5   -0.45    0.33
   0  -2   5   33.90    2.21
   2  -2   5   52.46    2.88
   4  -2   5   20.35    2.02
   6  -2   5  247.67    7.72
   8  -2   5   56.39    3.39
  10  -2   5   13.22    1.91
  12  -2   5    8.95    1.64
  14  -2   5   80.65    4.24
  16  -2   5    1.98    1.83
 -23  -1   5    7.41    2.88
 -21  -1   5    4.07    1.65
 -19  -1   5   23.63    3.04
 -17  -1   5    1.29    0.90
 -15  -1   5  125.35    4.42
 -13  -1   5    1.70    0.82
 -11  -1   5  148.18    4.81
  -9  -1   5    9.32    0.91
  -7  -1   5  138.15    6.06
  -1  -1   5  230.13    4.72
   1  -1   5  268.57    5.35
   3  -1   5   29.86    2.05
   5  -1   5   76.24    3.09
   7  -1   5   35.48    2.10
   9  -1   5   26.60    1.93
  11  -1   5    3.37    0.82
  13  -1   5   39.53    2.60
  15  -1   5   72.57    4.22
 -22   0   5   43.64    4.26
 -20   0   5    3.68    1.49
 -18   0   5   26.03    3.06
 -16   0   5    5.75    1.55
 -14   0   5   57.34    3.79
 -12   0   5   16.03    2.17
 -10   0   5  243.49    5.96
  -8   0   5   48.67    2.01
  -6   0   5   27.12    2.17
  -4   0   5    9.66    1.19
  -2   0   5   -0.10    0.34
   0   0   5   46.80    1.59
   2   0   5   63.05    2.00
   4   0   5   26.86    1.37
   6   0   5  314.36    8.35
   8   0   5   71.05    3.27
  10   0   5   19.55    2.00
  12   0   5   13.58    1.49
  14   0   5   92.87    4.34
  16   0   5    0.01    1.08
 -23   1   5    9.10    2.28
 -21   1   5    7.26    2.02
 -19   1   5   27.48    3.30
 -17   1   5    2.78    1.53
 -15   1   5  146.12    6.51
 -13   1   5    0.70    1.17
 -11   1   5  141.36    6.17
  -9   1   5    8.22    1.22
  -7   1   5  142.23    4.14
  -5   1   5  143.52    3.98
  -3   1   5    5.08    0.71
  -1   1   5  229.33    5.06
   1   1   5  260.26    6.89
   3   1   5   30.52    1.68
   5   1   5   76.35    2.49
   7   1   5   36.32    1.87
   9   1   5   25.36    2.29
  11   1   5    2.41    0.99
  13   1   5   36.43    3.00
  15   1   5   59.59    4.12
  17   1   5   22.14    3.72
 -22   2   5   47.52    4.88
 -20   2   5    1.14    1.24
 -18   2   5   17.09    2.19
 -16   2   5    8.77    1.67
 -14   2   5   49.71    3.52
 -12   2   5   16.13    1.95
 -10   2   5  221.99    5.98
  -8   2   5   39.92    2.90
  -6   2   5   19.95    1.92
  -4   2   5    8.36    0.98
  -2   2   5    0.50    0.45
   0   2   5   33.56    1.72
   2   2   5   50.75    2.48
   4   2   5   20.87    1.51
   6   2   5  262.24    6.00
   8   2   5   63.87    2.62
  10   2   5   12.49    1.36
  12   2   5    9.01    1.52
  14   2   5   78.21    6.08
 -21   3   5    1.90    3.88
 -19   3   5   21.88    4.08
 -17   3   5    1.65    1.45
 -15   3   5   90.12    5.71
 -13   3   5    0.77    1.23
 -11   3   5  106.70    5.00
  -9   3   5    4.07    1.22
  -7   3   5   90.98    4.12
  -5   3   5   98.09    3.23
  -3   3   5    3.15    0.74
  -1   3   5  148.84    4.20
   1   3   5  185.72    5.89
   3   3   5   20.91    2.00
   5   3   5   63.30    2.53
   7   3   5   24.95    1.89
   9   3   5   20.40    2.26
  11   3   5    3.67    1.30
  13   3   5   25.99    4.15
 -16   4   5    8.46    3.85
 -14   4   5   33.14    3.90
 -12   4   5   10.04    2.18
 -10   4   5  137.64    6.07
  -8   4   5   27.19    2.10
  -6   4   5   11.20    1.37
  -4   4   5    3.12    0.87
  -2   4   5    0.27    0.60
   0   4   5   21.67    1.83
   2   4   5   28.16    2.60
   4   4   5   10.58    1.64
   6   4   5  161.05    6.18
   8   4   5   39.20    3.29
  10   4   5    8.47    1.81
 -11   5   5   69.67    5.36
  -9   5   5    3.45    1.56
  -7   5   5   46.39    3.96
  -5   5   5   52.94    4.11
  -3   5   5    0.65    1.05
  -1   5   5   89.67    4.62
   3   5   5   11.37    2.82
   5   5   5   34.17    4.58
 -11  -5   6    3.99    2.21
  -9  -5   6   14.10    2.21
  -7  -5   6   61.77    4.41
  -5  -5   6   65.40    4.56
  -3  -5   6    1.75    1.23
  -1  -5   6    3.67    1.51
   1  -5   6   89.56    5.38
   3  -5   6    0.90    2.19
 -16  -4   6   71.65    4.71
 -14  -4   6    3.12    1.46
 -12  -4   6   39.32    4.97
 -10  -4   6   16.32    2.12
  -8  -4   6    4.47    1.28
  -6  -4   6   43.07    3.31
  -4  -4   6  164.50    6.09
  -2  -4   6   27.79    2.78
   0  -4   6   12.64    2.04
   2  -4   6   39.34    3.64
   4  -4   6   12.02    2.15
   6  -4   6    0.57    1.33
   8  -4   6   14.11    2.85
 -19  -3   6    9.83    2.21
 -17  -3   6    0.56    1.13
 -15  -3   6   23.52    2.71
 -13  -3   6   89.39    4.39
 -11  -3   6    5.36    1.83
  -9  -3   6   28.86    2.38
  -7  -3   6   98.73    4.18
  -5  -3   6  122.14    4.62
  -3  -3   6    2.60    1.05
  -1  -3   6    2.68    1.03
   1  -3   6  147.77    5.57
   3  -3   6    2.61    1.09
   5  -3   6   33.21    3.02
   7  -3   6    0.46    0.94
   9  -3   6  125.94    5.64
  11  -3   6    7.03    1.72
 -20  -2   6  149.45    7.58
 -18  -2   6   43.28    3.74
 -16  -2   6  106.99    4.95
 -14  -2   6    4.04    1.17
 -12  -2   6   80.94    3.73
 -10  -2   6   27.97    1.81
  -8  -2   6   11.17    1.37
  -6  -2   6   76.18    2.59
  -4  -2   6  258.71    7.65
  -2  -2   6   48.50    2.94
   0  -2   6   21.89    2.23
   2  -2   6   75.79    3.62
   4  -2   6   19.35    2.13
   6  -2   6    0.98    0.83
   8  -2   6   18.54    2.19
  10  -2   6   48.53    3.66
  12  -2   6   32.34    3.20
  14  -2   6    4.07    2.22
 -21  -1   6   63.39    5.23
 -19  -1   6    8.42    1.98
 -17  -1   6    2.65    1.34
 -15  -1   6   29.95    3.30
 -13  -1   6  132.12    4.87
 -11  -1   6    9.86    1.41
  -9  -1   6   34.28    1.61
  -3  -1   6    3.86    0.76
  -1  -1   6    8.84    0.86
   1  -1   6  207.02    5.92
   3  -1   6    4.39    0.94
   5  -1   6   42.32    2.54
   7  -1   6   -0.32    0.58
   9  -1   6  156.28    4.71
  11  -1   6    9.72    1.74
  13  -1   6   62.37    4.26
  15  -1   6   20.11    3.81
 -22   0   6    0.17    1.33
 -20   0   6  147.01    6.74
 -18   0   6   43.52    4.05
 -16   0   6  122.24    5.81
 -14   0   6    6.60    1.62
 -12   0   6   78.60    4.24
 -10   0   6   25.00    2.58
  -8   0   6   10.10    1.55
  -6   0   6   89.93    2.90
  -4   0   6  319.15    6.85
  -2   0   6   58.80    2.05
   0   0   6   22.96    1.70
   2   0   6   86.87    2.60
   4   0   6   21.12    1.91
   6   0   6    0.04    0.61
   8   0   6   20.99    2.14
  10   0   6   50.42    3.51
  12   0   6   32.07    2.41
  14   0   6    3.77    1.43
 -21   1   6   73.45    5.70
 -19   1   6    9.01    2.18
 -17   1   6    3.57    1.54
 -15   1   6   39.30    3.73
 -13   1   6  130.79    4.49
 -11   1   6    8.93    1.36
  -9   1   6   35.84    2.39
  -7   1   6  137.89    5.04
  -5   1   6  177.49    5.67
  -3   1   6    4.58    0.73
  -1   1   6    7.39    1.07
   1   1   6  211.93    5.96
   3   1   6    5.93    0.84
   5   1   6   38.62    2.02
   7   1   6   -0.20    0.65
   9   1   6  155.98    5.74
  11   1   6    8.69    1.64
  13   1   6   61.22    5.80
  15   1   6   20.88    3.64
 -22   2   6    1.96    1.84
 -20   2   6  152.15    5.99
 -18   2   6   47.26    3.70
 -16   2   6  112.85    5.05
 -14   2   6    7.09    1.74
 -12   2   6   76.51    4.43
 -10   2   6   29.43    2.71
  -8   2   6    9.28    1.50
  -6   2   6   71.51    3.37
  -4   2   6  265.69    6.20
  -2   2   6   51.85    2.58
   0   2   6   21.46    1.94
   2   2   6   64.44    3.08
   4   2   6   16.47    1.48
   6   2   6    0.66    0.61
   8   2   6   19.35    2.17
  10   2   6   44.83    3.37
  12   2   6   35.09    3.12
 -19   3   6   12.11    2.93
 -17   3   6    0.74    1.78
 -15   3   6   26.84    3.54
 -13   3   6  100.36    5.33
 -11   3   6   11.74    1.96
  -9   3   6   21.43    2.46
  -7   3   6  102.21    3.55
  -5   3   6  120.79    3.85
  -3   3   6    2.96    0.79
  -1   3   6    3.71    1.06
   1   3   6  142.70    5.24
   3   3   6    1.49    0.90
   5   3   6   35.84    2.31
   7   3   6   -0.85    0.66
   9   3   6  128.76    5.36
  11   3   6   13.68    3.10
 -16   4   6   78.55    6.95
 -14   4   6    3.35    1.93
 -12   4   6   41.01    4.11
 -10   4   6   17.28    1.91
  -8   4   6    5.85    1.21
  -6   4   6   44.99    2.80
  -4   4   6  172.06    6.19
  -2   4   6   25.89    2.42
   0   4   6   14.05    1.96
   2   4   6   38.40    3.20
   4   4   6   13.03    1.93
   6   4   6    0.29    1.08
   8   4   6   12.04    2.11
 -11   5   6    3.15    1.88
  -9   5   6   18.06    2.83
  -7   5   6   57.19    4.57
  -5   5   6   71.81    7.41
  -3   5   6    0.85    1.77
  -1   5   6    0.21    1.45
   1   5   6   79.29    7.17
  -1  -5   7   47.54    6.31
 -14  -4   7   29.85    3.21
 -12  -4   7   20.82    3.67
 -10  -4   7  123.83    5.43
  -8  -4   7   22.81    2.56
  -6  -4   7    6.97    1.56
  -4  -4   7    4.46    2.00
  -2  -4   7   12.27    2.10
   0  -4   7   64.50    4.87
   2  -4   7   52.68    4.73
   4  -4   7   64.35    5.55
 -17  -3   7   76.91    7.88
 -15  -3   7   25.23    2.86
 -13  -3   7   77.25    4.20
 -11  -3   7    6.32    2.06
  -9  -3   7   12.86    1.78
  -7  -3   7    8.49    1.55
  -5  -3   7    0.48    0.85
  -3  -3   7    0.54    0.97
  -1  -3   7   59.79    4.60
   1  -3   7    2.80    2.15
   3  -3   7   36.52    3.42
   5  -3   7    0.08    1.17
   7  -3   7  111.04    5.46
   9  -3   7   -0.89    1.48
 -20  -2   7   10.09    2.60
 -18  -2   7    6.00    2.15
 -16  -2   7   10.94    2.97
 -14  -2   7   46.83    3.47
 -12  -2   7   28.10    2.62
 -10  -2   7  191.28    6.38
  -8  -2   7   41.58    2.80
  -6  -2   7   12.68    1.92
  -4  -2   7    5.45    1.44
  -2  -2   7   19.85    2.32
   0  -2   7   99.54    4.66
   2  -2   7   85.12    4.25
   4  -2   7   98.49    4.68
   6  -2   7    3.50    1.28
   8  -2   7   -0.43    0.93
  10  -2   7   -0.03    1.14
 -21  -1   7    0.06    1.31
 -19  -1   7    1.98    1.43
 -17  -1   7   96.99    5.71
 -15  -1   7   40.03    3.89
 -13  -1   7  102.40    5.32
 -11  -1   7   17.47    2.40
  -9  -1   7   13.43    1.41
  -5  -1   7    0.13    0.55
  -3  -1   7    1.02    0.64
  -1  -1   7   80.39    3.32
   1  -1   7    3.85    0.94
   3  -1   7   50.25    2.90
   5  -1   7    0.76    0.67
   7  -1   7  138.76    5.59
   9  -1   7    1.40    1.05
  11  -1   7   25.17    2.81
 -22   0   7    2.10    2.32
 -20   0   7   17.98    2.76
 -18   0   7    3.95    1.63
 -16   0   7   11.46    1.97
 -14   0   7   46.94    3.98
 -12   0   7   29.14    2.95
 -10   0   7  231.30    7.95
  -8   0   7   47.38    3.25
  -6   0   7   11.95    1.55
  -4   0   7    3.34    0.86
  -2   0   7   24.75    1.88
   0   0   7  107.59    4.10
   2   0   7   86.07    3.62
   4   0   7  107.65    4.35
   6   0   7    3.10    1.07
   8   0   7    0.07    0.82
  10   0   7    0.66    0.84
  12   0   7    1.84    0.99
 -21   1   7   -0.08    1.20
 -19   1   7    3.91    1.31
 -17   1   7  113.00    4.55
 -15   1   7   38.31    3.53
 -13   1   7   96.65    4.73
 -11   1   7   10.62    1.74
  -9   1   7   10.34    1.62
  -7   1   7   12.35    1.65
  -5   1   7    0.99    0.55
  -3   1   7    1.16    0.71
  -1   1   7   83.81    3.41
   1   1   7    6.72    0.94
   3   1   7   49.68    2.95
   5   1   7    1.65    0.88
   7   1   7  129.96    5.21
   9   1   7    0.93    0.93
  11   1   7   32.19    3.07
 -20   2   7   19.55    3.11
 -18   2   7    6.68    1.96
 -16   2   7    9.06    2.03
 -14   2   7   32.32    3.37
 -12   2   7   20.79    2.54
 -10   2   7  185.87    6.83
  -8   2   7   35.32    2.91
  -6   2   7   11.48    1.32
  -4   2   7    3.56    1.03
  -2   2   7   22.30    2.09
   0   2   7   95.20    4.01
   2   2   7   82.49    3.02
   4   2   7  102.04    3.48
   6   2   7    4.38    1.25
   8   2   7    0.68    0.99
  10   2   7    0.98    1.13
  12   2   7    0.40    1.69
 -17   3   7   77.52    6.25
 -15   3   7   30.22    3.60
 -13   3   7   78.84    5.44
 -11   3   7   12.02    2.08
  -9   3   7    7.65    1.22
  -7   3   7   12.47    1.47
  -5   3   7   -0.05    0.77
  -3   3   7   -0.26    0.73
  -1   3   7   62.81    3.58
   1   3   7    3.39    1.14
   3   3   7   40.50    2.54
   5   3   7   -0.10    0.73
   7   3   7  108.45    4.78
 -14   4   7   33.41    4.08
 -12   4   7   17.62    2.06
 -10   4   7  136.71    5.97
  -8   4   7   24.49    2.21
  -6   4   7    5.46    1.35
  -4   4   7    2.07    1.10
  -2   4   7   16.35    2.04
   0   4   7   66.50    4.29
   2   4   7   59.18    4.15
   4   4   7   72.25    4.29
   6   4   7    0.83    1.76
 -10  -4   8   74.41    7.17
  -8  -4   8    3.89    1.40
  -6  -4   8   24.51    2.87
  -4  -4   8   36.12    4.94
  -2  -4   8   23.04    3.10
   0  -4   8   31.31    6.39
 -15  -3   8   -0.97    1.72
 -13  -3   8    0.41    1.11
 -11  -3   8   39.57    3.44
  -9  -3   8    1.08    1.34
  -7  -3   8   41.80    3.29
  -5  -3   8  163.29    8.79
  -3  -3   8   36.75    3.80
  -1  -3   8    1.17    1.43
   1  -3   8    2.42    3.11
   3  -3   8   27.09    5.48
   5  -3   8   51.86    4.40
 -18  -2   8    2.12    1.83
 -16  -2   8    3.26    1.79
 -14  -2   8   13.38    3.25
 -12  -2   8    6.99    2.32
 -10  -2   8   98.86    4.35
  -8  -2   8   10.71    2.32
  -6  -2   8   38.36    6.07
  -4  -2   8   58.80    3.79
  -2  -2   8   35.77    3.25
   0  -2   8   42.23    3.54
   2  -2   8   12.30    2.03
   4  -2   8   16.51    2.31
   6  -2   8   84.89    4.88
   8  -2   8   -1.08    1.39
 -19  -1   8  152.93    7.31
 -17  -1   8    8.01    2.00
 -15  -1   8    0.75    1.24
 -13  -1   8   -0.51    1.02
 -11  -1   8   58.73    3.98
  -9  -1   8    0.90    1.88
  -7  -1   8   57.89    3.96
  -5  -1   8  250.69    9.86
  -3  -1   8   54.33    2.93
  -1  -1   8    3.22    0.97
   1  -1   8    1.51    0.80
   3  -1   8   27.24    3.74
   5  -1   8   51.29    3.87
   7  -1   8   12.28    2.05
   9  -1   8    3.88    1.50
 -20   0   8    5.18    1.84
 -18   0   8    1.84    2.01
 -16   0   8    5.00    2.54
 -14   0   8   12.95    3.55
 -12   0   8    5.64    1.39
 -10   0   8  110.72    4.90
  -8   0   8   12.29    1.78
  -6   0   8   47.52    2.79
  -4   0   8   75.22    3.30
  -2   0   8   33.42    2.62
   0   0   8   50.99    3.03
   2   0   8   19.05    2.08
   4   0   8   18.12    2.12
   6   0   8   93.20    4.40
   8   0   8   -0.13    1.00
  10   0   8  152.06    6.35
 -19   1   8  153.56    7.02
 -17   1   8    4.82    1.60
 -15   1   8    0.20    0.92
 -13   1   8    0.25    0.96
 -11   1   8   56.54    4.06
  -9   1   8    0.40    0.73
  -7   1   8   53.41    3.15
  -5   1   8  242.18    7.17
  -3   1   8   48.28    2.85
  -1   1   8    5.93    1.19
   1   1   8    2.41    0.93
   3   1   8   34.56    2.88
   5   1   8   59.61    3.97
   7   1   8    8.85    1.72
   9   1   8    4.61    1.49
 -18   2   8    2.75    1.69
 -16   2   8    4.69    1.61
 -14   2   8   11.48    2.10
 -12   2   8    7.17    1.59
 -10   2   8   87.57    4.51
  -8   2   8   11.73    1.68
  -6   2   8   41.02    3.10
  -4   2   8   62.90    3.51
  -2   2   8   32.31    2.69
   0   2   8   41.99    3.11
   2   2   8   13.21    1.53
   4   2   8   14.94    2.05
   6   2   8   85.91    4.33
   8   2   8    0.10    1.16
 -15   3   8    0.36    1.34
 -13   3   8    0.10    1.23
 -11   3   8   44.83    3.87
  -9   3   8    0.99    0.85
  -7   3   8   44.66    3.38
  -5   3   8  180.50    9.05
  -3   3   8   35.19    3.01
  -1   3   8    3.56    1.16
   1   3   8    1.88    1.11
   3   3   8   25.90    2.20
   5   3   8   48.01    3.81
 -12   4   8    3.76    1.70
 -10   4   8   73.07    5.04
  -8   4   8    5.48    1.57
  -6   4   8   28.81    4.03
  -4   4   8   45.43    5.20
  -2   4   8   22.82    3.76
   0   4   8   29.88    3.11
 -13  -3   9   62.19    6.92
 -11  -3   9   96.29    7.11
  -9  -3   9   24.91    3.99
  -7  -3   9   12.29    1.97
  -5  -3   9   31.86    4.25
  -3  -3   9    2.33    1.67
  -1  -3   9   11.50    2.57
 -16  -2   9  215.70    9.42
 -14  -2   9   -0.36    1.55
 -12  -2   9   -0.96    2.54
  -6  -2   9   -0.35    2.18
  -4  -2   9   10.00    3.33
  -2  -2   9   71.89    4.40
   0  -2   9   65.70    4.54
   2  -2   9    0.22    1.11
   4  -2   9   29.53    4.25
 -17  -1   9    1.05    2.46
 -15  -1   9   34.42    6.08
 -13  -1   9   73.28    8.21
 -11  -1   9  114.99    5.25
  -9  -1   9   32.93    3.64
  -7  -1   9   17.79    2.74
  -5  -1   9   35.80    2.79
  -3  -1   9    7.92    2.06
  -1  -1   9   14.72    2.76
   1  -1   9  149.40    8.24
   3  -1   9   11.82    1.99
   5  -1   9   23.05    2.80
 -18   0   9   -1.53    1.87
 -16   0   9  233.67    8.80
 -14   0   9    0.04    0.92
 -12   0   9   -0.75    0.88
 -10   0   9   17.51    2.97
  -8   0   9   12.45    1.73
  -6   0   9    1.03    0.82
  -4   0   9   12.31    2.45
  -2   0   9   90.10    4.14
   0   0   9   74.98    3.73
   2   0   9    1.61    1.11
   4   0   9   37.21    3.19
   6   0   9   11.86    1.98
 -17   1   9    0.68    1.31
 -15   1   9   27.93    3.24
 -13   1   9   68.74    4.87
 -11   1   9  106.87    6.67
  -9   1   9   27.01    2.59
  -7   1   9   16.36    1.99
  -5   1   9   39.96    3.05
  -3   1   9    7.00    1.40
  -1   1   9   16.93    2.05
   1   1   9  150.87    5.81
   3   1   9    6.35    1.55
   5   1   9   34.76    3.24
 -16   2   9  214.59   13.71
 -14   2   9   -1.23    1.21
 -12   2   9    0.00    1.08
 -10   2   9   12.22    1.84
  -8   2   9   13.98    2.02
  -6   2   9    0.24    0.92
  -4   2   9   14.91    1.99
  -2   2   9   80.56    4.20
   0   2   9   56.05    3.18
   2   2   9    1.57    1.10
   4   2   9   31.91    4.45
 -13   3   9   56.53    7.16
 -11   3   9   85.59    4.58
  -9   3   9   17.48    2.36
  -7   3   9   14.31    2.09
  -5   3   9   30.35    2.97
  -3   3   9    3.20    1.38
  -1   3   9   10.74    1.95
   1   3   9  116.12    5.32
  -4  -2  10   31.92    5.11
  -2  -2  10    5.64    2.73
 -15  -1  10    2.33    2.76
 -13  -1  10   20.36    3.39
  -7  -1  10    4.26    1.87
  -5  -1  10   79.37    5.76
  -3  -1  10    0.77    1.38
  -1  -1  10   -0.14    1.48
   1  -1  10    0.71    1.67
 -16   0  10    9.24    3.59
 -14   0  10    0.44    1.58
 -12   0  10    7.56    2.34
 -10   0  10   96.68    4.48
  -8   0  10   91.97    6.10
  -6   0  10    3.97    1.91
  -4   0  10   35.59    3.07
  -2   0  10    7.07    1.53
   0   0  10    5.75    1.53
   2   0  10    8.13    2.65
 -13   1  10   20.72    3.54
 -11   1  10    7.91    1.70
  -9   1  10   22.30    2.45
  -7   1  10    2.90    1.28
  -5   1  10   82.45    6.01
  -3   1  10    0.67    0.99
  -1   1  10   -0.45    0.96
   1   1  10    0.04    1.53
 -10   2  10   85.93    6.44
  -8   2  10   74.31    4.77
  -6   2  10    2.35    1.26
  -4   2  10   30.18    2.98
   0   0   0    0.00    0.00
;
_shelx_hkl_checksum              28224
#END Tags that were not found in dictionaries
loop_
_space_group_symop_operation_xyz
'x, y, z'
'-x, y, -z'
'x+1/2, y+1/2, z'
'-x+1/2, y+1/2, -z'
'-x, -y, -z'
'x, -y, z'
'-x+1/2, -y+1/2, -z'
'x+1/2, -y+1/2, z'
loop_
_atom_site_label
_atom_site_type_symbol
_atom_site_fract_x
_atom_site_fract_y
_atom_site_fract_z
_atom_site_U_iso_or_equiv
_atom_site_adp_type
_atom_site_occupancy
_atom_site_site_symmetry_order
_atom_site_calc_flag
_atom_site_refinement_flags_posn
_atom_site_refinement_flags_adp
_atom_site_refinement_flags_occupancy
Sm1 Sm 0.34640(2) 0.0000 0.06704(4) 0.00599(8) Uani 1 2 d S T P
Sm2 Sm 0.58692(2) 0.0000 0.38125(4) 0.00557(8) Uani 1 2 d S T P
Rh Rh 0.21977(3) 0.0000 0.62518(7) 0.00583(10) Uani 1 2 d S T P
In In 0.0000 0.0000 0.0000 0.00730(18) Uani 0.973(3) 4 d S T .
Ge1 Ge 0.06472(4) 0.0000 0.65732(9) 0.00574(13) Uani 1 2 d S T P
Ge2 Ge 0.20301(4) 0.0000 0.26094(9) 0.00617(13) Uani 1 2 d S T P
loop_
_atom_site_aniso_label
_atom_site_aniso_U_11
_atom_site_aniso_U_22
_atom_site_aniso_U_33
_atom_site_aniso_U_23
_atom_site_aniso_U_13
_atom_site_aniso_U_12
Sm1 0.00594(14) 0.00599(14) 0.00577(14) 0.000 0.00124(10) 0.000
Sm2 0.00536(14) 0.00502(14) 0.00668(14) 0.000 0.00230(10) 0.000
Rh 0.0060(2) 0.0052(2) 0.0066(2) 0.000 0.00227(16) 0.000
In 0.0079(3) 0.0072(3) 0.0075(3) 0.000 0.0032(2) 0.000
Ge1 0.0060(3) 0.0054(3) 0.0057(3) 0.000 0.0016(2) 0.000
Ge2 0.0074(3) 0.0050(3) 0.0065(3) 0.000 0.0026(2) 0.000
loop_
_atom_type_symbol
_atom_type_description
_atom_type_scat_dispersion_real
_atom_type_scat_dispersion_imag
_atom_type_scat_source
Ge Ge 0.1547 1.8001 'International Tables Vol C Tables 4.2.6.8 and 6.1.1.4'
Rh Rh -1.1178 0.9187 'International Tables Vol C Tables 4.2.6.8 and 6.1.1.4'
In In -0.7276 1.3100 'International Tables Vol C Tables 4.2.6.8 and 6.1.1.4'
Sm Sm -0.1638 3.4418 'International Tables Vol C Tables 4.2.6.8 and 6.1.1.4'
loop_
_geom_angle_atom_site_label_1
_geom_angle_atom_site_label_2
_geom_angle_atom_site_label_3
_geom_angle
_geom_angle_site_symmetry_1
_geom_angle_site_symmetry_3
Ge1 Sm1 Ge1 92.86(2) 7_556 7_546
Ge1 Sm1 Ge2 88.61(2) 7_556 .
Ge1 Sm1 Ge2 88.61(2) 7_546 .
Ge1 Sm1 Ge2 164.77(2) 7_556 7_545
Ge1 Sm1 Ge2 87.557(19) 7_546 7_545
Ge2 Sm1 Ge2 106.626(17) . 7_545
Ge1 Sm1 Ge2 87.557(19) 7_556 7
Ge1 Sm1 Ge2 164.77(2) 7_546 7
Ge2 Sm1 Ge2 106.626(17) . 7
Ge2 Sm1 Ge2 88.10(2) 7_545 7
Ge1 Sm1 Rh 133.432(12) 7_556 1_554
Ge1 Sm1 Rh 133.432(12) 7_546 1_554
Ge2 Sm1 Rh 96.14(2) . 1_554
Ge2 Sm1 Rh 46.676(13) 7_545 1_554
Ge2 Sm1 Rh 46.676(13) 7 1_554
Ge1 Sm1 In 53.748(16) 7_556 3
Ge1 Sm1 In 109.333(19) 7_546 3
Ge2 Sm1 In 137.784(9) . 3
Ge2 Sm1 In 111.870(17) 7_545 3
Ge2 Sm1 In 59.156(15) 7 3
Rh Sm1 In 97.740(13) 1_554 3
Ge1 Sm1 In 109.333(19) 7_556 3_545
Ge1 Sm1 In 53.748(15) 7_546 3_545
Ge2 Sm1 In 137.784(9) . 3_545
Ge2 Sm1 In 59.156(15) 7_545 3_545
Ge2 Sm1 In 111.870(17) 7 3_545
Rh Sm1 In 97.740(13) 1_554 3_545
In Sm1 In 79.072(16) 3 3_545
Ge1 Sm1 Rh 45.780(18) 7_556 7_556
Ge1 Sm1 Rh 102.15(2) 7_546 7_556
Ge2 Sm1 Rh 45.026(11) . 7_556
Ge2 Sm1 Rh 148.698(19) 7_545 7_556
Ge2 Sm1 Rh 89.038(18) 7 7_556
Rh Sm1 Rh 113.715(16) 1_554 7_556
In Sm1 Rh 93.095(13) 3 7_556
In Sm1 Rh 148.389(13) 3_545 7_556
Ge1 Sm1 Rh 102.15(2) 7_556 7_546
Ge1 Sm1 Rh 45.780(17) 7_546 7_546
Ge2 Sm1 Rh 45.026(11) . 7_546
Ge2 Sm1 Rh 89.038(18) 7_545 7_546
Ge2 Sm1 Rh 148.698(19) 7 7_546
Rh Sm1 Rh 113.715(16) 1_554 7_546
In Sm1 Rh 148.389(13) 3 7_546
In Sm1 Rh 93.095(13) 3_545 7_546
Rh Sm1 Rh 77.588(18) 7_556 7_546
Ge1 Sm1 Sm2 111.890(17) 7_556 5_655
Ge1 Sm1 Sm2 111.890(17) 7_546 5_655
Ge2 Sm1 Sm2 149.278(17) . 5_655
Ge2 Sm1 Sm2 54.353(14) 7_545 5_655
Ge2 Sm1 Sm2 54.353(14) 7 5_655
Rh Sm1 Sm2 53.141(17) 1_554 5_655
In Sm1 Sm2 58.211(7) 3 5_655
In Sm1 Sm2 58.211(7) 3_545 5_655
Rh Sm1 Sm2 140.843(9) 7_556 5_655
Rh Sm1 Sm2 140.843(9) 7_546 5_655
Ge1 Sm1 Sm1 143.471(19) 7_556 7_545
Ge1 Sm1 Sm1 86.771(16) 7_546 7_545
Ge2 Sm1 Sm1 54.866(15) . 7_545
Ge2 Sm1 Sm1 51.760(14) 7_545 7_545
Ge2 Sm1 Sm1 101.903(18) 7 7_545
Rh Sm1 Sm1 60.134(12) 1_554 7_545
In Sm1 Sm1 157.670(15) 3 7_545
In Sm1 Sm1 99.759(16) 3_545 7_545
Rh Sm1 Sm1 98.621(17) 7_556 7_545
Rh Sm1 Sm1 53.581(13) 7_546 7_545
Sm2 Sm1 Sm1 101.961(14) 5_655 7_545
Ge1 Sm2 Ge1 91.85(2) 3 3_545
Ge1 Sm2 Rh 108.392(16) 3 5_656
Ge1 Sm2 Rh 108.392(16) 3_545 5_656
Ge1 Sm2 Ge2 82.630(18) 3 3
Ge1 Sm2 Ge2 150.20(2) 3_545 3
Rh Sm2 Ge2 47.559(12) 5_656 3
Ge1 Sm2 Ge2 150.20(2) 3 3_545
Ge1 Sm2 Ge2 82.630(18) 3_545 3_545
Rh Sm2 Ge2 47.559(13) 5_656 3_545
Ge2 Sm2 Ge2 87.78(2) 3 3_545
Ge1 Sm2 Rh 48.499(17) 3 3
Ge1 Sm2 Rh 108.60(2) 3_545 3
Rh Sm2 Rh 59.973(14) 5_656 3
Ge2 Sm2 Rh 47.408(18) 3 3
Ge2 Sm2 Rh 105.69(2) 3_545 3
Ge1 Sm2 Rh 108.60(2) 3 3_545
Ge1 Sm2 Rh 48.499(17) 3_545 3_545
Rh Sm2 Rh 59.973(14) 5_656 3_545
Ge2 Sm2 Rh 105.69(2) 3 3_545
Ge2 Sm2 Rh 47.408(18) 3_545 3_545
Rh Sm2 Rh 86.191(19) 3 3_545
Ge1 Sm2 Ge1 108.319(15) 3 7_546
Ge1 Sm2 Ge1 48.73(2) 3_545 7_546
Rh Sm2 Ge1 136.830(12) 5_656 7_546
Ge2 Sm2 Ge1 159.83(2) 3 7_546
Ge2 Sm2 Ge1 89.932(19) 3_545 7_546
Rh Sm2 Ge1 151.325(18) 3 7_546
Rh Sm2 Ge1 87.198(18) 3_545 7_546
Ge1 Sm2 Ge1 48.73(2) 3 7_556
Ge1 Sm2 Ge1 108.319(15) 3_545 7_556
Rh Sm2 Ge1 136.830(12) 5_656 7_556
Ge2 Sm2 Ge1 89.932(19) 3 7_556
Ge2 Sm2 Ge1 159.83(2) 3_545 7_556
Rh Sm2 Ge1 87.198(18) 3 7_556
Rh Sm2 Ge1 151.325(18) 3_545 7_556
Ge1 Sm2 Ge1 85.35(2) 7_546 7_556
Ge1 Sm2 In 150.718(18) 3 3_545
Ge1 Sm2 In 88.073(18) 3_545 3_545
Rh Sm2 In 99.350(12) 5_656 3_545
Ge2 Sm2 In 110.773(18) 3 3_545
Ge2 Sm2 In 58.704(15) 3_545 3_545
Rh Sm2 In 156.304(13) 3 3_545
Rh Sm2 In 93.108(14) 3_545 3_545
Ge1 Sm2 In 51.963(13) 7_546 3_545
Ge1 Sm2 In 103.801(16) 7_556 3_545
Ge1 Sm2 In 88.073(18) 3 3
Ge1 Sm2 In 150.718(18) 3_545 3
Rh Sm2 In 99.350(11) 5_656 3
Ge2 Sm2 In 58.704(16) 3 3
Ge2 Sm2 In 110.773(18) 3_545 3
Rh Sm2 In 93.108(14) 3 3
Rh Sm2 In 156.304(13) 3_545 3
Ge1 Sm2 In 103.801(16) 7_546 3
Ge1 Sm2 In 51.963(13) 7_556 3
In Sm2 In 78.167(16) 3_545 3
Ge1 Sm2 Sm2 56.462(14) 3 5_656
Ge1 Sm2 Sm2 56.462(14) 3_545 5_656
Rh Sm2 Sm2 154.389(18) 5_656 5_656
Ge2 Sm2 Sm2 135.881(11) 3 5_656
Ge2 Sm2 Sm2 135.881(11) 3_545 5_656
Rh Sm2 Sm2 102.789(17) 3 5_656
Rh Sm2 Sm2 102.789(17) 3_545 5_656
Ge1 Sm2 Sm2 51.857(14) 7_546 5_656
Ge1 Sm2 Sm2 51.857(14) 7_556 5_656
In Sm2 Sm2 100.462(14) 3_545 5_656
In Sm2 Sm2 100.462(14) 3 5_656
Ge2 Rh Ge2 119.58(3) 7_556 7_546
Ge2 Rh Ge2 103.165(19) 7_556 .
Ge2 Rh Ge2 103.165(19) 7_546 .
Ge2 Rh Ge1 111.614(19) 7_556 .
Ge2 Rh Ge1 111.614(19) 7_546 .
Ge2 Rh Ge1 106.03(3) . .
Ge2 Rh Sm2 66.917(18) 7_556 5_656
Ge2 Rh Sm2 66.917(18) 7_546 5_656
Ge2 Rh Sm2 78.10(2) . 5_656
Ge1 Rh Sm2 175.87(2) . 5_656
Ge2 Rh Rh 125.41(3) 7_556 7_546
Ge2 Rh Rh 51.933(19) 7_546 7_546
Ge2 Rh Rh 51.231(16) . 7_546
Ge1 Rh Rh 121.21(2) . 7_546
Sm2 Rh Rh 61.269(16) 5_656 7_546
Ge2 Rh Rh 51.933(19) 7_556 7_556
Ge2 Rh Rh 125.41(3) 7_546 7_556
Ge2 Rh Rh 51.231(16) . 7_556
Ge1 Rh Rh 121.21(2) . 7_556
Sm2 Rh Rh 61.269(16) 5_656 7_556
Rh Rh Rh 87.57(3) 7_546 7_556
Ge2 Rh Sm2 162.62(2) 7_556 3_445
Ge2 Rh Sm2 76.909(19) 7_546 3_445
Ge2 Rh Sm2 65.346(16) . 3_445
Ge1 Rh Sm2 62.558(16) . 3_445
Sm2 Rh Sm2 120.028(14) 5_656 3_445
Rh Rh Sm2 58.760(17) 7_546 3_445
Rh Rh Sm2 115.27(3) 7_556 3_445
Ge2 Rh Sm2 76.909(19) 7_556 3_455
Ge2 Rh Sm2 162.62(2) 7_546 3_455
Ge2 Rh Sm2 65.346(16) . 3_455
Ge1 Rh Sm2 62.558(16) . 3_455
Sm2 Rh Sm2 120.028(14) 5_656 3_455
Rh Rh Sm2 115.27(3) 7_546 3_455
Rh Rh Sm2 58.760(17) 7_556 3_455
Sm2 Rh Sm2 86.189(19) 3_445 3_455
Ge2 Rh Sm1 64.714(17) 7_556 1_556
Ge2 Rh Sm1 64.714(17) 7_546 1_556
Ge2 Rh Sm1 148.82(3) . 1_556
Ge1 Rh Sm1 105.15(2) . 1_556
Sm2 Rh Sm1 70.725(16) 5_656 1_556
Rh Rh Sm1 110.47(2) 7_546 1_556
Rh Rh Sm1 110.47(2) 7_556 1_556
Sm2 Rh Sm1 131.849(11) 3_445 1_556
Sm2 Rh Sm1 131.849(11) 3_455 1_556
Ge2 Rh Sm1 57.612(18) 7_556 7_556
Ge2 Rh Sm1 123.18(2) 7_546 7_556
Ge2 Rh Sm1 133.608(15) . 7_556
Ge1 Rh Sm1 57.362(13) . 7_556
Sm2 Rh Sm1 119.830(14) 5_656 7_556
Rh Rh Sm1 174.767(18) 7_546 7_556
Rh Rh Sm1 97.399(15) 7_556 7_556
Sm2 Rh Sm1 119.88(2) 3_445 7_556
Sm2 Rh Sm1 69.030(15) 3_455 7_556
Sm1 Rh Sm1 66.285(16) 1_556 7_556
Ge2 Rh Sm1 123.18(2) 7_556 7_546
Ge2 Rh Sm1 57.612(18) 7_546 7_546
Ge2 Rh Sm1 133.608(15) . 7_546
Ge1 Rh Sm1 57.362(13) . 7_546
Sm2 Rh Sm1 119.830(13) 5_656 7_546
Rh Rh Sm1 97.399(15) 7_546 7_546
Rh Rh Sm1 174.767(18) 7_556 7_546
Sm2 Rh Sm1 69.030(15) 3_445 7_546
Sm2 Rh Sm1 119.881(19) 3_455 7_546
Sm1 Rh Sm1 66.285(15) 1_556 7_546
Sm1 Rh Sm1 77.587(18) 7_556 7_546
Ge1 In Ge1 180.00(2) 5_556 1_554
Ge1 In Sm1 55.859(10) 5_556 3_445
Ge1 In Sm1 124.141(10) 1_554 3_445
Ge1 In Sm1 124.141(10) 5_556 7
Ge1 In Sm1 55.859(10) 1_554 7
Sm1 In Sm1 180.0 3_445 7
Ge1 In Sm1 124.141(10) 5_556 7_545
Ge1 In Sm1 55.859(10) 1_554 7_545
Sm1 In Sm1 100.928(16) 3_445 7_545
Sm1 In Sm1 79.072(16) 7 7_545
Ge1 In Sm1 55.859(10) 5_556 3_455
Ge1 In Sm1 124.141(10) 1_554 3_455
Sm1 In Sm1 79.072(16) 3_445 3_455
Sm1 In Sm1 100.928(16) 7 3_455
Sm1 In Sm1 180.0 7_545 3_455
Ge1 In Sm2 59.766(14) 5_556 3_455
Ge1 In Sm2 120.234(14) 1_554 3_455
Sm1 In Sm2 115.545(12) 3_445 3_455
Sm1 In Sm2 64.455(12) 7 3_455
Sm1 In Sm2 111.804(12) 7_545 3_455
Sm1 In Sm2 68.196(12) 3_455 3_455
Ge1 In Sm2 120.234(14) 5_556 7_545
Ge1 In Sm2 59.766(14) 1_554 7_545
Sm1 In Sm2 64.455(12) 3_445 7_545
Sm1 In Sm2 115.545(12) 7 7_545
Sm1 In Sm2 68.196(12) 7_545 7_545
Sm1 In Sm2 111.804(12) 3_455 7_545
Sm2 In Sm2 180.0 3_455 7_545
Ge1 In Sm2 59.766(14) 5_556 3_445
Ge1 In Sm2 120.234(14) 1_554 3_445
Sm1 In Sm2 68.196(12) 3_445 3_445
Sm1 In Sm2 111.804(12) 7 3_445
Sm1 In Sm2 64.455(12) 7_545 3_445
Sm1 In Sm2 115.545(12) 3_455 3_445
Sm2 In Sm2 78.167(16) 3_455 3_445
Sm2 In Sm2 101.833(16) 7_545 3_445
Ge1 In Sm2 120.234(14) 5_556 7
Ge1 In Sm2 59.766(14) 1_554 7
Sm1 In Sm2 111.804(12) 3_445 7
Sm1 In Sm2 68.196(12) 7 7
Sm1 In Sm2 115.545(12) 7_545 7
Sm1 In Sm2 64.455(12) 3_455 7
Sm2 In Sm2 101.833(16) 3_455 7
Sm2 In Sm2 78.167(16) 7_545 7
Sm2 In Sm2 180.0 3_445 7
Rh Ge1 Ge1 118.37(4) . 5_556
Rh Ge1 In 131.60(3) . 1_556
Ge1 Ge1 In 110.03(4) 5_556 1_556
Rh Ge1 Sm1 76.857(18) . 7_556
Ge1 Ge1 Sm1 132.889(13) 5_556 7_556
In Ge1 Sm1 70.392(17) 1_556 7_556
Rh Ge1 Sm1 76.857(18) . 7_546
Ge1 Ge1 Sm1 132.888(13) 5_556 7_546
In Ge1 Sm1 70.392(17) 1_556 7_546
Sm1 Ge1 Sm1 92.86(2) 7_556 7_546
Rh Ge1 Sm2 68.943(16) . 3_445
Ge1 Ge1 Sm2 69.31(2) 5_556 3_445
In Ge1 Sm2 133.153(13) 1_556 3_445
Sm1 Ge1 Sm2 145.73(3) 7_556 3_445
Sm1 Ge1 Sm2 77.606(17) 7_546 3_445
Rh Ge1 Sm2 68.943(16) . 3_455
Ge1 Ge1 Sm2 69.31(2) 5_556 3_455
In Ge1 Sm2 133.153(13) 1_556 3_455
Sm1 Ge1 Sm2 77.606(17) 7_556 3_455
Sm1 Ge1 Sm2 145.73(3) 7_546 3_455
Sm2 Ge1 Sm2 91.85(2) 3_445 3_455
Rh Ge1 Sm2 136.118(13) . 7_546
Ge1 Ge1 Sm2 61.97(2) 5_556 7_546
In Ge1 Sm2 68.271(15) 1_556 7_546
Sm1 Ge1 Sm2 138.53(2) 7_556 7_546
Sm1 Ge1 Sm2 76.529(15) 7_546 7_546
Sm2 Ge1 Sm2 71.680(15) 3_445 7_546
Sm2 Ge1 Sm2 131.27(2) 3_455 7_546
Rh Ge1 Sm2 136.118(13) . 7_556
Ge1 Ge1 Sm2 61.97(2) 5_556 7_556
In Ge1 Sm2 68.271(15) 1_556 7_556
Sm1 Ge1 Sm2 76.529(15) 7_556 7_556
Sm1 Ge1 Sm2 138.53(2) 7_546 7_556
Sm2 Ge1 Sm2 131.27(2) 3_445 7_556
Sm2 Ge1 Sm2 71.680(15) 3_455 7_556
Sm2 Ge1 Sm2 85.35(2) 7_546 7_556
Rh Ge2 Rh 119.58(3) 7_556 7_546
Rh Ge2 Rh 76.836(19) 7_556 .
Rh Ge2 Rh 76.836(19) 7_546 .
Rh Ge2 Sm1 77.36(2) 7_556 .
Rh Ge2 Sm1 77.36(2) 7_546 .
Rh Ge2 Sm1 127.32(3) . .
Rh Ge2 Sm1 146.83(3) 7_556 7_545
Rh Ge2 Sm1 68.610(16) 7_546 7_545
Rh Ge2 Sm1 134.252(14) . 7_545
Sm1 Ge2 Sm1 73.374(17) . 7_545
Rh Ge2 Sm1 68.610(16) 7_556 7
Rh Ge2 Sm1 146.83(3) 7_546 7
Rh Ge2 Sm1 134.252(14) . 7
Sm1 Ge2 Sm1 73.374(17) . 7
Sm1 Ge2 Sm1 88.10(2) 7_545 7
Rh Ge2 Sm2 141.62(3) 7_556 3_445
Rh Ge2 Sm2 65.526(18) 7_546 3_445
Rh Ge2 Sm2 67.248(16) . 3_445
Sm1 Ge2 Sm2 135.899(11) . 3_445
Sm1 Ge2 Sm2 71.530(15) 7_545 3_445
Sm1 Ge2 Sm2 130.33(2) 7 3_445
Rh Ge2 Sm2 65.526(18) 7_556 3_455
Rh Ge2 Sm2 141.62(3) 7_546 3_455
Rh Ge2 Sm2 67.248(16) . 3_455
Sm1 Ge2 Sm2 135.899(11) . 3_455
Sm1 Ge2 Sm2 130.33(2) 7_545 3_455
Sm1 Ge2 Sm2 71.530(15) 7 3_455
Sm2 Ge2 Sm2 87.77(2) 3_445 3_455
loop_
_geom_bond_atom_site_label_1
_geom_bond_atom_site_label_2
_geom_bond_distance
_geom_bond_site_symmetry_2
Sm1 Ge1 2.9777(6) 7_556
Sm1 Ge1 2.9777(6) 7_546
Sm1 Ge2 2.9799(8) .
Sm1 Ge2 3.1028(7) 7_545
Sm1 Ge2 3.1028(7) 7
Sm1 Rh 3.1952(8) 1_554
Sm1 In 3.3891(5) 3
Sm1 In 3.3891(5) 3_545
Sm1 Rh 3.4434(6) 7_556
Sm1 Rh 3.4434(6) 7_546
Sm1 Sm2 3.6323(7) 5_655
Sm1 Sm1 3.6354(7) 7_545
Sm2 Ge1 3.0029(6) 3
Sm2 Ge1 3.0029(6) 3_545
Sm2 Rh 3.0788(8) 5_656
Sm2 Ge2 3.1119(6) 3
Sm2 Ge2 3.1119(6) 3_545
Sm2 Rh 3.1577(5) 3
Sm2 Rh 3.1577(5) 3_545
Sm2 Ge1 3.1826(7) 7_546
Sm2 Ge1 3.1826(7) 7_556
Sm2 In 3.4219(5) 3_545
Sm2 In 3.4219(5) 3
Sm2 Sm2 3.6247(8) 5_656
Rh Ge2 2.4964(5) 7_556
Rh Ge2 2.4964(5) 7_546
Rh Ge2 2.5207(9) .
Rh Ge1 2.5342(9) .
Rh Sm2 3.0788(8) 5_656
Rh Rh 3.1177(8) 7_546
Rh Rh 3.1177(8) 7_556
Rh Sm2 3.1577(5) 3_445
Rh Sm2 3.1577(5) 3_455
Rh Sm1 3.1952(7) 1_556
Rh Sm1 3.4434(6) 7_556
Rh Sm1 3.4434(6) 7_546
In Ge1 2.9013(8) 5_556
In Ge1 2.9013(8) 1_554
In Sm1 3.3891(5) 3_445
In Sm1 3.3891(5) 7
In Sm1 3.3891(5) 7_545
In Sm1 3.3891(5) 3_455
In Sm2 3.4219(5) 3_455
In Sm2 3.4219(5) 7_545
In Sm2 3.4219(5) 3_445
In Sm2 3.4219(5) 7
Ge1 Ge1 2.5569(13) 5_556
Ge1 In 2.9013(8) 1_556
Ge1 Sm1 2.9777(6) 7_556
Ge1 Sm1 2.9777(6) 7_546
Ge1 Sm2 3.0029(6) 3_445
Ge1 Sm2 3.0029(6) 3_455
Ge1 Sm2 3.1826(7) 7_546
Ge1 Sm2 3.1826(7) 7_556
Ge2 Rh 2.4964(5) 7_556
Ge2 Rh 2.4964(5) 7_546
Ge2 Sm1 3.1028(7) 7_545
Ge2 Sm1 3.1028(7) 7
Ge2 Sm2 3.1120(6) 3_445
Ge2 Sm2 3.1120(6) 3_455
