#------------------------------------------------------------------------------
#$Date: 2016-03-24 00:14:39 +0200 (Thu, 24 Mar 2016) $
#$Revision: 179528 $
#$URL: svn://www.crystallography.net/cod/cif/4/34/25/4342577.cif $
#------------------------------------------------------------------------------
#
# This file is available in the Crystallography Open Database (COD),
# http://www.crystallography.net/
#
# All data on this site have been placed in the public domain by the
# contributors.
#
data_4342577
loop_
_publ_author_name
'Oliynyk, Anton O.'
'Stoyko, Stanislav S.'
'Mar, Arthur'
_publ_section_title
;
 Many Metals Make the Cut: Quaternary Rare-Earth Germanides RE4M2InGe4 (M
 = Fe, Co, Ni, Ru, Rh, Ir) and RE4RhInGe4 Derived from Excision of Slabs
 in RE2InGe2.
;
_journal_issue                   6
_journal_name_full               'Inorganic chemistry'
_journal_page_first              2780
_journal_page_last               2792
_journal_paper_doi               10.1021/ic502955h
_journal_volume                  54
_journal_year                    2015
_chemical_formula_structural     'Dy4 Ru2 In Ge4'
_chemical_formula_sum            'Dy4 Ge4 In Ru2'
_chemical_formula_weight         1257.32
_chemical_name_common
'dysprosium ruthenium indium germanide (4/2/1/4)'
_chemical_name_systematic
'dysprosium ruthenium indium germanide (4/2/1/4)'
_space_group_crystal_system      monoclinic
_space_group_IT_number           12
_space_group_name_Hall           '-C 2y'
_space_group_name_H-M_alt        'C 1 2/m 1'
_symmetry_space_group_name_Hall  '-C 2y'
_symmetry_space_group_name_H-M   'C 1 2/m 1'
_atom_sites_solution_primary     direct
_atom_sites_solution_secondary   difmap
_audit_creation_method           SHELXL-2013
_cell_angle_alpha                90
_cell_angle_beta                 106.728(3)
_cell_angle_gamma                90
_cell_formula_units_Z            2
_cell_length_a                   15.612(3)
_cell_length_b                   4.2519(9)
_cell_length_c                   6.9641(15)
_cell_measurement_reflns_used    1834
_cell_measurement_temperature    173(2)
_cell_measurement_theta_max      32.06
_cell_measurement_theta_min      2.72
_cell_volume                     442.72(16)
_computing_cell_refinement       'Bruker SAINT 8.27B (Bruker, 2011)'
_computing_data_collection       'Bruker APEX 2 (Bruker, 2008)'
_computing_data_reduction        'Bruker SAINT 8.27B'
_computing_molecular_graphics    'ATOMS 5.1 (Dowty, 1999)'
_computing_publication_material  'Bruker SHELXTL'
_computing_structure_refinement  'Bruker SHELXTL'
_computing_structure_solution    'Bruker SHELXTL'
_diffrn_ambient_temperature      173(2)
_diffrn_measured_fraction_theta_full 1.000
_diffrn_measured_fraction_theta_max 0.982
_diffrn_measurement_device_type  'Bruker PLATFORM/SMART APEX II CCD'
_diffrn_measurement_method       '\w and \f scans'
_diffrn_radiation_type           MoK\a
_diffrn_radiation_wavelength     0.71073
_diffrn_reflns_av_R_equivalents  0.0414
_diffrn_reflns_av_unetI/netI     0.0368
_diffrn_reflns_Laue_measured_fraction_full 1.000
_diffrn_reflns_Laue_measured_fraction_max 0.982
_diffrn_reflns_limit_h_max       23
_diffrn_reflns_limit_h_min       -23
_diffrn_reflns_limit_k_max       6
_diffrn_reflns_limit_k_min       -6
_diffrn_reflns_limit_l_max       10
_diffrn_reflns_limit_l_min       -10
_diffrn_reflns_number            3134
_diffrn_reflns_point_group_measured_fraction_full 1.000
_diffrn_reflns_point_group_measured_fraction_max 0.982
_diffrn_reflns_theta_full        25.242
_diffrn_reflns_theta_max         33.091
_diffrn_reflns_theta_min         2.725
_diffrn_source                   'fine-focus sealed tube'
_exptl_absorpt_coefficient_mu    52.416
_exptl_absorpt_correction_T_max  0.4296
_exptl_absorpt_correction_T_min  0.0838
_exptl_absorpt_correction_type   numerical
_exptl_absorpt_process_details   'Bruker SHELXTL (Sheldrick, 2013)'
_exptl_crystal_colour            grey
_exptl_crystal_density_diffrn    9.432
_exptl_crystal_density_method    'not measured'
_exptl_crystal_description       irregular
_exptl_crystal_F_000             1058
_exptl_crystal_size_max          0.067
_exptl_crystal_size_mid          0.030
_exptl_crystal_size_min          0.025
_refine_diff_density_max         1.989
_refine_diff_density_min         -2.681
_refine_diff_density_rms         0.472
_refine_ls_extinction_coef       0.00094(8)
_refine_ls_extinction_expression Fc^*^=kFc[1+0.001xFc^2^\l^3^/sin(2\q)]^-1/4^
_refine_ls_extinction_method     SHELXL
_refine_ls_goodness_of_fit_ref   1.057
_refine_ls_hydrogen_treatment    undef
_refine_ls_matrix_type           full
_refine_ls_number_parameters     37
_refine_ls_number_reflns         928
_refine_ls_number_restraints     0
_refine_ls_restrained_S_all      1.057
_refine_ls_R_factor_all          0.0294
_refine_ls_R_factor_gt           0.0235
_refine_ls_shift/su_max          0.000
_refine_ls_shift/su_mean         0.000
_refine_ls_structure_factor_coef Fsqd
_refine_ls_weighting_details
'w=1/[\s^2^(Fo^2^)+(0.0201P)^2^] where P=(Fo^2^+2Fc^2^)/3'
_refine_ls_weighting_scheme      calc
_refine_ls_wR_factor_gt          0.0496
_refine_ls_wR_factor_ref         0.0514
_reflns_Friedel_coverage         0.000
_reflns_number_gt                815
_reflns_number_total             928
_reflns_threshold_expression     'I > 2\s(I)'
_cod_data_source_file            ic502955h_si_004.cif
_cod_data_source_block           Dy4Ru2InGe4
_cod_depositor_comments
'Adding full bibliography for 4342570--4342590.cif.'
_cod_original_cell_volume        442.73(16)
_cod_database_code               4342577
#BEGIN Tags that were not found in dictionaries:
_shelx_space_group_comment
;
The symmetry employed for this shelxl refinement is uniquely defined
by the following loop, which should always be used as a source of
symmetry information in preference to the above space-group names.
They are only intended as comments.
;
_shelx_estimated_absorpt_t_min   0.127
_shelx_estimated_absorpt_t_max   0.354
_shelxl_version_number           2013-4
_shelx_res_file
;
TITL Dy4Ru2InGe4 C2/m lsf final refinement
CELL 0.71073  15.61230   4.25190   6.96410  90.0000 106.7282  90.0000
ZERR    2.00   0.00340   0.00090   0.00150   0.0000   0.0032   0.0000
LATT  7
SYMM -X, Y, -Z
SFAC GE RU IN DY
UNIT 8 4 2 8
TEMP -100
SIZE 0.025 0.03 0.067

L.S. 4
ACTA

WGHT    0.020100
EXTI    0.000936
FVAR       0.04495
DY1   4    0.348339    0.000000    0.067101    10.50000    0.00632    0.00645 =
         0.00619    0.00000    0.00069    0.00000
DY2   4    0.587555    0.000000    0.384253    10.50000    0.00529    0.00605 =
         0.00731    0.00000    0.00236    0.00000
RU    2    0.220321    0.000000    0.632147    10.50000    0.00487    0.00618 =
         0.00611    0.00000    0.00157    0.00000
IN    3    0.000000    0.000000    0.000000     0.24022    0.00709    0.01027 =
         0.00727    0.00000    0.00247    0.00000
GE1   1    0.064511    0.000000    0.658971    10.50000    0.00547    0.00611 =
         0.00752    0.00000    0.00062    0.00000
GE2   1    0.201844    0.000000    0.261892    10.50000    0.01034    0.00458 =
         0.00722    0.00000    0.00292    0.00000
HKLF 4

REM  Dy4Ru2InGe4 C2/m lsf final refinement
REM R1 =  0.0235 for     815 Fo > 4sig(Fo)  and  0.0294 for all     928 data
REM     37 parameters refined using      0 restraints

END

WGHT      0.0201      0.0000

REM Highest difference peak  1.989,  deepest hole -2.681,  1-sigma level  0.472
Q1    1   0.3751  0.1435  0.0604  11.00000  0.05    1.99
Q2    1   0.5572 -0.1131  0.3649  11.00000  0.05    1.75
Q3    1   0.6204 -0.1262  0.3989  11.00000  0.05    1.74
Q4    1   0.1591  0.0000  0.6145  10.50000  0.05    1.59
Q5    1   0.3190  0.0000 -0.1059  10.50000  0.05    1.58
Q6    1   0.0581  0.1946  0.0225  11.00000  0.05    1.56
Q7    1   0.0855  0.0000  0.5620  10.50000  0.05    1.55
Q8    1   0.5500  0.0000  0.5210  10.50000  0.05    1.51
Q9    1   0.5982 -0.1458  0.5195  11.00000  0.05    1.51
Q10   1   0.4288  0.0000  0.2381  10.50000  0.05    1.50
Q11   1   0.1787  0.0000  0.5002  10.50000  0.05    1.48
Q12   1   0.3199  0.1604  0.1106  11.00000  0.05    1.46
Q13   1   0.0782  0.0000  0.8160  10.50000  0.05    1.46
Q14   1   0.0466  0.0000  0.7239  10.50000  0.05    1.45
Q15   1   0.5894  0.0000  0.2887  10.50000  0.05    1.39
Q16   1   0.3213  0.1471  0.0646  11.00000  0.05    1.39
Q17   1   0.3614  0.0000 -0.0443  10.50000  0.05    1.38
Q18   1   0.2915  0.0000  0.5418  10.50000  0.05    1.36
Q19   1   0.2383  0.1829  0.8016  11.00000  0.05    1.35
Q20   1   0.2111  0.0000  0.0593  10.50000  0.05    1.35
;
_shelx_res_checksum              122
_shelx_hkl_file
;
   6  -2 -10    1.60    2.59
   1  -1 -10    3.98    2.46
   3  -1 -10   -0.97    1.77
   0   0 -10    5.29    2.14
   2   0 -10   16.42    2.99
   4   0 -10   34.40    4.05
   6   0 -10    7.54    2.19
   8   0 -10   63.59    4.96
  10   0 -10   74.46    3.74
  12   0 -10    4.15    1.83
  14   0 -10    0.25    1.10
   1   1 -10    1.13    1.64
   3   1 -10    0.17    1.47
   5   1 -10   54.53    3.25
   7   1 -10   10.40    1.69
   9   1 -10   29.97    2.59
  11   1 -10    3.27    1.22
   4   2 -10   34.50    4.27
   6   2 -10    4.06    2.06
   3  -3  -9   -0.31    2.22
   5  -3  -9   20.68    4.36
   7  -3  -9    5.66    2.73
   9  -3  -9   10.22    2.68
  11  -3  -9   40.55    4.51
  -2  -2  -9   -0.41    2.39
   0  -2  -9   39.42    6.14
   2  -2  -9   26.98    4.99
   6  -2  -9    3.56    2.41
   8  -2  -9    9.67    3.23
  10  -2  -9   13.76    2.42
  12  -2  -9    3.80    1.66
  14  -2  -9    1.69    1.58
  -5  -1  -9   23.63    3.42
  -3  -1  -9   -0.55    0.97
  -1  -1  -9  123.80    5.84
   1  -1  -9   10.44    1.85
   3  -1  -9    3.35    1.23
   5  -1  -9   20.84    3.82
   7  -1  -9    6.51    2.37
  13  -1  -9   85.62    6.19
  15  -1  -9   26.27    3.73
  17  -1  -9   -0.25    1.07
  -4   0  -9   32.93    4.13
  -2   0  -9    0.59    1.28
   0   0  -9   55.05    4.48
   2   0  -9   45.69    4.67
   4   0  -9   20.85    3.00
   6   0  -9    1.51    0.94
   8   0  -9   19.06    1.94
  10   0  -9   10.42    1.49
  12   0  -9    1.12    0.96
  14   0  -9   -0.33    0.92
  18   0  -9    1.64    1.61
  -3   1  -9    1.72    1.65
  -1   1  -9  135.21    8.06
   1   1  -9   16.80    1.96
   3   1  -9    2.74    1.07
   5   1  -9   26.48    2.31
   7   1  -9    8.46    1.44
   9   1  -9   18.61    1.98
  11   1  -9   55.95    2.57
  13   1  -9   77.89    3.96
  15   1  -9   25.15    2.40
  -4   2  -9   28.23    3.75
  -2   2  -9   -0.75    1.05
   0   2  -9   40.84    3.22
   2   2  -9   36.95    2.99
   4   2  -9   15.96    2.01
   6   2  -9   -0.02    0.86
   8   2  -9   14.89    1.83
  10   2  -9    6.66    1.11
  12   2  -9    1.44    1.05
  14   2  -9   -0.58    0.95
   3   3  -9    2.50    1.31
   5   3  -9   16.43    2.15
   7   3  -9    6.28    1.46
   9   3  -9   12.99    1.54
  11   3  -9   41.65    4.82
   2  -4  -8   21.07    3.96
   4  -4  -8   23.00    3.94
   6  -4  -8   20.11    3.44
   8  -4  -8   11.61    2.94
  -3  -3  -8    8.16    2.74
  -1  -3  -8   -1.24    1.54
   1  -3  -8    6.58    2.43
   3  -3  -8   59.19    5.54
   5  -3  -8  123.52    8.62
   7  -3  -8   41.44    3.38
   9  -3  -8    1.35    1.57
  11  -3  -8   23.45    3.33
  13  -3  -8   -0.06    1.62
  15  -3  -8    0.61    1.80
  -6  -2  -8   48.69    7.01
  -4  -2  -8    7.85    3.21
  -2  -2  -8   11.00    3.35
   0  -2  -8   14.91    3.47
   6  -2  -8   21.45    3.74
   8  -2  -8   17.03    2.08
  10  -2  -8   89.97    5.58
  12  -2  -8    4.17    1.66
  14  -2  -8    7.91    2.12
  16  -2  -8    2.65    1.61
  18  -2  -8    2.69    1.81
  -9  -1  -8   -0.34    1.02
  -7  -1  -8    8.55    1.59
  -5  -1  -8   30.96    2.85
  -3  -1  -8   11.45    1.79
  -1  -1  -8    0.00    0.85
   1  -1  -8    3.39    1.12
   3  -1  -8   67.03    4.69
   5  -1  -8  188.46    8.96
   7  -1  -8   67.76    4.40
   9  -1  -8    0.66    0.51
  11  -1  -8   34.49    2.14
  13  -1  -8    0.40    0.99
  15  -1  -8    1.80    1.15
  17  -1  -8    1.07    1.07
  19  -1  -8  109.96    7.74
  -8   0  -8   -0.05    1.04
  -6   0  -8   72.85    5.16
  -4   0  -8   14.16    2.41
  -2   0  -8   20.64    2.90
   0   0  -8   24.28    3.14
   2   0  -8   44.66    2.53
   4   0  -8   50.56    2.70
   6   0  -8   28.93    2.19
   8   0  -8   26.38    1.78
  10   0  -8  105.67    3.64
  12   0  -8    2.72    0.80
  14   0  -8   10.08    1.61
  16   0  -8    2.77    1.12
  18   0  -8    0.93    1.02
  -7   1  -8   12.35    2.38
  -5   1  -8   34.46    3.80
  -3   1  -8   10.61    1.48
  -1   1  -8   -0.95    0.69
   1   1  -8    4.37    1.10
   3   1  -8   65.31    3.39
   5   1  -8  162.05    6.33
   7   1  -8   61.27    2.57
   9   1  -8   -0.27    0.52
  11   1  -8   36.17    2.16
  13   1  -8    1.19    0.86
  15   1  -8    0.14    0.67
  17   1  -8    1.61    0.86
  19   1  -8  117.08    8.02
  -8   2  -8    2.71    1.60
  -6   2  -8   58.09    3.29
  -4   2  -8   11.91    1.62
  -2   2  -8   15.32    1.84
   0   2  -8   21.56    2.19
   2   2  -8   36.57    2.85
   4   2  -8   39.68    2.96
   6   2  -8   22.92    1.78
   8   2  -8   18.21    1.56
  10   2  -8   86.85    3.32
  12   2  -8    2.87    1.05
  14   2  -8    7.21    1.42
  16   2  -8    3.35    1.20
  -5   3  -8   32.08    3.81
  -3   3  -8    6.06    1.49
  -1   3  -8    0.07    0.89
   1   3  -8    1.22    0.99
   3   3  -8   53.80    3.26
   5   3  -8  126.19    4.58
   7   3  -8   46.19    2.61
   9   3  -8   -0.10    0.73
  11   3  -8   19.18    2.21
  13   3  -8    0.13    1.01
   0   4  -8   14.82    2.82
   2   4  -8   23.76    3.53
   4   4  -8   28.71    2.71
   6   4  -8   16.29    1.78
   8   4  -8   12.52    2.05
  -4  -4  -7   42.00    5.32
  -2  -4  -7   58.65    5.40
   0  -4  -7   49.27    5.44
   2  -4  -7   12.27    2.59
   4  -4  -7    1.73    1.47
   6  -4  -7    2.41    1.17
   8  -4  -7   15.73    1.99
  10  -4  -7   98.26    6.87
  12  -4  -7    7.54    2.63
  -7  -3  -7   83.07    7.62
  -5  -3  -7    0.88    1.63
  -3  -3  -7   34.07    4.59
  -1  -3  -7    2.15    1.48
   1  -3  -7   37.00    4.30
   3  -3  -7    0.09    1.12
   5  -3  -7    1.26    0.90
   7  -3  -7   11.34    1.59
   9  -3  -7   11.88    2.46
  11  -3  -7    4.85    1.89
  13  -3  -7   63.16    5.09
  15  -3  -7   33.53    4.16
  17  -3  -7   56.98    5.00
 -10  -2  -7   -0.05    2.55
  -8  -2  -7    0.34    2.19
  -6  -2  -7    1.22    1.89
  -4  -2  -7   55.84    6.46
  -2  -2  -7   82.06    6.75
   0  -2  -7   71.82    5.96
   2  -2  -7   19.56    3.31
   4  -2  -7    0.46    1.20
   6  -2  -7    1.79    0.91
   8  -2  -7   29.87    3.29
  10  -2  -7  139.93    7.66
  12  -2  -7   11.45    2.23
  14  -2  -7   50.28    4.20
  16  -2  -7    7.86    1.57
  18  -2  -7    5.27    1.54
  20  -2  -7   13.77    2.99
 -11  -1  -7   13.52    1.95
  -9  -1  -7    0.61    0.94
  -7  -1  -7  113.11    5.32
  -5  -1  -7    0.99    0.79
  -3  -1  -7   44.78    3.02
  -1  -1  -7    5.09    1.18
   1  -1  -7   49.80    3.16
   3  -1  -7    0.24    0.69
   5  -1  -7    0.41    0.47
   7  -1  -7   15.77    1.14
   9  -1  -7   15.36    1.14
  11  -1  -7    3.44    0.84
  13  -1  -7   76.75    3.83
  15  -1  -7   42.89    2.84
  17  -1  -7   65.36    3.84
  19  -1  -7    0.26    0.82
  21  -1  -7   -0.98    1.83
 -12   0  -7   -1.47    0.93
 -10   0  -7    0.84    1.04
  -8   0  -7    3.48    1.28
  -6   0  -7    1.77    1.02
  -4   0  -7   75.83    3.86
  -2   0  -7   95.05    3.42
   0   0  -7   85.94    3.19
   2   0  -7   18.94    1.53
   4   0  -7    2.44    0.58
   6   0  -7    4.88    0.79
   8   0  -7   38.11    1.62
  10   0  -7  172.95    5.23
  12   0  -7   10.35    1.19
  14   0  -7   58.84    2.63
  16   0  -7    8.82    1.49
  18   0  -7    4.63    1.26
  20   0  -7   12.60    1.95
 -11   1  -7   19.64    2.82
  -9   1  -7   -0.06    0.92
  -7   1  -7  123.38    4.72
  -5   1  -7    0.55    0.64
  -3   1  -7   52.67    2.67
  -1   1  -7    6.24    1.09
   1   1  -7   51.19    2.75
   3   1  -7    0.63    0.52
   5   1  -7    0.40    0.49
   7   1  -7   14.62    1.29
   9   1  -7   15.97    1.34
  11   1  -7    6.03    0.92
  13   1  -7   85.14    3.20
  15   1  -7   40.88    2.46
  17   1  -7   68.02    3.05
  19   1  -7    0.00    0.88
 -10   2  -7   -0.14    0.80
  -8   2  -7    1.00    0.86
  -6   2  -7    2.32    0.91
  -4   2  -7   64.52    3.23
  -2   2  -7   85.93    3.90
   0   2  -7   67.58    3.42
   2   2  -7   15.56    1.73
   4   2  -7    1.33    0.62
   6   2  -7    2.11    0.75
   8   2  -7   30.02    1.96
  10   2  -7  143.30    4.59
  12   2  -7    9.42    1.50
  14   2  -7   51.44    2.53
  16   2  -7    7.44    1.22
  18   2  -7    5.04    1.15
  20   2  -7   10.42    2.95
  -7   3  -7   87.31    4.23
  -5   3  -7    1.22    0.95
  -3   3  -7   37.16    2.58
  -1   3  -7    2.96    1.04
   1   3  -7   36.74    2.77
   3   3  -7    0.38    0.61
   5   3  -7   -0.30    0.63
   7   3  -7   10.75    1.33
   9   3  -7    8.33    1.24
  11   3  -7    2.53    1.13
  13   3  -7   60.03    3.62
  15   3  -7   29.23    2.71
  17   3  -7   57.61    3.81
  -4   4  -7   43.93    3.29
  -2   4  -7   59.88    3.39
   0   4  -7   50.14    3.49
   2   4  -7    9.00    1.24
   4   4  -7    0.43    0.79
   6   4  -7    1.45    0.82
   8   4  -7   16.90    2.29
  10   4  -7   91.71    4.82
  12   4  -7    6.18    1.66
  14   4  -7   32.32    4.07
  -1  -5  -6   69.28    5.92
   1  -5  -6    5.98    1.94
   3  -5  -6    6.24    2.06
   5  -5  -6   43.31    4.81
   7  -5  -6   34.67    3.12
  -8  -4  -6    7.48    2.57
  -6  -4  -6    0.83    1.53
  -4  -4  -6    3.17    1.70
  -2  -4  -6   18.83    3.16
   0  -4  -6    8.01    2.18
   2  -4  -6   11.66    2.40
   4  -4  -6  154.95    6.40
   6  -4  -6   28.19    2.55
   8  -4  -6    7.57    1.43
  10  -4  -6   11.47    2.79
  12  -4  -6   29.14    4.09
  14  -4  -6    3.23    2.20
 -11  -3  -6    5.42    2.81
  -9  -3  -6   67.84    6.42
  -7  -3  -6    1.80    1.50
  -5  -3  -6   16.47    2.94
  -3  -3  -6    0.74    1.01
  -1  -3  -6  116.70    7.27
   1  -3  -6    9.67    2.06
   3  -3  -6    6.84    1.67
   5  -3  -6   87.94    4.17
   7  -3  -6   55.91    3.05
   9  -3  -6   39.44    2.58
  11  -3  -6   10.83    2.33
  13  -3  -6   70.35    5.32
  15  -3  -6   18.88    2.99
  17  -3  -6    0.27    1.57
 -12  -2  -6   31.96    3.08
 -10  -2  -6   33.15    2.94
  -8  -2  -6   13.42    1.64
  -6  -2  -6   -0.21    0.62
  -4  -2  -6    5.90    1.05
  -2  -2  -6   32.52    2.10
   0  -2  -6   16.18    1.55
   2  -2  -6   17.90    2.62
   4  -2  -6  243.41    8.46
   6  -2  -6   49.76    2.63
   8  -2  -6   12.43    1.50
  10  -2  -6   17.55    2.61
  12  -2  -6   38.42    2.72
  14  -2  -6    5.82    1.26
  16  -2  -6   56.43    3.72
  18  -2  -6   49.46    3.80
  20  -2  -6   99.28    6.97
 -13  -1  -6   67.17    4.90
 -11  -1  -6    3.98    1.25
  -9  -1  -6   99.50    4.75
  -7  -1  -6    0.38    0.68
  -5  -1  -6   25.93    2.06
  -3  -1  -6    0.66    0.66
  -1  -1  -6  166.51    6.53
   1  -1  -6   12.79    1.10
   3  -1  -6    5.93    0.67
   5  -1  -6  139.44    4.02
   7  -1  -6   87.65    2.88
   9  -1  -6   46.57    2.09
  11  -1  -6   13.36    1.30
  13  -1  -6   87.98    4.06
  15  -1  -6   19.53    2.05
  17  -1  -6    0.21    0.73
  19  -1  -6    7.00    1.23
  21  -1  -6   54.53    3.07
 -14   0  -6    3.10    1.46
 -12   0  -6   38.37    3.41
 -10   0  -6   37.24    3.20
  -8   0  -6   17.40    2.26
  -6   0  -6   -0.15    0.60
  -4   0  -6    7.07    0.85
  -2   0  -6   42.95    1.96
   0   0  -6   17.16    1.34
   2   0  -6   28.07    1.32
   4   0  -6  316.76    7.19
   6   0  -6   57.00    1.73
   8   0  -6   17.70    0.99
  10   0  -6   24.23    1.32
  12   0  -6   51.99    1.98
  14   0  -6    7.01    0.89
  16   0  -6   73.80    3.02
  18   0  -6   43.54    2.57
  20   0  -6  112.49    7.90
  22   0  -6    0.05    1.10
 -13   1  -6   63.11    4.76
 -11   1  -6    4.12    1.43
  -9   1  -6  101.98    4.06
  -7   1  -6    1.72    0.64
  -5   1  -6   31.72    1.84
  -3   1  -6    0.08    0.48
  -1   1  -6  181.97    6.12
   1   1  -6   14.63    1.19
   3   1  -6    8.49    0.95
   5   1  -6  133.92    4.20
   7   1  -6   88.05    2.63
   9   1  -6   49.25    1.86
  11   1  -6   12.93    1.28
  13   1  -6   88.49    3.33
  15   1  -6   19.10    1.62
  17   1  -6    0.73    0.87
  19   1  -6    4.19    1.34
  21   1  -6   64.38    3.90
 -12   2  -6   39.55    2.75
 -10   2  -6   37.67    2.32
  -8   2  -6   16.70    1.64
  -6   2  -6   -0.03    0.57
  -4   2  -6    4.95    0.89
  -2   2  -6   32.13    2.13
   0   2  -6   16.32    1.28
   2   2  -6   21.77    1.53
   4   2  -6  240.64    6.79
   6   2  -6   43.66    2.20
   8   2  -6   11.13    1.03
  10   2  -6   21.77    1.70
  12   2  -6   40.57    2.34
  14   2  -6    7.60    1.12
  16   2  -6   61.56    2.92
  18   2  -6   40.45    2.70
  20   2  -6   92.08    5.00
 -11   3  -6    3.24    1.08
  -9   3  -6   72.31    3.56
  -7   3  -6    0.66    0.76
  -5   3  -6   22.11    2.03
  -3   3  -6    0.94    0.74
  -1   3  -6  113.96    3.75
   1   3  -6    7.33    0.95
   3   3  -6    5.18    0.87
   5   3  -6   95.08    3.45
   7   3  -6   56.70    2.57
   9   3  -6   32.86    2.77
  11   3  -6    9.00    1.57
  13   3  -6   65.78    3.19
  15   3  -6   18.24    1.82
  17   3  -6   -0.39    0.87
  19   3  -6    2.58    1.59
  -6   4  -6    0.51    0.94
  -4   4  -6    1.96    0.99
  -2   4  -6   19.36    1.60
   0   4  -6   10.98    1.25
   2   4  -6   12.34    1.36
   4   4  -6  152.94    4.95
   6   4  -6   25.17    1.96
   8   4  -6    7.68    1.56
  10   4  -6    7.80    1.56
  12   4  -6   24.36    2.65
  14   4  -6    2.32    1.38
  16   4  -6   42.68    3.64
  -1   5  -6   66.78    3.65
   1   5  -6    4.22    1.26
   3   5  -6    1.10    1.08
   5   5  -6   47.92    3.52
   7   5  -6   27.13    2.75
   9   5  -6   21.97    3.30
  11   5  -6    4.36    2.22
  -5  -5  -5   17.88    3.16
  -3  -5  -5    8.66    2.36
  -1  -5  -5   89.22    6.48
   1  -5  -5   59.68    4.96
   3  -5  -5    0.21    1.18
   5  -5  -5   28.19    2.75
   7  -5  -5   41.64    3.13
   9  -5  -5    1.31    2.09
  11  -5  -5   47.65    5.97
 -10  -4  -5    6.80    2.48
  -8  -4  -5   25.35    3.82
  -6  -4  -5  152.98    9.10
  -4  -4  -5    4.57    1.68
  -2  -4  -5   30.49    3.67
   0  -4  -5   13.33    2.37
   2  -4  -5    0.37    0.88
   4  -4  -5    1.19    0.85
   6  -4  -5    7.47    1.31
   8  -4  -5   26.13    2.37
  10  -4  -5   94.07    6.98
  12  -4  -5   18.92    3.39
  14  -4  -5   27.61    4.07
  16  -4  -5    8.46    2.74
 -11  -3  -5    4.01    2.11
  -9  -3  -5    4.76    1.79
  -7  -3  -5   31.36    3.90
  -5  -3  -5   41.61    3.84
  -3  -3  -5    9.64    1.99
  -1  -3  -5  149.93    8.33
   1  -3  -5   97.74    5.96
   3  -3  -5    1.64    0.70
   5  -3  -5   53.09    2.88
   7  -3  -5   86.54    3.87
   9  -3  -5    3.20    0.83
  11  -3  -5   85.35    5.87
  13  -3  -5    1.25    1.32
  15  -3  -5   74.86    6.02
  17  -3  -5    0.31    1.66
  19  -3  -5    2.95    2.18
 -14  -2  -5   35.49    3.85
 -12  -2  -5   11.96    1.76
 -10  -2  -5   14.21    1.73
  -8  -2  -5   47.60    2.69
  -6  -2  -5  219.81    7.69
  -4  -2  -5    8.41    1.05
  -2  -2  -5   52.04    2.44
   0  -2  -5   20.76    1.43
   2  -2  -5    0.82    0.44
   4  -2  -5    1.55    0.65
   6  -2  -5   15.93    1.51
   8  -2  -5   40.84    2.24
  10  -2  -5  155.30    8.20
  12  -2  -5   21.89    2.96
  14  -2  -5   32.05    2.77
  16  -2  -5    6.79    1.50
  18  -2  -5   13.59    2.01
  20  -2  -5    4.05    1.51
 -15  -1  -5   35.20    3.88
 -13  -1  -5   32.57    3.46
 -11  -1  -5    5.15    1.19
  -9  -1  -5    7.47    1.29
  -7  -1  -5   44.90    2.71
  -5  -1  -5   62.19    3.09
  -3  -1  -5   16.88    1.57
  -1  -1  -5  236.87    6.36
   1  -1  -5  163.94    4.58
   3  -1  -5    3.42    0.44
   5  -1  -5   93.71    2.58
   7  -1  -5  130.04    3.07
   9  -1  -5    5.33    0.73
  11  -1  -5  114.09    4.70
  13  -1  -5    1.74    0.70
  15  -1  -5  102.41    3.82
  17  -1  -5    4.38    1.02
  19  -1  -5   11.45    1.50
  21  -1  -5    1.99    1.00
 -16   0  -5   -0.34    1.05
 -14   0  -5   47.44    3.89
 -12   0  -5   14.36    2.16
 -10   0  -5   18.52    2.28
  -8   0  -5   61.04    2.36
  -6   0  -5  273.36    7.35
  -4   0  -5   12.96    1.05
  -2   0  -5   64.25    2.35
   0   0  -5   24.69    1.11
   2   0  -5    1.29    0.44
   4   0  -5    1.92    0.37
   6   0  -5   21.98    0.94
   8   0  -5   45.60    1.48
  10   0  -5  185.42    4.58
  12   0  -5   29.78    1.55
  14   0  -5   52.50    2.38
  16   0  -5   14.52    1.50
  18   0  -5   21.51    1.83
  20   0  -5    4.83    1.05
  22   0  -5   20.82    2.00
 -15   1  -5   40.45    4.18
 -13   1  -5   37.10    2.38
 -11   1  -5    2.53    0.75
  -9   1  -5    8.24    1.07
  -7   1  -5   42.90    2.15
  -5   1  -5   64.80    2.70
  -3   1  -5   18.55    1.45
  -1   1  -5  239.68    6.21
   1   1  -5  157.73    4.56
   3   1  -5    3.69    0.53
   5   1  -5   91.80    2.66
   7   1  -5  134.36    3.53
   9   1  -5    5.01    0.71
  11   1  -5  112.67    3.81
  13   1  -5    2.80    0.72
  15   1  -5  101.52    3.77
  17   1  -5    1.57    1.04
  19   1  -5    9.49    1.76
  21   1  -5    3.58    1.38
  23   1  -5    2.48    2.03
 -14   2  -5   41.88    2.91
 -12   2  -5   13.06    1.49
 -10   2  -5   16.79    1.62
  -8   2  -5   47.82    2.45
  -6   2  -5  222.91    7.30
  -4   2  -5    9.26    1.13
  -2   2  -5   51.51    1.95
   0   2  -5   20.47    1.31
   2   2  -5    0.51    0.44
   4   2  -5    3.08    0.65
   6   2  -5   15.24    1.12
   8   2  -5   40.35    1.77
  10   2  -5  154.05    5.03
  12   2  -5   24.28    1.86
  14   2  -5   35.29    2.32
  16   2  -5   13.36    1.52
  18   2  -5   16.38    2.21
  20   2  -5    5.73    1.55
  22   2  -5   17.83    3.40
 -13   3  -5   24.51    2.17
 -11   3  -5    3.78    0.99
  -9   3  -5    6.53    1.09
  -7   3  -5   35.27    2.17
  -5   3  -5   43.40    2.41
  -3   3  -5   12.39    1.10
  -1   3  -5  150.32    4.43
   1   3  -5  102.13    3.32
   3   3  -5    2.79    0.64
   5   3  -5   57.94    2.41
   7   3  -5   88.71    2.77
   9   3  -5    2.40    0.75
  11   3  -5   84.37    3.43
  13   3  -5    2.67    0.89
  15   3  -5   90.96    3.79
  17   3  -5    3.73    1.05
  19   3  -5    8.87    2.00
 -10   4  -5   11.79    2.31
  -8   4  -5   33.56    3.54
  -6   4  -5  143.86    7.86
  -4   4  -5    4.57    0.84
  -2   4  -5   32.83    1.86
   0   4  -5   11.27    1.19
   2   4  -5    0.30    0.56
   4   4  -5    0.10    0.58
   6   4  -5    5.08    0.96
   8   4  -5   25.28    2.34
  10   4  -5   94.59    4.60
  12   4  -5   16.30    1.62
  14   4  -5   23.70    2.18
  16   4  -5    7.37    2.00
  -5   5  -5   23.13    2.14
  -3   5  -5    7.65    1.29
  -1   5  -5   80.40    3.98
   1   5  -5   48.93    2.99
   3   5  -5   -0.66    0.81
   5   5  -5   23.72    2.37
   7   5  -5   44.94    3.36
   9   5  -5    0.75    1.67
  11   5  -5   45.29    5.82
  -7  -5  -4    1.58    1.42
  -5  -5  -4    8.96    2.30
  -3  -5  -4    1.74    1.37
  -1  -5  -4    0.91    1.20
   1  -5  -4   67.09    5.13
   3  -5  -4    2.82    1.03
   5  -5  -4   65.76    3.87
   7  -5  -4    3.85    1.21
   9  -5  -4   13.39    1.94
  11  -5  -4   30.94    4.81
  13  -5  -4    3.87    2.50
 -12  -4  -4   68.05    5.74
 -10  -4  -4    1.47    1.54
  -8  -4  -4   27.16    3.55
  -6  -4  -4   34.70    3.92
  -4  -4  -4    8.68    1.95
  -2  -4  -4   39.28    3.54
   0  -4  -4   50.83    3.83
   2  -4  -4   66.63    3.32
   4  -4  -4   15.32    1.78
   6  -4  -4  124.88    5.24
   8  -4  -4    1.98    0.81
  10  -4  -4    4.63    2.11
  12  -4  -4    3.24    1.95
  14  -4  -4   33.86    4.58
  16  -4  -4   24.44    4.08
 -11  -3  -4  115.50    7.79
  -9  -3  -4   -0.26    0.98
  -7  -3  -4    0.54    0.90
  -5  -3  -4   18.00    2.46
  -3  -3  -4    1.57    0.90
  -1  -3  -4    0.33    0.74
   1  -3  -4  125.03    4.96
   3  -3  -4    0.83    0.59
   5  -3  -4  119.61    4.70
   7  -3  -4    5.14    0.96
   9  -3  -4   28.66    1.92
  11  -3  -4   62.80    4.91
  13  -3  -4    9.51    2.45
  15  -3  -4   45.88    5.03
  17  -3  -4   65.12    5.65
  19  -3  -4   38.18    4.93
 -16  -2  -4   68.89    5.22
 -14  -2  -4    4.35    1.49
 -12  -2  -4   89.64    4.39
 -10  -2  -4    2.62    0.86
  -8  -2  -4   42.81    2.42
  -6  -2  -4   57.40    2.87
  -4  -2  -4   19.48    1.39
  -2  -2  -4   73.86    2.91
   0  -2  -4   74.05    2.80
   2  -2  -4  111.20    3.26
   4  -2  -4   29.25    1.31
   6  -2  -4  232.29    7.62
   8  -2  -4    1.20    0.53
  10  -2  -4   15.26    1.12
  12  -2  -4    9.66    1.44
  14  -2  -4   55.21    4.40
  16  -2  -4   24.50    2.61
  18  -2  -4   19.31    2.45
  20  -2  -4   11.84    2.04
  22  -2  -4   37.02    5.38
 -17  -1  -4   10.78    2.33
 -15  -1  -4   21.82    2.91
 -13  -1  -4    0.24    0.86
 -11  -1  -4  160.44    6.48
  -9  -1  -4    3.11    0.82
  -7  -1  -4   -0.09    0.45
  -5  -1  -4   33.31    1.36
  -3  -1  -4    2.13    0.42
  -1  -1  -4    1.93    0.40
   1  -1  -4  197.97    4.49
   3  -1  -4    2.24    0.33
   5  -1  -4  182.92    4.21
   7  -1  -4    8.68    0.65
   9  -1  -4   44.44    1.67
  11  -1  -4   83.72    3.21
  13  -1  -4   11.12    1.21
  15  -1  -4   63.10    2.79
  17  -1  -4   79.24    3.37
  19  -1  -4   49.00    2.74
  21  -1  -4   83.37    4.57
  23  -1  -4    7.82    1.86
 -16   0  -4   76.21    5.36
 -14   0  -4    5.59    1.50
 -12   0  -4  105.44    5.99
 -10   0  -4    3.10    0.62
  -8   0  -4   63.51    2.35
  -6   0  -4   82.69    2.76
  -4   0  -4   24.84    1.25
  -2   0  -4   97.18    2.47
   0   0  -4   98.43    2.58
   2   0  -4  141.96    3.53
   4   0  -4   42.31    1.25
   6   0  -4  297.54    6.02
   8   0  -4    1.68    0.43
  10   0  -4   20.17    1.22
  12   0  -4   13.34    1.28
  14   0  -4   67.40    2.81
  16   0  -4   35.20    2.23
  18   0  -4   22.76    1.89
  20   0  -4   11.24    1.45
  22   0  -4   46.01    3.01
 -17   1  -4   11.28    2.25
 -15   1  -4   21.91    1.88
 -13   1  -4   -0.33    0.49
 -11   1  -4  160.73    5.59
  -9   1  -4    3.11    0.67
  -7   1  -4    0.54    0.44
  -5   1  -4   32.56    1.68
  -3   1  -4    1.57    0.34
  -1   1  -4    1.02    0.32
   1   1  -4  200.99    4.47
   3   1  -4    2.79    0.44
   5   1  -4  186.36    3.86
   7   1  -4    9.29    0.67
   9   1  -4   41.00    1.58
  11   1  -4   89.99    2.66
  13   1  -4   10.74    0.97
  15   1  -4   60.30    2.66
  17   1  -4   87.04    3.43
  19   1  -4   53.93    2.80
  21   1  -4   75.43    3.46
  23   1  -4    2.87    1.93
 -16   2  -4   71.74    3.55
 -14   2  -4    2.82    0.86
 -12   2  -4   88.47    3.77
 -10   2  -4    2.20    0.69
  -8   2  -4   50.74    2.35
  -6   2  -4   72.99    2.28
  -4   2  -4   20.62    1.07
  -2   2  -4   74.60    2.36
   0   2  -4   71.90    2.37
   2   2  -4  110.98    2.82
   4   2  -4   28.81    1.22
   6   2  -4  221.21    5.36
   8   2  -4    1.33    0.57
  10   2  -4   16.15    1.39
  12   2  -4   11.21    1.27
  14   2  -4   54.24    2.57
  16   2  -4   27.97    2.12
  18   2  -4   21.73    2.62
  20   2  -4   10.81    2.03
  22   2  -4   39.62    4.93
 -15   3  -4   22.81    2.21
 -13   3  -4    0.39    0.73
 -11   3  -4  116.84    4.73
  -9   3  -4    2.35    0.75
  -7   3  -4    0.23    0.39
  -5   3  -4   17.24    1.21
  -3   3  -4    1.85    0.51
  -1   3  -4    0.86    0.43
   1   3  -4  124.03    3.79
   3   3  -4    1.34    0.43
   5   3  -4  119.25    3.23
   7   3  -4    3.87    0.75
   9   3  -4   25.03    1.75
  11   3  -4   60.96    2.71
  13   3  -4    7.21    1.16
  15   3  -4   44.15    2.63
  17   3  -4   64.41    4.10
  19   3  -4   48.74    4.11
  21   3  -4   65.18    5.68
 -12   4  -4   58.95    4.59
 -10   4  -4    2.39    1.30
  -8   4  -4   28.35    3.11
  -6   4  -4   39.51    2.23
  -4   4  -4   10.73    1.27
  -2   4  -4   40.41    1.86
   0   4  -4   41.35    1.89
   2   4  -4   58.48    2.41
   4   4  -4   16.39    1.37
   6   4  -4  124.47    4.09
   8   4  -4    1.21    0.64
  10   4  -4    9.67    1.22
  12   4  -4    5.47    1.14
  14   4  -4   33.57    3.33
  16   4  -4   20.40    2.76
  18   4  -4   14.10    3.37
  -7   5  -4    0.82    0.81
  -5   5  -4    5.52    1.15
  -3   5  -4    0.93    0.74
  -1   5  -4    0.56    0.77
   1   5  -4   59.84    3.18
   3   5  -4    0.56    0.82
   5   5  -4   63.66    3.49
   7   5  -4    0.82    1.31
   9   5  -4    7.08    2.21
  11   5  -4   29.31    2.96
  13   5  -4    3.31    1.55
   0  -6  -3   66.72    5.55
   2  -6  -3    5.51    1.96
   4  -6  -3   62.54    5.15
   6  -6  -3   13.04    2.70
   8  -6  -3   26.89    3.78
 -11  -5  -3    1.86    1.75
  -9  -5  -3   32.17    4.19
  -7  -5  -3   27.10    3.75
  -5  -5  -3  122.35    7.97
  -3  -5  -3    5.39    1.76
  -1  -5  -3    6.56    1.78
   1  -5  -3    4.39    1.57
   3  -5  -3    3.72    1.13
   5  -5  -3    4.14    1.16
   7  -5  -3    2.74    0.98
   9  -5  -3  120.01    5.42
  11  -5  -3   55.24    6.44
  13  -5  -3    3.39    2.43
 -12  -4  -3    2.62    1.67
 -10  -4  -3   27.94    3.55
  -8  -4  -3   17.51    2.72
  -6  -4  -3   -0.13    0.80
  -4  -4  -3   88.18    5.66
  -2  -4  -3   20.89    2.71
   0  -4  -3  144.35    8.08
   2  -4  -3    5.16    1.01
   4  -4  -3  114.57    4.83
   6  -4  -3   27.64    2.10
   8  -4  -3   54.44    3.14
  10  -4  -3    4.37    1.04
  12  -4  -3   85.63    6.73
  14  -4  -3   55.97    6.36
  16  -4  -3   10.80    3.23
  18  -4  -3   21.42    4.29
 -17  -3  -3   46.56    4.79
 -15  -3  -3   15.38    2.68
 -13  -3  -3    2.49    1.25
 -11  -3  -3    6.54    1.15
  -9  -3  -3   59.81    2.88
  -7  -3  -3   47.75    2.38
  -5  -3  -3  261.81   12.55
  -3  -3  -3   10.27    1.76
  -1  -3  -3   17.14    2.11
   1  -3  -3    3.87    0.80
   3  -3  -3    8.38    1.11
   5  -3  -3    7.91    1.09
   7  -3  -3    2.62    0.69
   9  -3  -3  219.29    7.66
  11  -3  -3  108.08    7.04
  13  -3  -3   -0.31    1.23
  15  -3  -3    9.96    2.52
  17  -3  -3   23.73    2.88
  19  -3  -3    7.25    2.05
  21  -3  -3    9.84    3.78
 -18  -2  -3    5.77    1.90
 -16  -2  -3    1.30    1.23
 -14  -2  -3   22.27    2.88
 -12  -2  -3   10.84    1.45
 -10  -2  -3   49.30    2.50
  -8  -2  -3   25.31    1.73
  -6  -2  -3    2.14    0.56
  -4  -2  -3  137.31    5.07
  -2  -2  -3   40.85    1.84
   0  -2  -3  290.32    7.40
   2  -2  -3    6.37    0.56
   4  -2  -3  223.94    7.39
   6  -2  -3   48.13    2.24
   8  -2  -3   91.65    3.02
  10  -2  -3    8.89    0.86
  12  -2  -3  147.32    8.18
  14  -2  -3  105.09    6.59
  16  -2  -3   15.96    2.09
  18  -2  -3   33.07    3.11
  20  -2  -3   20.34    2.63
  22  -2  -3    4.26    1.67
 -19  -1  -3    9.08    2.19
 -17  -1  -3   60.88    4.73
 -15  -1  -3   29.58    3.33
 -13  -1  -3    4.74    1.30
 -11  -1  -3   10.91    1.44
  -9  -1  -3  100.42    4.14
  -7  -1  -3   80.12    2.45
  -5  -1  -3  419.37   10.03
  -3  -1  -3   18.46    0.80
  -1  -1  -3   35.13    1.21
   1  -1  -3    5.46    0.42
   3  -1  -3   17.41    0.65
   5  -1  -3   15.25    0.66
   7  -1  -3    5.27    0.51
   9  -1  -3  346.17    7.83
  11  -1  -3  152.04    4.65
  13  -1  -3    1.10    0.62
  15  -1  -3   17.69    1.57
  17  -1  -3   34.72    2.31
  19  -1  -3   13.83    1.99
  21  -1  -3   12.40    2.02
  23  -1  -3    0.73    1.37
 -18   0  -3    4.32    1.60
 -16   0  -3    0.76    0.97
 -14   0  -3   33.54    1.93
 -12   0  -3   11.99    1.19
 -10   0  -3   58.54    2.17
  -8   0  -3   33.01    1.53
  -6   0  -3    0.77    0.33
  -4   0  -3  217.65    5.69
  -2   0  -3   64.03    1.70
   0   0  -3  404.52   11.81
   2   0  -3    8.61    0.49
   4   0  -3  305.41    5.87
   6   0  -3   70.97    1.64
   8   0  -3  114.66    3.00
  10   0  -3    8.95    0.97
  12   0  -3  172.08    5.19
  14   0  -3  124.42    4.22
  16   0  -3   19.58    1.68
  18   0  -3   37.06    2.38
  20   0  -3   32.50    2.34
  22   0  -3    3.72    1.05
 -19   1  -3    8.03    2.04
 -17   1  -3   67.27    3.25
 -15   1  -3   31.84    2.07
 -13   1  -3    2.83    0.71
 -11   1  -3   10.42    1.12
  -9   1  -3   98.13    3.61
  -7   1  -3   77.95    2.30
  -5   1  -3  414.34    9.80
  -3   1  -3   19.02    0.83
  -1   1  -3   34.54    1.20
   1   1  -3    5.13    0.44
   3   1  -3   19.47    0.86
   5   1  -3   12.72    0.65
   7   1  -3    5.19    0.53
   9   1  -3  350.08    7.76
  11   1  -3  152.84    3.89
  13   1  -3    0.32    0.56
  15   1  -3   14.35    1.40
  17   1  -3   34.67    2.19
  19   1  -3   12.67    1.53
  21   1  -3   10.39    1.51
  23   1  -3    0.84    1.32
 -18   2  -3    3.98    1.10
 -16   2  -3    1.38    0.80
 -14   2  -3   27.79    2.10
 -12   2  -3   12.89    1.38
 -10   2  -3   43.59    2.22
  -8   2  -3   27.07    1.20
  -6   2  -3    0.82    0.33
  -4   2  -3  154.95    4.05
  -2   2  -3   46.48    1.57
   0   2  -3  298.43    6.38
   2   2  -3    7.43    0.57
   4   2  -3  221.35    5.13
   6   2  -3   48.71    1.33
   8   2  -3   91.64    2.49
  10   2  -3    9.79    0.83
  12   2  -3  148.25    3.95
  14   2  -3  110.43    3.17
  16   2  -3   13.79    1.41
  18   2  -3   34.47    3.19
  20   2  -3   27.01    2.97
  22   2  -3    1.13    2.50
 -15   3  -3   26.40    2.22
 -13   3  -3    2.73    0.89
 -11   3  -3    5.92    0.99
  -9   3  -3   61.93    2.22
  -7   3  -3   52.07    1.90
  -5   3  -3  253.52    6.60
  -3   3  -3   11.84    0.94
  -1   3  -3   16.44    1.12
   1   3  -3    3.31    0.45
   3   3  -3    9.09    0.71
   5   3  -3    7.96    0.74
   7   3  -3    1.43    0.54
   9   3  -3  222.02    6.28
  11   3  -3  105.90    3.77
  13   3  -3   -0.35    0.59
  15   3  -3    7.09    1.15
  17   3  -3   21.07    2.56
  19   3  -3    5.98    1.71
 -14   4  -3   18.64    2.80
 -12   4  -3    8.23    1.93
 -10   4  -3   28.95    2.18
  -8   4  -3   15.40    1.57
  -6   4  -3    0.26    0.48
  -4   4  -3   86.71    3.57
  -2   4  -3   18.61    1.61
   0   4  -3  139.93    5.16
   2   4  -3    2.91    0.54
   4   4  -3  118.31    3.74
   6   4  -3   25.79    1.74
   8   4  -3   53.58    2.36
  10   4  -3    3.97    0.87
  12   4  -3   83.89    4.45
  14   4  -3   65.06    4.34
  16   4  -3    8.40    1.94
  18   4  -3   20.40    2.67
  -9   5  -3   33.04    2.52
  -7   5  -3   27.74    2.26
  -5   5  -3  130.34    7.17
  -3   5  -3    4.31    1.00
  -1   5  -3    7.82    1.20
   1   5  -3    1.87    0.76
   3   5  -3    2.92    0.91
   5   5  -3    4.28    1.06
   7   5  -3    2.09    0.95
   9   5  -3  120.34    5.40
  11   5  -3   60.79    3.70
  13   5  -3    1.54    1.40
  15   5  -3    1.76    2.81
   0   6  -3   60.18    4.94
   2   6  -3    1.05    1.40
   4   6  -3   58.00    4.96
  -4  -6  -2    0.26    1.37
  -2  -6  -2   31.78    4.14
   0  -6  -2    0.84    1.28
   2  -6  -2    9.96    2.36
   4  -6  -2   10.49    2.39
   6  -6  -2   73.42    5.54
   8  -6  -2    3.16    1.68
 -11  -5  -2   35.92    4.45
  -9  -5  -2   26.58    3.64
  -7  -5  -2   10.56    2.23
  -5  -5  -2    3.36    1.46
  -3  -5  -2    0.69    0.98
  -1  -5  -2  107.64    6.99
   1  -5  -2   44.03    3.73
   3  -5  -2  134.41    5.39
   5  -5  -2    0.62    0.86
   7  -5  -2   -0.26    0.70
   9  -5  -2    0.30    0.83
  11  -5  -2    5.17    2.54
  13  -5  -2    0.10    2.30
  15  -5  -2   64.86    7.47
 -12  -4  -2   47.40    4.18
 -10  -4  -2   56.03    4.48
  -8  -4  -2   35.30    3.36
  -6  -4  -2    6.49    1.58
  -4  -4  -2    1.08    0.86
  -2  -4  -2   82.25    5.24
   0  -4  -2    6.95    1.44
   2  -4  -2   16.58    1.64
   4  -4  -2   20.23    1.86
   6  -4  -2  145.16    5.58
   8  -4  -2   10.93    1.35
  10  -4  -2    6.58    1.19
  12  -4  -2    6.35    2.50
  14  -4  -2   20.89    3.98
  16  -4  -2   43.36    5.95
  18  -4  -2   41.58    5.89
 -13  -3  -2   -0.34    0.74
 -11  -3  -2   69.67    3.23
  -9  -3  -2   48.09    2.44
  -7  -3  -2   23.57    1.57
  -5  -3  -2    4.65    0.68
  -3  -3  -2    1.08    0.72
  -1  -3  -2  256.69   11.84
   1  -3  -2   87.54    3.49
   3  -3  -2  274.05    9.00
   5  -3  -2    4.72    0.87
   7  -3  -2   -0.27    0.47
   9  -3  -2   -0.16    0.45
  11  -3  -2    7.85    2.20
  13  -3  -2    4.33    1.81
  15  -3  -2  114.59    7.59
  17  -3  -2    4.40    1.57
  19  -3  -2   12.94    2.42
 -18  -2  -2   25.75    3.31
 -16  -2  -2    2.70    1.29
 -14  -2  -2   85.64    5.33
 -12  -2  -2   77.65    3.53
 -10  -2  -2   93.86    3.84
  -8  -2  -2   73.64    3.10
  -6  -2  -2   10.50    0.99
  -4  -2  -2    2.25    0.44
  -2  -2  -2  150.30    4.97
   0  -2  -2   11.00    0.60
   2  -2  -2   30.22    1.55
   4  -2  -2   37.06    1.74
   6  -2  -2  265.97    8.50
   8  -2  -2   22.61    1.22
  10  -2  -2    7.20    0.73
  12  -2  -2   15.39    1.78
  14  -2  -2   34.57    2.83
  16  -2  -2   55.52    3.75
  18  -2  -2   62.14    4.10
  20  -2  -2   78.75    4.76
  22  -2  -2   -0.79    1.69
 -19  -1  -2   -0.81    1.01
 -17  -1  -2   80.03    5.28
 -15  -1  -2  126.86    7.03
 -13  -1  -2    0.06    0.70
 -11  -1  -2  110.12    3.40
  -9  -1  -2   86.28    2.59
  -7  -1  -2   40.39    1.43
  -5  -1  -2    9.01    0.55
  -3  -1  -2    3.33    0.47
  -1  -1  -2  435.89   10.62
   1  -1  -2  166.44    4.24
   3  -1  -2  476.37   11.43
   5  -1  -2   11.50    0.60
   7  -1  -2    0.41    0.20
   9  -1  -2    0.31    0.21
  11  -1  -2   13.85    1.17
  13  -1  -2    7.07    0.90
  15  -1  -2  135.51    4.47
  17  -1  -2    9.76    1.59
  19  -1  -2   13.72    2.01
  21  -1  -2    0.61    1.11
  23  -1  -2   46.02    5.84
 -20   0  -2    8.29    2.04
 -18   0  -2   29.72    3.40
 -16   0  -2    4.43    0.86
 -14   0  -2  102.91    3.90
 -12   0  -2  101.56    3.66
 -10   0  -2  121.50    3.58
  -8   0  -2  102.08    2.55
  -6   0  -2   16.13    0.87
  -4   0  -2    3.45    0.41
  -2   0  -2  253.14    6.19
   0   0  -2   17.91    0.73
   2   0  -2   36.51    0.97
   4   0  -2   50.76    1.28
   6   0  -2  387.35    9.67
   8   0  -2   30.72    1.47
  10   0  -2   12.32    1.07
  12   0  -2   14.52    1.25
  14   0  -2   41.24    2.03
  16   0  -2   78.70    3.05
  18   0  -2   72.05    3.05
  20   0  -2  110.04    4.17
  22   0  -2    0.92    1.25
 -21   1  -2    1.17    1.42
 -19   1  -2   -0.07    0.78
 -17   1  -2   83.58    3.62
 -15   1  -2  130.00    4.80
 -13   1  -2    0.38    0.50
 -11   1  -2  115.04    4.04
  -9   1  -2   81.97    2.44
  -7   1  -2   43.29    1.42
  -5   1  -2   10.58    0.58
  -3   1  -2    3.11    0.34
  -1   1  -2  453.70   10.55
   1   1  -2  168.51    3.66
   3   1  -2  482.77    8.79
   5   1  -2   11.56    0.61
   7   1  -2   -0.01    0.25
   9   1  -2    0.04    0.27
  11   1  -2   15.20    1.18
  13   1  -2    4.26    0.80
  15   1  -2  130.82    4.47
  17   1  -2    9.35    1.26
  19   1  -2   14.97    1.57
  21   1  -2    0.80    1.16
  23   1  -2   37.89    3.65
 -20   2  -2    7.47    2.02
 -18   2  -2   29.36    2.33
 -16   2  -2    2.50    0.84
 -14   2  -2   89.81    3.69
 -12   2  -2   84.16    3.37
 -10   2  -2   99.13    2.92
  -8   2  -2   82.36    2.43
  -6   2  -2   13.44    0.68
  -4   2  -2    3.04    0.32
  -2   2  -2  158.89    3.50
   0   2  -2   11.72    0.61
   2   2  -2   30.74    0.81
   4   2  -2   36.24    0.97
   6   2  -2  270.19    5.80
   8   2  -2   21.72    1.03
  10   2  -2    8.95    0.76
  12   2  -2   13.91    1.02
  14   2  -2   33.18    1.92
  16   2  -2   70.08    2.88
  18   2  -2   60.46    2.92
  20   2  -2   91.66    4.77
  22   2  -2    0.12    1.32
 -17   3  -2   69.25    4.89
 -15   3  -2  109.69    6.38
 -13   3  -2    1.16    0.68
 -11   3  -2   74.61    2.52
  -9   3  -2   55.51    1.95
  -7   3  -2   23.18    1.18
  -5   3  -2    7.10    0.57
  -3   3  -2    0.87    0.29
  -1   3  -2  241.12    5.50
   1   3  -2   86.98    2.31
   3   3  -2  274.88    7.14
   5   3  -2    5.30    0.72
   7   3  -2    0.19    0.42
   9   3  -2    0.16    0.45
  11   3  -2   10.34    1.09
  13   3  -2    5.09    1.32
  15   3  -2  114.55    5.37
  17   3  -2    6.49    1.61
  19   3  -2    4.47    2.43
 -14   4  -2   55.58    4.33
 -12   4  -2   48.60    2.58
 -10   4  -2   58.06    2.81
  -8   4  -2   40.69    2.23
  -6   4  -2    6.91    1.03
  -4   4  -2    0.43    0.52
  -2   4  -2   81.91    2.69
   0   4  -2    5.70    0.71
   2   4  -2   17.97    1.24
   4   4  -2   18.91    1.34
   6   4  -2  142.13    4.38
   8   4  -2   10.60    1.41
  10   4  -2    5.81    1.18
  12   4  -2    7.97    1.46
  14   4  -2   20.52    2.55
  16   4  -2   44.05    5.26
 -11   5  -2   36.11    2.72
  -9   5  -2   23.73    2.14
  -7   5  -2    8.76    1.32
  -5   5  -2    2.52    0.84
  -3   5  -2   -0.40    0.57
  -1   5  -2  107.42    4.43
   1   5  -2   37.97    2.31
   3   5  -2  133.20    5.22
   5   5  -2    1.64    0.82
   7   5  -2    0.04    0.77
   9   5  -2    0.25    0.84
  11   5  -2    5.26    1.47
  13   5  -2    0.91    1.27
  -4   6  -2    0.37    1.15
  -2   6  -2   32.32    3.80
   0   6  -2    0.07    1.05
   2   6  -2    9.53    2.17
   4   6  -2    4.98    1.78
   6   6  -2   69.84    3.85
   8   6  -2    4.50    1.38
  -6  -6  -1   70.40    5.93
  -4  -6  -1    7.96    2.14
  -2  -6  -1    0.64    1.21
   0  -6  -1    0.65    1.18
   2  -6  -1    0.04    1.18
   4  -6  -1    0.15    1.11
   6  -6  -1   70.10    5.39
   8  -6  -1   -0.51    1.16
 -11  -5  -1   32.22    4.20
  -9  -5  -1   -0.50    1.04
  -7  -5  -1   36.80    4.11
  -5  -5  -1    3.51    1.44
  -3  -5  -1   96.40    6.41
  -1  -5  -1    1.03    0.95
   1  -5  -1   -0.26    0.78
   3  -5  -1    5.80    1.56
   5  -5  -1   97.13    4.26
   7  -5  -1    0.52    0.86
   9  -5  -1   60.91    3.62
  11  -5  -1   76.84    6.78
 -12  -4  -1   33.81    3.84
 -10  -4  -1   11.81    2.17
  -8  -4  -1   95.91    5.97
  -6  -4  -1  156.86    8.47
  -4  -4  -1   10.25    1.81
  -2  -4  -1    1.33    0.78
   0  -4  -1    1.29    0.59
   2  -4  -1    0.48    0.48
   4  -4  -1   -0.34    0.50
   6  -4  -1  140.84    5.40
   8  -4  -1    2.75    0.77
  10  -4  -1   71.20    3.78
  12  -4  -1   53.28    6.31
  14  -4  -1    1.76    2.17
  16  -4  -1   16.01    3.85
  18  -4  -1   -2.65    2.16
 -19  -3  -1    1.70    1.49
 -17  -3  -1   -0.49    1.02
 -15  -3  -1    4.53    1.39
 -13  -3  -1   -0.03    0.81
 -11  -3  -1   69.96    3.19
  -9  -3  -1    0.35    0.46
  -7  -3  -1   70.12    2.83
  -5  -3  -1   15.92    1.12
  -3  -3  -1  211.64    6.77
  -1  -3  -1    4.37    0.73
   1  -3  -1   -0.04    0.39
   3  -3  -1   11.69    1.18
   5  -3  -1  172.05    6.19
   7  -3  -1    7.35    1.05
   9  -3  -1  114.60    4.55
  11  -3  -1  190.68    6.79
  13  -3  -1   18.43    3.24
  15  -3  -1    8.95    2.60
  17  -3  -1    3.80    2.16
  19  -3  -1   52.58    6.35
 -18  -2  -1   13.37    2.26
 -16  -2  -1    2.17    1.10
 -14  -2  -1    2.93    1.12
 -12  -2  -1   64.64    2.88
 -10  -2  -1   18.04    1.46
  -8  -2  -1  184.03    4.72
  -6  -2  -1  297.44    7.45
  -4  -2  -1   17.42    0.97
  -2  -2  -1    2.02    0.32
   0  -2  -1    2.98    0.50
   2  -2  -1   -0.04    0.30
   4  -2  -1    0.77    0.35
   6  -2  -1  287.32    8.97
   8  -2  -1    2.22    0.43
  10  -2  -1  128.68    3.82
  12  -2  -1  127.05    5.06
  14  -2  -1    3.88    1.15
  16  -2  -1   24.59    2.61
  18  -2  -1    0.99    1.06
  20  -2  -1    1.37    1.74
 -21  -1  -1    3.40    1.66
 -19  -1  -1   -0.12    0.94
 -17  -1  -1    1.37    0.96
 -15  -1  -1    8.48    1.01
 -13  -1  -1    1.69    0.55
 -11  -1  -1  107.44    3.25
  -9  -1  -1    1.64    0.37
  -7  -1  -1  102.62    2.93
  -5  -1  -1   32.42    1.06
  -3  -1  -1  394.07    9.70
  -1  -1  -1    8.37    0.53
   1  -1  -1    0.41    0.25
   3  -1  -1   26.54    0.98
   5  -1  -1  315.99    7.93
   7  -1  -1   13.72    0.74
   9  -1  -1  178.16    4.88
  11  -1  -1  278.52   12.44
  13  -1  -1   21.90    2.16
  15  -1  -1    7.75    1.42
  17  -1  -1    1.83    1.03
  19  -1  -1   60.81    3.80
  21  -1  -1   72.10    6.82
 -20   0  -1  142.31    5.47
 -18   0  -1   13.18    1.45
 -16   0  -1    2.88    0.70
 -14   0  -1    2.82    0.64
 -12   0  -1   71.26    2.18
 -10   0  -1   22.49    0.89
  -8   0  -1  226.32    4.98
  -6   0  -1  412.02   10.13
  -4   0  -1   27.41    0.79
  -2   0  -1    0.91    0.22
   0   0  -1    6.53    0.31
   2   0  -1    1.23    0.15
   4   0  -1    0.32    0.23
   6   0  -1  382.16    9.56
   8   0  -1    2.56    0.49
  10   0  -1  168.53    4.72
  12   0  -1  155.66    4.65
  14   0  -1    2.76    0.66
  16   0  -1   28.50    1.91
  18   0  -1    0.62    0.95
  20   0  -1    2.67    1.26
  22   0  -1   23.87    2.85
 -21   1  -1    4.40    1.09
 -19   1  -1    0.71    0.69
 -17   1  -1   -0.23    0.50
 -15   1  -1    8.41    1.05
 -13   1  -1    1.64    0.40
 -11   1  -1  112.02    3.12
  -9   1  -1    0.65    0.27
  -7   1  -1  110.47    2.90
  -5   1  -1   32.95    1.07
  -3   1  -1  442.23    9.64
  -1   1  -1   10.71    0.41
   1   1  -1    0.53    0.17
   3   1  -1   25.36    0.78
   5   1  -1  320.04    6.66
   7   1  -1   14.00    0.74
   9   1  -1  175.87    4.99
  11   1  -1  267.30    7.30
  13   1  -1   19.26    1.45
  15   1  -1    7.43    1.01
  17   1  -1    3.46    1.09
  19   1  -1   66.38    4.19
  21   1  -1   73.86    4.70
  23   1  -1   22.90    4.73
 -20   2  -1  133.29    7.68
 -18   2  -1   12.31    1.50
 -16   2  -1    1.90    0.71
 -14   2  -1    3.31    0.58
 -12   2  -1   60.66    2.11
 -10   2  -1   18.40    1.05
  -8   2  -1  186.65    4.75
  -6   2  -1  319.42    7.48
  -4   2  -1   17.33    0.69
  -2   2  -1    1.05    0.22
   0   2  -1    3.37    0.32
   2   2  -1    0.48    0.17
   4   2  -1    0.37    0.22
   6   2  -1  280.53    6.09
   8   2  -1    1.38    0.36
  10   2  -1  121.95    3.23
  12   2  -1  113.67    3.87
  14   2  -1    1.53    0.67
  16   2  -1   20.70    2.10
  18   2  -1   -1.18    0.83
  20   2  -1   -0.32    1.06
  22   2  -1   24.72    3.05
 -17   3  -1   -0.01    0.93
 -15   3  -1    7.24    1.10
 -13   3  -1    1.05    0.60
 -11   3  -1   69.39    2.98
  -9   3  -1    0.19    0.26
  -7   3  -1   70.88    1.95
  -5   3  -1   15.93    0.82
  -3   3  -1  209.90    4.79
  -1   3  -1    3.37    0.41
   1   3  -1    0.15    0.21
   3   3  -1   11.67    0.71
   5   3  -1  178.33    4.12
   7   3  -1    8.15    0.69
   9   3  -1  116.63    3.00
  11   3  -1  181.88    5.45
  13   3  -1   16.29    1.48
  15   3  -1    4.92    1.18
  17   3  -1    3.84    1.20
  19   3  -1   53.11    3.59
 -16   4  -1    1.88    1.49
 -14   4  -1    2.12    0.87
 -12   4  -1   37.21    2.19
 -10   4  -1   10.10    1.26
  -8   4  -1   96.84    3.82
  -6   4  -1  159.80    4.50
  -4   4  -1    9.99    0.90
  -2   4  -1    1.30    0.43
   0   4  -1    1.46    0.45
   2   4  -1    0.29    0.35
   4   4  -1    0.27    0.50
   6   4  -1  143.80    5.32
   8   4  -1    1.11    0.70
  10   4  -1   76.45    3.72
  12   4  -1   76.20    3.89
  14   4  -1    0.89    1.36
  16   4  -1   17.03    3.30
 -13   5  -1    1.74    0.95
 -11   5  -1   40.89    2.65
  -9   5  -1    1.10    0.75
  -7   5  -1   38.84    2.47
  -5   5  -1    5.25    0.96
  -3   5  -1  103.36    3.42
  -1   5  -1    2.14    0.79
   1   5  -1   -0.58    0.53
   3   5  -1    4.58    0.97
   5   5  -1   88.16    4.08
   7   5  -1    1.33    0.86
   9   5  -1   58.13    3.32
  11   5  -1   91.53    4.62
  13   5  -1    7.39    2.38
  -6   6  -1   80.80    5.57
  -4   6  -1    6.84    1.88
  -2   6  -1    1.24    1.15
   0   6  -1    2.56    1.44
   2   6  -1    0.02    0.78
   4   6  -1   -0.62    0.81
   6   6  -1   65.72    3.81
   8   6  -1   -0.69    1.00
  -8  -6   0    3.39    1.81
  -6  -6   0    1.07    1.39
  -4  -6   0    6.02    1.93
  -2  -6   0    2.74    1.49
   0  -6   0  227.26   12.63
   2  -6   0    0.33    1.12
   4  -6   0    5.59    1.80
   6  -6   0    1.16    1.28
   8  -6   0    0.21    1.35
 -11  -5   0   10.46    2.38
  -9  -5   0   24.35    3.32
  -7  -5   0   32.36    3.74
  -5  -5   0   76.81    5.46
  -3  -5   0   16.75    2.59
  -1  -5   0    8.46    1.87
   1  -5   0    7.72    1.76
   3  -5   0   19.08    2.60
   5  -5   0   80.22    5.41
   7  -5   0   32.62    3.58
   9  -5   0   25.01    3.07
 -12  -4   0   28.05    3.26
 -10  -4   0    3.38    1.28
  -8  -4   0    5.72    1.45
  -6  -4   0    1.10    0.90
  -4  -4   0    4.12    1.24
  -2  -4   0    0.28    0.60
   0  -4   0  523.53   15.89
   2  -4   0    0.97    0.55
   4  -4   0   12.25    1.31
   6  -4   0    3.33    0.84
   8  -4   0    7.20    1.24
  10  -4   0    3.58    1.03
  12  -4   0   26.58    4.36
  14  -4   0   89.57    7.77
  16  -4   0   42.63    6.18
  18  -4   0   -0.70    3.05
 -19  -3   0    5.77    1.82
 -15  -3   0   47.44    3.75
 -13  -3   0   31.54    2.69
 -11  -3   0   20.57    1.61
  -9  -3   0   50.51    2.27
  -7  -3   0   66.45    2.76
  -5  -3   0  178.51    5.79
  -3  -3   0   35.15    1.61
  -1  -3   0   13.09    0.69
   1  -3   0   11.88    0.67
   3  -3   0   35.27    1.84
   5  -3   0  168.51    6.09
   7  -3   0   69.65    3.14
   9  -3   0   46.78    2.67
  11  -3   0   18.08    1.74
  13  -3   0   36.73    4.57
  15  -3   0   59.97    6.14
  17  -3   0  108.24    7.91
  19  -3   0    8.87    3.05
 -20  -2   0   14.39    2.55
 -18  -2   0    0.12    0.95
 -16  -2   0   57.17    4.23
 -14  -2   0  162.37    8.28
 -12  -2   0   40.34    1.91
 -10  -2   0    6.82    0.62
  -8  -2   0   14.79    0.81
  -6  -2   0    6.38    0.67
  -4  -2   0   16.35    0.93
  -2  -2   0    2.25    0.35
   0  -2   0  963.05   22.25
   2  -2   0    1.72    0.43
   4  -2   0   18.14    1.20
   6  -2   0    7.20    0.83
   8  -2   0   17.11    0.99
  10  -2   0    6.12    0.71
  12  -2   0   46.42    2.56
  14  -2   0  173.82    6.62
  16  -2   0   61.53    4.99
  18  -2   0    2.29    1.67
  20  -2   0   15.82    3.38
 -21  -1   0   27.42    3.35
 -19  -1   0    6.13    1.59
 -17  -1   0  129.30    4.67
 -15  -1   0   72.37    2.98
 -13  -1   0   39.96    1.91
 -11  -1   0   27.28    1.19
  -9  -1   0   79.43    2.25
  -7  -1   0  117.50    3.05
  -5  -1   0  332.36    7.99
  -3  -1   0   71.49    2.34
  -1  -1   0   17.33    0.60
   1  -1   0   15.96    0.87
   3  -1   0   73.12    2.01
   5  -1   0  337.23    8.36
   7  -1   0  116.33    3.31
   9  -1   0   74.63    2.50
  11  -1   0   26.04    1.35
  13  -1   0   42.00    2.73
  15  -1   0   65.80    3.67
  17  -1   0  106.67    5.33
  19  -1   0   11.33    2.59
  21  -1   0   29.05    4.26
 -22   0   0    2.45    1.00
 -20   0   0   19.18    1.82
 -18   0   0    1.11    0.61
 -16   0   0   68.60    2.99
 -14   0   0  202.48    6.47
 -12   0   0   52.14    2.24
 -10   0   0   10.30    0.89
  -8   0   0   19.69    0.89
  -6   0   0   10.15    0.61
  -4   0   0   21.07    0.82
  -2   0   0    5.33    0.29
   2   0   0    5.73    0.31
   4   0   0   23.96    0.89
   6   0   0   11.02    0.69
   8   0   0   19.94    0.87
  10   0   0    9.13    0.67
  12   0   0   51.53    2.05
  14   0   0  192.92    5.70
  16   0   0   72.89    4.03
  18   0   0    1.12    1.00
  20   0   0   17.13    2.31
  22   0   0    3.10    1.90
 -21   1   0   31.33    2.40
 -19   1   0    9.41    1.27
 -17   1   0  126.75    4.68
 -15   1   0   70.95    2.36
 -13   1   0   40.40    1.55
 -11   1   0   25.40    1.12
  -9   1   0   80.72    2.26
  -7   1   0  116.93    3.03
  -5   1   0  343.51    7.90
  -3   1   0   68.33    2.27
  -1   1   0   17.10    0.51
   1   1   0   17.75    0.53
   3   1   0   72.06    1.65
   5   1   0  337.15    6.99
   7   1   0  113.57    3.35
   9   1   0   74.41    2.52
  11   1   0   28.56    1.47
  13   1   0   40.14    1.84
  15   1   0   66.31    3.51
  17   1   0  126.46    5.56
  19   1   0    5.47    1.55
  21   1   0   32.29    3.36
 -20   2   0   19.30    1.91
 -18   2   0    0.72    0.63
 -16   2   0   61.07    2.27
 -14   2   0  163.82    4.60
 -12   2   0   42.34    1.64
 -10   2   0    8.02    0.71
  -8   2   0   16.73    0.87
  -6   2   0    5.89    0.50
  -4   2   0   16.35    0.64
  -2   2   0    2.27    0.27
   0   2   0  944.98   19.14
   2   2   0    2.93    0.29
   4   2   0   17.17    0.69
   6   2   0    7.69    0.53
   8   2   0   15.08    1.09
  10   2   0    7.07    0.87
  12   2   0   43.53    2.01
  14   2   0  163.16    6.32
  16   2   0   62.82    3.44
  18   2   0    1.12    1.03
  20   2   0   17.23    2.38
 -19   3   0    5.12    1.73
 -17   3   0   89.91    3.94
 -15   3   0   50.00    2.55
 -13   3   0   29.17    1.90
 -11   3   0   20.44    1.61
  -9   3   0   48.69    1.84
  -7   3   0   69.92    2.29
  -5   3   0  181.21    4.72
  -3   3   0   36.37    1.39
  -1   3   0   10.75    0.78
   1   3   0   10.81    0.67
   3   3   0   36.71    1.22
   5   3   0  172.61    4.05
   7   3   0   69.04    2.39
   9   3   0   46.96    1.98
  11   3   0   18.95    1.49
  13   3   0   31.80    2.45
  15   3   0   54.01    3.08
  17   3   0   96.63    4.73
  19   3   0    4.49    1.47
 -16   4   0   42.83    2.69
 -14   4   0   99.83    4.13
 -12   4   0   22.91    1.91
 -10   4   0    2.92    0.64
  -8   4   0    9.14    0.92
  -6   4   0    2.70    0.56
  -4   4   0    9.54    0.88
  -2   4   0    0.75    0.40
   0   4   0  520.32   16.08
   2   4   0    1.78    0.46
   4   4   0    8.62    0.86
   6   4   0    3.81    0.66
   8   4   0    8.42    0.95
  10   4   0    3.09    0.76
  12   4   0   23.73    2.13
  14   4   0   94.52    6.93
  16   4   0   42.11    5.08
 -13   5   0   15.67    1.77
 -11   5   0    8.80    1.36
  -9   5   0   21.28    1.95
  -7   5   0   32.94    1.87
  -5   5   0   80.24    3.66
  -3   5   0   19.47    1.78
  -1   5   0    4.19    0.93
   1   5   0    7.73    1.19
   3   5   0   14.42    1.61
   5   5   0   84.77    3.84
   7   5   0   33.06    2.63
   9   5   0   23.76    2.37
  11   5   0   12.39    2.67
  13   5   0   21.65    3.61
  -6   6   0    0.77    1.12
  -4   6   0    5.97    1.78
  -2   6   0    2.00    0.96
   0   6   0  233.70    8.53
   2   6   0    0.06    0.83
   4   6   0    2.85    1.10
   6   6   0    2.03    1.12
  -8  -6   1   -0.85    1.38
  -6  -6   1   65.87    5.60
  -4  -6   1   -0.01    1.24
  -2  -6   1    0.73    1.27
   0  -6   1    0.48    1.27
   2  -6   1    1.21    1.26
   4  -6   1    6.74    2.02
   6  -6   1   79.88    5.90
 -11  -5   1   90.49    6.36
  -9  -5   1   58.91    4.69
  -7  -5   1    2.49    1.37
  -5  -5   1   86.21    6.01
  -3  -5   1    5.86    1.61
  -1  -5   1    0.21    0.86
   1  -5   1    2.16    1.05
   3  -5   1   94.56    6.31
   5  -5   1    5.67    1.57
   7  -5   1   37.69    3.49
   9  -5   1    0.03    0.95
 -18  -4   1    0.03    1.37
 -16  -4   1   12.79    2.28
 -14  -4   1    1.92    1.17
 -12  -4   1   59.70    4.14
 -10  -4   1   75.35    3.30
  -8  -4   1   -0.31    0.78
  -6  -4   1  138.96    7.59
  -4  -4   1   -0.24    0.61
  -2  -4   1    0.16    0.69
   0  -4   1    2.27    0.94
   2  -4   1    1.69    0.85
   4  -4   1   10.56    1.77
   6  -4   1  145.14    8.20
   8  -4   1   94.01    5.75
  10  -4   1    9.81    1.83
 -19  -3   1   53.29    4.46
 -17  -3   1    4.17    1.40
 -15  -3   1    8.50    1.69
 -13  -3   1   15.49    2.10
 -11  -3   1  181.59    6.35
  -9  -3   1  111.94    4.16
  -7  -3   1    6.59    0.82
  -5  -3   1  179.94    5.87
  -3  -3   1    9.11    0.90
  -1  -3   1   -0.22    0.24
   1  -3   1    3.81    0.63
   3  -3   1  226.74    7.11
   5  -3   1   14.52    1.42
   7  -3   1   64.58    3.16
   9  -3   1    0.23    0.52
  11  -3   1   75.28    3.53
  13  -3   1    4.20    2.07
  15  -3   1    5.29    2.61
  17  -3   1    1.38    2.22
  19  -3   1    0.27    2.33
 -20  -2   1    1.04    1.26
 -18  -2   1   -0.19    0.88
 -16  -2   1   18.82    1.61
 -14  -2   1    3.43    0.70
 -12  -2   1  117.28    4.17
 -10  -2   1  121.95    3.47
  -8  -2   1    1.37    0.43
  -6  -2   1  276.69    8.68
  -4  -2   1   -0.08    0.24
  -2  -2   1    0.64    0.29
   0  -2   1    3.13    0.45
   2  -2   1    1.30    0.42
   4  -2   1   18.88    1.26
   6  -2   1  300.23    9.72
   8  -2   1  182.56    5.09
  10  -2   1   19.64    1.15
  12  -2   1   70.04    4.96
  14  -2   1    1.65    1.44
  16  -2   1    5.19    1.99
  18  -2   1   10.60    2.79
  20  -2   1  130.04    8.93
 -19  -1   1   68.28    3.20
 -17  -1   1    2.51    0.70
 -15  -1   1    7.70    0.99
 -13  -1   1   20.75    1.36
 -11  -1   1  276.77    8.34
  -9  -1   1  179.61    4.57
  -7  -1   1   13.15    0.80
  -5  -1   1  314.98    9.44
  -3  -1   1   25.86    1.10
  -1  -1   1    0.51    0.39
   1  -1   1   10.07    0.71
   3  -1   1  418.57   12.28
   5  -1   1   32.45    1.21
   7  -1   1  119.38    3.27
   9  -1   1    1.78    0.44
  11  -1   1  111.41    3.60
  13  -1   1    3.42    0.98
  15  -1   1    5.44    1.76
  17  -1   1    0.98    1.30
  19  -1   1    2.58    1.59
  21  -1   1    8.31    2.56
 -22   0   1   19.12    1.94
 -20   0   1    1.94    0.80
 -18   0   1    0.20    0.43
 -16   0   1   29.38    1.76
 -14   0   1    4.26    0.72
 -12   0   1  152.56    5.05
 -10   0   1  158.86    5.14
  -8   0   1    2.42    0.43
  -6   0   1  393.16   11.00
  -4   0   1   -0.20    0.19
   0   0   1    6.70    0.52
   2   0   1    1.30    0.24
   4   0   1   25.59    1.19
   6   0   1  423.59   10.06
   8   0   1  227.31    5.84
  10   0   1   21.56    1.05
  12   0   1   67.71    3.41
  14   0   1    1.94    0.93
  16   0   1    4.65    1.27
  18   0   1   13.06    2.53
  20   0   1  137.63    8.61
 -23   1   1   19.58    2.97
 -21   1   1   83.79    3.74
 -19   1   1   67.29    2.51
 -17   1   1    3.40    0.60
 -15   1   1    8.24    0.81
 -13   1   1   21.63    1.19
 -11   1   1  280.01    6.84
  -9   1   1  186.08    4.59
  -7   1   1   13.74    0.66
  -5   1   1  316.86    7.43
  -3   1   1   25.80    0.79
  -1   1   1    0.18    0.16
   1   1   1    9.85    0.51
   3   1   1  411.04    9.88
   5   1   1   32.08    1.19
   7   1   1  106.76    3.13
   9   1   1    1.29    0.43
  11   1   1  108.73    4.36
  13   1   1    2.44    0.85
  15   1   1    8.08    1.41
  17   1   1    0.30    0.95
  19   1   1    1.68    1.34
  21   1   1    4.57    1.94
 -20   2   1    1.82    1.17
 -18   2   1    0.17    0.44
 -16   2   1   23.46    1.46
 -14   2   1    3.76    0.57
 -12   2   1  121.43    3.42
 -10   2   1  129.38    3.46
  -8   2   1    1.94    0.35
  -6   2   1  285.31    6.78
  -4   2   1   -0.12    0.12
  -2   2   1    0.21    0.19
   0   2   1    3.05    0.32
   2   2   1    1.26    0.23
   4   2   1   17.61    0.65
   6   2   1  314.14    7.76
   8   2   1  180.82    5.06
  10   2   1   17.63    1.35
  12   2   1   56.41    2.94
  14   2   1    2.10    0.89
  16   2   1    2.44    1.03
  18   2   1   10.38    1.82
  20   2   1  130.02    6.32
 -19   3   1   52.23    2.86
 -17   3   1    0.82    0.70
 -15   3   1    7.05    1.09
 -13   3   1   14.73    1.45
 -11   3   1  189.21    6.22
  -9   3   1  108.57    3.39
  -7   3   1    7.02    0.70
  -5   3   1  176.70    4.75
  -3   3   1   10.11    0.77
  -1   3   1    0.36    0.27
   1   3   1    3.37    0.41
   3   3   1  218.01    5.67
   5   3   1   16.75    1.10
   7   3   1   68.00    2.41
   9   3   1    1.85    0.55
  11   3   1   71.80    3.38
  13   3   1    3.02    0.97
  15   3   1    7.83    1.41
  17   3   1    0.13    0.99
  19   3   1    0.56    1.28
 -18   4   1    0.03    0.75
 -16   4   1   13.13    1.65
 -14   4   1    2.58    0.73
 -12   4   1   65.82    2.57
 -10   4   1   72.76    2.66
  -8   4   1    0.52    0.39
  -6   4   1  132.73    4.03
  -4   4   1   -0.04    0.32
  -2   4   1    0.32    0.47
   0   4   1    1.25    0.47
   2   4   1    1.25    0.47
   4   4   1    8.40    0.90
   6   4   1  154.71    4.61
   8   4   1   95.81    3.31
  10   4   1    9.58    1.39
  12   4   1   33.53    2.69
  14   4   1    1.98    1.08
  16   4   1    1.54    1.13
 -15   5   1    4.35    1.97
 -13   5   1    8.37    1.41
 -11   5   1   88.82    3.95
  -9   5   1   51.87    2.93
  -7   5   1    2.06    0.77
  -5   5   1   89.22    3.95
  -3   5   1    5.38    1.01
  -1   5   1    0.24    0.46
   1   5   1    2.37    0.65
   3   5   1  105.86    3.52
   5   5   1    5.55    1.12
   7   5   1   37.29    2.59
   9   5   1    1.65    1.50
  11   5   1   43.29    4.78
  -6   6   1   67.52    3.58
  -4   6   1   -0.61    0.73
  -2   6   1    0.85    0.81
   0   6   1    1.21    0.89
   2   6   1    0.43    0.87
   4   6   1    5.69    1.32
   6   6   1   74.69    5.98
  -8  -6   2   -0.30    1.59
  -6  -6   2   65.59    5.85
  -4  -6   2   10.45    2.59
  -2  -6   2    9.37    2.46
   0  -6   2    4.36    1.85
   2  -6   2   37.44    4.53
   4  -6   2    0.96    1.44
 -11  -5   2    5.58    1.85
  -9  -5   2    0.76    1.29
  -7  -5   2   -0.45    1.01
  -5  -5   2    1.79    1.21
  -3  -5   2  125.73    7.85
  -1  -5   2   40.59    3.75
   1  -5   2  114.41    7.12
   3  -5   2    0.46    0.94
   5  -5   2    2.00    1.25
   7  -5   2   14.49    2.52
   9  -5   2   24.42    3.29
 -18  -4   2   38.29    4.21
 -16  -4   2   47.07    3.87
 -14  -4   2   21.40    2.73
 -12  -4   2    8.17    1.67
 -10  -4   2    3.66    0.86
  -8  -4   2   10.68    1.22
  -6  -4   2  142.21    5.19
  -4  -4   2   16.42    2.34
  -2  -4   2   17.27    2.35
   0  -4   2    4.25    1.27
   2  -4   2   82.29    5.26
   4  -4   2    1.26    0.96
   6  -4   2   11.50    2.04
   8  -4   2   40.97    3.46
  10  -4   2   62.90    4.43
 -19  -3   2   13.38    2.45
 -17  -3   2    6.27    1.70
 -15  -3   2  101.79    6.16
 -13  -3   2    2.80    0.71
 -11  -3   2   11.74    1.15
  -9  -3   2    0.49    0.44
  -7  -3   2    0.36    0.44
  -5  -3   2    5.66    0.83
  -3  -3   2  284.91    8.90
  -1  -3   2   86.76    5.08
   1  -3   2  256.19   11.98
   3  -3   2    1.27    0.60
   5  -3   2    6.50    0.99
   7  -3   2   28.42    2.15
   9  -3   2   49.39    2.92
  11  -3   2   70.07    3.59
  13  -3   2    2.05    2.10
  15  -3   2  113.49    8.29
  17  -3   2   69.80    7.51
 -22  -2   2    1.20    1.30
 -20  -2   2   94.28    5.99
 -18  -2   2   58.25    2.88
 -16  -2   2   66.15    3.00
 -14  -2   2   34.75    1.89
 -12  -2   2   14.05    1.25
 -10  -2   2    8.91    0.89
  -8  -2   2   21.03    1.26
  -6  -2   2  271.45    8.35
  -4  -2   2   32.83    1.64
  -2  -2   2   27.79    2.14
   0  -2   2   11.23    0.72
   2  -2   2  157.15    5.20
   4  -2   2    4.29    0.74
   6  -2   2   11.36    1.25
   8  -2   2   84.07    3.53
  10  -2   2   98.98    4.17
  12  -2   2   85.92    3.79
  14  -2   2   93.20    6.41
  16  -2   2    2.76    1.93
  18  -2   2   32.78    4.70
 -23  -1   2   42.88    4.16
 -21  -1   2    0.87    0.81
 -19  -1   2   11.82    1.43
 -17  -1   2    9.41    1.18
 -15  -1   2  140.88    4.93
 -13  -1   2    5.04    0.79
 -11  -1   2   12.29    1.08
  -9  -1   2    0.12    0.24
  -7  -1   2    0.26    0.25
  -5  -1   2   11.58    0.82
  -3  -1   2  503.63   20.83
  -1  -1   2  176.09    8.04
   1  -1   2  476.75   13.46
   3  -1   2    3.46    0.62
   5  -1   2   10.61    0.66
   7  -1   2   43.99    1.70
   9  -1   2   87.21    2.89
  11  -1   2  111.12    4.44
  13  -1   2    0.81    1.08
  15  -1   2  130.94    7.79
  17  -1   2   79.87    5.93
  19  -1   2   -0.15    1.68
 -22   0   2   -0.02    0.76
 -20   0   2  116.11    4.69
 -18   0   2   76.15    3.30
 -16   0   2   75.08    3.20
 -14   0   2   37.45    1.93
 -12   0   2   16.86    1.26
 -10   0   2   12.54    1.00
  -8   0   2   30.19    1.38
  -6   0   2  387.37   11.46
   0   0   2   17.16    0.78
   2   0   2  237.59    7.31
   4   0   2    3.93    0.52
   6   0   2   16.31    1.18
   8   0   2  108.03    4.01
  10   0   2  115.27    3.94
  12   0   2   96.58    3.62
  14   0   2  104.30    6.19
  16   0   2    4.78    1.71
  18   0   2   30.36    3.89
  20   0   2    6.94    2.53
 -23   1   2   39.13    2.92
 -21   1   2    2.17    0.68
 -19   1   2   14.24    1.23
 -17   1   2   10.41    0.99
 -15   1   2  141.74    4.03
 -13   1   2    5.36    0.65
 -11   1   2   14.74    1.12
  -9   1   2    0.77    0.32
  -7   1   2   -0.16    0.19
  -5   1   2   12.09    0.58
  -3   1   2  471.83   13.54
  -1   1   2  168.72    4.11
   1   1   2  458.61   10.79
   3   1   2    3.80    0.33
   5   1   2   11.36    0.95
   7   1   2   44.92    1.46
   9   1   2   81.02    3.42
  11   1   2  112.39    4.47
  13   1   2    1.39    0.81
  15   1   2  125.51    5.52
  17   1   2   72.97    5.48
  19   1   2    0.36    1.41
 -22   2   2    0.74    1.34
 -20   2   2   92.85    3.98
 -18   2   2   56.08    2.84
 -16   2   2   66.15    2.38
 -14   2   2   32.26    1.48
 -12   2   2   12.70    0.95
 -10   2   2    8.63    0.72
  -8   2   2   22.46    0.97
  -6   2   2  255.92    6.37
  -4   2   2   33.29    1.23
  -2   2   2   28.14    1.04
   0   2   2   10.33    0.52
   2   2   2  156.28    4.14
   4   2   2    2.84    0.43
   6   2   2   12.46    0.90
   8   2   2   78.67    3.32
  10   2   2   98.35    4.05
  12   2   2   80.11    3.73
  14   2   2   86.05    4.14
  16   2   2    4.46    1.25
  18   2   2   29.61    3.96
 -21   3   2    1.24    1.23
 -19   3   2    9.16    1.39
 -17   3   2    4.59    0.98
 -15   3   2  104.44    4.30
 -13   3   2    3.67    0.84
 -11   3   2   10.26    1.16
  -9   3   2    0.30    0.40
  -7   3   2    0.18    0.32
  -5   3   2    5.41    0.60
  -3   3   2  274.18    8.83
  -1   3   2   86.32    3.31
   1   3   2  253.48    6.50
   3   3   2    0.89    0.39
   5   3   2    6.20    0.72
   7   3   2   21.38    1.80
   9   3   2   49.50    2.67
  11   3   2   70.96    3.49
  13   3   2    0.96    0.82
  15   3   2  102.32    4.93
  17   3   2   62.92    3.90
 -18   4   2   43.26    4.39
 -16   4   2   43.71    2.36
 -14   4   2   20.32    1.61
 -12   4   2    6.93    0.93
 -10   4   2    4.92    0.78
  -8   4   2    8.93    0.92
  -6   4   2  133.19    5.20
  -4   4   2   19.61    1.66
  -2   4   2   18.37    1.56
   0   4   2    4.82    0.72
   2   4   2   82.88    2.82
   4   4   2    1.28    0.51
   6   4   2    7.12    1.10
   8   4   2   41.97    2.52
  10   4   2   56.03    3.19
  12   4   2   45.01    3.10
  14   4   2   59.37    3.55
  16   4   2    1.42    1.92
 -13   5   2    2.09    1.01
 -11   5   2    4.19    1.09
  -9   5   2    0.02    0.66
  -7   5   2    0.30    0.61
  -5   5   2    1.61    0.76
  -3   5   2  122.25    5.10
  -1   5   2   40.31    1.96
   1   5   2  117.96    3.83
   3   5   2   -0.13    0.53
   5   5   2    2.64    0.97
   7   5   2   10.34    1.53
   9   5   2   26.03    2.43
  11   5   2   39.10    3.08
  -8   6   2    3.94    1.72
  -6   6   2   63.75    3.61
  -4   6   2   10.55    1.57
  -2   6   2    8.98    1.43
   0   6   2    2.50    1.05
   2   6   2   37.21    2.67
   4   6   2    1.79    1.60
  -6  -6   3    7.76    2.48
  -4  -6   3   54.34    6.04
  -2  -6   3    2.01    1.81
   0  -6   3   63.43    5.80
  -9  -5   3  114.08    7.67
  -7  -5   3   -0.58    1.29
  -5  -5   3    2.74    1.53
  -3  -5   3    2.77    1.57
  -1  -5   3    0.71    1.08
   1  -5   3    6.90    1.93
   3  -5   3    3.75    1.69
   5  -5   3  140.43    8.40
   7  -5   3   28.16    3.71
   9  -5   3   35.61    4.25
 -18  -4   3   22.10    3.34
 -16  -4   3    9.65    2.14
 -14  -4   3   57.38    4.54
 -12  -4   3   81.91    5.43
 -10  -4   3    5.60    1.06
  -8  -4   3   52.89    2.81
  -6  -4   3   31.38    2.14
  -4  -4   3  120.49    4.78
  -2  -4   3    2.22    1.24
   0  -4   3  142.28    8.35
   2  -4   3   16.39    2.60
   4  -4   3   77.26    5.71
   6  -4   3    2.21    1.23
   8  -4   3   20.87    2.99
  10  -4   3   29.88    3.60
 -19  -3   3    8.61    2.17
 -17  -3   3   21.63    3.00
 -15  -3   3   10.32    1.37
 -13  -3   3   -0.01    0.78
 -11  -3   3  109.65    4.28
  -9  -3   3  228.27    7.56
  -7  -3   3    1.08    0.60
  -5  -3   3    9.47    1.17
  -3  -3   3    7.42    1.60
  -1  -3   3    3.91    1.30
   1  -3   3   19.64    2.61
   3  -3   3   14.76    2.32
   5  -3   3  256.30   12.92
   7  -3   3   53.18    4.10
   9  -3   3   65.60    4.67
  11  -3   3    5.88    1.59
 -22  -2   3    2.28    1.55
 -20  -2   3   26.62    2.24
 -18  -2   3   30.10    2.36
 -16  -2   3   14.86    1.55
 -14  -2   3  102.95    4.14
 -12  -2   3  150.00    7.62
 -10  -2   3    8.37    0.96
  -8  -2   3   90.94    3.53
  -6  -2   3   49.86    2.29
  -4  -2   3  237.78   10.96
  -2  -2   3    6.17    1.37
   0  -2   3  297.77   14.09
   2  -2   3   44.57    2.13
   4  -2   3  154.40    5.52
   6  -2   3    1.12    0.75
   8  -2   3   29.25    2.35
  10  -2   3   46.48    2.78
  12  -2   3   11.38    1.59
  14  -2   3   30.15    4.12
  16  -2   3    3.01    2.01
  18  -2   3    2.70    2.51
 -23  -1   3    1.71    1.04
 -21  -1   3   11.12    1.51
 -19  -1   3   13.29    1.53
 -17  -1   3   34.85    2.10
 -15  -1   3   16.54    1.53
 -13  -1   3    0.18    0.45
 -11  -1   3  149.21    7.36
  -9  -1   3  359.49   10.77
  -7  -1   3    4.29    0.63
  -5  -1   3   14.03    1.66
  -3  -1   3   17.72    0.87
  -1  -1   3    5.07    0.52
   1  -1   3   38.66    1.78
   3  -1   3   20.11    1.43
   5  -1   3  410.48   13.02
   7  -1   3   82.96    3.65
   9  -1   3   95.09    4.18
  11  -1   3   12.13    1.56
  13  -1   3    0.81    1.22
  15  -1   3   30.65    3.86
  17  -1   3   69.88    5.67
  19  -1   3   13.36    3.20
 -22   0   3    4.32    0.87
 -20   0   3   30.17    2.38
 -18   0   3   35.79    2.14
 -16   0   3   16.85    1.53
 -14   0   3  131.54    4.62
 -12   0   3  172.89    5.71
 -10   0   3    9.79    0.95
  -8   0   3  116.65    3.91
  -6   0   3   71.19    2.72
   0   0   3  421.72   12.15
   2   0   3   65.44    2.24
   4   0   3  212.28    6.73
   6   0   3    1.18    0.52
   8   0   3   32.80    1.95
  10   0   3   52.81    2.97
  12   0   3   13.22    1.70
  14   0   3   33.82    3.81
  16   0   3    1.15    1.35
  18   0   3    1.79    1.71
 -23   1   3    0.61    0.73
 -21   1   3   10.91    1.23
 -19   1   3   15.99    1.36
 -17   1   3   34.48    1.75
 -15   1   3   16.62    1.42
 -13   1   3    0.22    0.39
 -11   1   3  152.73    4.98
  -9   1   3  356.53   10.34
  -7   1   3    4.95    0.57
  -5   1   3   14.56    0.82
  -3   1   3   17.79    1.35
  -1   1   3    4.83    0.50
   1   1   3   34.40    1.16
   3   1   3   19.29    1.13
   5   1   3  408.41   12.60
   7   1   3   78.76    3.24
   9   1   3   96.83    3.95
  11   1   3   10.31    1.36
  13   1   3    2.58    1.29
  15   1   3   25.45    3.44
  17   1   3   63.01    5.21
  19   1   3    9.13    2.42
 -22   2   3    3.07    1.05
 -20   2   3   27.67    2.30
 -18   2   3   33.84    2.46
 -16   2   3   16.87    1.64
 -14   2   3  103.38    4.12
 -12   2   3  151.45    4.21
 -10   2   3    8.95    0.74
  -8   2   3   91.15    2.60
  -6   2   3   49.36    1.52
  -4   2   3  229.19    4.87
  -2   2   3    6.79    0.52
   0   2   3  299.20    7.47
   2   2   3   44.34    1.55
   4   2   3  157.93    4.15
   6   2   3    0.08    0.48
   8   2   3   24.61    1.94
  10   2   3   45.95    2.55
  12   2   3   12.36    1.59
  14   2   3   25.20    2.41
  16   2   3    0.19    1.35
  18   2   3    4.17    2.02
 -19   3   3    6.93    1.32
 -17   3   3   23.08    2.08
 -15   3   3   11.54    1.39
 -13   3   3    1.11    0.61
 -11   3   3  105.09    4.07
  -9   3   3  214.77    6.00
  -7   3   3    1.65    0.46
  -5   3   3    7.75    0.72
  -3   3   3    8.43    0.96
  -1   3   3    4.17    0.71
   1   3   3   17.84    1.07
   3   3   3   12.40    0.96
   5   3   3  259.38    8.65
   7   3   3   46.43    2.57
   9   3   3   58.45    3.09
  11   3   3    7.67    1.35
  13   3   3    1.61    1.03
  15   3   3   21.70    2.41
 -18   4   3   23.37    1.99
 -16   4   3   13.90    1.55
 -14   4   3   69.57    2.88
 -12   4   3   90.01    3.25
 -10   4   3    5.48    0.83
  -8   4   3   48.83    2.69
  -6   4   3   26.27    1.89
  -4   4   3  114.48    4.57
  -2   4   3    4.33    0.77
   0   4   3  149.16    4.43
   2   4   3   21.43    1.45
   4   4   3   89.99    3.94
   6   4   3    1.17    0.72
   8   4   3   15.57    1.78
  10   4   3   30.81    2.68
  12   4   3    6.44    1.50
  14   4   3   17.98    2.27
 -15   5   3    8.26    2.78
 -13   5   3    0.60    0.87
 -11   5   3   53.44    3.22
  -9   5   3  114.84    5.06
  -7   5   3    1.35    0.74
  -5   5   3    2.77    0.89
  -3   5   3    2.79    0.74
  -1   5   3    3.18    0.79
   1   5   3    6.60    0.99
   3   5   3    7.33    1.28
   5   5   3  124.70    5.41
   7   5   3   26.93    2.53
   9   5   3   32.10    2.88
  11   5   3    3.19    1.97
  -6   6   3    9.00    1.36
  -4   6   3   56.19    2.75
  -2   6   3    1.29    0.82
   0   6   3   64.54    3.67
  -9  -5   4   12.53    2.85
  -7  -5   4    3.21    1.82
  -5  -5   4   66.63    5.63
  -3  -5   4    0.88    1.55
  -1  -5   4   66.27    5.61
   1  -5   4    0.48    1.38
   3  -5   4    0.51    1.36
   5  -5   4    3.71    2.04
   7  -5   4    2.85    1.87
   9  -5   4    2.63    1.96
 -18  -4   4   14.04    2.86
 -16  -4   4   18.13    3.15
 -14  -4   4   34.70    4.01
 -12  -4   4    8.29    1.94
 -10  -4   4    4.88    1.14
  -8  -4   4    1.84    0.87
  -6  -4   4  124.23    5.24
  -4  -4   4   16.25    1.85
  -2  -4   4   67.81    5.17
   0  -4   4   39.84    4.57
   2  -4   4   37.00    4.47
   4  -4   4   11.18    2.55
   6  -4   4   38.54    4.65
   8  -4   4   29.90    4.09
  10  -4   4    5.23    1.92
 -19  -3   4   44.78    4.73
 -17  -3   4   71.57    3.54
 -15  -3   4   37.50    4.01
 -13  -3   4    5.83    1.58
 -11  -3   4   55.02    4.25
  -9  -3   4   27.31    2.15
  -7  -3   4    3.78    0.91
  -5  -3   4  119.41    7.09
  -3  -3   4    0.85    1.14
  -1  -3   4  128.49    7.75
   1  -3   4    1.89    1.26
   3  -3   4    2.05    1.30
   5  -3   4   21.21    3.20
   7  -3   4   -0.10    1.00
   9  -3   4    0.37    1.11
  11  -3   4  131.31    7.98
 -22  -2   4   37.62    4.03
 -20  -2   4   12.77    1.67
 -18  -2   4   23.43    2.13
 -16  -2   4   29.86    2.28
 -14  -2   4   59.14    4.18
 -12  -2   4    8.02    1.61
 -10  -2   4   16.84    1.48
  -8  -2   4    1.67    0.65
  -6  -2   4  220.14   11.25
  -4  -2   4   29.12    3.21
  -2  -2   4  101.22    6.50
   0  -2   4   65.98    5.04
   2  -2   4   76.34    5.49
   4  -2   4   23.45    3.35
   6  -2   4   69.45    5.37
   8  -2   4   52.66    3.09
  10  -2   4    3.33    1.10
  12  -2   4   95.87    4.61
  14  -2   4    3.33    2.18
 -23  -1   4    7.08    2.11
 -21  -1   4   73.73    3.79
 -19  -1   4   56.77    2.99
 -17  -1   4   87.43    3.81
 -15  -1   4   63.21    2.98
 -13  -1   4    9.56    1.19
 -11  -1   4   89.92    5.16
  -9  -1   4   43.90    2.09
  -7  -1   4    9.44    1.56
  -5  -1   4  168.77    9.20
  -3  -1   4    1.64    0.41
  -1  -1   4  197.95    6.51
   1  -1   4    2.48    0.62
   3  -1   4    0.99    0.74
   5  -1   4   32.07    2.20
   7  -1   4    0.69    0.74
   9  -1   4    2.90    1.04
  11  -1   4  161.54    6.50
  13  -1   4   -0.77    1.28
  15  -1   4   22.55    3.61
  17  -1   4   12.08    3.16
 -22   0   4   42.36    3.10
 -20   0   4   13.32    1.60
 -18   0   4   23.07    1.94
 -16   0   4   31.41    2.08
 -14   0   4   69.66    3.05
 -12   0   4   13.79    1.28
 -10   0   4   22.62    2.27
  -8   0   4    2.07    0.54
  -6   0   4  341.29   14.48
  -2   0   4  138.11    6.34
   0   0   4   97.91    3.30
   2   0   4   97.31    3.31
   4   0   4   28.33    2.25
   6   0   4   82.95    4.77
   8   0   4   65.09    4.26
  10   0   4    2.74    0.99
  12   0   4  107.49    4.93
  14   0   4    1.70    1.64
  16   0   4   87.78    6.33
  18   0   4    5.91    2.35
 -23   1   4    3.25    1.45
 -21   1   4   79.23    3.17
 -19   1   4   53.71    2.40
 -17   1   4   85.02    3.65
 -15   1   4   62.18    2.80
 -13   1   4   11.11    1.13
 -11   1   4   92.99    3.39
  -9   1   4   40.75    1.91
  -7   1   4    9.30    0.88
  -1   1   4  199.90    5.15
   1   1   4    1.47    0.28
   3   1   4    1.99    0.55
   5   1   4   34.85    1.81
   7   1   4    0.95    0.59
   9   1   4    2.78    1.21
  11   1   4  163.51    8.65
  13   1   4    1.07    1.15
  15   1   4   18.42    3.12
  17   1   4    9.06    2.50
 -22   2   4   48.81    4.96
 -20   2   4   13.17    1.72
 -18   2   4   19.39    1.98
 -16   2   4   32.28    2.44
 -14   2   4   59.95    2.89
 -12   2   4   11.14    1.30
 -10   2   4   16.60    1.45
  -8   2   4    1.94    0.54
  -6   2   4  237.09    7.06
  -4   2   4   31.45    1.23
  -2   2   4  111.93    3.91
   0   2   4   74.43    2.34
   2   2   4   71.45    3.09
   4   2   4   20.42    1.66
   6   2   4   74.01    3.15
   8   2   4   49.92    2.65
  10   2   4    2.02    0.86
  12   2   4   88.34    5.95
  14   2   4    1.70    1.55
  16   2   4   65.86    5.47
 -19   3   4   39.00    3.02
 -17   3   4   64.96    3.40
 -15   3   4   46.71    2.65
 -13   3   4   10.15    1.32
 -11   3   4   58.33    2.81
  -9   3   4   23.96    1.49
  -7   3   4    6.04    0.72
  -5   3   4  113.14    4.46
  -3   3   4    1.32    0.53
  -1   3   4  131.80    3.88
   1   3   4    0.25    0.39
   3   3   4    1.30    0.67
   5   3   4   18.62    1.76
   7   3   4    0.36    0.68
   9   3   4    1.50    0.84
  11   3   4  123.37    5.33
  13   3   4   -0.28    1.24
  15   3   4   19.89    3.38
 -18   4   4   17.71    2.36
 -16   4   4   27.90    2.20
 -14   4   4   38.32    2.46
 -12   4   4    5.81    1.25
 -10   4   4    4.63    1.01
  -8   4   4    1.45    0.73
  -6   4   4  121.97    4.94
  -4   4   4   16.81    1.63
  -2   4   4   58.16    2.40
   0   4   4   39.66    1.97
   2   4   4   40.24    2.63
   4   4   4    8.42    1.37
   6   4   4   39.72    2.72
   8   4   4   24.73    2.39
  10   4   4    1.57    1.17
  12   4   4   56.72    3.87
 -13   5   4    2.09    1.24
 -11   5   4   29.31    2.73
  -9   5   4   10.19    1.61
  -7   5   4    2.28    0.95
  -5   5   4   61.17    3.29
  -3   5   4    0.31    0.64
  -1   5   4   59.31    3.45
   1   5   4    0.01    0.82
   3   5   4    1.61    1.03
   5   5   4    6.66    1.31
   7   5   4   -0.25    0.98
  -4   6   4    6.01    1.56
  -2   6   4   22.91    3.69
  -9  -5   5    2.35    1.94
  -7  -5   5   42.04    5.12
  -5  -5   5   20.91    3.91
  -3  -5   5   -0.31    1.53
  -1  -5   5   46.73    5.87
   1  -5   5   91.05    7.46
   3  -5   5    8.09    2.87
   5  -5   5   28.01    4.71
 -16  -4   5    9.95    2.58
 -12  -4   5   14.77    2.68
 -10  -4   5   98.33    4.73
  -8  -4   5   20.04    2.22
  -6  -4   5    5.28    1.26
  -4  -4   5    1.26    1.42
  -2  -4   5    0.80    1.31
   0  -4   5   11.68    2.74
   2  -4   5   35.58    4.72
   4  -4   5    9.34    2.70
   6  -4   5  155.44   10.06
   8  -4   5   37.13    4.90
  10  -4   5   11.60    3.00
 -19  -3   5   10.30    1.63
 -17  -3   5    1.03    0.94
 -15  -3   5   85.88    6.07
 -13  -3   5    2.85    1.33
 -11  -3   5   80.97    5.67
  -9  -3   5    4.29    1.04
  -7  -3   5   77.31    3.92
  -5  -3   5   57.58    4.77
  -3  -3   5    1.53    1.37
  -1  -3   5   95.85    6.96
   1  -3   5  138.30    9.24
   3  -3   5   12.25    2.80
   5  -3   5   53.37    5.90
   7  -3   5   28.17    4.23
   9  -3   5    4.03    1.92
  11  -3   5    2.21    1.72
 -22  -2   5   14.27    2.75
 -20  -2   5    6.15    1.35
 -18  -2   5   10.87    1.62
 -16  -2   5   13.10    1.60
 -14  -2   5   34.57    3.66
 -12  -2   5   21.66    2.90
 -10  -2   5  151.39    5.82
  -8  -2   5   40.30    2.37
  -6  -2   5   13.58    2.43
  -4  -2   5    2.00    1.31
  -2  -2   5    1.56    1.28
   0  -2   5   14.88    2.86
   2  -2   5   39.06    4.96
   4  -2   5    8.51    2.59
   6  -2   5  199.27   12.39
   8  -2   5   52.12    5.55
  10  -2   5   17.47    3.24
  12  -2   5   12.54    2.79
 -21  -1   5    3.27    1.15
 -19  -1   5   11.11    1.55
 -17  -1   5    2.33    0.88
 -15  -1   5   99.69    4.28
 -13  -1   5    2.96    1.11
 -11  -1   5  103.72    6.20
  -9  -1   5    4.43    0.82
  -7  -1   5  129.73    7.20
  -5  -1   5   96.75    5.95
  -3  -1   5    8.41    1.99
  -1  -1   5  192.51    9.96
   1  -1   5  258.87    8.38
   3  -1   5   16.17    1.76
   5  -1   5   64.66    3.34
   7  -1   5   47.43    3.07
   9  -1   5   10.68    1.66
  11  -1   5    3.55    1.21
  13  -1   5   40.93    4.74
  15  -1   5   42.46    5.11
 -22   0   5   22.67    2.27
 -20   0   5    5.15    1.13
 -18   0   5   18.88    1.85
 -16   0   5   12.83    1.41
 -14   0   5   46.64    2.54
 -12   0   5   26.38    1.86
 -10   0   5  172.10    8.75
  -8   0   5   47.71    2.32
  -6   0   5   19.75    2.49
  -2   0   5    2.85    0.82
   0   0   5   25.97    1.32
   2   0   5   67.04    3.93
   4   0   5   13.39    1.98
   6   0   5  268.29   12.49
   8   0   5   59.05    3.31
  10   0   5   15.87    2.03
  12   0   5   16.25    2.15
  14   0   5   49.05    5.28
  16   0   5   -0.69    1.65
 -21   1   5    2.73    1.13
 -19   1   5   10.31    1.25
 -17   1   5    2.04    0.75
 -15   1   5  106.54    4.16
 -13   1   5    2.07    0.66
 -11   1   5  110.68    4.14
  -9   1   5    4.53    0.75
  -3   1   5    3.77    0.95
  -1   1   5  163.06    4.42
   1   1   5  230.84    7.77
   3   1   5   17.29    1.40
   5   1   5   59.34    4.13
   7   1   5   46.89    3.67
   9   1   5    6.84    1.77
  11   1   5    0.85    1.22
  13   1   5   28.83    3.91
  15   1   5   48.55    5.20
 -20   2   5    3.51    1.16
 -18   2   5   16.82    1.98
 -16   2   5   10.09    1.49
 -14   2   5   43.13    2.66
 -12   2   5   22.96    2.01
 -10   2   5  164.13    5.67
  -8   2   5   40.80    2.10
  -6   2   5   15.64    1.13
  -4   2   5    1.21    0.54
  -2   2   5    0.87    0.41
   0   2   5   19.15    1.64
   2   2   5   51.87    2.57
   4   2   5    9.76    1.25
   6   2   5  222.32    7.73
   8   2   5   48.96    3.95
  10   2   5   14.15    2.59
  12   2   5   11.71    2.54
  14   2   5   37.91    4.55
 -19   3   5    8.54    1.55
 -17   3   5    0.95    0.97
 -15   3   5   93.87    4.28
 -13   3   5    2.32    0.90
 -11   3   5   85.10    3.72
  -9   3   5    2.86    0.86
  -7   3   5   90.68    3.85
  -5   3   5   59.54    2.81
  -3   3   5    1.59    0.52
  -1   3   5   97.62    4.28
   1   3   5  150.36    5.78
   3   3   5   12.87    1.53
   5   3   5   45.89    2.69
   7   3   5   34.58    2.72
   9   3   5    2.23    1.51
  11   3   5    0.67    1.49
  13   3   5   15.17    3.11
 -16   4   5   12.81    2.15
 -14   4   5   24.86    2.72
 -12   4   5   13.80    1.97
 -10   4   5  100.98    4.69
  -8   4   5   23.21    2.17
  -6   4   5    8.28    1.29
  -4   4   5    0.89    0.59
  -2   4   5   -0.21    0.72
   0   4   5   11.12    1.59
   2   4   5   26.18    3.36
   4   4   5    6.54    1.35
   6   4   5  134.36    6.01
   8   4   5   30.51    2.83
  10   4   5   14.16    2.13
 -11   5   5   46.28    3.64
  -9   5   5    2.14    1.12
  -7   5   5   41.16    3.17
  -5   5   5   28.01    2.07
  -3   5   5    0.22    0.96
  -1   5   5   47.70    3.59
   1   5   5   82.64    4.42
   3   5   5    7.79    1.61
   5   5   5   22.85    2.51
  -9  -5   6   13.39    3.30
  -7  -5   6   28.99    4.74
  -5  -5   6   51.13    6.31
  -3  -5   6    5.57    2.75
  -1  -5   6    6.28    2.82
 -16  -4   6   34.32    4.57
 -14  -4   6    0.95    1.55
 -12  -4   6   21.86    3.44
 -10  -4   6    9.07    2.27
  -8  -4   6    7.74    1.53
  -6  -4   6   29.01    2.71
  -4  -4   6  143.27    9.81
  -2  -4   6   14.39    3.25
   0  -4   6    5.66    2.24
   2  -4   6   11.73    3.34
   4  -4   6    1.86    2.29
   6  -4   6   -0.33    1.94
   8  -4   6    9.79    3.09
 -19  -3   6    4.65    1.98
 -17  -3   6   -0.42    1.35
 -15  -3   6   12.69    2.59
 -13  -3   6   60.01    5.14
 -11  -3   6    7.74    1.94
  -9  -3   6   32.49    2.68
  -7  -3   6   54.66    4.85
  -5  -3   6   89.46    6.68
  -3  -3   6    4.28    1.83
  -1  -3   6    8.34    2.50
   1  -3   6   97.11    7.99
   3  -3   6   -0.24    1.54
   5  -3   6   23.51    4.28
   7  -3   6    0.77    1.77
   9  -3   6   82.98    6.97
  11  -3   6    8.16    2.75
 -20  -2   6  102.18    4.80
 -18  -2   6   45.83    3.07
 -16  -2   6   50.12    4.58
 -14  -2   6    2.53    1.37
 -12  -2   6   31.67    3.69
 -10  -2   6   16.67    2.46
  -8  -2   6    8.78    2.10
  -6  -2   6   40.07    3.90
  -4  -2   6  237.52   12.93
  -2  -2   6   22.08    3.42
   0  -2   6   16.98    3.22
   2  -2   6   36.95    5.13
   4  -2   6    3.39    2.23
   6  -2   6   -0.55    1.40
   8  -2   6    8.60    2.68
  10  -2   6   35.55    5.07
  12  -2   6   31.55    4.73
 -21  -1   6   58.83    4.92
 -19  -1   6    5.88    1.26
 -17  -1   6    0.42    0.68
 -15  -1   6   15.24    2.40
 -13  -1   6   81.75    5.50
 -11  -1   6   15.56    2.26
  -9  -1   6   49.69    2.58
  -7  -1   6   81.14    5.52
  -5  -1   6  152.29    8.32
  -3  -1   6    6.14    1.91
  -1  -1   6   10.60    2.51
   1  -1   6  206.71   10.91
   3  -1   6    0.85    1.35
   5  -1   6   28.15    4.07
   7  -1   6    2.17    1.69
   9  -1   6   93.58    7.43
  11  -1   6    5.07    2.18
 -22   0   6    0.55    0.99
 -20   0   6  112.29    5.02
 -18   0   6   47.26    2.91
 -16   0   6   64.02    3.33
 -14   0   6    4.49    0.97
 -12   0   6   51.48    3.77
 -10   0   6   19.80    2.39
  -8   0   6   13.03    2.08
  -6   0   6   59.65    4.27
  -4   0   6  305.95   10.13
  -2   0   6   24.04    2.14
   0   0   6   19.70    2.12
   2   0   6   38.59    3.06
   4   0   6    6.26    1.25
   6   0   6    0.55    0.81
   8   0   6   15.90    1.93
  10   0   6   41.54    3.35
  12   0   6   38.67    3.33
  14   0   6    0.55    1.88
 -21   1   6   55.44    3.74
 -19   1   6    6.61    1.34
 -17   1   6    0.05    0.67
 -15   1   6   15.21    1.64
 -13   1   6   84.67    3.70
 -11   1   6   12.68    1.34
  -9   1   6   45.68    2.35
  -3   1   6    7.64    0.79
  -1   1   6   12.56    1.27
   1   1   6  163.10    8.63
   3   1   6    1.29    1.00
   5   1   6   25.85    3.08
   7   1   6    0.64    1.14
   9   1   6  102.49    6.53
  11   1   6    8.00    2.15
  13   1   6   67.50    4.40
 -20   2   6   87.97    4.69
 -18   2   6   41.97    3.30
 -16   2   6   63.62    3.51
 -14   2   6    6.98    1.40
 -12   2   6   46.00    2.84
 -10   2   6   17.49    1.80
  -8   2   6   16.65    1.56
  -6   2   6   44.76    2.46
  -4   2   6  247.13    6.67
  -2   2   6   23.16    1.95
   0   2   6   14.47    1.55
   2   2   6   31.95    2.17
   4   2   6    1.96    1.21
   6   2   6    0.78    1.11
   8   2   6   10.49    2.39
  10   2   6   42.61    4.62
  12   2   6   26.96    3.93
 -19   3   6    2.95    1.96
 -17   3   6   -0.21    0.95
 -15   3   6   15.39    2.09
 -13   3   6   75.49    5.76
 -11   3   6    7.36    1.48
  -9   3   6   34.72    2.80
  -7   3   6   55.63    2.98
  -5   3   6   93.85    4.00
  -3   3   6    4.88    1.08
  -1   3   6    7.86    1.32
   1   3   6  117.82    4.93
   3   3   6    0.61    0.79
   5   3   6   19.84    3.12
   7   3   6    1.64    1.49
   9   3   6   62.29    5.48
  11   3   6    1.06    1.80
 -14   4   6    3.08    1.45
 -12   4   6   28.06    2.71
 -10   4   6   12.29    1.90
  -8   4   6    9.33    1.53
  -6   4   6   25.86    2.31
  -4   4   6  144.03    6.32
  -2   4   6   11.59    1.73
   0   4   6    9.15    1.59
   2   4   6   17.55    2.13
   4   4   6    3.41    1.26
   6   4   6    0.25    1.13
  -9   5   6   18.56    3.09
  -7   5   6   28.98    2.96
  -5   5   6   40.05    3.50
  -3   5   6    2.46    1.31
  -1   5   6    3.81    1.43
   1   5   6   65.17    5.64
 -12  -4   7    4.93    2.09
 -10  -4   7  101.01    6.73
  -8  -4   7   18.01    2.22
  -6  -4   7    0.49    1.69
  -4  -4   7    1.85    1.87
  -2  -4   7    9.52    3.06
   0  -4   7   53.29    6.85
   2  -4   7   50.65    7.11
   4  -4   7   45.70    7.21
 -17  -3   7   49.01    5.28
 -15  -3   7   30.40    3.94
 -13  -3   7   62.95    5.13
 -11  -3   7    3.76    1.48
  -9  -3   7   12.17    1.69
  -7  -3   7    7.72    2.44
  -5  -3   7   -0.51    1.27
  -3  -3   7   -0.92    1.48
  -1  -3   7   38.09    5.35
   1  -3   7    1.50    2.11
   3  -3   7   35.25    5.84
   5  -3   7    0.92    2.22
   7  -3   7   87.41    9.21
 -18  -2   7    3.89    1.28
 -16  -2   7    7.80    2.05
 -14  -2   7   52.01    4.46
 -12  -2   7    7.35    1.89
 -10  -2   7  136.93    7.74
  -8  -2   7   30.20    3.76
  -6  -2   7    6.87    1.92
  -4  -2   7    3.01    1.66
  -2  -2   7   19.82    3.22
   0  -2   7   95.00    6.97
   2  -2   7  114.82    8.13
   4  -2   7   69.67    7.35
   6  -2   7    2.81    2.07
   8  -2   7   -0.80    1.48
  10  -2   7    3.67    2.30
 -19  -1   7   -0.19    0.83
 -17  -1   7   67.39    3.61
 -15  -1   7   40.76    4.20
 -13  -1   7   77.19    5.40
 -11  -1   7    3.14    1.27
  -9  -1   7    9.16    1.99
  -7  -1   7   13.65    2.45
  -5  -1   7   -0.14    0.97
  -3  -1   7    1.00    1.26
  -1  -1   7   63.57    5.04
   1  -1   7    5.93    2.09
   3  -1   7   53.21    4.89
   5  -1   7    0.55    1.38
   7  -1   7  112.26    8.29
   9  -1   7   -0.73    1.48
  11  -1   7   12.88    3.19
 -20   0   7   12.52    1.79
 -18   0   7    5.03    1.16
 -16   0   7   10.42    1.48
 -14   0   7   51.38    2.94
 -12   0   7    8.70    1.85
 -10   0   7  181.18    8.93
  -8   0   7   38.37    3.36
  -6   0   7    2.48    1.37
  -4   0   7    2.37    1.39
  -2   0   7   19.57    3.04
   0   0   7   82.04    6.14
   2   0   7  100.60    6.90
   4   0   7   76.28    5.97
   6   0   7    2.69    1.64
   8   0   7    4.18    1.90
  10   0   7    0.94    1.59
  12   0   7   -0.46    1.57
 -19   1   7    0.60    0.89
 -17   1   7   68.73    5.19
 -15   1   7   41.35    4.22
 -13   1   7   80.24    3.70
 -11   1   7    3.86    0.92
  -9   1   7   15.76    1.54
  -5   1   7    0.29    0.55
  -3   1   7   -0.26    0.71
  -1   1   7   56.12    3.93
   1   1   7    4.06    1.42
   3   1   7   49.55    3.93
   5   1   7    0.21    1.22
   7   1   7  115.06    7.28
   9   1   7    1.73    1.55
  11   1   7   18.69    2.45
 -20   2   7    8.45    2.40
 -18   2   7    2.03    1.22
 -16   2   7    5.25    1.37
 -14   2   7   42.64    3.08
 -12   2   7    8.37    1.50
 -10   2   7  116.55    7.64
  -8   2   7   26.56    2.32
  -6   2   7    2.55    1.26
  -4   2   7    2.83    0.90
  -2   2   7   15.50    1.69
   0   2   7   70.60    5.04
   2   2   7   72.83    5.41
   4   2   7   62.29    4.87
   6   2   7    1.25    1.54
   8   2   7    2.10    1.72
  10   2   7   -0.23    1.50
 -17   3   7   52.70    6.52
 -15   3   7   36.18    5.00
 -13   3   7   61.62    4.17
 -11   3   7    2.05    1.13
  -9   3   7   13.58    1.85
  -7   3   7    6.80    2.08
  -5   3   7    0.57    0.81
  -3   3   7    0.25    0.78
  -1   3   7   35.24    2.84
   1   3   7    5.00    1.76
   3   3   7   27.86    3.76
   5   3   7    0.27    1.50
   7   3   7   94.26    6.78
 -14   4   7   37.66    5.29
 -12   4   7    4.66    1.56
 -10   4   7   82.15    4.58
  -8   4   7   15.73    3.11
  -6   4   7   -0.89    0.92
  -4   4   7    0.51    1.02
  -2   4   7    9.52    1.73
   0   4   7   47.64    4.61
   2   4   7   49.37    3.62
  -8  -4   8   13.76    2.03
  -6  -4   8   13.12    3.29
  -4  -4   8   25.18    4.55
  -2  -4   8   24.07    4.68
 -13  -3   8    1.42    1.46
 -11  -3   8   23.10    3.20
  -9  -3   8    0.64    1.17
  -7  -3   8   39.83    4.97
  -5  -3   8  129.22    8.72
  -3  -3   8   55.11    6.31
  -1  -3   8    3.45    2.36
   1  -3   8   -2.15    1.81
   3  -3   8   13.27    3.99
 -16  -2   8    4.12    1.76
 -14  -2   8    5.91    1.89
 -12  -2   8    0.54    1.15
 -10  -2   8   82.67    5.60
  -8  -2   8   24.25    3.35
  -6  -2   8   23.88    3.48
  -4  -2   8   45.83    5.02
  -2  -2   8   41.37    4.83
   0  -2   8   26.49    4.02
   2  -2   8   14.57    3.33
   4  -2   8   14.97    3.27
   6  -2   8   58.06    6.42
 -19  -1   8  126.22    7.81
 -17  -1   8    1.00    0.88
 -15  -1   8    0.31    1.18
 -13  -1   8    1.38    1.19
 -11  -1   8   28.29    3.31
  -7  -1   8   57.43    4.64
  -5  -1   8  166.72    9.75
  -3  -1   8   63.48    5.18
  -1  -1   8    7.98    2.23
   1  -1   8    0.45    1.28
   3  -1   8    7.06    2.30
   5  -1   8   41.29    5.04
   7  -1   8    5.89    2.36
   9  -1   8    2.17    1.92
 -20   0   8    5.47    2.01
 -18   0   8    1.07    0.97
 -16   0   8    5.23    1.17
 -14   0   8   10.40    1.54
 -12   0   8    3.68    1.36
 -10   0   8   99.41    6.11
  -8   0   8   26.57    3.19
  -6   0   8   15.63    2.67
  -4   0   8   43.28    4.14
  -2   0   8   38.57    4.53
   0   0   8   23.19    3.54
   2   0   8   19.58    3.43
   4   0   8   11.69    2.78
   6   0   8   73.84    6.14
   8   0   8    0.60    1.44
 -19   1   8  111.96    5.40
 -17   1   8    2.01    1.66
 -15   1   8    0.44    1.40
 -13   1   8    0.58    1.23
 -11   1   8   33.59    3.61
  -5   1   8  178.12    8.82
  -3   1   8   71.64    4.68
  -1   1   8    3.83    1.49
   1   1   8    0.55    1.03
   3   1   8    9.66    2.16
   5   1   8   33.37    3.99
   7   1   8   10.65    1.88
   9   1   8    3.61    1.46
 -18   2   8    3.21    2.02
 -16   2   8    4.44    1.37
 -14   2   8    9.32    2.59
 -12   2   8    0.63    1.45
 -10   2   8   75.20    4.08
  -8   2   8   17.27    2.89
  -6   2   8   25.49    2.27
  -4   2   8   39.18    4.00
  -2   2   8   39.29    4.04
   0   2   8   18.39    2.94
   2   2   8   11.43    2.49
   4   2   8    7.23    2.27
   6   2   8   52.64    5.47
   8   2   8    1.72    2.04
 -15   3   8   -0.14    1.24
 -13   3   8    0.07    1.16
 -11   3   8   23.38    3.87
  -9   3   8    1.98    1.55
  -7   3   8   43.22    3.34
  -5   3   8  118.14    5.52
  -3   3   8   51.04    4.56
  -1   3   8    3.26    1.81
   1   3   8   -0.28    1.31
   3   3   8    5.59    2.28
  -8   4   8   16.58    2.29
  -6   4   8   14.11    2.19
  -4   4   8   24.18    2.67
  -9  -3   9   13.27    2.58
  -7  -3   9    5.77    2.35
  -5  -3   9   22.24    3.87
  -3  -3   9    0.74    1.76
 -14  -2   9    0.98    1.41
 -12  -2   9    2.18    1.31
 -10  -2   9    7.92    2.01
  -8  -2   9   17.11    3.00
  -6  -2   9    3.78    1.76
  -4  -2   9   15.46    2.97
  -2  -2   9   35.97    4.49
   0  -2   9   43.23    5.23
   2  -2   9    0.62    1.70
 -17  -1   9    1.13    1.54
 -15  -1   9   26.66    3.62
 -13  -1   9   92.79    6.09
 -11  -1   9   53.40    4.43
  -7  -1   9    7.11    2.04
  -5  -1   9   26.01    3.54
  -3  -1   9    2.01    1.48
  -1  -1   9   13.36    2.77
   1  -1   9  125.89    8.50
   3  -1   9   -0.66    1.40
 -18   0   9    4.25    1.82
 -16   0   9  152.39    6.28
 -14   0   9    0.27    0.88
 -12   0   9    0.65    1.01
 -10   0   9   10.37    2.12
  -8   0   9   16.17    2.67
  -6   0   9    0.46    1.13
  -4   0   9   18.24    3.00
  -2   0   9   43.63    4.89
   0   0   9   36.40    4.72
   2   0   9   -0.16    1.31
   4   0   9   41.38    4.99
 -17   1   9    0.54    1.12
 -15   1   9   26.03    3.70
 -13   1   9   93.19    6.09
  -7   1   9    6.69    2.10
  -5   1   9   22.85    3.73
   1   1   9  115.85    8.64
   3   1   9    0.70    1.56
 -14   2   9    1.80    1.70
 -12   2   9    3.08    1.65
 -10   2   9    6.14    1.75
  -8   2   9   13.48    2.47
  -6   2   9    2.52    1.57
  -4   2   9   17.58    2.79
  -2   2   9   36.23    4.02
   0   2   9   34.40    4.09
   2   2   9    1.30    1.78
   4   2   9   26.24    3.90
 -11   3   9   42.87    5.27
  -9   3   9   13.82    2.05
  -7   3   9    2.28    1.71
  -5   3   9   16.08    2.81
  -3   3   9    0.81    1.55
  -1   3   9    6.04    2.36
  -6  -2  10    3.78    1.79
 -11  -1  10    3.74    1.61
  -7  -1  10    5.67    2.00
  -5  -1  10   47.87    4.62
  -3  -1  10    0.45    1.32
  -1  -1  10    2.65    1.71
 -14   0  10    0.80    0.99
 -12   0  10    2.08    1.39
 -10   0  10   67.21    5.20
  -6   0  10    3.51    1.77
  -4   0  10   26.20    3.70
  -2   0  10   13.55    2.82
  -5   1  10   45.51    5.39
  -3   1  10   -0.19    1.51
  -1   1  10    1.09    1.78
   0   0   0    0.00    0.00
;
_shelx_hkl_checksum              79052
#END Tags that were not found in dictionaries
loop_
_space_group_symop_operation_xyz
'x, y, z'
'-x, y, -z'
'x+1/2, y+1/2, z'
'-x+1/2, y+1/2, -z'
'-x, -y, -z'
'x, -y, z'
'-x+1/2, -y+1/2, -z'
'x+1/2, -y+1/2, z'
loop_
_atom_site_label
_atom_site_type_symbol
_atom_site_fract_x
_atom_site_fract_y
_atom_site_fract_z
_atom_site_U_iso_or_equiv
_atom_site_adp_type
_atom_site_occupancy
_atom_site_site_symmetry_order
_atom_site_calc_flag
_atom_site_refinement_flags_posn
_atom_site_refinement_flags_adp
_atom_site_refinement_flags_occupancy
Dy1 Dy 0.34834(2) 0.0000 0.06710(6) 0.00655(10) Uani 1 2 d S T P
Dy2 Dy 0.58756(2) 0.0000 0.38425(6) 0.00610(10) Uani 1 2 d S T P
Ru Ru 0.22032(4) 0.0000 0.63215(10) 0.00572(13) Uani 1 2 d S T P
In In 0.0000 0.0000 0.0000 0.0081(2) Uani 0.961(4) 4 d S T .
Ge1 Ge 0.06451(5) 0.0000 0.65897(14) 0.00663(17) Uani 1 2 d S T P
Ge2 Ge 0.20184(6) 0.0000 0.26189(14) 0.00730(17) Uani 1 2 d S T P
loop_
_atom_site_aniso_label
_atom_site_aniso_U_11
_atom_site_aniso_U_22
_atom_site_aniso_U_33
_atom_site_aniso_U_23
_atom_site_aniso_U_13
_atom_site_aniso_U_12
Dy1 0.00632(17) 0.00645(17) 0.00619(19) 0.000 0.00069(13) 0.000
Dy2 0.00529(17) 0.00605(17) 0.00731(19) 0.000 0.00236(13) 0.000
Ru 0.0049(3) 0.0062(3) 0.0061(3) 0.000 0.0016(2) 0.000
In 0.0071(4) 0.0103(4) 0.0073(4) 0.000 0.0025(3) 0.000
Ge1 0.0055(4) 0.0061(4) 0.0075(4) 0.000 0.0006(3) 0.000
Ge2 0.0103(4) 0.0046(4) 0.0072(4) 0.000 0.0029(3) 0.000
loop_
_atom_type_symbol
_atom_type_description
_atom_type_scat_dispersion_real
_atom_type_scat_dispersion_imag
_atom_type_scat_source
Ge Ge 0.1547 1.8001 'International Tables Vol C Tables 4.2.6.8 and 6.1.1.4'
Ru Ru -1.2594 0.8363 'International Tables Vol C Tables 4.2.6.8 and 6.1.1.4'
In In -0.7276 1.3100 'International Tables Vol C Tables 4.2.6.8 and 6.1.1.4'
Dy Dy -0.1892 4.4098 'International Tables Vol C Tables 4.2.6.8 and 6.1.1.4'
loop_
_geom_angle_atom_site_label_1
_geom_angle_atom_site_label_2
_geom_angle_atom_site_label_3
_geom_angle
_geom_angle_site_symmetry_1
_geom_angle_site_symmetry_3
Ge1 Dy1 Ge1 93.52(3) 7_556 7_546
Ge1 Dy1 Ge2 88.68(3) 7_556 .
Ge1 Dy1 Ge2 88.68(3) 7_546 .
Ge1 Dy1 Ge2 165.25(3) 7_556 7_545
Ge1 Dy1 Ge2 87.36(2) 7_546 7_545
Ge2 Dy1 Ge2 106.07(2) . 7_545
Ge1 Dy1 Ge2 87.36(2) 7_556 7
Ge1 Dy1 Ge2 165.25(3) 7_546 7
Ge2 Dy1 Ge2 106.07(2) . 7
Ge2 Dy1 Ge2 88.10(3) 7_545 7
Ge1 Dy1 Ru 133.177(16) 7_556 1_554
Ge1 Dy1 Ru 133.177(16) 7_546 1_554
Ge2 Dy1 Ru 94.65(3) . 1_554
Ge2 Dy1 Ru 46.875(17) 7_545 1_554
Ge2 Dy1 Ru 46.875(17) 7 1_554
Ge1 Dy1 In 53.64(2) 7_556 3
Ge1 Dy1 In 110.00(2) 7_546 3
Ge2 Dy1 In 137.588(11) . 3
Ge2 Dy1 In 112.32(2) 7_545 3
Ge2 Dy1 In 59.180(19) 7 3
Ru Dy1 In 98.483(16) 1_554 3
Ge1 Dy1 In 110.00(2) 7_556 3_545
Ge1 Dy1 In 53.64(2) 7_546 3_545
Ge2 Dy1 In 137.588(11) . 3_545
Ge2 Dy1 In 59.180(19) 7_545 3_545
Ge2 Dy1 In 112.32(2) 7 3_545
Ru Dy1 In 98.483(16) 1_554 3_545
In Dy1 In 79.814(18) 3 3_545
Ge1 Dy1 Ru 46.03(2) 7_556 7_556
Ge1 Dy1 Ru 103.02(3) 7_546 7_556
Ge2 Dy1 Ru 44.991(14) . 7_556
Ge2 Dy1 Ru 147.77(2) 7_545 7_556
Ge2 Dy1 Ru 88.19(2) 7 7_556
Ru Dy1 Ru 112.026(19) 1_554 7_556
In Dy1 Ru 92.921(15) 3 7_556
In Dy1 Ru 149.395(17) 3_545 7_556
Ge1 Dy1 Ru 103.02(3) 7_556 7_546
Ge1 Dy1 Ru 46.03(2) 7_546 7_546
Ge2 Dy1 Ru 44.991(14) . 7_546
Ge2 Dy1 Ru 88.19(2) 7_545 7_546
Ge2 Dy1 Ru 147.77(2) 7 7_546
Ru Dy1 Ru 112.025(19) 1_554 7_546
In Dy1 Ru 149.395(17) 3 7_546
In Dy1 Ru 92.921(16) 3_545 7_546
Ru Dy1 Ru 78.26(2) 7_556 7_546
Ge1 Dy1 Dy2 112.35(2) 7_556 5_655
Ge1 Dy1 Dy2 112.35(2) 7_546 5_655
Ge2 Dy1 Dy2 148.22(2) . 5_655
Ge2 Dy1 Dy2 54.223(18) 7_545 5_655
Ge2 Dy1 Dy2 54.223(18) 7 5_655
Ru Dy1 Dy2 53.56(2) 1_554 5_655
In Dy1 Dy2 58.803(8) 3 5_655
In Dy1 Dy2 58.803(8) 3_545 5_655
Ru Dy1 Dy2 140.266(11) 7_556 5_655
Ru Dy1 Dy2 140.266(11) 7_546 5_655
Ge1 Dy1 Dy1 142.74(2) 7_556 7_545
Ge1 Dy1 Dy1 86.69(2) 7_546 7_545
Ge2 Dy1 Dy1 54.062(19) . 7_545
Ge2 Dy1 Dy1 52.005(18) 7_545 7_545
Ge2 Dy1 Dy1 101.48(2) 7 7_545
Ru Dy1 Dy1 59.374(15) 1_554 7_545
In Dy1 Dy1 157.739(19) 3 7_545
In Dy1 Dy1 100.010(17) 3_545 7_545
Ru Dy1 Dy1 97.63(2) 7_556 7_545
Ru Dy1 Dy1 52.651(16) 7_546 7_545
Dy2 Dy1 Dy1 101.802(17) 5_655 7_545
Ge1 Dy2 Ge1 92.20(3) 3 3_545
Ge1 Dy2 Ru 109.31(2) 3 5_656
Ge1 Dy2 Ru 109.31(2) 3_545 5_656
Ge1 Dy2 Ge2 82.49(2) 3 3
Ge1 Dy2 Ge2 150.88(3) 3_545 3
Ru Dy2 Ge2 47.580(16) 5_656 3
Ge1 Dy2 Ge2 150.88(3) 3 3_545
Ge1 Dy2 Ge2 82.49(2) 3_545 3_545
Ru Dy2 Ge2 47.580(16) 5_656 3_545
Ge2 Dy2 Ge2 88.37(3) 3 3_545
Ge1 Dy2 Ru 48.39(2) 3 3
Ge1 Dy2 Ru 108.52(3) 3_545 3
Ru Dy2 Ru 60.948(18) 5_656 3
Ge2 Dy2 Ru 48.00(2) 3 3
Ge2 Dy2 Ru 106.29(3) 3_545 3
Ge1 Dy2 Ru 108.52(3) 3 3_545
Ge1 Dy2 Ru 48.39(2) 3_545 3_545
Ru Dy2 Ru 60.948(18) 5_656 3_545
Ge2 Dy2 Ru 106.29(3) 3 3_545
Ge2 Dy2 Ru 48.00(2) 3_545 3_545
Ru Dy2 Ru 85.89(2) 3 3_545
Ge1 Dy2 Ge1 108.691(18) 3 7_546
Ge1 Dy2 Ge1 48.97(3) 3_545 7_546
Ru Dy2 Ge1 136.520(14) 5_656 7_546
Ge2 Dy2 Ge1 158.93(3) 3 7_546
Ge2 Dy2 Ge1 89.33(2) 3_545 7_546
Ru Dy2 Ge1 151.51(2) 3 7_546
Ru Dy2 Ge1 87.43(2) 3_545 7_546
Ge1 Dy2 Ge1 48.97(3) 3 7_556
Ge1 Dy2 Ge1 108.691(18) 3_545 7_556
Ru Dy2 Ge1 136.520(15) 5_656 7_556
Ge2 Dy2 Ge1 89.33(2) 3 7_556
Ge2 Dy2 Ge1 158.93(3) 3_545 7_556
Ru Dy2 Ge1 87.43(2) 3 7_556
Ru Dy2 Ge1 151.51(2) 3_545 7_556
Ge1 Dy2 Ge1 85.36(3) 7_546 7_556
Ge1 Dy2 In 150.32(2) 3 3_545
Ge1 Dy2 In 87.89(2) 3_545 3_545
Ru Dy2 In 98.567(14) 5_656 3_545
Ge2 Dy2 In 110.65(2) 3 3_545
Ge2 Dy2 In 58.45(2) 3_545 3_545
Ru Dy2 In 156.733(17) 3 3_545
Ru Dy2 In 93.572(17) 3_545 3_545
Ge1 Dy2 In 51.367(18) 7_546 3_545
Ge1 Dy2 In 103.16(2) 7_556 3_545
Ge1 Dy2 In 87.89(2) 3 3
Ge1 Dy2 In 150.32(2) 3_545 3
Ru Dy2 In 98.567(14) 5_656 3
Ge2 Dy2 In 58.45(2) 3 3
Ge2 Dy2 In 110.65(2) 3_545 3
Ru Dy2 In 93.572(17) 3 3
Ru Dy2 In 156.733(17) 3_545 3
Ge1 Dy2 In 103.16(2) 7_546 3
Ge1 Dy2 In 51.367(18) 7_556 3
In Dy2 In 77.873(18) 3_545 3
Ge1 Dy2 Dy2 56.780(17) 3 5_656
Ge1 Dy2 Dy2 56.780(17) 3_545 5_656
Ru Dy2 Dy2 156.30(2) 5_656 5_656
Ge2 Dy2 Dy2 135.683(14) 3 5_656
Ge2 Dy2 Dy2 135.683(14) 3_545 5_656
Ru Dy2 Dy2 102.97(2) 3 5_656
Ru Dy2 Dy2 102.97(2) 3_545 5_656
Ge1 Dy2 Dy2 51.911(17) 7_546 5_656
Ge1 Dy2 Dy2 51.911(17) 7_556 5_656
In Dy2 Dy2 99.818(16) 3_545 5_656
In Dy2 Dy2 99.818(16) 3 5_656
Ge2 Ru Ge2 120.03(5) 7_556 7_546
Ge2 Ru Ge1 112.76(2) 7_556 .
Ge2 Ru Ge1 112.76(3) 7_546 .
Ge2 Ru Ge2 102.08(3) 7_556 .
Ge2 Ru Ge2 102.08(3) 7_546 .
Ge1 Ru Ge2 104.53(4) . .
Ge2 Ru Dy2 66.55(2) 7_556 5_656
Ge2 Ru Dy2 66.55(2) 7_546 5_656
Ge1 Ru Dy2 177.95(3) . 5_656
Ge2 Ru Dy2 77.52(3) . 5_656
Ge2 Ru Dy1 65.40(2) 7_556 1_556
Ge2 Ru Dy1 65.40(2) 7_546 1_556
Ge1 Ru Dy1 107.11(3) . 1_556
Ge2 Ru Dy1 148.36(3) . 1_556
Dy2 Ru Dy1 70.84(2) 5_656 1_556
Ge2 Ru Dy2 161.62(3) 7_556 3_445
Ge2 Ru Dy2 76.63(2) 7_546 3_445
Ge1 Ru Dy2 62.24(2) . 3_445
Ge2 Ru Dy2 64.54(2) . 3_445
Dy2 Ru Dy2 119.052(18) 5_656 3_445
Dy1 Ru Dy2 132.591(15) 1_556 3_445
Ge2 Ru Dy2 76.63(2) 7_556 3_455
Ge2 Ru Dy2 161.62(3) 7_546 3_455
Ge1 Ru Dy2 62.24(2) . 3_455
Ge2 Ru Dy2 64.54(2) . 3_455
Dy2 Ru Dy2 119.052(18) 5_656 3_455
Dy1 Ru Dy2 132.591(15) 1_556 3_455
Dy2 Ru Dy2 85.89(2) 3_445 3_455
Ge2 Ru Ru 124.17(4) 7_556 7_546
Ge2 Ru Ru 51.84(3) 7_546 7_546
Ge1 Ru Ru 120.39(3) . 7_546
Ge2 Ru Ru 50.24(2) . 7_546
Dy2 Ru Ru 60.89(2) 5_656 7_546
Dy1 Ru Ru 110.94(3) 1_556 7_546
Dy2 Ru Ru 58.17(2) 3_445 7_546
Dy2 Ru Ru 113.60(3) 3_455 7_546
Ge2 Ru Ru 51.84(3) 7_556 7_556
Ge2 Ru Ru 124.17(4) 7_546 7_556
Ge1 Ru Ru 120.39(3) . 7_556
Ge2 Ru Ru 50.24(2) . 7_556
Dy2 Ru Ru 60.89(2) 5_656 7_556
Dy1 Ru Ru 110.94(3) 1_556 7_556
Dy2 Ru Ru 113.60(3) 3_445 7_556
Dy2 Ru Ru 58.17(2) 3_455 7_556
Ru Ru Ru 85.83(3) 7_546 7_556
Ge2 Ru Dy1 59.01(2) 7_556 7_556
Ge2 Ru Dy1 125.33(3) 7_546 7_556
Ge1 Ru Dy1 57.410(18) . 7_556
Ge2 Ru Dy1 132.491(19) . 7_556
Dy2 Ru Dy1 121.220(17) 5_656 7_556
Dy1 Ru Dy1 67.976(19) 1_556 7_556
Dy2 Ru Dy1 119.63(2) 3_445 7_556
Dy2 Ru Dy1 68.557(18) 3_455 7_556
Ru Ru Dy1 176.21(2) 7_546 7_556
Ru Ru Dy1 97.954(18) 7_556 7_556
Ge2 Ru Dy1 125.33(3) 7_556 7_546
Ge2 Ru Dy1 59.01(2) 7_546 7_546
Ge1 Ru Dy1 57.410(18) . 7_546
Ge2 Ru Dy1 132.491(19) . 7_546
Dy2 Ru Dy1 121.220(17) 5_656 7_546
Dy1 Ru Dy1 67.976(19) 1_556 7_546
Dy2 Ru Dy1 68.557(18) 3_445 7_546
Dy2 Ru Dy1 119.63(2) 3_455 7_546
Ru Ru Dy1 97.954(18) 7_546 7_546
Ru Ru Dy1 176.21(2) 7_556 7_546
Dy1 Ru Dy1 78.26(2) 7_556 7_546
Ge1 In Ge1 180.00(3) 5_556 1_554
Ge1 In Ge2 87.00(3) 5_556 5
Ge1 In Ge2 93.00(3) 1_554 5
Ge1 In Ge2 93.00(3) 5_556 .
Ge1 In Ge2 87.00(3) 1_554 .
Ge2 In Ge2 180.0 5 .
Ge1 In Dy1 56.022(13) 5_556 3_445
Ge1 In Dy1 123.978(13) 1_554 3_445
Ge2 In Dy1 56.361(16) 5 3_445
Ge2 In Dy1 123.639(16) . 3_445
Ge1 In Dy1 123.978(13) 5_556 7
Ge1 In Dy1 56.022(13) 1_554 7
Ge2 In Dy1 123.639(16) 5 7
Ge2 In Dy1 56.361(16) . 7
Dy1 In Dy1 180.0 3_445 7
Ge1 In Dy1 56.022(13) 5_556 3_455
Ge1 In Dy1 123.978(13) 1_554 3_455
Ge2 In Dy1 56.361(16) 5 3_455
Ge2 In Dy1 123.639(16) . 3_455
Dy1 In Dy1 79.815(18) 3_445 3_455
Dy1 In Dy1 100.185(18) 7 3_455
Ge1 In Dy1 123.978(13) 5_556 7_545
Ge1 In Dy1 56.022(13) 1_554 7_545
Ge2 In Dy1 123.639(16) 5 7_545
Ge2 In Dy1 56.361(16) . 7_545
Dy1 In Dy1 100.185(18) 3_445 7_545
Dy1 In Dy1 79.815(18) 7 7_545
Dy1 In Dy1 180.0 3_455 7_545
Ge1 In Dy2 59.818(17) 5_556 3_455
Ge1 In Dy2 120.182(17) 1_554 3_455
Ge2 In Dy2 124.500(13) 5 3_455
Ge2 In Dy2 55.500(13) . 3_455
Dy1 In Dy2 115.726(14) 3_445 3_455
Dy1 In Dy2 64.274(14) 7 3_455
Dy1 In Dy2 68.142(14) 3_455 3_455
Dy1 In Dy2 111.858(14) 7_545 3_455
Ge1 In Dy2 120.182(17) 5_556 7_545
Ge1 In Dy2 59.818(17) 1_554 7_545
Ge2 In Dy2 55.500(13) 5 7_545
Ge2 In Dy2 124.500(13) . 7_545
Dy1 In Dy2 64.274(14) 3_445 7_545
Dy1 In Dy2 115.726(14) 7 7_545
Dy1 In Dy2 111.858(14) 3_455 7_545
Dy1 In Dy2 68.142(14) 7_545 7_545
Dy2 In Dy2 180.000(10) 3_455 7_545
Ge1 In Dy2 120.182(17) 5_556 7
Ge1 In Dy2 59.818(17) 1_554 7
Ge2 In Dy2 55.500(13) 5 7
Ge2 In Dy2 124.500(13) . 7
Dy1 In Dy2 111.858(14) 3_445 7
Dy1 In Dy2 68.142(14) 7 7
Dy1 In Dy2 64.274(14) 3_455 7
Dy1 In Dy2 115.726(14) 7_545 7
Dy2 In Dy2 102.127(18) 3_455 7
Dy2 In Dy2 77.873(18) 7_545 7
Ge1 In Dy2 59.818(17) 5_556 3_445
Ge1 In Dy2 120.182(17) 1_554 3_445
Ge2 In Dy2 124.500(13) 5 3_445
Ge2 In Dy2 55.500(13) . 3_445
Dy1 In Dy2 68.142(14) 3_445 3_445
Dy1 In Dy2 111.858(14) 7 3_445
Dy1 In Dy2 115.726(14) 3_455 3_445
Dy1 In Dy2 64.274(14) 7_545 3_445
Dy2 In Dy2 77.873(18) 3_455 3_445
Dy2 In Dy2 102.127(18) 7_545 3_445
Dy2 In Dy2 180.0 7 3_445
Ru Ge1 Ge1 118.88(6) . 5_556
Ru Ge1 In 130.74(4) . 1_556
Ge1 Ge1 In 110.37(5) 5_556 1_556
Ru Ge1 Dy1 76.56(2) . 7_556
Ge1 Ge1 Dy1 132.571(17) 5_556 7_556
In Ge1 Dy1 70.33(2) 1_556 7_556
Ru Ge1 Dy1 76.56(2) . 7_546
Ge1 Ge1 Dy1 132.571(17) 5_556 7_546
In Ge1 Dy1 70.33(2) 1_556 7_546
Dy1 Ge1 Dy1 93.52(3) 7_556 7_546
Ru Ge1 Dy2 69.37(2) . 3_445
Ge1 Ge1 Dy2 69.35(3) 5_556 3_445
In Ge1 Dy2 133.035(16) 1_556 3_445
Dy1 Ge1 Dy2 145.88(3) 7_556 3_445
Dy1 Ge1 Dy2 77.18(2) 7_546 3_445
Ru Ge1 Dy2 69.37(2) . 3_455
Ge1 Ge1 Dy2 69.35(3) 5_556 3_455
In Ge1 Dy2 133.035(16) 1_556 3_455
Dy1 Ge1 Dy2 77.18(2) 7_556 3_455
Dy1 Ge1 Dy2 145.88(3) 7_546 3_455
Dy2 Ge1 Dy2 92.20(3) 3_445 3_455
Ru Ge1 Dy2 136.130(16) . 7_546
Ge1 Ge1 Dy2 61.68(3) 5_556 7_546
In Ge1 Dy2 68.816(19) 1_556 7_546
Dy1 Ge1 Dy2 138.96(3) 7_556 7_546
Dy1 Ge1 Dy2 76.498(19) 7_546 7_546
Dy2 Ge1 Dy2 71.309(19) 3_445 7_546
Dy2 Ge1 Dy2 131.03(3) 3_455 7_546
Ru Ge1 Dy2 136.130(16) . 7_556
Ge1 Ge1 Dy2 61.68(3) 5_556 7_556
In Ge1 Dy2 68.816(19) 1_556 7_556
Dy1 Ge1 Dy2 76.498(19) 7_556 7_556
Dy1 Ge1 Dy2 138.96(3) 7_546 7_556
Dy2 Ge1 Dy2 131.03(3) 3_445 7_556
Dy2 Ge1 Dy2 71.309(19) 3_455 7_556
Dy2 Ge1 Dy2 85.36(3) 7_546 7_556
Ru Ge2 Ru 120.03(5) 7_556 7_546
Ru Ge2 Ru 77.92(3) 7_556 .
Ru Ge2 Ru 77.92(3) 7_546 .
Ru Ge2 Dy1 76.00(3) 7_556 .
Ru Ge2 Dy1 76.00(3) 7_546 .
Ru Ge2 Dy1 126.29(4) . .
Ru Ge2 Dy2 142.98(4) 7_556 3_445
Ru Ge2 Dy2 65.87(2) 7_546 3_445
Ru Ge2 Dy2 67.46(2) . 3_445
Dy1 Ge2 Dy2 135.676(15) . 3_445
Ru Ge2 Dy2 65.87(2) 7_556 3_455
Ru Ge2 Dy2 142.98(4) 7_546 3_455
Ru Ge2 Dy2 67.46(2) . 3_455
Dy1 Ge2 Dy2 135.676(15) . 3_455
Dy2 Ge2 Dy2 88.36(3) 3_445 3_455
Ru Ge2 Dy1 145.63(4) 7_556 7_545
Ru Ge2 Dy1 67.73(2) 7_546 7_545
Ru Ge2 Dy1 134.302(17) . 7_545
Dy1 Ge2 Dy1 73.93(2) . 7_545
Dy2 Ge2 Dy1 71.362(18) 3_445 7_545
Dy2 Ge2 Dy1 130.51(3) 3_455 7_545
Ru Ge2 Dy1 67.73(2) 7_556 7
Ru Ge2 Dy1 145.63(4) 7_546 7
Ru Ge2 Dy1 134.302(17) . 7
Dy1 Ge2 Dy1 73.93(2) . 7
Dy2 Ge2 Dy1 130.51(3) 3_445 7
Dy2 Ge2 Dy1 71.362(19) 3_455 7
Dy1 Ge2 Dy1 88.10(3) 7_545 7
Ru Ge2 In 119.98(2) 7_556 .
Ru Ge2 In 119.98(2) 7_546 .
Ru Ge2 In 113.22(3) . .
Dy1 Ge2 In 120.49(3) . .
Dy2 Ge2 In 66.05(2) 3_445 .
Dy2 Ge2 In 66.05(2) 3_455 .
Dy1 Ge2 In 64.458(19) 7_545 .
Dy1 Ge2 In 64.458(19) 7 .
loop_
_geom_bond_atom_site_label_1
_geom_bond_atom_site_label_2
_geom_bond_distance
_geom_bond_site_symmetry_2
Dy1 Ge1 2.9182(8) 7_556
Dy1 Ge1 2.9182(8) 7_546
Dy1 Ge2 2.9761(11) .
Dy1 Ge2 3.0577(9) 7_545
Dy1 Ge2 3.0577(9) 7
Dy1 Ru 3.1120(9) 1_554
Dy1 In 3.3138(6) 3
Dy1 In 3.3138(6) 3_545
Dy1 Ru 3.3687(7) 7_556
Dy1 Ru 3.3687(7) 7_546
Dy1 Dy2 3.5627(9) 5_655
Dy1 Dy1 3.6290(8) 7_545
Dy2 Ge1 2.9505(8) 3
Dy2 Ge1 2.9505(8) 3_545
Dy2 Ru 3.0343(9) 5_656
Dy2 Ge2 3.0504(8) 3
Dy2 Ge2 3.0504(8) 3_545
Dy2 Ru 3.1203(7) 3
Dy2 Ru 3.1203(7) 3_545
Dy2 Ge1 3.1362(8) 7_546
Dy2 Ge1 3.1362(8) 7_556
Dy2 In 3.3828(6) 3_545
Dy2 In 3.3828(6) 3
Dy2 Dy2 3.5511(9) 5_656
Ru Ge2 2.4545(7) 7_556
Ru Ge2 2.4545(7) 7_546
Ru Ge1 2.4927(11) .
Ru Ge2 2.5107(13) .
Ru Dy2 3.0344(10) 5_656
Ru Dy1 3.1121(9) 1_556
Ru Dy2 3.1203(7) 3_445
Ru Dy2 3.1203(7) 3_455
Ru Ru 3.1222(10) 7_546
Ru Ru 3.1222(10) 7_556
Ru Dy1 3.3687(7) 7_556
Ru Dy1 3.3687(7) 7_546
In Ge1 2.8341(10) 5_556
In Ge1 2.8341(10) 1_554
In Ge2 3.1541(11) 5
In Ge2 3.1541(11) .
In Dy1 3.3138(6) 3_445
In Dy1 3.3138(6) 7
In Dy1 3.3138(6) 3_455
In Dy1 3.3138(6) 7_545
In Dy2 3.3828(6) 3_455
In Dy2 3.3828(6) 7_545
In Dy2 3.3828(6) 7
In Dy2 3.3828(6) 3_445
Ge1 Ge1 2.5284(18) 5_556
Ge1 In 2.8340(10) 1_556
Ge1 Dy1 2.9182(8) 7_556
Ge1 Dy1 2.9182(8) 7_546
Ge1 Dy2 2.9505(8) 3_445
Ge1 Dy2 2.9505(8) 3_455
Ge1 Dy2 3.1361(8) 7_546
Ge1 Dy2 3.1361(8) 7_556
Ge2 Ru 2.4545(7) 7_556
Ge2 Ru 2.4545(7) 7_546
Ge2 Dy2 3.0504(8) 3_445
Ge2 Dy2 3.0504(8) 3_455
Ge2 Dy1 3.0577(9) 7_545
Ge2 Dy1 3.0577(9) 7
