#------------------------------------------------------------------------------
#$Date: 2016-03-24 00:14:39 +0200 (Thu, 24 Mar 2016) $
#$Revision: 179528 $
#$URL: svn://www.crystallography.net/cod/cif/4/34/25/4342590.cif $
#------------------------------------------------------------------------------
#
# This file is available in the Crystallography Open Database (COD),
# http://www.crystallography.net/
#
# All data on this site have been placed in the public domain by the
# contributors.
#
data_4342590
loop_
_publ_author_name
'Oliynyk, Anton O.'
'Stoyko, Stanislav S.'
'Mar, Arthur'
_publ_section_title
;
 Many Metals Make the Cut: Quaternary Rare-Earth Germanides RE4M2InGe4 (M
 = Fe, Co, Ni, Ru, Rh, Ir) and RE4RhInGe4 Derived from Excision of Slabs
 in RE2InGe2.
;
_journal_issue                   6
_journal_name_full               'Inorganic chemistry'
_journal_page_first              2780
_journal_page_last               2792
_journal_paper_doi               10.1021/ic502955h
_journal_volume                  54
_journal_year                    2015
_chemical_formula_structural     'Gd4 Co2 In Ge4'
_chemical_formula_sum            'Co2 Gd4 Ge4 In'
_chemical_formula_weight         1152.04
_chemical_name_common
'gadolinium cobalt indium germanide (4/2/1/4)'
_chemical_name_systematic
'gadolinium cobalt indium germanide (4/2/1/4)'
_space_group_crystal_system      monoclinic
_space_group_IT_number           12
_space_group_name_Hall           '-C 2y'
_space_group_name_H-M_alt        'C 1 2/m 1'
_symmetry_space_group_name_Hall  '-C 2y'
_symmetry_space_group_name_H-M   'C 1 2/m 1'
_atom_sites_solution_primary     direct
_atom_sites_solution_secondary   difmap
_audit_creation_method           SHELXL-2013
_cell_angle_alpha                90
_cell_angle_beta                 107.618(5)
_cell_angle_gamma                90
_cell_formula_units_Z            2
_cell_length_a                   15.548(6)
_cell_length_b                   4.2483(16)
_cell_length_c                   7.058(3)
_cell_measurement_reflns_used    1299
_cell_measurement_temperature    173(2)
_cell_measurement_theta_max      32.63
_cell_measurement_theta_min      4.99
_cell_volume                     444.3(3)
_computing_cell_refinement       'Bruker SAINT 8.27B (Bruker, 2011)'
_computing_data_collection       'Bruker APEX 2 (Bruker, 2008)'
_computing_data_reduction        'Bruker SAINT 8.27B'
_computing_molecular_graphics    'ATOMS 5.1 (Dowty, 1999)'
_computing_publication_material  'Bruker SHELXTL'
_computing_structure_refinement  'Bruker SHELXTL'
_computing_structure_solution    'Bruker SHELXTL'
_diffrn_ambient_temperature      173(2)
_diffrn_measured_fraction_theta_full 1.000
_diffrn_measured_fraction_theta_max 0.976
_diffrn_measurement_device_type  'Bruker PLATFORM/SMART APEX II CCD'
_diffrn_measurement_method       '\w and \f scans'
_diffrn_radiation_type           MoK\a
_diffrn_radiation_wavelength     0.71073
_diffrn_reflns_av_R_equivalents  0.0455
_diffrn_reflns_av_unetI/netI     0.0399
_diffrn_reflns_Laue_measured_fraction_full 1.000
_diffrn_reflns_Laue_measured_fraction_max 0.976
_diffrn_reflns_limit_h_max       23
_diffrn_reflns_limit_h_min       -23
_diffrn_reflns_limit_k_max       6
_diffrn_reflns_limit_k_min       -6
_diffrn_reflns_limit_l_max       10
_diffrn_reflns_limit_l_min       -10
_diffrn_reflns_number            3157
_diffrn_reflns_point_group_measured_fraction_full 1.000
_diffrn_reflns_point_group_measured_fraction_max 0.976
_diffrn_reflns_theta_full        25.242
_diffrn_reflns_theta_max         33.257
_diffrn_reflns_theta_min         2.749
_diffrn_source                   'fine-focus sealed tube'
_exptl_absorpt_coefficient_mu    48.777
_exptl_absorpt_correction_T_max  0.5325
_exptl_absorpt_correction_T_min  0.1364
_exptl_absorpt_correction_type   numerical
_exptl_absorpt_process_details   'Bruker SHELXTL (Sheldrick, 2013)'
_exptl_crystal_colour            grey
_exptl_crystal_density_diffrn    8.610
_exptl_crystal_density_method    'not measured'
_exptl_crystal_description       irregular
_exptl_crystal_F_000             974
_exptl_crystal_size_max          0.068
_exptl_crystal_size_mid          0.023
_exptl_crystal_size_min          0.016
_refine_diff_density_max         2.045
_refine_diff_density_min         -2.222
_refine_diff_density_rms         0.506
_refine_ls_extinction_coef       0.00136(9)
_refine_ls_extinction_expression Fc^*^=kFc[1+0.001xFc^2^\l^3^/sin(2\q)]^-1/4^
_refine_ls_extinction_method     SHELXL
_refine_ls_goodness_of_fit_ref   1.011
_refine_ls_hydrogen_treatment    undef
_refine_ls_matrix_type           full
_refine_ls_number_parameters     37
_refine_ls_number_reflns         934
_refine_ls_number_restraints     0
_refine_ls_restrained_S_all      1.011
_refine_ls_R_factor_all          0.0347
_refine_ls_R_factor_gt           0.0256
_refine_ls_shift/su_max          0.001
_refine_ls_shift/su_mean         0.000
_refine_ls_structure_factor_coef Fsqd
_refine_ls_weighting_details
'w=1/[\s^2^(Fo^2^)+(0.0236P)^2^] where P=(Fo^2^+2Fc^2^)/3'
_refine_ls_weighting_scheme      calc
_refine_ls_wR_factor_gt          0.0506
_refine_ls_wR_factor_ref         0.0540
_reflns_Friedel_coverage         0.000
_reflns_number_gt                771
_reflns_number_total             934
_reflns_threshold_expression     'I > 2\s(I)'
_cod_data_source_file            ic502955h_si_003.cif
_cod_data_source_block           Gd4Co2InGe4
_cod_depositor_comments
'Adding full bibliography for 4342570--4342590.cif.'
_cod_database_code               4342590
#BEGIN Tags that were not found in dictionaries:
_shelx_space_group_comment
;
The symmetry employed for this shelxl refinement is uniquely defined
by the following loop, which should always be used as a source of
symmetry information in preference to the above space-group names.
They are only intended as comments.
;
_shelx_estimated_absorpt_t_min   0.136
_shelx_estimated_absorpt_t_max   0.509
_shelxl_version_number           2013-4
_shelx_res_file
;
TITL Gd4Co2InGe4 C2/m lsf final refinement
CELL 0.71073  15.54810   4.24830   7.05820  90.0000 107.6180  90.0000
ZERR    2.00   0.00600   0.00160   0.00270   0.0000   0.0053   0.0000
LATT  7
SYMM -X, Y, -Z
SFAC CO GE IN GD
UNIT 4 8 2 8
TEMP -100
SIZE 0.016 0.023 0.068

L.S. 4
ACTA

WGHT    0.023600
EXTI    0.001362
FVAR       0.05079
GD1   4    0.346351    0.000000    0.061063    10.50000    0.00646    0.00684 =
         0.00633    0.00000    0.00144    0.00000
GD2   4    0.588932    0.000000    0.384210    10.50000    0.00630    0.00614 =
         0.00680    0.00000    0.00245    0.00000
CO    1    0.219724    0.000000    0.626814    10.50000    0.00612    0.00721 =
         0.00755    0.00000    0.00202    0.00000
IN    3    0.000000    0.000000    0.000000     0.24262    0.00820    0.00836 =
         0.00736    0.00000    0.00331    0.00000
GE1   2    0.066985    0.000000    0.657947    10.50000    0.00631    0.00669 =
         0.00722    0.00000    0.00144    0.00000
GE2   2    0.205958    0.000000    0.269121    10.50000    0.00789    0.00627 =
         0.00773    0.00000    0.00295    0.00000
HKLF 4

REM  Gd4Co2InGe4 C2/m lsf final refinement
REM R1 =  0.0256 for     771 Fo > 4sig(Fo)  and  0.0347 for all     934 data
REM     37 parameters refined using      0 restraints

END

WGHT      0.0236      0.0000

REM Highest difference peak  2.045,  deepest hole -2.222,  1-sigma level  0.506
Q1    1   0.3548  0.1714  0.0115  11.00000  0.05    2.04
Q2    1   0.6002 -0.1345  0.3447  11.00000  0.05    1.96
Q3    1   0.5264  0.0000  0.5150  10.50000  0.05    1.91
Q4    1   0.3766  0.0000  0.1963  10.50000  0.05    1.87
Q5    1   0.6562  0.0000  0.5880  10.50000  0.05    1.86
Q6    1   0.2698  0.0000  0.8497  10.50000  0.05    1.77
Q7    1   0.0604  0.2144  0.8447  11.00000  0.05    1.76
Q8    1   0.6012  0.0000  0.2857  10.50000  0.05    1.72
Q9    1   0.3098  0.0000 -0.0176  10.50000  0.05    1.70
Q10   1   0.3434  0.2067  0.1204  11.00000  0.05    1.67
Q11   1   0.0092  0.1357 -0.0561  11.00000  0.05    1.66
Q12   1   0.4580  0.0000 -0.0615  10.50000  0.05    1.60
Q13   1   0.3267  0.1059  0.1276  11.00000  0.05    1.59
Q14   1   0.4300  0.0000  0.2421  10.50000  0.05    1.57
Q15   1   0.6557  0.0000  0.4294  10.50000  0.05    1.57
Q16   1  -0.0127 -0.2447  0.1297  11.00000  0.05    1.55
Q17   1   0.6701 -0.1653  0.5014  11.00000  0.05    1.52
Q18   1   0.3980  0.0000 -0.1178  10.50000  0.05    1.51
Q19   1   0.0893  0.2879  0.7484  11.00000  0.05    1.51
Q20   1   0.5903 -0.1251  0.1900  11.00000  0.05    1.50
;
_shelx_res_checksum              29527
_shelx_hkl_file
;
   6  -2 -10   14.83    2.77
   8  -2 -10   65.78    5.33
  10  -2 -10   91.51    9.18
  -1  -1 -10   -0.06    1.99
   1  -1 -10    1.73    1.57
   3  -1 -10    0.81    1.46
   5  -1 -10   60.45    4.90
   7  -1 -10   12.23    2.42
   9  -1 -10   19.51    2.91
  11  -1 -10    3.19    1.69
  13  -1 -10   45.02    6.35
  15  -1 -10    0.48    2.40
  -2   0 -10   13.22    3.98
   0   0 -10    3.16    2.70
   2   0 -10    0.53    2.25
   4   0 -10    6.63    1.98
   6   0 -10   15.68    2.61
   8   0 -10   75.36    5.43
  10   0 -10   96.93    5.31
  12   0 -10    7.72    2.06
  14   0 -10    4.18    1.80
  -1   1 -10    2.77    3.07
   1   1 -10   -0.11    1.70
   3   1 -10    0.23    1.74
   5   1 -10   56.75    5.29
   7   1 -10   12.34    2.86
   9   1 -10   19.91    2.60
  11   1 -10    1.54    1.45
  13   1 -10   32.32    3.00
   2   2 -10    4.48    3.58
   4   2 -10   10.62    4.27
   6   2 -10   14.01    3.12
   8   2 -10   62.82    8.39
  12   2 -10    3.55    4.11
  -1  -3  -9  103.84    7.15
   1  -3  -9   29.81    4.74
   3  -3  -9    8.10    1.98
   5  -3  -9   29.05    3.28
   7  -3  -9    9.98    2.19
   9  -3  -9    3.42    1.71
  11  -3  -9   59.76    5.06
  -4  -2  -9   34.56    4.87
  -2  -2  -9    6.72    2.48
   0  -2  -9   68.39    6.77
   2  -2  -9   39.51    5.10
   4  -2  -9   25.31    2.90
   6  -2  -9   -0.19    0.97
   8  -2  -9    4.07    1.30
  10  -2  -9    1.03    1.12
  12  -2  -9    0.19    1.09
  14  -2  -9   -2.01    1.19
  -5  -1  -9   18.38    4.38
  -3  -1  -9    0.08    1.38
  -1  -1  -9  110.25    5.52
   1  -1  -9   37.57    3.67
   3  -1  -9   11.17    2.11
   5  -1  -9   41.00    3.80
   7  -1  -9   14.44    2.30
   9  -1  -9   11.24    2.23
  11  -1  -9   71.19    5.09
  13  -1  -9   92.85    5.00
  15  -1  -9   17.83    2.72
  17  -1  -9    2.46    2.21
  -4   0  -9   42.47    4.31
  -2   0  -9    8.08    3.12
   0   0  -9   76.92    8.13
   2   0  -9   45.59    4.04
   4   0  -9   28.09    3.02
   6   0  -9    2.02    1.34
   8   0  -9    4.31    1.41
  10   0  -9    2.68    1.37
  12   0  -9    0.73    1.27
  14   0  -9   -0.40    1.15
  16   0  -9  184.61    7.28
  -5   1  -9   19.23    4.46
  -3   1  -9   -1.45    1.98
  -1   1  -9  118.05    9.06
   1   1  -9   44.37    4.41
   3   1  -9    8.42    2.26
   5   1  -9   42.95    3.36
   7   1  -9   19.39    2.64
   9   1  -9   14.21    2.33
  11   1  -9   63.76    4.84
  13   1  -9   81.69    4.66
  15   1  -9   23.14    3.13
  17   1  -9    5.29    1.97
  -4   2  -9   26.42    5.23
  -2   2  -9    3.42    2.60
   0   2  -9   62.15    8.55
   2   2  -9   34.12    6.36
   4   2  -9   20.45    3.67
   6   2  -9    0.10    1.77
   8   2  -9    4.98    2.46
  10   2  -9   -0.62    1.73
  12   2  -9   -0.58    1.36
  14   2  -9    0.58    1.59
  16   2  -9  156.67    9.93
   1   3  -9   32.89    7.52
   3   3  -9    3.03    2.93
   5   3  -9   23.77    4.52
   7   3  -9    6.83    3.31
   9   3  -9   10.82    3.39
   2  -4  -8   29.73    3.35
   4  -4  -8   28.01    3.20
   6  -4  -8   11.45    2.19
   8  -4  -8   15.19    2.57
  10  -4  -8   60.44    6.81
  -5  -3  -8   44.90    5.76
  -3  -3  -8    5.40    1.68
  -1  -3  -8    0.76    1.18
   1  -3  -8    5.12    1.59
   3  -3  -8   33.28    3.26
   5  -3  -8   92.78    4.72
   7  -3  -8   74.42    4.57
   9  -3  -8    1.20    1.32
  11  -3  -8   34.89    3.00
  13  -3  -8    1.44    1.35
  15  -3  -8    2.92    1.85
  -8  -2  -8   11.85    2.29
  -6  -2  -8   73.84    4.93
  -4  -2  -8    2.19    1.28
  -2  -2  -8    1.05    1.12
   0  -2  -8   12.81    2.01
   2  -2  -8   48.36    3.70
   4  -2  -8   50.02    3.75
   6  -2  -8   23.12    2.62
   8  -2  -8   34.42    2.69
  10  -2  -8   93.98    3.88
  12  -2  -8    0.11    0.98
  14  -2  -8    3.35    1.57
  16  -2  -8   10.49    2.20
  18  -2  -8    1.11    1.53
  -5  -1  -8   45.29    5.16
  -3  -1  -8   13.45    2.80
  -1  -1  -8    0.63    1.31
   1  -1  -8   13.05    2.70
   3  -1  -8   39.67    3.53
   5  -1  -8  125.83    5.49
   7  -1  -8  107.69    3.89
   9  -1  -8    0.61    0.86
  11  -1  -8   46.63    3.07
  13  -1  -8    1.11    0.92
  15  -1  -8    6.45    1.35
  17  -1  -8    1.81    1.42
  19  -1  -8  110.03    7.76
  -6   0  -8   94.59    7.17
  -4   0  -8    1.54    2.05
  -2   0  -8    1.51    1.20
   0   0  -8   18.39    2.47
   2   0  -8   52.15    3.95
   4   0  -8   58.85    4.22
   6   0  -8   28.21    2.91
   8   0  -8   27.19    2.84
  10   0  -8   91.83    4.62
  12   0  -8    0.03    1.03
  14   0  -8    1.38    1.23
  16   0  -8   10.53    2.00
  18   0  -8    1.52    1.84
  -5   1  -8   55.37    6.70
  -3   1  -8   12.63    2.50
  -1   1  -8    0.67    1.41
   1   1  -8    9.18    2.26
   3   1  -8   42.69    3.71
   5   1  -8  126.48    5.52
   7   1  -8  103.24    4.93
   9   1  -8    1.14    1.07
  11   1  -8   47.01    3.90
  13   1  -8    0.31    0.95
  15   1  -8    1.93    1.44
  17   1  -8    5.08    1.62
  19   1  -8  100.77    7.59
  -6   2  -8   74.11    8.22
  -4   2  -8    0.90    2.29
  -2   2  -8    0.93    1.80
   0   2  -8    9.84    2.81
   2   2  -8   47.85    7.45
   4   2  -8   41.84    4.68
   6   2  -8   21.49    3.45
   8   2  -8   30.77    3.03
  10   2  -8   93.33    5.34
  12   2  -8   -0.55    1.10
  14   2  -8    1.29    1.42
  16   2  -8    9.02    2.18
  18   2  -8    2.91    1.87
  -5   3  -8   29.18    5.74
  -3   3  -8    1.55    3.14
  -1   3  -8   -0.21    2.48
   1   3  -8    2.73    2.58
   3   3  -8   28.21    4.40
   5   3  -8   92.90    7.75
   7   3  -8   79.02    6.82
   9   3  -8    2.47    2.14
  11   3  -8   32.15    4.06
  13   3  -8    0.35    2.53
  15   3  -8    0.91    1.70
   2   4  -8   33.00    4.99
   4   4  -8   33.06    5.07
   6   4  -8   19.26    3.86
   8   4  -8   17.27    3.47
  10   4  -8   62.82    8.09
  -4  -4  -7   51.91    6.26
  -2  -4  -7   50.74    4.17
   0  -4  -7   25.91    2.98
   2  -4  -7   34.55    3.46
   4  -4  -7    4.31    1.55
   6  -4  -7    3.66    1.52
   8  -4  -7   18.15    2.59
  10  -4  -7  106.95    5.32
  12  -4  -7    7.28    1.98
  -7  -3  -7   60.71    6.56
  -5  -3  -7    7.60    2.64
  -3  -3  -7   55.10    4.09
  -1  -3  -7    0.82    1.03
   1  -3  -7   64.41    4.29
   3  -3  -7    0.45    0.98
   5  -3  -7    0.36    0.94
   7  -3  -7    5.80    1.56
   9  -3  -7    2.08    1.22
  11  -3  -7   -0.06    1.12
  13  -3  -7   86.81    6.30
  15  -3  -7   24.45    2.98
  17  -3  -7   80.77    7.36
 -10  -2  -7    1.85    2.30
  -8  -2  -7    1.67    2.11
  -6  -2  -7    2.34    1.69
  -4  -2  -7   78.94    4.01
  -2  -2  -7   83.57    3.96
   0  -2  -7   42.59    3.24
   2  -2  -7   64.51    3.29
   4  -2  -7   13.25    1.83
   6  -2  -7    5.70    1.39
   8  -2  -7   34.66    3.02
  10  -2  -7  175.45    5.14
  12  -2  -7   17.42    1.89
  14  -2  -7   57.15    4.15
  16  -2  -7    4.21    1.53
  18  -2  -7   21.92    2.83
  20  -2  -7    4.30    1.80
  -9  -1  -7    1.68    1.96
  -7  -1  -7   80.34    5.67
  -5  -1  -7   12.18    1.84
  -3  -1  -7   76.51    3.60
  -1  -1  -7    0.94    0.84
   1  -1  -7   91.59    3.79
   3  -1  -7   -0.42    0.73
   5  -1  -7    1.51    0.85
   7  -1  -7    9.22    1.33
   9  -1  -7    1.92    0.88
  11  -1  -7    0.70    0.80
  13  -1  -7  114.67    3.95
  15  -1  -7   33.73    3.07
  17  -1  -7   83.81    4.35
  19  -1  -7    0.72    1.20
  21  -1  -7    0.54    1.37
  -6   0  -7    0.70    1.95
  -4   0  -7  104.01    4.60
  -2   0  -7  103.86    4.49
   0   0  -7   51.56    3.66
   2   0  -7   64.21    3.74
   4   0  -7   16.94    2.18
   6   0  -7    9.22    1.59
   8   0  -7   36.06    3.09
  10   0  -7  184.68    6.53
  12   0  -7   16.13    2.14
  14   0  -7   53.34    3.81
  16   0  -7    3.42    1.35
  18   0  -7   24.42    3.98
  20   0  -7    7.75    2.41
 -11   1  -7   11.47    3.22
  -7   1  -7   80.24    7.60
  -5   1  -7   10.34    3.17
  -3   1  -7   71.74    5.36
  -1   1  -7   -0.64    1.20
   1   1  -7   82.24    4.13
   3   1  -7    1.33    1.10
   5   1  -7   -0.05    0.90
   7   1  -7    9.10    1.68
   9   1  -7    1.31    1.00
  11   1  -7    1.71    1.13
  13   1  -7  108.07    4.93
  15   1  -7   31.25    3.10
  17   1  -7   90.18    4.50
  19   1  -7    1.77    1.99
  -8   2  -7   -1.03    2.13
  -6   2  -7   -1.73    1.99
  -4   2  -7   78.74    7.97
  -2   2  -7   66.59    5.73
   0   2  -7   44.55    4.71
   2   2  -7   52.39    5.03
   4   2  -7    9.29    2.38
   6   2  -7    7.33    1.55
   8   2  -7   28.75    2.51
  10   2  -7  165.05    6.34
  12   2  -7   16.15    2.05
  14   2  -7   56.75    4.34
  16   2  -7    4.35    1.62
  18   2  -7   21.44    2.83
  -7   3  -7   64.06    7.29
  -5   3  -7    5.95    2.87
  -3   3  -7   57.12    7.33
  -1   3  -7   -1.36    1.61
   1   3  -7   63.94    5.81
   3   3  -7    1.47    1.81
   5   3  -7    0.96    1.68
   7   3  -7    5.82    2.13
   9   3  -7    1.28    1.58
  11   3  -7   -0.18    1.07
  13   3  -7   87.33    5.80
  15   3  -7   28.04    3.33
  17   3  -7   75.39    5.42
  -4   4  -7   50.41    7.32
  -2   4  -7   54.81    7.55
   0   4  -7   40.38    6.67
   2   4  -7   42.29    4.85
   4   4  -7   13.66    3.00
   6   4  -7    5.62    2.16
   8   4  -7   18.73    3.08
  10   4  -7  114.77    6.17
  12   4  -7    8.79    3.39
   3   5  -7    0.58    3.59
  -3  -5  -6    4.02    2.98
  -1  -5  -6   58.60    3.94
   1  -5  -6   10.93    1.90
   3  -5  -6    4.43    1.71
   5  -5  -6   64.68    4.75
   7  -5  -6   35.99    5.17
   9  -5  -6   23.67    4.42
  -8  -4  -6   21.29    5.23
  -6  -4  -6    2.03    1.63
  -4  -4  -6    6.08    1.81
  -2  -4  -6   27.21    3.07
   0  -4  -6    7.02    1.38
   2  -4  -6   12.55    1.76
   4  -4  -6  146.64    5.98
   6  -4  -6   19.11    2.44
   8  -4  -6   21.07    2.65
  10  -4  -6    4.27    1.55
  14  -4  -6    1.62    2.34
 -11  -3  -6   21.71    3.21
  -9  -3  -6  106.30    5.73
  -7  -3  -6    0.38    1.31
  -5  -3  -6   26.50    3.07
  -3  -3  -6    3.10    1.34
  -1  -3  -6   94.70    4.56
   1  -3  -6   17.81    1.81
   3  -3  -6    7.25    1.53
   5  -3  -6  116.53    4.78
   7  -3  -6   72.82    4.00
   9  -3  -6   42.63    3.45
  11  -3  -6    4.91    1.48
  13  -3  -6   52.60    3.92
  15  -3  -6    6.23    1.73
  17  -3  -6    1.36    1.89
 -10  -2  -6   16.37    2.67
  -8  -2  -6   29.76    3.26
  -6  -2  -6   -0.06    1.07
  -4  -2  -6   17.19    2.24
  -2  -2  -6   55.59    3.11
   0  -2  -6   15.49    1.54
   2  -2  -6   22.94    2.24
   4  -2  -6  247.06    7.07
   6  -2  -6   31.34    2.63
   8  -2  -6   32.18    2.79
  10  -2  -6   10.16    1.64
  12  -2  -6   76.48    3.10
  14  -2  -6    7.96    1.68
  16  -2  -6   70.55    4.11
  18  -2  -6   25.58    2.98
  20  -2  -6  123.08    5.56
 -13  -1  -6   61.67    8.30
 -11  -1  -6   33.57    5.73
  -9  -1  -6  139.43    9.48
  -7  -1  -6    5.73    2.45
  -5  -1  -6   31.92    2.83
  -3  -1  -6    7.34    1.42
  -1  -1  -6  146.76    4.83
   1  -1  -6   22.87    2.08
   3  -1  -6    6.08    1.18
   5  -1  -6  182.84    5.52
   7  -1  -6  106.36    3.43
   9  -1  -6   61.05    2.60
  11  -1  -6    9.54    1.29
  13  -1  -6   78.51    3.05
  15  -1  -6    8.34    1.57
  17  -1  -6    0.85    0.99
  19  -1  -6   11.23    1.88
  21  -1  -6   60.74    4.53
 -10   0  -6   24.39    3.84
  -6   0  -6    0.53    0.89
  -4   0  -6   20.83    1.91
  -2   0  -6   70.54    2.67
   0   0  -6   14.38    1.32
   2   0  -6   26.60    1.77
   4   0  -6  297.30    6.38
   6   0  -6   41.86    2.11
   8   0  -6   36.85    2.22
  10   0  -6   15.75    1.53
  12   0  -6   87.76    3.15
  14   0  -6   10.52    1.41
  16   0  -6   77.70    3.92
  18   0  -6   32.99    3.13
  20   0  -6  127.78    5.71
  22   0  -6   -0.86    1.34
 -13   1  -6   66.61    7.22
 -11   1  -6   25.41    4.26
  -7   1  -6    4.94    2.29
  -5   1  -6   31.93    3.35
  -3   1  -6    7.57    1.85
  -1   1  -6  141.71    4.49
   1   1  -6   25.61    2.50
   3   1  -6    5.76    1.35
   5   1  -6  170.11    5.90
   7   1  -6  106.75    4.42
   9   1  -6   65.32    3.41
  11   1  -6   11.97    1.77
  13   1  -6   78.93    3.25
  15   1  -6    6.11    1.37
  17   1  -6   -0.22    0.93
  19   1  -6    8.60    2.66
  21   1  -6   57.05    6.22
 -12   2  -6   32.21    4.96
  -8   2  -6   38.84    5.27
  -6   2  -6   -0.57    1.57
  -4   2  -6   12.70    2.42
  -2   2  -6   57.92    4.81
   0   2  -6   11.46    2.39
   2   2  -6   21.52    3.00
   4   2  -6  251.45    6.54
   6   2  -6   33.89    2.65
   8   2  -6   32.26    2.54
  10   2  -6   11.70    1.61
  12   2  -6   76.69    3.22
  14   2  -6    6.79    1.63
  16   2  -6   74.13    4.44
  18   2  -6   29.80    3.17
  20   2  -6  110.59    7.78
  -9   3  -6  108.64    7.84
  -7   3  -6    4.68    2.41
  -5   3  -6   27.78    4.74
  -3   3  -6    1.91    2.15
  -1   3  -6  107.75    5.59
   1   3  -6   15.34    2.63
   3   3  -6    6.16    1.85
   5   3  -6  119.64    5.74
   7   3  -6   75.75    4.69
   9   3  -6   44.81    3.03
  11   3  -6    4.64    1.28
  13   3  -6   55.42    4.23
  15   3  -6    9.57    2.03
  17   3  -6    0.59    1.35
  19   3  -6   11.91    2.33
  -8   4  -6   26.42    5.38
  -6   4  -6    1.83    2.63
  -4   4  -6    6.27    3.22
  -2   4  -6   29.94    5.22
   0   4  -6    9.84    2.28
   2   4  -6   12.69    2.46
   4   4  -6  160.57    7.02
   6   4  -6   17.05    2.76
   8   4  -6   14.74    2.53
  10   4  -6    7.06    1.98
  12   4  -6   30.91    5.08
  14   4  -6    4.38    2.63
  16   4  -6   49.46    4.54
  -1   5  -6   57.44    7.89
   1   5  -6    9.41    3.76
   3   5  -6    1.51    1.91
   5   5  -6   69.06    5.77
   7   5  -6   40.20    4.41
   9   5  -6   24.14    3.53
  -5  -5  -5   33.52    3.85
  -3  -5  -5    5.03    1.99
  -1  -5  -5   92.97    5.47
   1  -5  -5   42.63    3.20
   3  -5  -5   10.87    1.79
   5  -5  -5   16.59    2.68
   7  -5  -5   46.12    4.16
   9  -5  -5    3.98    1.86
  11  -5  -5   49.21    6.97
 -10  -4  -5    6.29    2.24
  -8  -4  -5   27.30    3.44
  -6  -4  -5  120.71    8.96
  -4  -4  -5   -0.63    1.09
  -2  -4  -5   55.42    4.21
   0  -4  -5   13.71    2.17
   2  -4  -5    0.52    0.80
   4  -4  -5    1.32    0.89
   6  -4  -5    5.83    1.26
   8  -4  -5   15.81    1.87
  10  -4  -5   79.25    3.63
  16  -4  -5    1.38    2.31
 -13  -3  -5    8.80    2.41
 -11  -3  -5    0.47    1.47
  -9  -3  -5    2.52    1.49
  -7  -3  -5   29.92    3.22
  -5  -3  -5   57.58    4.21
  -3  -3  -5    6.59    1.56
  -1  -3  -5  165.55    5.98
   1  -3  -5   81.28    3.06
   3  -3  -5   26.02    2.03
   5  -3  -5   46.55    2.72
   7  -3  -5  107.51    3.65
   9  -3  -5    8.79    1.32
  11  -3  -5   77.39    3.93
  13  -3  -5   -0.70    0.97
  15  -3  -5  110.69    7.46
  17  -3  -5    8.11    2.58
  19  -3  -5    8.82    2.74
 -12  -2  -5   11.57    3.72
 -10  -2  -5   10.73    3.34
  -8  -2  -5   55.23    6.50
  -6  -2  -5  177.66    6.43
  -4  -2  -5    0.78    0.92
  -2  -2  -5   88.93    3.90
   0  -2  -5   27.91    2.34
   2  -2  -5    0.27    0.52
   4  -2  -5    4.88    0.95
   6  -2  -5   16.88    1.51
   8  -2  -5   31.80    2.08
  10  -2  -5  127.94    4.74
  12  -2  -5   47.21    2.66
  14  -2  -5   62.51    3.59
  16  -2  -5    0.61    1.00
  18  -2  -5   21.70    2.50
  20  -2  -5    3.41    2.18
 -15  -1  -5   44.62    7.42
 -13  -1  -5    7.58    3.24
 -11  -1  -5    1.12    2.12
  -9  -1  -5    2.33    2.18
  -7  -1  -5   47.30    5.77
  -5  -1  -5   86.44    6.02
  -3  -1  -5   13.64    1.69
  -1  -1  -5  255.18    6.79
   1  -1  -5  135.88    3.46
   3  -1  -5   37.61    1.70
   5  -1  -5   72.10    2.94
   7  -1  -5  156.09    4.87
   9  -1  -5   10.53    1.22
  11  -1  -5  135.02    3.88
  13  -1  -5    0.92    0.69
  15  -1  -5  137.74    5.18
  17  -1  -5    7.97    1.60
  19  -1  -5    2.14    1.21
  21  -1  -5    8.03    1.91
  23  -1  -5   12.85    3.20
 -14   0  -5   53.76    6.04
 -12   0  -5   26.40    4.17
 -10   0  -5   16.30    2.95
  -8   0  -5   79.29    5.41
  -2   0  -5  113.12    3.57
   0   0  -5   35.10    1.61
   2   0  -5    1.50    0.57
   4   0  -5    4.12    0.75
   6   0  -5   26.25    1.67
   8   0  -5   33.31    1.99
  10   0  -5  154.56    4.08
  12   0  -5   51.68    2.38
  14   0  -5   87.10    3.09
  16   0  -5    4.51    1.31
  18   0  -5   26.69    2.85
  20   0  -5   11.03    2.05
  22   0  -5   29.36    3.20
 -15   1  -5   43.01    5.83
 -13   1  -5    9.97    2.80
 -11   1  -5   -0.39    1.16
  -9   1  -5    5.99    2.12
  -7   1  -5   49.07    5.07
  -5   1  -5   90.17    4.77
  -3   1  -5   12.77    1.41
  -1   1  -5  253.40    6.10
   1   1  -5  134.50    4.74
   3   1  -5   37.71    2.73
   5   1  -5   74.25    3.32
   7   1  -5  166.92    3.99
   9   1  -5    9.88    1.21
  11   1  -5  132.84    3.87
  13   1  -5   -0.10    0.63
  15   1  -5  146.59    4.31
  17   1  -5   10.01    1.80
  19   1  -5    2.39    1.28
  21   1  -5   10.22    1.96
  23   1  -5   14.08    3.66
 -14   2  -5   46.77    6.07
 -12   2  -5   16.50    3.46
  -8   2  -5   66.39    6.19
  -6   2  -5  192.91    9.46
  -4   2  -5   -0.66    0.96
  -2   2  -5   93.85    4.57
   0   2  -5   27.88    2.88
   2   2  -5    2.11    0.82
   4   2  -5    4.85    1.05
   6   2  -5   17.22    1.70
   8   2  -5   31.74    2.23
  10   2  -5  138.59    4.07
  12   2  -5   36.51    2.99
  14   2  -5   62.98    3.74
  16   2  -5    3.17    1.26
  18   2  -5   20.78    3.71
  20   2  -5    5.62    2.26
 -13   3  -5    5.63    2.85
 -11   3  -5   -1.78    1.43
  -9   3  -5    3.87    2.29
  -7   3  -5   42.46    5.09
  -5   3  -5   56.27    5.90
  -3   3  -5    7.95    1.65
  -1   3  -5  168.27    6.32
   1   3  -5   82.12    4.21
   3   3  -5   29.25    2.92
   5   3  -5   39.21    3.31
   7   3  -5  108.34    3.71
   9   3  -5    8.17    1.33
  11   3  -5   98.13    3.50
  13   3  -5    2.16    1.15
  15   3  -5  103.37    4.96
  17   3  -5    4.85    1.60
  19   3  -5    3.38    2.28
 -10   4  -5    8.58    3.12
  -8   4  -5   46.40    6.20
  -6   4  -5  103.22    7.76
  -4   4  -5   -0.47    1.57
  -2   4  -5   57.37    6.41
   0   4  -5   11.97    2.10
   2   4  -5   -0.02    1.04
   4   4  -5    2.22    1.34
   6   4  -5    7.70    1.79
   8   4  -5   16.68    2.45
  10   4  -5   89.78    4.64
  12   4  -5   29.26    3.22
  14   4  -5   40.22    3.80
  16   4  -5    1.82    1.52
  -5   5  -5   34.20    5.70
  -3   5  -5    6.11    3.06
  -1   5  -5   82.07    8.31
   1   5  -5   49.78    4.56
   3   5  -5   13.42    2.58
   5   5  -5   22.52    3.02
   7   5  -5   55.11    4.68
   9   5  -5    2.56    2.27
  11   5  -5   39.44    5.83
   2  -6  -4   46.59    6.06
   4  -6  -4   10.41    3.32
  -7  -5  -4    5.09    2.13
  -5  -5  -4   10.95    2.41
  -3  -5  -4   -1.40    1.14
  -1  -5  -4   -0.05    1.22
   1  -5  -4   78.60    3.77
   3  -5  -4    0.27    1.32
   5  -5  -4   51.06    4.33
   7  -5  -4    1.23    1.31
   9  -5  -4   37.37    3.90
  11  -5  -4   25.67    5.36
  13  -5  -4    4.18    2.08
 -12  -4  -4   50.74    4.98
 -10  -4  -4   10.90    2.46
  -8  -4  -4   41.39    4.17
  -6  -4  -4   39.24    3.78
  -4  -4  -4   22.96    2.78
  -2  -4  -4   24.61    2.77
   0  -4  -4   22.54    2.54
   2  -4  -4   86.81    3.39
   4  -4  -4   26.56    2.20
   6  -4  -4  160.96    4.84
   8  -4  -4    2.11    0.94
  10  -4  -4   12.64    2.24
  12  -4  -4   -1.50    1.02
  14  -4  -4   21.67    3.15
  16  -4  -4   10.09    2.44
 -15  -3  -4   14.55    5.20
 -13  -3  -4   -2.38    2.29
  -9  -3  -4    1.65    1.14
  -7  -3  -4    4.62    1.45
  -5  -3  -4   25.38    2.71
  -3  -3  -4   -0.81    0.73
  -1  -3  -4    1.48    0.95
   1  -3  -4  155.31    5.43
   3  -3  -4    0.39    0.59
   5  -3  -4  100.87    3.33
   7  -3  -4    1.91    0.76
   9  -3  -4   66.15    2.90
  11  -3  -4   48.79    2.82
  13  -3  -4    7.82    1.33
  15  -3  -4   31.44    3.33
  17  -3  -4   96.47    5.48
  19  -3  -4   17.16    3.69
 -14  -2  -4   10.63    3.92
 -10  -2  -4   18.89    4.23
  -8  -2  -4   80.96    6.92
  -6  -2  -4   67.01    5.72
  -4  -2  -4   43.38    3.14
  -2  -2  -4   46.62    2.67
   0  -2  -4   44.29    2.60
   2  -2  -4  150.24    3.81
   4  -2  -4   43.38    1.92
   6  -2  -4  307.44    6.35
   8  -2  -4    1.25    0.66
  10  -2  -4   23.75    1.78
  12  -2  -4    3.76    0.92
  14  -2  -4   37.23    2.49
  16  -2  -4   18.24    1.86
  18  -2  -4   36.25    4.76
  20  -2  -4    5.06    2.25
 -11  -1  -4  135.90    7.16
  -9  -1  -4    6.39    1.84
  -7  -1  -4    9.81    1.96
  -5  -1  -4   43.56    5.05
  -3  -1  -4   13.49    2.47
  -1  -1  -4    1.13    0.61
   1  -1  -4  256.30    5.11
   3  -1  -4    0.63    0.39
   5  -1  -4  166.04    3.73
   7  -1  -4    3.69    0.68
   9  -1  -4  103.70    2.64
  11  -1  -4   80.64    2.42
  13  -1  -4    9.71    1.28
  15  -1  -4   53.68    2.82
  17  -1  -4  132.48    5.03
  19  -1  -4   24.75    2.55
  21  -1  -4   92.52    4.61
 -18   0  -4    2.34    2.44
 -16   0  -4   42.20    5.45
 -14   0  -4   26.51    3.95
 -12   0  -4  130.32    7.50
 -10   0  -4   23.22    3.39
  -8   0  -4   95.43    3.91
   0   0  -4   57.10    2.13
   2   0  -4  195.96    3.47
   4   0  -4   52.63    1.83
   6   0  -4  385.29    7.21
   8   0  -4    4.24    0.62
  10   0  -4   33.86    1.62
  12   0  -4    4.22    0.76
  14   0  -4   48.99    2.22
  16   0  -4   27.45    2.59
  18   0  -4   42.92    3.36
  20   0  -4    3.19    1.24
  22   0  -4   46.39    3.90
 -17   1  -4    0.89    1.88
 -15   1  -4   38.98    5.12
 -13   1  -4    1.18    1.57
 -11   1  -4  139.83    7.84
  -9   1  -4    5.98    1.84
  -7   1  -4   10.28    1.68
  -5   1  -4   44.35    2.09
  -3   1  -4   -0.06    0.54
  -1   1  -4    0.90    0.40
   1   1  -4  259.17    4.82
   3   1  -4    0.59    0.39
   5   1  -4  167.61    3.70
   7   1  -4    2.35    0.64
   9   1  -4  103.86    3.03
  11   1  -4   84.69    2.40
  13   1  -4   10.68    1.24
  15   1  -4   54.48    2.49
  17   1  -4  133.05    5.25
  19   1  -4   21.62    2.55
  21   1  -4   92.95    4.80
  23   1  -4   15.42    2.58
 -16   2  -4   37.14    5.58
 -14   2  -4   21.72    4.17
 -12   2  -4   88.99    6.64
 -10   2  -4   20.16    3.08
  -8   2  -4   82.70    5.37
  -6   2  -4   67.53    4.84
  -4   2  -4   43.55    3.05
  -2   2  -4   56.97    3.00
   0   2  -4   46.58    1.95
   2   2  -4  154.93    3.89
   4   2  -4   39.79    1.99
   6   2  -4  304.31    6.38
   8   2  -4    2.11    0.75
  10   2  -4   23.13    1.71
  12   2  -4    2.85    0.87
  14   2  -4   34.30    2.38
  16   2  -4   22.13    2.02
  18   2  -4   41.14    3.67
  20   2  -4    5.33    1.82
 -13   3  -4   -0.12    1.73
 -11   3  -4   93.29    7.16
  -9   3  -4    0.27    1.52
  -7   3  -4    6.07    2.16
  -5   3  -4   28.17    3.82
  -3   3  -4    0.44    0.90
  -1   3  -4    0.58    0.87
   1   3  -4  164.35    5.65
   3   3  -4    0.05    0.75
   5   3  -4  104.11    3.24
   7   3  -4    2.36    0.78
   9   3  -4   71.79    2.78
  11   3  -4   58.04    3.49
  13   3  -4    8.43    1.63
  15   3  -4   31.59    3.12
  17   3  -4   96.70    4.98
  19   3  -4   21.75    3.89
 -12   4  -4   60.97    7.06
 -10   4  -4   11.46    2.31
  -8   4  -4   58.36    6.21
  -6   4  -4   31.01    4.69
  -4   4  -4   18.00    3.64
  -2   4  -4   26.08    2.71
   0   4  -4   22.54    2.54
   2   4  -4   91.67    4.43
   4   4  -4   24.60    2.67
   6   4  -4  158.86    6.08
   8   4  -4    1.53    1.07
  10   4  -4   10.16    1.94
  12   4  -4    0.32    1.14
  14   4  -4   19.52    2.62
  16   4  -4   13.63    2.29
  18   4  -4   23.15    3.03
  -9   5  -4   -0.19    2.22
  -7   5  -4    1.03    2.15
  -5   5  -4   16.32    3.89
  -3   5  -4    0.73    1.87
  -1   5  -4    0.80    1.86
   1   5  -4   83.61    4.69
   3   5  -4    1.95    1.36
   5   5  -4   54.29    4.36
   7   5  -4    0.44    1.22
   9   5  -4   38.39    5.47
  11   5  -4   25.37    4.55
  13   5  -4    5.57    2.79
   2   6  -4   47.34    6.21
   4   6  -4   10.62    3.67
  -4  -6  -3   63.77    7.19
  -2  -6  -3    6.96    2.17
   0  -6  -3   69.86    5.60
   2  -6  -3    0.43    1.64
   4  -6  -3   34.96    3.83
   6  -6  -3    6.27    2.19
  -9  -5  -3   37.78    4.53
  -7  -5  -3   38.52    4.24
  -5  -5  -3  135.16    6.37
  -3  -5  -3   22.72    3.01
  -1  -5  -3    3.72    1.45
   1  -5  -3    1.57    1.34
   3  -5  -3    4.26    1.58
   5  -5  -3    3.78    1.50
   7  -5  -3    4.45    1.61
   9  -5  -3  110.47    8.90
  11  -5  -3   46.72    4.34
  13  -5  -3   -0.85    1.59
  15  -5  -3   13.07    3.70
 -14  -4  -3   13.37    3.02
 -12  -4  -3    2.99    1.91
 -10  -4  -3   19.55    2.93
  -8  -4  -3   18.83    2.66
  -6  -4  -3   -0.27    1.07
  -4  -4  -3  110.23    5.13
  -2  -4  -3   25.71    2.64
   0  -4  -3  174.23    6.18
   2  -4  -3   -0.02    0.72
   4  -4  -3  100.38    3.48
   6  -4  -3   21.95    1.88
   8  -4  -3   71.37    4.00
  10  -4  -3    3.33    1.43
  12  -4  -3  128.58    9.01
  14  -4  -3   60.98    4.87
  16  -4  -3   10.23    2.40
  18  -4  -3   13.94    3.01
 -13  -3  -3   -2.43    2.47
 -11  -3  -3   14.54    4.21
  -9  -3  -3   59.12    7.22
  -7  -3  -3   66.90    3.84
  -5  -3  -3  244.42    7.63
  -3  -3  -3   31.22    2.69
  -1  -3  -3   13.94    1.79
   1  -3  -3    2.75    0.98
   3  -3  -3   14.26    1.38
   5  -3  -3   13.89    1.37
   7  -3  -3    6.78    1.03
   9  -3  -3  227.80    5.52
  11  -3  -3   99.28    3.39
  13  -3  -3   -0.26    0.97
  15  -3  -3   26.67    3.14
  17  -3  -3   23.62    3.03
  19  -3  -3    2.69    1.71
  21  -3  -3    7.10    4.80
 -18  -2  -3    7.03    4.15
 -16  -2  -3    3.45    3.71
 -14  -2  -3   25.94    5.91
 -12  -2  -3    4.10    2.82
 -10  -2  -3   23.09    4.85
  -8  -2  -3   28.77    4.73
  -6  -2  -3   -1.64    1.25
  -4  -2  -3  194.76    9.33
  -2  -2  -3   51.58    2.56
   0  -2  -3  339.94    8.40
   2  -2  -3    0.91    0.63
   4  -2  -3  191.59    4.29
   6  -2  -3   44.85    1.82
   8  -2  -3  112.84    3.18
  10  -2  -3    1.81    0.67
  12  -2  -3  209.73    5.20
  14  -2  -3  106.30    3.61
  16  -2  -3   14.01    1.62
  18  -2  -3   26.06    3.29
  20  -2  -3   25.39    3.50
  22  -2  -3    4.33    2.44
 -15  -1  -3   66.08    6.15
 -13  -1  -3    0.15    1.27
 -11  -1  -3   32.92    3.65
  -9  -1  -3   99.08    5.12
  -7  -1  -3  106.63    5.21
  -5  -1  -3  413.66   12.24
  -3  -1  -3   51.76    3.82
  -1  -1  -3   28.51    1.61
   1  -1  -3    4.80    0.74
   3  -1  -3   27.87    1.21
   5  -1  -3   20.04    1.14
   7  -1  -3   11.93    1.02
   9  -1  -3  347.34    5.87
  11  -1  -3  141.41    3.14
  13  -1  -3    0.20    0.64
  15  -1  -3   35.90    2.43
  17  -1  -3   33.13    2.47
  19  -1  -3   12.85    1.73
  21  -1  -3    6.32    2.04
 -18   0  -3    7.52    2.95
 -16   0  -3   -0.97    1.28
 -14   0  -3   42.95    4.79
 -12   0  -3    4.74    1.73
 -10   0  -3   54.58    4.07
  -8   0  -3   38.52    2.33
   0   0  -3  471.11    9.17
   2   0  -3    2.29    0.34
   4   0  -3  268.02    4.99
   6   0  -3   65.48    1.77
   8   0  -3  142.62    3.03
  10   0  -3    3.50    0.65
  12   0  -3  257.02    4.92
  14   0  -3  119.62    3.84
  16   0  -3   21.77    1.97
  18   0  -3   32.73    2.51
  20   0  -3   29.72    2.57
  22   0  -3    3.57    1.48
 -19   1  -3    0.61    2.13
 -17   1  -3   68.32    6.99
 -15   1  -3   66.94    6.45
 -13   1  -3   -0.14    1.25
 -11   1  -3   32.00    4.01
  -9   1  -3   95.87    3.76
  -7   1  -3  114.54    4.09
  -5   1  -3  388.32    9.68
  -3   1  -3   52.64    1.77
  -1   1  -3   29.85    1.41
   1   1  -3    7.25    0.81
   3   1  -3   28.23    0.99
   5   1  -3   20.83    1.11
   7   1  -3   13.02    0.90
   9   1  -3  348.78    6.64
  11   1  -3  140.61    3.26
  13   1  -3    1.00    0.56
  15   1  -3   39.71    1.98
  17   1  -3   32.06    2.49
  19   1  -3    8.37    1.75
  21   1  -3    6.80    1.83
  23   1  -3    0.54    1.29
 -18   2  -3    2.59    2.32
 -16   2  -3   -1.71    1.41
 -14   2  -3   28.93    4.64
 -12   2  -3    6.47    2.18
 -10   2  -3   38.42    2.91
  -8   2  -3   28.83    3.28
  -6   2  -3    1.93    1.31
  -4   2  -3  196.62    5.54
  -2   2  -3   52.40    2.51
   0   2  -3  342.52    6.30
   2   2  -3    1.72    0.54
   4   2  -3  188.94    3.35
   6   2  -3   45.57    1.48
   8   2  -3  108.82    2.64
  10   2  -3    2.97    0.62
  12   2  -3  210.60    5.24
  14   2  -3  102.86    3.57
  16   2  -3   21.45    1.91
  18   2  -3   25.96    2.85
  20   2  -3   28.13    3.11
  22   2  -3    2.59    1.64
 -15   3  -3   45.50    6.03
 -13   3  -3   -0.90    1.50
 -11   3  -3   19.48    2.35
  -9   3  -3   58.17    4.64
  -7   3  -3   71.51    4.98
  -5   3  -3  248.61   10.32
  -3   3  -3   34.49    2.57
  -1   3  -3   15.00    1.73
   1   3  -3    4.55    1.09
   3   3  -3   12.55    1.20
   5   3  -3   11.87    1.22
   7   3  -3    8.65    1.10
   9   3  -3  224.88    5.37
  11   3  -3   91.79    4.11
  13   3  -3    0.78    0.87
  15   3  -3   25.85    2.60
  17   3  -3   20.08    2.41
  19   3  -3    6.43    2.50
 -14   4  -3   18.61    4.35
 -12   4  -3    4.01    2.29
 -10   4  -3   22.34    2.77
  -8   4  -3   20.48    3.64
  -6   4  -3   -0.46    1.38
  -4   4  -3  116.49    7.03
  -2   4  -3   28.02    2.64
   0   4  -3  171.92    6.05
   2   4  -3   -0.02    0.87
   4   4  -3   96.97    4.34
   6   4  -3   21.98    2.44
   8   4  -3   66.56    2.84
  10   4  -3    1.20    1.01
  12   4  -3  121.39    5.24
  14   4  -3   57.83    4.25
  16   4  -3    8.97    1.93
  18   4  -3   17.24    2.61
 -11   5  -3    9.12    2.37
  -9   5  -3   36.63    3.77
  -7   5  -3   33.47    5.11
  -5   5  -3  127.62    8.48
  -3   5  -3   15.07    3.43
  -1   5  -3    5.16    1.62
   1   5  -3    0.90    1.19
   3   5  -3    5.12    1.62
   5   5  -3    6.56    1.77
   7   5  -3    5.45    1.64
   9   5  -3  103.14    7.58
  11   5  -3   44.95    5.81
  13   5  -3   -0.55    1.85
  15   5  -3    8.46    3.00
   0   6  -3   86.88    8.59
   2   6  -3   -2.00    1.34
   4   6  -3   48.44    4.53
   6   6  -3   11.78    2.57
  -4  -6  -2    3.42    3.13
  -2  -6  -2   34.76    6.24
   0  -6  -2    5.47    3.18
   2  -6  -2    8.36    3.65
   4  -6  -2    3.90    2.74
   6  -6  -2   66.77    8.62
 -11  -5  -2   49.96    5.27
  -9  -5  -2   42.56    4.57
  -7  -5  -2   10.20    2.26
  -5  -5  -2    1.30    1.37
  -3  -5  -2    1.36    1.24
  -1  -5  -2  111.05    5.20
   1  -5  -2   30.63    3.22
   3  -5  -2  189.38    7.09
   5  -5  -2    1.06    1.19
   7  -5  -2    0.60    1.20
   9  -5  -2    2.02    1.36
  11  -5  -2    6.55    2.02
  13  -5  -2   -0.93    1.56
  15  -5  -2   66.03    7.12
 -14  -4  -2   52.86    9.12
 -12  -4  -2   49.20    7.73
 -10  -4  -2   50.00    4.50
  -8  -4  -2   27.93    3.16
  -6  -4  -2   -0.04    0.96
  -4  -4  -2    4.85    1.42
  -2  -4  -2   93.41    4.26
   0  -4  -2   14.24    1.95
   2  -4  -2   24.96    2.49
   4  -4  -2   11.85    1.33
   6  -4  -2  136.26    5.43
   8  -4  -2   21.02    2.54
  10  -4  -2    0.55    1.07
  12  -4  -2   11.02    2.12
  14  -4  -2   33.66    3.67
  16  -4  -2   22.16    2.95
  18  -4  -2   59.73    5.32
 -13  -3  -2   16.67    4.97
 -11  -3  -2   76.57    8.88
  -9  -3  -2   71.75    7.79
  -7  -3  -2   19.59    3.85
  -5  -3  -2    1.22    0.89
  -3  -3  -2    0.48    0.74
  -1  -3  -2  221.11    6.52
   1  -3  -2   66.51    3.03
   3  -3  -2  394.99    9.80
   5  -3  -2    3.57    0.74
   7  -3  -2    0.27    0.55
   9  -3  -2    0.81    0.58
  11  -3  -2   15.54    2.13
  13  -3  -2    0.26    0.99
  15  -3  -2   92.79    5.17
  17  -3  -2   12.79    2.40
  19  -3  -2   22.89    3.32
 -16  -2  -2    0.96    2.80
 -14  -2  -2   70.77    9.78
 -12  -2  -2   88.97   10.29
 -10  -2  -2   73.54    8.52
  -8  -2  -2   49.70    2.88
  -6  -2  -2   -0.20    0.59
  -4  -2  -2   13.56    1.10
  -2  -2  -2  177.73    5.12
   0  -2  -2   22.50    1.72
   2  -2  -2   38.19    1.91
   4  -2  -2   21.74    1.34
   6  -2  -2  285.12    5.65
   8  -2  -2   41.83    1.73
  10  -2  -2    0.81    0.55
  12  -2  -2   25.82    1.80
  14  -2  -2   59.40    2.55
  16  -2  -2   38.74    3.69
  18  -2  -2  100.81    5.76
  20  -2  -2   69.62    5.57
  22  -2  -2    0.34    2.91
 -19  -1  -2   -1.15    1.85
 -17  -1  -2   79.06    7.22
 -15  -1  -2   80.27    5.87
 -13  -1  -2   19.50    2.99
 -11  -1  -2  139.07    6.63
  -9  -1  -2  110.82    5.41
  -7  -1  -2   54.02    3.11
  -5  -1  -2    4.75    1.05
  -3  -1  -2    0.52    0.41
  -1  -1  -2  389.45    8.58
   1  -1  -2  132.68    3.47
   3  -1  -2  663.26   10.67
   5  -1  -2    7.07    0.72
   7  -1  -2   -0.20    0.33
   9  -1  -2   -0.26    0.32
  11  -1  -2   19.71    1.54
  13  -1  -2    0.75    0.60
  15  -1  -2  140.81    4.32
  17  -1  -2   18.30    1.83
  19  -1  -2   35.98    3.77
  21  -1  -2    1.03    1.52
  23  -1  -2   28.29    6.12
 -20   0  -2    4.95    2.79
 -18   0  -2   32.78    4.81
 -16   0  -2   -0.59    1.28
 -14   0  -2  105.72    6.57
 -12   0  -2  132.44    6.87
 -10   0  -2   97.72    5.53
  -8   0  -2   73.42    2.66
  -6   0  -2    0.70    0.76
   0   0  -2   31.26    1.15
   2   0  -2   51.86    1.60
   4   0  -2   29.71    1.02
   6   0  -2  394.94    6.14
   8   0  -2   51.36    1.56
  10   0  -2    0.89    0.42
  12   0  -2   28.78    1.41
  14   0  -2   72.22    2.97
  16   0  -2   45.53    2.80
  18   0  -2  121.54    4.26
  20   0  -2   88.19    4.11
  22   0  -2    0.49    1.04
 -19   1  -2   -0.79    1.64
 -17   1  -2   90.75    6.80
 -15   1  -2   88.12    6.18
 -13   1  -2   15.45    2.95
 -11   1  -2  138.98    7.09
  -9   1  -2  109.12    3.73
  -7   1  -2   45.95    2.00
  -5   1  -2    4.13    0.71
  -3   1  -2    0.22    0.28
  -1   1  -2  382.78    6.57
   1   1  -2  132.44    2.76
   3   1  -2  642.42    9.03
   5   1  -2    7.21    0.59
   7   1  -2    0.25    0.28
   9   1  -2    0.05    0.29
  11   1  -2   19.54    1.30
  13   1  -2   -0.04    0.50
  15   1  -2  152.63    4.65
  17   1  -2   20.67    2.10
  19   1  -2   32.13    2.68
  21   1  -2    0.42    1.04
  23   1  -2   25.45    3.40
 -18   2  -2   35.43    5.29
 -16   2  -2    0.92    1.59
 -14   2  -2   92.15    6.48
 -12   2  -2   99.59    6.53
 -10   2  -2   78.86    3.41
  -8   2  -2   45.67    3.41
  -6   2  -2   -0.41    0.47
  -4   2  -2   11.35    1.17
  -2   2  -2  185.24    4.84
   0   2  -2   21.08    1.00
   2   2  -2   41.84    1.46
   4   2  -2   22.46    1.00
   6   2  -2  280.74    4.71
   8   2  -2   41.01    1.49
  10   2  -2    0.39    0.42
  12   2  -2   24.67    1.82
  14   2  -2   59.13    2.66
  16   2  -2   39.62    2.50
  18   2  -2   97.65    4.72
  20   2  -2   69.02    4.81
  22   2  -2   -1.59    1.26
 -17   3  -2   54.80    6.51
 -15   3  -2   64.85    6.90
 -13   3  -2   14.27    3.18
 -11   3  -2   87.52    4.03
  -9   3  -2   76.98    3.58
  -7   3  -2   27.94    3.41
  -5   3  -2    1.58    0.78
  -3   3  -2   -0.08    0.66
  -1   3  -2  214.71    6.22
   1   3  -2   67.11    2.13
   3   3  -2  394.82    7.50
   5   3  -2    2.74    0.72
   7   3  -2    0.10    0.46
   9   3  -2    0.34    0.48
  11   3  -2   13.66    1.47
  13   3  -2   -0.21    0.71
  15   3  -2  101.05    3.78
  17   3  -2   13.51    1.73
  19   3  -2   25.25    4.88
  21   3  -2    0.89    2.80
 -14   4  -2   77.86    7.71
 -12   4  -2   64.64    4.54
 -10   4  -2   46.71    3.70
  -8   4  -2   21.61    3.56
  -6   4  -2   -0.11    1.12
  -4   4  -2    4.95    2.01
  -2   4  -2   88.05    3.93
   0   4  -2   11.88    1.73
   2   4  -2   26.50    2.47
   4   4  -2   14.26    1.87
   6   4  -2  148.94    4.14
   8   4  -2   24.49    1.92
  10   4  -2   -0.09    0.82
  12   4  -2   11.81    1.91
  14   4  -2   37.83    3.42
  16   4  -2   27.94    3.06
  18   4  -2   72.25    6.92
 -11   5  -2   52.78    4.42
  -9   5  -2   45.04    3.90
  -7   5  -2   19.11    3.83
  -5   5  -2    0.15    1.70
  -3   5  -2    0.81    1.49
  -1   5  -2  108.35    4.94
   1   5  -2   33.01    3.14
   3   5  -2  180.67    6.67
   5   5  -2   -0.61    0.93
   7   5  -2    0.31    1.08
   9   5  -2    0.44    1.64
  11   5  -2    7.90    1.94
  13   5  -2   -0.62    1.26
  15   5  -2   61.75    6.86
  -4   6  -2    4.07    2.52
  -2   6  -2   49.19    6.44
   0   6  -2    5.94    2.86
   2   6  -2   13.48    2.51
   4   6  -2    5.70    1.95
   6   6  -2   71.68    5.34
  -6  -6  -1   59.85    8.56
  -4  -6  -1    1.81    2.66
  -2  -6  -1    0.51    2.70
   0  -6  -1    2.49    2.69
   2  -6  -1   -0.41    1.99
   4  -6  -1    0.09    2.21
   6  -6  -1   66.67    8.65
 -13  -5  -1   -0.63    2.93
 -11  -5  -1   27.75    3.81
  -9  -5  -1    2.35    1.85
  -7  -5  -1   49.17    4.34
  -5  -5  -1    1.57    1.31
  -3  -5  -1  143.46    5.99
  -1  -5  -1    1.66    1.14
   1  -5  -1    2.05    1.22
   3  -5  -1   -0.01    1.03
   5  -5  -1   62.24    4.04
   7  -5  -1   -0.47    1.19
   9  -5  -1   84.15    5.10
  11  -5  -1   97.87   10.08
  13  -5  -1   18.20    4.93
 -16  -4  -1    5.72    4.61
 -14  -4  -1    3.80    3.82
 -12  -4  -1   13.36    4.16
 -10  -4  -1   42.99    4.04
  -8  -4  -1  118.21    5.39
  -6  -4  -1  162.75    6.14
  -4  -4  -1    1.28    1.05
  -2  -4  -1    5.18    1.26
   0  -4  -1    0.01    0.73
   2  -4  -1    1.06    0.84
   4  -4  -1    0.59    0.86
   6  -4  -1  193.34    6.51
   8  -4  -1    1.26    1.03
  10  -4  -1   46.17    3.77
  12  -4  -1   54.32    4.27
  14  -4  -1    5.62    1.70
  16  -4  -1    7.71    2.22
  18  -4  -1   -0.42    2.04
 -17  -3  -1   -2.35    3.93
 -15  -3  -1    3.25    4.12
 -13  -3  -1   -0.54    2.41
 -11  -3  -1   43.40    6.53
  -9  -3  -1    6.55    2.42
  -7  -3  -1   84.84    6.22
  -5  -3  -1    9.62    1.51
  -3  -3  -1  280.41    7.81
  -1  -3  -1    1.20    0.75
   1  -3  -1    1.58    0.43
   3  -3  -1    3.38    0.98
   5  -3  -1  151.64    3.65
   7  -3  -1    4.88    1.16
   9  -3  -1  173.06    5.92
  11  -3  -1  177.20    6.34
  13  -3  -1   32.74    3.17
  15  -3  -1    0.36    1.18
  17  -3  -1   -0.68    1.32
  19  -3  -1   22.06    3.33
 -16  -2  -1    1.49    3.81
 -14  -2  -1    0.66    1.35
 -12  -2  -1   38.49    3.48
 -10  -2  -1   55.71    3.31
  -8  -2  -1  215.42    6.39
  -6  -2  -1  315.32    7.73
  -4  -2  -1    3.61    0.63
  -2  -2  -1    7.00    0.54
   0  -2  -1    0.61    0.25
   2  -2  -1    0.20    0.47
   4  -2  -1    0.50    0.35
   6  -2  -1  368.56    6.77
   8  -2  -1    0.69    0.42
  10  -2  -1   82.44    2.54
  12  -2  -1   99.76    4.40
  14  -2  -1    6.77    1.55
  16  -2  -1   10.27    1.95
  18  -2  -1   -0.35    1.21
  20  -2  -1    3.78    1.80
 -21  -1  -1    0.89    2.17
 -19  -1  -1    5.91    2.64
 -17  -1  -1    4.42    2.17
 -15  -1  -1    4.70    1.93
 -13  -1  -1    0.14    1.10
 -11  -1  -1   86.16    4.77
  -9  -1  -1    7.28    1.59
  -7  -1  -1  126.28    5.01
  -5  -1  -1   19.89    1.80
  -3  -1  -1  544.43   11.27
  -1  -1  -1    4.84    1.09
   1  -1  -1    4.58    0.58
   3  -1  -1    8.63    0.65
   5  -1  -1  269.33    4.91
   7  -1  -1   13.70    0.69
   9  -1  -1  268.35    5.54
  11  -1  -1  267.62    5.83
  13  -1  -1   47.85    2.34
  15  -1  -1    1.57    0.82
  17  -1  -1    0.26    0.75
  19  -1  -1   38.58    3.95
  21  -1  -1   92.11    5.83
 -20   0  -1  112.10    8.00
 -18   0  -1   56.28    6.21
 -16   0  -1    3.92    1.79
 -14   0  -1    2.89    1.33
 -12   0  -1   43.27    4.23
 -10   0  -1   69.75    4.27
  -8   0  -1  303.04    6.78
  -6   0  -1  466.71    9.36
  -4   0  -1    5.21    0.97
   2   0  -1    0.85    0.22
   4   0  -1    0.43    0.29
   6   0  -1  498.17    7.37
   8   0  -1    0.71    0.33
  10   0  -1  105.35    2.43
  12   0  -1  129.75    3.79
  14   0  -1    9.69    1.33
  16   0  -1   16.89    1.76
  18   0  -1   -0.40    0.68
  20   0  -1    1.46    1.03
  22   0  -1   34.79    4.09
 -21   1  -1   -0.55    2.07
 -19   1  -1    5.06    2.37
 -17   1  -1    8.01    2.49
 -15   1  -1    0.98    1.40
 -13   1  -1    0.27    0.97
 -11   1  -1   78.15    4.92
  -9   1  -1   10.53    1.13
  -7   1  -1  116.60    3.47
  -5   1  -1   17.29    0.85
  -3   1  -1  561.06   10.83
  -1   1  -1    4.77    0.62
   1   1  -1    2.76    0.37
   3   1  -1    8.98    0.55
   5   1  -1  263.50    4.10
   7   1  -1   12.46    0.62
   9   1  -1  269.90    4.92
  11   1  -1  268.48    5.13
  13   1  -1   45.97    2.03
  15   1  -1    2.17    0.90
  17   1  -1    0.36    0.75
  19   1  -1   28.65    2.58
  21   1  -1   99.75    4.49
  23   1  -1   19.70    3.74
 -20   2  -1   73.29    7.62
 -18   2  -1   46.27    5.84
 -16   2  -1    3.83    1.85
 -14   2  -1    1.92    1.44
 -12   2  -1   34.62    4.18
 -10   2  -1   54.97    2.65
  -8   2  -1  212.89    5.97
  -6   2  -1  313.42    7.00
  -4   2  -1    4.07    0.70
  -2   2  -1    7.41    0.49
   0   2  -1    0.35    0.29
   2   2  -1    0.11    0.33
   4   2  -1    0.04    0.29
   6   2  -1  365.74    5.81
   8   2  -1    1.41    0.43
  10   2  -1   77.03    2.60
  12   2  -1  107.16    3.26
  14   2  -1    8.39    1.20
  16   2  -1    5.68    1.45
  18   2  -1   -0.15    0.95
  20   2  -1    1.19    1.14
 -17   3  -1    1.93    1.98
 -15   3  -1    5.67    2.27
 -13   3  -1   -0.43    1.27
 -11   3  -1   53.72    3.22
  -9   3  -1    3.69    1.05
  -7   3  -1   76.05    4.72
  -5   3  -1    7.57    1.12
  -3   3  -1  288.26    7.35
  -1   3  -1    2.83    0.56
   1   3  -1    0.90    0.51
   3   3  -1    2.08    0.59
   5   3  -1  146.84    3.19
   7   3  -1    5.87    0.78
   9   3  -1  170.95    3.74
  11   3  -1  174.92    4.83
  13   3  -1   31.33    2.31
  15   3  -1    0.15    0.78
  17   3  -1    0.15    1.08
  19   3  -1   22.59    2.96
 -16   4  -1    4.06    2.57
 -14   4  -1    1.08    1.66
 -12   4  -1   18.52    2.46
 -10   4  -1   33.48    3.03
  -8   4  -1  114.65    4.70
  -6   4  -1  157.03    8.13
  -4   4  -1    2.80    1.03
  -2   4  -1    2.64    0.98
   0   4  -1    1.08    0.80
   2   4  -1   -0.58    0.71
   4   4  -1    0.28    0.61
   6   4  -1  184.73    4.81
   8   4  -1    1.32    0.66
  10   4  -1   48.83    2.94
  12   4  -1   57.54    3.35
  14   4  -1    2.83    1.17
  16   4  -1    5.93    1.45
 -11   5  -1   36.38    5.18
  -9   5  -1    1.93    1.96
  -7   5  -1   42.99    5.37
  -5   5  -1    4.69    2.15
  -3   5  -1  146.22    8.59
  -1   5  -1    0.94    1.06
   1   5  -1    2.69    1.24
   3   5  -1    0.76    1.10
   5   5  -1   76.46    4.12
   7   5  -1    1.57    1.14
   9   5  -1   89.56    4.45
  11   5  -1   88.20    4.69
  13   5  -1   14.98    2.49
  -6   6  -1   82.93    8.24
  -4   6  -1    1.10    2.03
  -2   6  -1    2.72    2.34
   0   6  -1   -0.39    1.34
   2   6  -1   -0.17    1.35
   4   6  -1    2.86    1.65
   6   6  -1   82.48    5.02
  -6  -6   0   -1.75    2.39
  -4  -6   0    5.82    3.33
  -2  -6   0    0.91    2.49
   0  -6   0  208.09   13.75
   2  -6   0    3.59    2.78
   4  -6   0    8.02    4.04
   6  -6   0    0.46    3.02
 -13  -5   0   16.67    4.87
 -11  -5   0    4.59    3.41
  -9  -5   0   23.23    4.67
  -7  -5   0   26.29    4.84
  -5  -5   0   65.28    7.46
  -3  -5   0   32.98    5.17
  -1  -5   0    6.78    2.45
   1  -5   0    4.37    2.45
   3  -5   0   32.15    5.28
   5  -5   0   78.56    8.41
   7  -5   0   27.90    5.21
   9  -5   0   22.26    4.74
  11  -5   0    7.46    3.59
  13  -5   0   13.94    4.39
 -16  -4   0   44.70    8.10
 -14  -4   0   77.12    9.26
 -12  -4   0   31.41    5.60
 -10  -4   0    3.12    2.25
  -8  -4   0    8.83    1.79
  -6  -4   0    0.55    0.97
  -4  -4   0   15.08    1.96
  -2  -4   0   -0.67    0.67
   0  -4   0  540.35   12.96
   2  -4   0    0.48    0.86
   4  -4   0   19.80    2.12
   6  -4   0    3.57    0.87
   8  -4   0    7.71    1.55
  10  -4   0    6.40    1.61
  12  -4   0   39.27    3.57
  14  -4   0   86.08    5.16
  16  -4   0   37.40    7.20
 -19  -3   0    2.45    4.52
 -17  -3   0   63.32    9.84
 -15  -3   0   63.47    8.78
 -13  -3   0   22.69    4.83
 -11  -3   0   16.29    3.74
  -9  -3   0   35.92    4.86
  -7  -3   0   64.22    2.94
  -5  -3   0  159.04    3.87
  -3  -3   0   62.02    2.00
  -1  -3   0   14.18    1.07
   1  -3   0   16.25    1.14
   3  -3   0   60.77    1.63
   5  -3   0  158.05    3.94
   7  -3   0   62.99    3.10
   9  -3   0   50.89    2.86
  11  -3   0   18.40    2.19
  13  -3   0   24.40    2.80
  15  -3   0   79.14    4.81
  17  -3   0   71.11    5.44
  19  -3   0    0.68    1.70
 -20  -2   0   13.12    5.24
 -18  -2   0    2.25    1.51
 -16  -2   0   74.02    4.96
 -14  -2   0  142.81    6.15
 -12  -2   0   71.95    4.02
 -10  -2   0    9.57    1.56
  -8  -2   0   16.41    1.73
  -6  -2   0    6.13    0.96
  -4  -2   0   28.12    1.57
  -2  -2   0    0.25    0.31
   0  -2   0  960.92   15.51
   2  -2   0   -0.07    0.27
   4  -2   0   30.58    0.96
   6  -2   0    5.98    0.53
   8  -2   0   19.45    1.05
  10  -2   0   13.09    1.75
  12  -2   0   68.24    3.83
  14  -2   0  133.45    5.76
  16  -2   0   69.98    4.52
  18  -2   0   -0.73    1.13
  20  -2   0   28.00    3.58
 -21  -1   0   37.61    5.40
 -19  -1   0   -0.24    1.63
 -17  -1   0  119.20    7.03
 -15  -1   0  137.45    7.34
 -13  -1   0   30.30    3.59
 -11  -1   0   25.47    3.01
  -9  -1   0   83.83    4.26
  -7  -1   0  117.27    4.76
  -5  -1   0  308.99    7.16
  -3  -1   0  121.32    3.15
  -1  -1   0   18.04    0.84
   1  -1   0   19.80    0.71
   3  -1   0  125.90    2.06
   5  -1   0  304.81    5.39
   7  -1   0  112.56    2.71
   9  -1   0   80.69    2.37
  11  -1   0   32.63    1.77
  13  -1   0   35.93    2.07
  15  -1   0  142.24    4.21
  17  -1   0  108.45    5.41
  19  -1   0    1.22    1.41
  21  -1   0   33.87    3.97
 -22   0   0    1.56    2.24
 -20   0   0   29.76    4.81
 -18   0   0   -0.40    1.10
 -16   0   0  103.69    6.41
 -14   0   0  167.94    8.22
 -12   0   0   84.67    5.02
 -10   0   0   14.60    2.20
  -8   0   0   19.42    2.25
  -6   0   0    5.80    1.10
  -4   0   0   40.63    2.07
  -2   0   0    0.32    0.26
   2   0   0    0.57    0.19
   4   0   0   39.79    0.99
   6   0   0    8.84    0.59
   8   0   0   22.71    0.98
  10   0   0   17.25    0.97
  12   0   0   88.06    3.03
  14   0   0  185.72    4.97
  16   0   0   95.56    3.70
  18   0   0    0.27    0.80
  20   0   0   34.50    3.88
  22   0   0    0.41    1.53
 -21   1   0   25.64    4.74
 -19   1   0    0.41    1.79
 -17   1   0  101.56    6.82
 -15   1   0  133.72    7.42
 -13   1   0   34.37    3.91
 -11   1   0   29.92    1.76
  -9   1   0   79.76    2.67
  -7   1   0  109.32    3.21
  -5   1   0  305.99    6.60
  -3   1   0  121.45    2.85
  -1   1   0   19.69    0.67
   1   1   0   19.64    0.64
   3   1   0  120.36    2.11
   5   1   0  302.01    4.24
   7   1   0  114.30    2.06
   9   1   0   74.45    2.18
  11   1   0   30.15    1.57
  13   1   0   39.73    1.90
  15   1   0  133.57    4.57
  17   1   0  107.27    4.24
  19   1   0    2.86    1.12
  21   1   0   28.58    2.82
 -20   2   0   26.89    4.48
 -18   2   0    0.06    1.58
 -16   2   0   77.01    5.74
 -14   2   0  130.18    7.21
 -12   2   0   70.02    3.08
 -10   2   0   11.91    1.45
  -8   2   0   15.58    1.53
  -6   2   0    6.60    0.65
  -4   2   0   27.42    1.45
  -2   2   0   -0.04    0.27
   0   2   0  984.56   15.24
   2   2   0    0.50    0.34
   4   2   0   27.80    1.08
   6   2   0    5.15    0.60
   8   2   0   17.76    1.07
  10   2   0   11.59    1.18
  12   2   0   69.27    2.60
  14   2   0  130.61    3.95
  16   2   0   69.03    3.96
  18   2   0   -0.17    0.95
  20   2   0   21.51    2.70
 -19   3   0    1.52    2.03
 -17   3   0   57.86    6.42
 -15   3   0   88.35    6.19
 -13   3   0   29.37    3.82
 -11   3   0   19.74    2.09
  -9   3   0   43.81    2.68
  -7   3   0   62.70    2.84
  -5   3   0  165.89    4.72
  -3   3   0   58.85    1.86
  -1   3   0   14.21    1.08
   1   3   0   11.85    1.07
   3   3   0   59.82    2.12
   5   3   0  164.33    3.44
   7   3   0   60.88    2.00
   9   3   0   49.07    2.47
  11   3   0   17.86    1.70
  13   3   0   25.91    2.11
  15   3   0   92.60    3.61
  17   3   0   71.26    4.88
  19   3   0    1.01    1.31
 -16   4   0   46.70    5.73
 -14   4   0   92.84    6.40
 -12   4   0   43.54    3.37
 -10   4   0    7.04    1.48
  -8   4   0    8.92    1.51
  -6   4   0    2.61    1.01
  -4   4   0   15.83    1.82
  -2   4   0    0.16    0.75
   0   4   0  542.31   12.94
   2   4   0    0.62    0.62
   4   4   0   18.59    1.61
   6   4   0    1.60    0.67
   8   4   0    8.86    1.09
  10   4   0    4.10    1.03
  12   4   0   35.62    2.68
  14   4   0   89.26    4.01
  16   4   0   46.39    3.32
 -13   5   0   26.96    4.32
 -11   5   0    8.02    2.79
  -9   5   0   21.93    3.92
  -7   5   0   25.84    4.16
  -5   5   0   76.14    6.03
  -3   5   0   28.75    2.85
  -1   5   0    6.55    1.56
   1   5   0    6.90    1.60
   3   5   0   30.55    2.97
   5   5   0   65.82    3.97
   7   5   0   26.73    2.22
   9   5   0   16.98    2.33
  11   5   0   11.78    2.18
  13   5   0   13.24    3.43
  -6   6   0    0.17    2.16
  -4   6   0    8.45    3.10
  -2   6   0   -0.59    1.71
   0   6   0  243.02    8.61
   2   6   0   -0.71    1.30
   4   6   0    8.31    2.10
   6   6   0    0.80    1.95
  -8  -6   1    0.68    2.77
  -6  -6   1   59.51    8.19
  -4  -6   1    2.64    2.66
  -2  -6   1    0.94    2.68
   0  -6   1    2.01    2.69
   2  -6   1    5.53    3.13
   4  -6   1   -1.08    2.71
   6  -6   1   74.13    9.38
 -15  -5   1   -1.17    2.92
 -13  -5   1   21.04    5.22
 -11  -5   1   78.25    8.60
  -9  -5   1   73.63    8.37
  -7  -5   1   -0.20    1.63
  -5  -5   1   72.64    7.66
  -3  -5   1    2.15    1.93
  -1  -5   1    0.88    1.71
   1  -5   1    1.26    1.89
   3  -5   1  167.51   10.38
   5  -5   1    3.76    2.50
   7  -5   1   41.31    6.19
   9  -5   1   -0.81    1.99
  11  -5   1   26.82    5.70
 -18  -4   1   -1.79    3.32
 -16  -4   1    2.42    3.02
 -14  -4   1    1.80    2.57
 -12  -4   1   51.45    6.71
 -10  -4   1   44.37    5.77
  -8  -4   1    1.85    1.12
  -6  -4   1  191.16    6.14
  -4  -4   1    0.74    0.76
  -2  -4   1    1.10    0.76
   0  -4   1   -0.37    1.18
   2  -4   1    4.28    1.16
   4  -4   1    2.05    0.98
   6  -4   1  149.11    5.48
   8  -4   1  125.81    5.15
  10  -4   1   35.27    5.61
  12  -4   1   23.54    5.07
  14  -4   1    3.18    2.94
  16  -4   1    2.50    3.09
 -19  -3   1   32.00    7.04
 -17  -3   1   -0.23    2.74
 -15  -3   1    0.65    2.39
 -13  -3   1   28.71    2.99
 -11  -3   1  184.41    6.31
  -9  -3   1  179.24    5.78
  -7  -3   1    7.54    1.32
  -5  -3   1  148.38    3.71
  -3  -3   1    3.27    0.64
  -1  -3   1    0.62    0.45
   1  -3   1    2.07    0.56
   3  -3   1  303.57    5.95
   5  -3   1    7.38    0.96
   7  -3   1   77.53    2.71
   9  -3   1    5.15    1.00
  11  -3   1   52.26    3.33
  13  -3   1    0.63    1.13
  15  -3   1    2.55    1.45
  17  -3   1    1.67    1.68
 -22  -2   1   16.92    5.32
 -20  -2   1    2.42    2.07
 -18  -2   1   -0.57    1.28
 -16  -2   1   11.30    2.26
 -14  -2   1    6.87    1.65
 -12  -2   1  101.92    4.51
 -10  -2   1   82.60    3.62
  -8  -2   1    0.83    0.69
  -6  -2   1  368.64    6.71
  -4  -2   1   -0.07    0.27
  -2  -2   1    0.58    0.33
   0  -2   1    0.54    0.32
   2  -2   1    6.86    0.66
   4  -2   1    4.63    0.66
   6  -2   1  310.61    6.28
   8  -2   1  221.99    5.13
  10  -2   1   59.72    3.27
  12  -2   1   36.13    3.20
  14  -2   1   -0.57    0.89
  16  -2   1    3.48    1.62
  18  -2   1   51.71    4.67
  20  -2   1   90.84    5.81
 -21  -1   1   90.42    7.09
 -19  -1   1   43.73    5.27
 -17  -1   1   -0.41    1.14
 -15  -1   1    2.76    1.48
 -13  -1   1   43.81    4.26
 -11  -1   1  273.46    9.99
  -9  -1   1  268.05    9.40
  -7  -1   1   11.48    1.61
  -5  -1   1  275.70    6.37
  -3  -1   1    7.16    0.58
  -1  -1   1    2.35    0.26
   1  -1   1    4.23    0.38
   3  -1   1  535.95    9.06
   5  -1   1   19.03    0.78
   7  -1   1  118.27    2.49
   9  -1   1   11.41    1.04
  11  -1   1   75.37    2.72
  13  -1   1   -0.28    0.87
  15  -1   1    0.80    1.07
  17  -1   1    2.03    1.39
  19  -1   1    7.18    2.08
  21  -1   1    1.44    1.79
 -22   0   1   31.40    5.25
 -20   0   1    0.38    1.55
 -18   0   1    0.09    1.30
 -16   0   1   13.13    2.77
 -14   0   1   10.38    2.27
 -12   0   1  137.88    6.46
 -10   0   1  105.63    5.11
  -8   0   1    0.47    0.47
  -6   0   1  492.62   10.04
  -4   0   1    1.03    0.46
  -2   0   1    0.75    0.30
   0   0   1    1.46    0.16
   2   0   1    7.65    0.36
   4   0   1    5.80    0.39
   6   0   1  450.05    8.16
   8   0   1  314.53    5.23
  10   0   1   77.68    2.11
  12   0   1   47.46    2.37
  14   0   1    2.75    0.83
  16   0   1    3.56    1.04
  18   0   1   57.64    4.90
  20   0   1  115.64    6.24
 -21   1   1  110.90    7.87
 -19   1   1   40.84    5.18
 -17   1   1   -0.22    1.27
 -15   1   1    0.19    1.18
 -13   1   1   42.85    4.30
 -11   1   1  268.78    6.56
  -9   1   1  280.23    6.47
  -7   1   1   13.54    1.14
  -5   1   1  271.29    4.78
  -3   1   1    8.73    0.61
  -1   1   1    2.25    0.27
   1   1   1    5.02    0.45
   3   1   1  540.62    6.76
   5   1   1   18.14    0.86
   7   1   1  120.23    2.39
   9   1   1    9.35    0.93
  11   1   1   82.94    2.55
  13   1   1    0.08    0.64
  15   1   1    2.04    0.99
  17   1   1    3.19    1.11
  19   1   1    6.60    1.48
  21   1   1    0.78    1.18
 -20   2   1    1.11    1.76
 -18   2   1   -0.04    1.43
 -16   2   1    7.98    2.42
 -14   2   1    8.75    2.14
 -12   2   1  104.03    3.80
 -10   2   1   77.81    3.08
  -8   2   1    1.53    0.48
  -6   2   1  373.37    6.67
  -4   2   1    0.56    0.34
  -2   2   1    0.97    0.28
   0   2   1    1.07    0.38
   2   2   1    6.19    0.60
   4   2   1    3.49    0.51
   6   2   1  314.09    5.25
   8   2   1  223.32    4.14
  10   2   1   55.51    2.26
  12   2   1   37.10    2.30
  14   2   1    0.38    0.68
  16   2   1    1.93    1.08
  18   2   1   42.01    3.69
  20   2   1   88.96    8.27
 -19   3   1   29.88    4.70
 -17   3   1    0.23    1.52
 -15   3   1   -0.17    1.49
 -13   3   1   29.22    2.59
 -11   3   1  176.88    5.61
  -9   3   1  168.14    5.28
  -7   3   1    6.05    0.83
  -5   3   1  156.53    3.66
  -3   3   1    3.00    0.49
  -1   3   1    0.62    0.47
   1   3   1    0.18    0.42
   3   3   1  291.07    5.96
   5   3   1   10.51    0.96
   7   3   1   75.76    2.76
   9   3   1    5.19    1.00
  11   3   1   50.45    2.86
  13   3   1    0.78    0.74
  15   3   1    1.73    0.97
  17   3   1    1.00    1.33
 -18   4   1    0.61    2.01
 -16   4   1    8.93    2.74
 -14   4   1    5.91    2.23
 -12   4   1   57.64    3.50
 -10   4   1   51.57    3.16
  -8   4   1    0.41    1.34
  -6   4   1  183.78    8.92
  -4   4   1    0.25    0.77
  -2   4   1    0.51    0.75
   0   4   1    0.74    0.62
   2   4   1    4.55    0.89
   4   4   1    1.00    0.67
   6   4   1  160.72    4.44
   8   4   1  111.09    3.90
  10   4   1   31.53    2.50
  12   4   1   18.93    2.02
  14   4   1    2.06    1.13
  16   4   1    0.98    1.10
 -13   5   1   21.14    4.03
 -11   5   1   86.48    6.66
  -9   5   1   83.72    6.44
  -7   5   1    0.18    1.50
  -5   5   1   67.52    6.39
  -3   5   1    1.64    1.12
  -1   5   1   -0.14    0.92
   1   5   1    0.48    0.96
   3   5   1  139.29    5.74
   5   5   1    3.39    1.08
   7   5   1   36.69    3.37
   9   5   1    1.97    1.40
  11   5   1   28.94    3.29
  13   5   1   -2.27    1.27
  -6   6   1   89.24    8.40
  -4   6   1   -2.57    1.46
  -2   6   1   -1.20    1.79
   0   6   1   -0.65    1.22
   2   6   1    2.72    1.50
   4   6   1    0.59    1.59
   6   6   1   59.10    7.15
  -8  -6   2   11.06    4.16
  -6  -6   2   72.69    8.92
  -4  -6   2    4.35    3.37
  -2  -6   2   10.80    4.32
   0  -6   2    7.58    3.58
   2  -6   2   44.41    7.19
   4  -6   2    0.65    2.81
 -15  -5   2   71.35    9.12
 -13  -5   2   -0.55    2.49
 -11  -5   2    1.88    2.58
  -9  -5   2   -0.82    1.88
  -7  -5   2   -0.22    1.76
  -5  -5   2   -0.45    1.63
  -3  -5   2  131.20    9.57
  -1  -5   2   20.71    4.39
   1  -5   2  125.58    8.68
   3  -5   2   -0.35    1.80
   5  -5   2    1.02    2.11
   7  -5   2   10.15    3.31
   9  -5   2   31.65    5.97
  11  -5   2   50.91    7.75
 -16  -4   2   32.31    5.60
 -14  -4   2   47.03    6.47
 -12  -4   2    9.37    3.02
 -10  -4   2    0.40    1.49
  -8  -4   2   21.57    3.64
  -6  -4   2  146.99    8.18
  -4  -4   2   11.76    2.15
  -2  -4   2   24.05    2.30
   0  -4   2    9.68    1.56
   2  -4   2   94.55    4.05
   4  -4   2    7.87    1.50
   6  -4   2    0.62    0.95
   8  -4   2   25.15    2.80
  10  -4   2   50.66    4.21
  12  -4   2   68.23    8.59
  14  -4   2   62.10    8.92
 -19  -3   2   15.17    4.86
 -17  -3   2    8.07    2.23
 -15  -3   2  103.12    5.06
 -13  -3   2   -0.93    0.93
 -11  -3   2   12.76    1.87
  -9  -3   2    0.92    0.80
  -7  -3   2    0.03    0.69
  -5  -3   2    3.04    0.68
  -3  -3   2  401.13    7.37
  -1  -3   2   67.34    2.07
   1  -3   2  229.84    4.70
   3  -3   2   -0.19    0.43
   5  -3   2    2.38    0.67
   7  -3   2   28.35    1.90
   9  -3   2   65.43    2.84
  11  -3   2   84.78    8.83
  13  -3   2   16.68    4.65
  15  -3   2   77.21   10.02
  17  -3   2   67.10   10.11
 -22  -2   2   -0.91    1.75
 -20  -2   2   84.45    5.48
 -18  -2   2  110.29    5.68
 -16  -2   2   33.38    3.39
 -14  -2   2   56.66    4.02
 -12  -2   2   15.44    2.01
 -10  -2   2    0.65    0.77
  -8  -2   2   40.66    1.71
  -6  -2   2  281.96    5.63
  -4  -2   2   22.14    1.20
  -2  -2   2   42.38    1.13
   0  -2   2   20.14    0.83
   2  -2   2  183.04    3.75
   4  -2   2   11.57    0.99
   6  -2   2    0.47    0.49
   8  -2   2   48.11    2.20
  10  -2   2   75.70    2.95
  12  -2   2  110.62    4.95
  14  -2   2   91.20    5.01
  16  -2   2    0.47    1.35
  18  -2   2   32.66    3.81
  20  -2   2    0.73    2.16
 -23  -1   2   28.52    4.96
 -21  -1   2    0.49    1.77
 -19  -1   2   28.95    4.28
 -17  -1   2   20.74    3.38
 -15  -1   2  136.57    7.31
 -13  -1   2   -0.49    0.94
 -11  -1   2   17.35    2.45
  -9  -1   2   -0.32    0.62
  -7  -1   2    0.36    0.50
  -5  -1   2    6.91    0.68
  -3  -1   2  663.54   10.92
  -1  -1   2  134.64    2.83
   1  -1   2  394.88    5.79
   3  -1   2   -0.15    0.20
   5  -1   2    4.03    0.46
   7  -1   2   49.45    1.55
   9  -1   2  118.92    2.77
  11  -1   2  126.03    5.32
  13  -1   2   19.65    2.56
  15  -1   2   79.34    4.83
  17  -1   2   82.14    5.20
  19  -1   2    0.62    1.60
 -22   0   2    2.52    2.04
 -20   0   2   90.87    6.58
 -18   0   2  115.79    7.23
 -16   0   2   53.49    5.21
 -14   0   2   74.88    4.90
 -12   0   2   28.68    3.24
 -10   0   2    0.77    0.69
  -8   0   2   47.13    2.32
  -6   0   2  388.65    8.89
  -4   0   2   26.20    1.53
  -2   0   2   58.18    1.77
   0   0   2   33.21    0.76
   2   0   2  250.52    3.07
   4   0   2   17.54    0.71
   6   0   2   -0.06    0.25
   8   0   2   68.60    2.04
  10   0   2  110.34    2.81
  12   0   2  140.74    4.17
  14   0   2  116.59    3.93
  16   0   2   -0.26    1.05
  18   0   2   37.68    3.98
  20   0   2    3.46    1.76
 -21   1   2    1.41    1.92
 -19   1   2   26.04    4.06
 -17   1   2   15.60    3.02
 -15   1   2  143.05    7.46
 -13   1   2    0.50    0.89
 -11   1   2   22.82    1.77
  -9   1   2    0.86    0.55
  -7   1   2    0.31    0.36
  -5   1   2    6.51    0.69
  -3   1   2  664.88   10.70
  -1   1   2  130.16    2.31
   1   1   2  390.81    5.21
   3   1   2    0.26    0.25
   5   1   2    5.03    0.47
   7   1   2   51.15    1.59
   9   1   2  116.40    2.97
  11   1   2  137.62    3.48
  13   1   2   19.89    1.94
  15   1   2   96.85    3.86
  17   1   2   84.12    3.88
  19   1   2   -0.35    1.06
 -22   2   2   -0.81    1.75
 -20   2   2   65.76    6.61
 -18   2   2   93.65    6.61
 -16   2   2   34.51    4.23
 -14   2   2   58.77    4.45
 -12   2   2   27.07    2.21
 -10   2   2    1.18    0.70
  -8   2   2   41.76    1.68
  -6   2   2  286.05    5.52
  -4   2   2   21.73    1.12
  -2   2   2   42.00    1.12
   0   2   2   21.33    1.31
   2   2   2  174.43    3.96
   4   2   2   13.42    0.72
   6   2   2    0.16    0.44
   8   2   2   48.82    1.89
  10   2   2   71.26    2.72
  12   2   2  111.60    3.64
  14   2   2   83.00    4.11
  16   2   2   -0.37    0.91
  18   2   2   35.22    3.42
 -19   3   2   19.70    3.74
 -17   3   2   14.48    3.04
 -15   3   2  102.17    6.36
 -13   3   2   -0.29    0.76
 -11   3   2   14.79    1.77
  -9   3   2    0.29    0.66
  -7   3   2   -0.09    0.50
  -5   3   2    3.10    0.67
  -3   3   2  391.61    7.54
  -1   3   2   66.67    2.33
   1   3   2  219.63    4.98
   3   3   2    0.10    0.52
   5   3   2    1.60    0.60
   7   3   2   29.19    1.74
   9   3   2   67.75    2.86
  11   3   2   80.73    3.27
  13   3   2   16.49    1.84
  15   3   2   57.80    4.32
  17   3   2   68.40    7.38
 -14   4   2   33.72    4.54
 -12   4   2   18.19    3.24
 -10   4   2    0.10    1.32
  -8   4   2   30.65    3.94
  -6   4   2  132.86    5.06
  -4   4   2   10.40    1.55
  -2   4   2   26.13    1.89
   0   4   2   10.61    1.28
   2   4   2   89.88    3.17
   4   4   2    4.51    0.98
   6   4   2    0.04    0.66
   8   4   2   23.44    2.58
  10   4   2   45.60    3.09
  12   4   2   52.09    4.30
  14   4   2   50.73    4.38
 -13   5   2    0.73    1.98
 -11   5   2    6.29    2.62
  -9   5   2   -0.57    1.56
  -7   5   2   -0.18    1.47
  -5   5   2   -0.72    1.44
  -3   5   2  182.34    6.60
  -1   5   2   27.82    2.93
   1   5   2  102.36    4.94
   3   5   2    0.05    0.83
   5   5   2    0.43    0.89
   7   5   2   11.87    2.14
   9   5   2   44.18    4.03
  11   5   2   46.52    4.21
  -6   6   2   75.80    8.11
  -4   6   2    6.68    2.85
  -2   6   2   12.10    2.33
   0   6   2    6.88    1.99
   2   6   2   44.98    4.21
   4   6   2    0.25    1.55
  -4  -6   3   34.15    6.18
  -2  -6   3   -1.46    2.44
   0  -6   3   59.05    8.43
   2  -6   3    8.62    3.96
   4  -6   3   41.76    7.01
  -9  -5   3  119.00    8.45
  -7  -5   3    8.49    3.01
  -5  -5   3    5.91    2.66
  -3  -5   3    0.45    1.87
  -1  -5   3    0.61    1.90
   1  -5   3    2.79    2.48
   3  -5   3   17.31    4.24
   5  -5   3  129.43    5.98
   7  -5   3   35.70    3.79
   9  -5   3   33.91    3.92
 -12  -4   3  111.90    7.84
 -10  -4   3    3.02    1.34
  -8  -4   3   71.81    3.79
  -6  -4   3   25.01    2.53
  -4  -4   3   95.86    4.19
  -2  -4   3    0.64    0.86
   0  -4   3  158.58    5.78
   2  -4   3   27.89    2.70
   4  -4   3  111.41    4.81
   6  -4   3    1.46    1.12
   8  -4   3   18.05    2.51
  10  -4   3   16.01    2.64
  12  -4   3    0.47    2.56
  14  -4   3   17.25    5.47
 -19  -3   3   14.06    3.68
 -17  -3   3   20.85    4.00
 -15  -3   3   25.26    2.92
 -13  -3   3    1.25    1.05
 -11  -3   3  105.42    4.41
  -9  -3   3  236.69    7.01
  -7  -3   3    9.24    1.09
  -5  -3   3   13.91    1.31
  -3  -3   3   14.13    1.30
  -1  -3   3    3.27    0.76
   1  -3   3   14.17    1.71
   3  -3   3   28.59    2.47
   5  -3   3  235.03    7.33
   7  -3   3   67.39    3.70
   9  -3   3   60.19    3.91
  11  -3   3   13.96    2.37
  13  -3   3    1.60    2.83
  15  -3   3   37.05    7.48
 -22  -2   3    5.56    2.68
 -20  -2   3   28.54    4.65
 -18  -2   3   32.90    4.62
 -16  -2   3   14.31    2.29
 -14  -2   3  106.74    4.68
 -12  -2   3  218.23    6.72
 -10  -2   3    4.35    0.85
  -8  -2   3  112.26    3.16
  -6  -2   3   44.21    1.80
  -4  -2   3  195.23    4.27
  -2  -2   3    1.30    0.50
   0  -2   3  341.29    6.79
   2  -2   3   53.54    1.47
   4  -2   3  198.31    4.38
   6  -2   3    0.26    0.53
   8  -2   3   29.53    2.03
  10  -2   3   43.66    2.71
  12  -2   3    6.73    1.70
  14  -2   3   33.30    3.39
  16  -2   3    1.09    2.63
  18  -2   3    5.96    3.58
 -23  -1   3   -0.15    2.00
 -21  -1   3    4.58    2.38
 -19  -1   3   16.06    3.38
 -17  -1   3   25.49    3.77
 -15  -1   3   37.79    4.23
 -13  -1   3   -0.50    0.91
 -11  -1   3  137.63    6.45
  -9  -1   3  340.00    8.48
  -7  -1   3   12.80    0.87
  -5  -1   3   20.69    0.96
  -3  -1   3   26.77    1.04
  -1  -1   3    5.18    0.56
   1  -1   3   29.80    1.01
   3  -1   3   50.34    1.49
   5  -1   3  405.11    5.72
   7  -1   3  109.58    2.63
   9  -1   3   91.82    3.30
  11  -1   3   27.25    2.84
  13  -1   3   -1.06    0.87
  15  -1   3   66.03    4.42
  17  -1   3   59.09    4.98
  19  -1   3    2.05    2.20
 -22   0   3    3.19    2.05
 -20   0   3   37.55    4.92
 -18   0   3   29.20    4.11
 -16   0   3   15.06    2.86
 -14   0   3  122.23    6.47
 -12   0   3  253.75    9.83
 -10   0   3    2.97    1.01
  -8   0   3  140.49    4.59
  -6   0   3   68.11    2.86
  -4   0   3  262.44    6.74
  -2   0   3    2.54    0.51
   0   0   3  460.16    6.56
   2   0   3   72.20    1.54
   4   0   3  253.07    3.37
   6   0   3    1.27    0.34
   8   0   3   36.22    1.52
  10   0   3   49.18    2.46
  12   0   3    6.48    1.16
  14   0   3   37.43    3.61
  16   0   3    1.97    1.48
  18   0   3    6.00    2.00
 -21   1   3    5.92    2.43
 -19   1   3    7.60    2.36
 -17   1   3   27.82    3.89
 -15   1   3   31.75    3.85
 -13   1   3   -0.11    0.99
 -11   1   3  138.77    4.48
  -9   1   3  344.62    8.19
  -7   1   3   11.17    1.02
  -5   1   3   20.11    1.26
  -3   1   3   29.27    1.31
  -1   1   3    4.80    0.52
   1   1   3   29.55    0.99
   3   1   3   49.59    1.24
   5   1   3  392.88    4.96
   7   1   3  112.82    2.29
   9   1   3   94.68    2.81
  11   1   3   31.59    1.98
  13   1   3   -0.02    0.72
  15   1   3   59.02    3.64
  17   1   3   66.00    4.00
  19   1   3   -0.13    2.05
 -22   2   3   -0.29    1.72
 -20   2   3   23.54    3.97
 -18   2   3   17.61    3.34
 -16   2   3   12.25    2.65
 -14   2   3  106.23    6.13
 -12   2   3  209.45    6.20
 -10   2   3    2.91    0.77
  -8   2   3  114.55    3.12
  -6   2   3   47.19    1.75
  -4   2   3  194.41    4.07
  -2   2   3    0.94    0.29
   0   2   3  344.44    6.71
   2   2   3   53.57    1.66
   4   2   3  194.88    3.43
   6   2   3    0.73    0.55
   8   2   3   28.79    1.81
  10   2   3   35.99    2.37
  12   2   3    2.50    0.93
  14   2   3   30.68    3.06
  16   2   3    1.70    1.31
  18   2   3   10.45    2.24
 -21   3   3    7.31    2.64
 -19   3   3    5.52    2.26
 -17   3   3   17.09    3.36
 -15   3   3   24.00    3.59
 -13   3   3    0.81    0.88
 -11   3   3  103.61    4.05
  -9   3   3  222.85    6.39
  -7   3   3   10.75    1.53
  -5   3   3   13.38    1.70
  -3   3   3   15.47    1.42
  -1   3   3    4.30    0.87
   1   3   3   13.83    1.37
   3   3   3   33.97    2.10
   5   3   3  240.85    5.73
   7   3   3   67.26    2.51
   9   3   3   58.71    3.05
  11   3   3   16.19    1.83
  13   3   3    0.92    0.93
  15   3   3   35.67    3.54
 -14   4   3   57.42    5.91
 -12   4   3  118.10    7.41
 -10   4   3    2.06    1.58
  -8   4   3   67.61    5.36
  -6   4   3   19.11    2.24
  -4   4   3   91.47    4.24
  -2   4   3    0.59    0.64
   0   4   3  167.54    4.69
   2   4   3   24.68    1.98
   4   4   3  107.23    3.73
   6   4   3   -0.34    0.65
   8   4   3   17.52    2.31
  10   4   3   25.34    2.42
  12   4   3    0.77    1.11
  14   4   3   17.25    2.69
 -13   5   3    1.92    2.04
 -11   5   3   40.22    5.52
  -9   5   3  126.29    8.32
  -7   5   3    8.19    2.67
  -5   5   3    7.99    1.79
  -3   5   3    4.23    1.56
  -1   5   3    1.21    1.12
   1   5   3    4.04    1.21
   3   5   3   20.52    2.16
   5   5   3  128.97    4.59
   7   5   3   28.88    3.20
   9   5   3   26.18    3.21
  -4   6   3   37.64    5.56
  -2   6   3    0.51    1.54
   0   6   3   79.18    5.68
   2   6   3   11.50    2.34
   4   6   3   53.45    6.48
  -1  -5   4   78.67    4.70
   1  -5   4    1.47    1.32
   3  -5   4    1.03    1.42
   5  -5   4   13.96    2.45
   7  -5   4    5.84    2.08
   9  -5   4    1.56    1.81
 -14  -4   4   32.95    4.93
 -12  -4   4    0.37    1.74
 -10  -4   4   15.47    3.23
  -8  -4   4    1.29    1.51
  -6  -4   4  168.02    6.02
  -4  -4   4   27.84    2.70
  -2  -4   4   89.16    4.20
   0  -4   4   25.23    2.56
   2  -4   4   22.95    2.65
   4  -4   4   22.66    2.64
   6  -4   4   33.90    3.37
   8  -4   4   57.83    4.68
  10  -4   4   12.16    2.55
  12  -4   4   63.85    9.39
 -21  -3   4   78.94    8.33
 -19  -3   4   21.06    4.39
 -17  -3   4   94.41    7.02
 -15  -3   4   25.55    4.26
 -13  -3   4    9.67    2.52
 -11  -3   4   57.97    5.46
  -9  -3   4   65.91    4.84
  -7  -3   4    1.97    0.72
  -5  -3   4  101.25    3.25
  -3  -3   4   -0.24    0.52
  -1  -3   4  162.76    4.42
   1  -3   4    0.27    0.59
   3  -3   4   -1.09    0.63
   5  -3   4   29.45    2.79
   7  -3   4   10.48    1.93
   9  -3   4    0.89    1.24
  11  -3   4   90.53    5.52
  13  -3   4    3.81    3.67
  15  -3   4   32.73    7.13
 -22  -2   4   49.38    6.42
 -20  -2   4    3.57    2.28
 -18  -2   4   37.86    5.06
 -16  -2   4   18.71    3.40
 -14  -2   4   37.79    4.41
 -12  -2   4    5.65    1.92
 -10  -2   4   29.01    2.54
  -8  -2   4    2.90    0.72
  -6  -2   4  302.38    6.30
  -4  -2   4   41.24    1.75
  -2  -2   4  150.49    3.85
   0  -2   4   45.21    2.06
   2  -2   4   51.04    2.23
   4  -2   4   40.45    2.44
   6  -2   4   68.25    3.65
   8  -2   4   85.01    4.66
  10  -2   4   19.35    2.59
  12  -2   4  116.89   11.70
  14  -2   4   36.03    6.61
  16  -2   4   37.03    7.14
 -21  -1   4   91.48    6.97
 -19  -1   4   17.72    3.55
 -17  -1   4  136.52    7.71
 -15  -1   4   56.68    5.35
 -13  -1   4   11.65    2.37
 -11  -1   4   81.41    2.69
  -9  -1   4  103.34    2.58
  -7  -1   4    3.02    0.46
  -5  -1   4  165.33    4.25
  -3  -1   4    0.74    0.39
  -1  -1   4  250.79    4.76
   1  -1   4    0.86    0.35
   3  -1   4    0.79    0.42
   5  -1   4   41.46    1.42
   7  -1   4    8.66    1.13
   9  -1   4    3.23    0.90
  11  -1   4  146.12    5.75
  13  -1   4   -0.40    1.04
  15  -1   4   37.35    3.76
  17  -1   4    0.33    2.68
 -22   0   4   46.43    5.83
 -20   0   4   10.23    2.81
 -18   0   4   39.66    4.80
 -16   0   4   24.93    3.58
 -14   0   4   52.35    4.89
 -12   0   4    5.88    1.26
 -10   0   4   34.13    2.63
  -8   0   4    4.25    1.03
  -6   0   4  394.46    9.54
  -4   0   4   53.42    2.06
  -2   0   4  194.29    3.97
   0   0   4   59.67    1.65
   2   0   4   66.09    1.45
   4   0   4   53.67    1.36
   6   0   4   84.44    1.82
   8   0   4  102.92    2.29
  10   0   4   27.45    2.04
  12   0   4  123.13    5.51
  14   0   4   33.19    3.51
  16   0   4   49.66    4.56
  18   0   4   -1.38    2.12
 -21   1   4   79.97    7.49
 -19   1   4   16.31    3.29
 -17   1   4  132.20    7.51
 -15   1   4   48.74    4.86
 -13   1   4   10.06    1.63
 -11   1   4   82.67    3.55
  -9   1   4  101.68    3.79
  -7   1   4    3.30    0.73
  -5   1   4  165.27    4.09
  -3   1   4    0.64    0.46
  -1   1   4  252.08    4.13
   1   1   4    0.80    0.37
   3   1   4    0.43    0.31
   5   1   4   43.77    1.31
   7   1   4    8.67    0.79
   9   1   4    4.60    0.90
  11   1   4  140.78    4.57
  13   1   4   -0.33    0.93
  15   1   4   36.33    2.90
  17   1   4    1.45    1.79
 -22   2   4   44.12    5.64
 -20   2   4    4.80    2.22
 -18   2   4   38.73    4.64
 -16   2   4   23.94    3.43
 -14   2   4   45.80    4.41
 -12   2   4    2.68    0.99
 -10   2   4   23.27    1.70
  -8   2   4    1.40    0.64
  -6   2   4  297.81    6.20
  -4   2   4   40.64    1.70
  -2   2   4  154.14    4.09
   0   2   4   44.24    1.84
   2   2   4   53.93    1.96
   4   2   4   41.41    1.60
   6   2   4   65.88    2.40
   8   2   4   78.83    3.09
  10   2   4   18.67    1.90
  12   2   4   99.01    3.84
  14   2   4   32.01    3.21
  16   2   4   43.60    3.94
 -21   3   4   66.24    6.80
 -19   3   4   11.81    3.05
 -17   3   4  102.18    6.63
 -15   3   4   43.03    4.58
 -13   3   4    5.49    2.10
 -11   3   4   52.60    5.22
  -9   3   4   73.61    3.78
  -7   3   4    0.83    0.97
  -5   3   4   92.72    4.22
  -3   3   4    0.10    0.60
  -1   3   4  161.24    4.45
   1   3   4    0.16    0.60
   3   3   4    0.53    0.66
   5   3   4   27.79    2.15
   7   3   4    6.81    1.21
   9   3   4    0.89    0.78
  11   3   4  108.35    4.95
  13   3   4    1.35    1.08
  15   3   4   35.06    4.98
 -14   4   4   29.66    4.46
 -12   4   4    3.33    1.97
 -10   4   4   13.22    3.02
  -8   4   4    2.47    1.67
  -6   4   4  164.40    6.20
  -4   4   4   22.77    2.60
  -2   4   4   88.67    3.39
   0   4   4   21.93    1.98
   2   4   4   28.02    2.30
   4   4   4   21.54    2.08
   6   4   4   38.00    2.78
   8   4   4   45.15    3.81
  10   4   4   10.17    2.11
  12   4   4   61.07    6.51
 -13   5   4    2.26    2.38
 -11   5   4   20.49    4.19
  -9   5   4   30.53    4.80
  -7   5   4   -1.20    1.44
  -5   5   4   55.78    4.42
  -3   5   4   -0.78    1.08
  -1   5   4   81.21    3.79
   1   5   4   -0.21    0.98
   3   5   4   -0.42    0.99
   5   5   4   12.26    2.20
   7   5   4    4.28    1.78
  -2   6   4   43.87    6.23
  -3  -5   5   16.29    3.49
  -1  -5   5   41.60    5.21
   1  -5   5   96.95    6.94
   3  -5   5    2.59    2.06
   5  -5   5   31.77    5.07
 -16  -4   5    1.87    2.46
 -14  -4   5   53.12    6.09
 -12  -4   5   20.68    3.91
 -10  -4   5   73.53    6.93
  -8  -4   5   16.03    3.26
  -6  -4   5   11.80    2.82
  -4  -4   5    1.99    1.23
  -2  -4   5   -0.70    1.13
   0  -4   5   11.58    2.73
   2  -4   5   44.40    5.11
   4  -4   5   -0.17    1.09
   6  -4   5  103.33    5.47
   8  -4   5   40.00    4.03
  10  -4   5   10.41    2.61
 -19  -3   5   -1.21    1.95
 -17  -3   5    3.18    2.16
 -15  -3   5  108.65    7.34
 -13  -3   5    0.39    1.26
 -11  -3   5   92.96    6.19
  -9  -3   5    8.92    1.66
  -7  -3   5  103.50    4.53
  -5  -3   5   49.78    3.49
  -3  -3   5   25.06    2.52
  -1  -3   5   77.36    3.76
   1  -3   5  165.68    4.86
   3  -3   5    8.84    1.66
   5  -3   5   59.20    4.33
   7  -3   5   38.26    3.72
   9  -3   5    2.93    1.54
  11  -3   5   -0.54    1.29
  13  -3   5   12.71    4.94
 -20  -2   5    8.67    2.98
 -18  -2   5   23.03    3.99
 -16  -2   5    2.32    1.57
 -14  -2   5   65.28    5.09
 -12  -2   5   42.79    3.38
 -10  -2   5  132.40    5.12
  -8  -2   5   28.39    2.55
  -6  -2   5   17.40    1.96
  -4  -2   5    3.69    1.08
  -2  -2   5    1.04    0.73
   0  -2   5   24.32    1.86
   2  -2   5   93.93    3.34
   4  -2   5    0.34    0.64
   6  -2   5  176.02    6.72
   8  -2   5   66.28    4.29
  10  -2   5    5.46    1.85
  12  -2   5   15.19    2.70
  14  -2   5   49.36    7.90
 -21  -1   5   13.28    3.34
 -19  -1   5    5.01    2.19
 -17  -1   5    9.01    2.46
 -15  -1   5  131.06    7.55
 -13  -1   5    1.92    0.99
 -11  -1   5  136.23    4.10
  -9  -1   5    9.77    1.36
  -7  -1   5  151.39    4.48
  -5  -1   5   62.82    2.77
  -3  -1   5   38.20    2.16
  -1  -1   5  136.42    3.31
   1  -1   5  245.97    5.07
   3  -1   5   14.01    1.26
   5  -1   5   79.78    3.03
   7  -1   5   45.48    2.81
   9  -1   5    4.38    1.40
  11  -1   5   -0.65    0.99
  13  -1   5   14.54    4.36
  15  -1   5   46.14    7.23
 -22   0   5   24.15    4.31
 -20   0   5   11.76    2.99
 -18   0   5   37.55    4.80
 -16   0   5    3.66    1.78
 -14   0   5   89.96    5.65
 -12   0   5   53.00    3.16
 -10   0   5  156.10    5.36
  -8   0   5   30.43    2.56
  -6   0   5   21.93    1.74
  -4   0   5    4.20    0.85
  -2   0   5    0.70    0.53
   0   0   5   33.42    1.49
   2   0   5  111.79    2.68
   4   0   5    0.10    0.35
   6   0   5  222.77    3.52
   8   0   5   81.03    1.96
  10   0   5   19.33    2.52
  12   0   5   26.95    3.14
  14   0   5   65.04    5.17
  16   0   5    2.48    1.94
 -21   1   5    3.91    2.20
 -19   1   5    3.07    1.89
 -17   1   5    7.22    2.33
 -15   1   5  143.04    7.37
 -13   1   5    0.64    1.05
 -11   1   5  129.82    5.01
  -9   1   5   11.70    1.68
  -7   1   5  163.01    4.39
  -5   1   5   73.10    2.77
  -3   1   5   36.31    1.73
  -1   1   5  137.23    3.32
   1   1   5  257.57    5.22
   3   1   5   13.07    0.91
   5   1   5   79.43    1.87
   7   1   5   50.93    1.82
   9   1   5    5.30    0.99
  11   1   5    1.01    0.88
  13   1   5   14.39    1.93
  15   1   5   43.56    4.36
 -22   2   5   14.12    3.62
 -20   2   5   10.59    2.99
 -18   2   5   29.27    4.22
 -16   2   5    3.11    1.82
 -14   2   5   69.14    3.88
 -12   2   5   47.57    2.98
 -10   2   5  130.01    3.93
  -8   2   5   26.60    1.92
  -6   2   5   16.25    2.23
  -4   2   5    3.66    1.38
  -2   2   5   -0.46    0.67
   0   2   5   27.26    1.71
   2   2   5   92.32    2.81
   4   2   5    0.63    0.74
   6   2   5  174.30    4.43
   8   2   5   67.65    3.07
  10   2   5   17.00    1.88
  12   2   5   13.21    2.16
  14   2   5   55.71    4.39
 -13   3   5    0.89    1.73
 -11   3   5  104.99    6.80
  -9   3   5    7.59    1.69
  -7   3   5  109.91    4.92
  -5   3   5   39.80    3.36
  -3   3   5   27.38    2.85
  -1   3   5   82.24    3.28
   1   3   5  171.69    5.09
   3   3   5    8.69    1.36
   5   3   5   57.31    3.43
   7   3   5   34.17    3.18
   9   3   5    2.67    1.05
  11   3   5   -0.42    1.00
  13   3   5    8.56    2.05
 -14   4   5   40.08    5.38
 -12   4   5   24.43    4.24
 -10   4   5   71.43    7.13
  -8   4   5   18.68    2.55
  -6   4   5   10.19    1.94
  -4   4   5    0.08    1.00
  -2   4   5   -0.64    0.66
   0   4   5   15.31    1.86
   2   4   5   53.50    3.38
   4   4   5   -0.83    0.85
   6   4   5   97.40    5.29
   8   4   5   44.65    5.29
  10   4   5    5.10    1.83
 -13   5   5    1.33    2.26
 -11   5   5   46.40    6.33
  -9   5   5    4.35    2.62
  -7   5   5   68.42    7.46
  -5   5   5   25.55    3.01
  -3   5   5   13.60    2.32
  -1   5   5   39.49    3.15
   1   5   5   86.13    4.38
   3   5   5    3.11    1.35
   5   5   5   29.43    3.42
  -9  -5   6   22.51    4.44
  -3  -5   6    4.37    2.35
  -1  -5   6    6.54    2.69
   1  -5   6   58.43    6.54
 -16  -4   6   55.70    6.84
 -14  -4   6    5.32    2.66
 -12  -4   6   41.58    5.55
 -10  -4   6    5.74    2.53
  -8  -4   6   19.16    3.59
  -6  -4   6   11.01    2.08
  -4  -4   6  166.92    9.48
  -2  -4   6    9.64    1.97
   0  -4   6   11.22    2.97
   2  -4   6   41.19    5.13
   4  -4   6    9.41    2.74
   6  -4   6    0.44    1.68
 -19  -3   6    9.13    3.38
 -17  -3   6   -0.67    1.80
 -15  -3   6    7.82    2.68
 -13  -3   6   58.02    6.11
 -11  -3   6    9.79    2.54
  -9  -3   6   40.92    3.58
  -7  -3   6   71.00    4.26
  -5  -3   6  123.55    5.19
  -3  -3   6    6.68    1.61
  -1  -3   6   21.82    2.48
   1  -3   6  102.96    4.71
   3  -3   6    4.12    1.31
   5  -3   6   26.58    3.87
   7  -3   6    4.13    2.03
   9  -3   6  102.66    7.41
 -20  -2   6  120.18    8.46
 -18  -2   6   20.37    3.86
 -16  -2   6   71.97    6.97
 -14  -2   6    6.20    2.26
 -12  -2   6   71.19    3.96
 -10  -2   6    9.11    1.72
  -8  -2   6   37.23    3.07
  -6  -2   6   25.02    2.55
  -4  -2   6  234.09    7.35
  -2  -2   6   21.79    2.26
   0  -2   6   17.38    2.05
   2  -2   6   54.98    3.79
   4  -2   6   13.65    1.88
   6  -2   6    0.47    1.24
   8  -2   6   37.02    3.70
  10  -2   6   15.02    2.65
  12  -2   6   33.28    3.89
 -21  -1   6   57.41    6.53
 -19  -1   6   15.33    3.34
 -17  -1   6    1.09    1.21
 -15  -1   6    4.75    1.46
 -13  -1   6   76.07    3.92
 -11  -1   6    7.10    1.29
  -9  -1   6   64.63    3.14
  -7  -1   6  105.54    3.79
  -5  -1   6  185.02    5.12
  -3  -1   6    5.52    1.09
  -1  -1   6   26.45    2.07
   1  -1   6  148.03    4.35
   3  -1   6    5.63    1.06
   5  -1   6   33.38    2.37
   7  -1   6    3.88    1.06
   9  -1   6  150.25    6.26
  11  -1   6   37.89    3.84
  13  -1   6   77.63    8.95
 -22   0   6   -0.73    1.82
 -20   0   6  150.64    8.89
 -18   0   6   40.86    5.03
 -16   0   6   89.17    6.06
 -14   0   6   11.55    2.41
 -12   0   6   82.24    4.00
 -10   0   6   15.10    1.62
  -8   0   6   39.88    2.53
  -6   0   6   41.72    2.33
  -4   0   6  303.30    6.84
  -2   0   6   26.30    1.71
   0   0   6   12.18    1.22
   2   0   6   68.29    2.40
   4   0   6   19.32    1.19
   6   0   6    0.70    0.51
   8   0   6   39.23    2.00
  10   0   6   27.43    3.03
  12   0   6   47.33    6.67
  14   0   6    3.32    3.21
 -21   1   6   68.18    7.11
 -19   1   6   12.19    3.12
 -17   1   6    0.38    1.52
 -15   1   6   15.15    2.85
 -13   1   6   81.13    4.38
 -11   1   6    7.09    1.53
  -9   1   6   60.34    3.50
  -7   1   6  104.24    3.62
  -5   1   6  176.68    4.26
  -3   1   6    6.28    0.94
  -1   1   6   26.88    1.70
   1   1   6  145.78    4.56
   3   1   6    6.28    1.01
   5   1   6   35.26    1.81
   7   1   6    5.39    1.02
   9   1   6  147.41    4.82
  11   1   6   37.32    2.91
  13   1   6   75.91    5.70
 -20   2   6  130.72    8.19
 -18   2   6   27.34    4.29
 -16   2   6   75.76    5.50
 -14   2   6    5.86    1.73
 -12   2   6   64.80    3.81
 -10   2   6    9.39    1.94
  -8   2   6   31.90    3.36
  -6   2   6   29.60    3.14
  -4   2   6  246.92    6.66
  -2   2   6   20.35    2.08
   0   2   6   11.99    1.34
   2   2   6   52.35    2.52
   4   2   6   14.21    1.83
   6   2   6    0.47    0.86
   8   2   6   32.16    2.61
  10   2   6   18.87    2.00
  12   2   6   29.33    3.25
 -15   3   6    8.20    3.22
 -13   3   6   61.85    7.16
 -11   3   6    2.44    2.03
  -9   3   6   50.02    4.27
  -7   3   6   74.43    5.23
  -5   3   6  116.21    5.68
  -3   3   6    3.28    1.44
  -1   3   6   19.25    2.06
   1   3   6   98.79    4.00
   3   3   6    5.23    1.27
   5   3   6   26.26    2.57
   7   3   6    3.32    1.40
   9   3   6  109.10    5.47
  11   3   6   26.18    3.26
 -14   4   6    5.47    2.90
 -12   4   6   38.93    5.78
 -10   4   6    6.68    2.92
  -8   4   6   26.26    3.32
  -6   4   6   16.28    2.60
  -4   4   6  164.37    6.98
  -2   4   6    8.70    2.11
   0   4   6    6.60    1.45
   2   4   6   29.94    2.74
   4   4   6    8.01    1.72
   6   4   6    0.01    1.24
   8   4   6   20.57    4.86
  -9   5   6   19.67    4.55
  -7   5   6   39.53    6.09
  -5   5   6   62.25    5.29
  -3   5   6    3.66    1.83
  -1   5   6   12.72    2.73
   1   5   6   53.89    3.91
   3   5   6    0.37    2.62
 -14  -4   7   35.20    5.41
 -12  -4   7    9.61    3.03
 -10  -4   7  109.99    7.88
  -8  -4   7   17.25    3.62
  -6  -4   7    1.42    1.47
  -4  -4   7    7.74    1.94
  -2  -4   7   37.00    5.49
   0  -4   7   19.66    3.88
   2  -4   7   64.58    6.77
   4  -4   7   54.54    6.27
 -17  -3   7   73.38    7.60
 -15  -3   7   19.07    3.85
 -13  -3   7   87.87    6.68
 -11  -3   7   -0.61    1.38
  -9  -3   7    1.87    1.26
  -7  -3   7    4.93    1.58
  -5  -3   7   -1.29    0.91
  -3  -3   7    0.79    1.10
  -1  -3   7   63.10    4.47
   1  -3   7    1.56    1.09
   3  -3   7   50.90    4.08
   5  -3   7   14.30    3.32
   7  -3   7   65.46    6.88
 -18  -2   7   20.75    4.10
 -16  -2   7   -0.68    1.49
 -14  -2   7   49.89    4.11
 -12  -2   7   18.27    2.50
 -10  -2   7  151.34    6.08
  -8  -2   7   29.27    2.96
  -6  -2   7    9.03    1.58
  -4  -2   7   18.01    2.24
  -2  -2   7   52.24    3.87
   0  -2   7   43.48    3.40
   2  -2   7   87.49    4.26
   4  -2   7   79.36    4.17
   6  -2   7    0.59    1.53
   8  -2   7    1.00    1.71
  10  -2   7    5.48    2.45
 -19  -1   7   -1.55    1.61
 -17  -1   7   88.60    4.79
 -15  -1   7   30.25    3.16
 -13  -1   7  107.03    4.96
 -11  -1   7   -0.17    0.79
  -9  -1   7    0.85    0.85
  -7  -1   7    8.08    1.36
  -5  -1   7    0.39    0.72
  -3  -1   7   -0.29    0.71
  -1  -1   7   92.40    3.53
   1  -1   7    2.10    0.88
   3  -1   7   75.93    3.82
   5  -1   7    9.92    1.76
   7  -1   7   75.82    4.06
   9  -1   7    1.01    1.67
  11  -1   7   15.07    3.62
 -20   0   7    7.06    2.53
 -18   0   7   34.69    4.76
 -16   0   7    0.03    1.39
 -14   0   7   49.44    3.78
 -12   0   7   18.67    1.94
 -10   0   7  196.12    5.48
  -8   0   7   37.53    2.57
  -6   0   7   10.19    1.37
  -4   0   7   14.24    1.58
  -2   0   7   68.16    2.85
   0   0   7   54.97    2.75
   2   0   7   97.69    3.14
   4   0   7  100.46    3.23
   6   0   7    1.78    0.87
   8   0   7   -0.14    1.05
 -21   1   7    3.28    2.49
 -19   1   7   -0.47    1.71
 -17   1   7   95.15    6.39
 -15   1   7   30.64    4.11
 -13   1   7  106.41    4.89
 -11   1   7   -0.07    1.05
  -9   1   7    0.97    0.84
  -7   1   7    8.96    1.18
  -5   1   7    0.12    0.58
  -3   1   7    0.60    0.61
  -1   1   7   90.64    3.72
   1   1   7    1.96    0.92
   3   1   7   77.60    3.51
   5   1   7   11.93    1.67
   7   1   7   76.47    4.38
   9   1   7   -0.42    1.08
 -14   2   7   40.15    6.75
 -12   2   7   18.91    4.72
 -10   2   7  167.00    7.22
  -8   2   7   32.36    3.55
  -6   2   7   12.02    1.66
  -4   2   7   15.49    1.97
  -2   2   7   54.53    3.32
   0   2   7   44.81    3.12
   2   2   7   79.13    3.95
   4   2   7   84.74    4.08
   6   2   7    0.54    1.04
   8   2   7    1.88    1.48
  10   2   7    5.36    2.50
 -15   3   7   25.85    5.57
 -13   3   7   75.94    9.11
 -11   3   7    0.31    1.53
  -9   3   7    1.47    1.63
  -7   3   7    4.96    2.00
  -5   3   7    1.72    1.14
  -3   3   7   -0.30    1.01
  -1   3   7   58.10    5.22
   1   3   7   -0.84    0.85
   3   3   7   62.65    4.09
   5   3   7    9.18    1.81
   7   3   7   58.11    4.85
   9   3   7    1.53    2.87
 -14   4   7   22.83    5.72
 -12   4   7    7.54    3.80
 -10   4   7  102.33   10.42
  -8   4   7   22.44    3.45
  -6   4   7    4.31    2.03
  -4   4   7    8.42    2.36
  -2   4   7   29.37    3.91
   0   4   7   31.92    5.88
   2   4   7   53.19    3.91
   4   4   7   61.71    6.46
  -8  -4   8   10.29    3.22
  -6  -4   8   14.15    2.73
  -4  -4   8   28.79    5.26
  -2  -4   8   26.85    5.06
 -15  -3   8    3.88    2.43
 -13  -3   8   -0.56    1.67
 -11  -3   8   34.15    3.73
  -9  -3   8    0.95    1.45
  -7  -3   8   85.64    5.13
  -5  -3   8  100.62    5.22
  -3  -3   8   39.68    3.75
  -1  -3   8    6.62    1.82
   1  -3   8    1.24    1.23
   3  -3   8    6.59    1.83
 -16  -2   8   16.85    3.80
 -14  -2   8    2.09    1.47
 -12  -2   8   -1.08    1.01
 -10  -2   8   84.48    5.01
  -8  -2   8   27.82    3.06
  -6  -2   8   25.20    2.76
  -4  -2   8   51.07    3.98
  -2  -2   8   52.15    3.98
   0  -2   8   12.67    2.08
   2  -2   8    2.89    1.33
   4  -2   8    2.51    1.36
   6  -2   8   87.51    6.71
 -19  -1   8  118.82    8.29
 -17  -1   8    4.88    1.74
 -15  -1   8    2.70    1.28
 -13  -1   8   -0.63    0.86
 -11  -1   8   53.02    3.42
  -9  -1   8    2.08    1.01
  -7  -1   8  108.83    4.17
  -5  -1   8  119.41    4.40
  -3  -1   8   38.73    2.84
  -1  -1   8    8.64    1.40
   1  -1   8   -0.19    0.82
   3  -1   8   12.22    2.01
   5  -1   8   52.51    3.99
   7  -1   8   13.14    2.31
   9  -1   8   -1.92    1.95
 -20   0   8    2.19    1.64
 -18   0   8    4.64    1.79
 -16   0   8   15.63    2.38
 -14   0   8    0.62    1.13
 -12   0   8    0.42    0.84
 -10   0   8   98.54    3.81
  -8   0   8   30.68    2.45
  -6   0   8   29.03    2.36
  -4   0   8   54.52    2.97
  -2   0   8   63.19    3.17
   0   0   8   17.34    1.84
   2   0   8    4.11    1.20
   4   0   8    4.47    1.54
   6   0   8   92.56    4.74
 -19   1   8  119.55    7.95
 -17   1   8    2.47    2.04
 -15   1   8    3.96    1.94
 -13   1   8    0.22    0.93
 -11   1   8   50.94    3.25
  -9   1   8    1.05    1.35
  -7   1   8   98.52    5.50
  -5   1   8  127.01    4.75
  -3   1   8   42.81    3.11
  -1   1   8   12.15    1.69
   1   1   8    0.68    0.96
   3   1   8    9.30    1.62
   5   1   8   49.72    5.86
   7   1   8    9.09    3.28
 -14   2   8    4.08    3.38
 -12   2   8    2.19    3.17
 -10   2   8   92.46    4.51
  -8   2   8   27.95    2.81
  -6   2   8   21.87    2.47
  -4   2   8   45.32    3.39
  -2   2   8   52.38    3.66
   0   2   8   11.31    2.51
   2   2   8    0.47    1.59
   4   2   8    3.18    1.86
   6   2   8   87.83    6.56
   8   2   8   10.41    2.48
 -15   3   8    3.38    4.30
 -13   3   8   -1.90    3.08
 -11   3   8   36.75    4.39
  -9   3   8    1.43    1.83
  -7   3   8   83.89    5.03
  -5   3   8   99.08    5.01
  -3   3   8   30.39    4.12
  -1   3   8    8.20    2.68
   1   3   8    1.76    2.00
   3   3   8    5.93    2.47
  -8   4   8   15.59    3.33
  -6   4   8   19.59    3.52
  -4   4   8   28.96    4.12
  -2   4   8   28.25    4.23
   0   4   8    5.98    4.25
 -11  -3   9   56.23    7.44
  -9  -3   9    5.98    2.00
  -7  -3   9   10.06    2.34
  -5  -3   9   26.76    3.26
  -3  -3   9    4.58    1.78
  -1  -3   9   32.11    5.22
 -14  -2   9    1.00    1.50
 -12  -2   9    1.79    1.53
 -10  -2   9    0.31    1.20
  -8  -2   9    2.18    1.43
  -6  -2   9   -0.68    0.98
  -4  -2   9   21.27    2.87
  -2  -2   9   37.61    3.59
   0  -2   9   63.02    4.75
   2  -2   9    3.15    1.60
 -17  -1   9    3.92    1.80
 -15  -1   9   17.75    2.81
 -13  -1   9   89.50    4.06
 -11  -1   9   70.92    4.12
  -9  -1   9   10.77    1.72
  -7  -1   9   12.35    1.85
  -5  -1   9   40.83    3.08
  -3  -1   9    6.59    1.43
  -1  -1   9   38.54    2.94
   1  -1   9  123.21    5.51
   3  -1   9   -0.42    1.07
   5  -1   9   23.37    2.96
 -18   0   9    1.88    1.69
 -16   0   9  179.80   10.00
 -14   0   9    0.32    1.05
 -12   0   9    0.34    0.99
 -10   0   9    1.33    1.04
  -8   0   9    9.11    1.50
  -6   0   9    0.18    0.82
  -4   0   9   25.82    2.34
  -2   0   9   50.59    4.23
   0   0   9   75.18    4.62
   2   0   9   10.41    2.10
   4   0   9   39.56    3.81
 -17   1   9    2.97    2.40
 -15   1   9   21.23    4.46
 -13   1   9   80.82    5.81
 -11   1   9   64.00    5.05
  -9   1   9   10.80    2.04
  -7   1   9   14.88    2.56
  -5   1   9   38.19    3.79
  -3   1   9    8.40    1.89
  -1   1   9   37.32    2.98
   1   1   9  121.21    5.62
   3   1   9    0.01    1.44
   5   1   9   17.25    2.89
 -14   2   9    2.64    1.73
 -12   2   9    0.95    1.62
 -10   2   9    2.76    1.72
  -8   2   9    5.55    1.49
  -6   2   9    2.07    1.26
  -4   2   9   27.35    2.78
  -2   2   9   38.06    3.87
   0   2   9   63.83    7.43
   2   2   9    5.54    2.16
   4   2   9   31.66    5.13
 -11   3   9   47.97    4.06
  -9   3   9    9.12    2.05
  -7   3   9   12.74    2.29
  -5   3   9   24.88    3.91
  -3   3   9    5.79    2.64
  -1   3   9   28.58    6.09
  -8  -2  10   75.36    5.41
  -6  -2  10   15.02    2.64
  -4  -2  10    6.12    2.61
 -13  -1  10   41.32    3.40
 -11  -1  10   -1.34    1.05
  -9  -1  10   23.90    2.58
  -7  -1  10   10.35    1.82
  -5  -1  10   65.44    5.13
  -3  -1  10   -0.28    1.06
  -1  -1  10    1.51    1.39
   1  -1  10    0.40    2.05
 -14   0  10    5.04    1.88
 -12   0  10    5.50    1.55
 -10   0  10   92.12    5.76
  -8   0  10   77.62    5.58
  -6   0  10   19.35    2.97
  -4   0  10    8.22    2.09
  -2   0  10    0.35    1.29
   0   0  10    3.30    1.68
   2   0  10   22.67    4.36
 -13   1  10   37.67    5.72
 -11   1  10   -1.52    1.32
  -9   1  10   22.20    3.18
  -7   1  10   10.66    2.30
  -5   1  10   50.21    4.42
  -3   1  10    0.65    1.42
  -1   1  10   -0.86    1.32
  -8   2  10   66.26    7.37
  -6   2  10   18.73    4.00
  -4   2  10   11.68    3.39
   0   0   0    0.00    0.00
;
_shelx_hkl_checksum              36291
#END Tags that were not found in dictionaries
loop_
_space_group_symop_operation_xyz
'x, y, z'
'-x, y, -z'
'x+1/2, y+1/2, z'
'-x+1/2, y+1/2, -z'
'-x, -y, -z'
'x, -y, z'
'-x+1/2, -y+1/2, -z'
'x+1/2, -y+1/2, z'
loop_
_atom_site_label
_atom_site_type_symbol
_atom_site_fract_x
_atom_site_fract_y
_atom_site_fract_z
_atom_site_U_iso_or_equiv
_atom_site_adp_type
_atom_site_occupancy
_atom_site_site_symmetry_order
_atom_site_calc_flag
_atom_site_refinement_flags_posn
_atom_site_refinement_flags_adp
_atom_site_refinement_flags_occupancy
Gd1 Gd 0.34635(3) 0.0000 0.06106(6) 0.00665(11) Uani 1 2 d S T P
Gd2 Gd 0.58893(3) 0.0000 0.38421(6) 0.00631(11) Uani 1 2 d S T P
Co Co 0.21972(8) 0.0000 0.62681(16) 0.0070(2) Uani 1 2 d S T P
In In 0.0000 0.0000 0.0000 0.0078(2) Uani 0.970(4) 4 d S T .
Ge1 Ge 0.06698(6) 0.0000 0.65795(13) 0.00688(18) Uani 1 2 d S T P
Ge2 Ge 0.20596(6) 0.0000 0.26912(13) 0.00716(18) Uani 1 2 d S T P
loop_
_atom_site_aniso_label
_atom_site_aniso_U_11
_atom_site_aniso_U_22
_atom_site_aniso_U_33
_atom_site_aniso_U_23
_atom_site_aniso_U_13
_atom_site_aniso_U_12
Gd1 0.0065(2) 0.0068(2) 0.00633(18) 0.000 0.00144(14) 0.000
Gd2 0.0063(2) 0.0061(2) 0.00680(18) 0.000 0.00245(14) 0.000
Co 0.0061(5) 0.0072(5) 0.0075(5) 0.000 0.0020(4) 0.000
In 0.0082(4) 0.0084(4) 0.0074(4) 0.000 0.0033(3) 0.000
Ge1 0.0063(4) 0.0067(4) 0.0072(4) 0.000 0.0014(3) 0.000
Ge2 0.0079(4) 0.0063(4) 0.0077(4) 0.000 0.0030(3) 0.000
loop_
_atom_type_symbol
_atom_type_description
_atom_type_scat_dispersion_real
_atom_type_scat_dispersion_imag
_atom_type_scat_source
Co Co 0.3494 0.9721 'International Tables Vol C Tables 4.2.6.8 and 6.1.1.4'
Ge Ge 0.1547 1.8001 'International Tables Vol C Tables 4.2.6.8 and 6.1.1.4'
In In -0.7276 1.3100 'International Tables Vol C Tables 4.2.6.8 and 6.1.1.4'
Gd Gd -0.1653 3.9035 'International Tables Vol C Tables 4.2.6.8 and 6.1.1.4'
loop_
_geom_angle_atom_site_label_1
_geom_angle_atom_site_label_2
_geom_angle_atom_site_label_3
_geom_angle
_geom_angle_site_symmetry_1
_geom_angle_site_symmetry_3
Ge1 Gd1 Ge1 92.52(4) 7_556 7_546
Ge1 Gd1 Ge2 85.53(3) 7_556 .
Ge1 Gd1 Ge2 85.53(3) 7_546 .
Ge1 Gd1 Ge2 166.50(3) 7_556 7_545
Ge1 Gd1 Ge2 88.52(3) 7_546 7_545
Ge2 Gd1 Ge2 107.98(3) . 7_545
Ge1 Gd1 Ge2 88.52(3) 7_556 7
Ge1 Gd1 Ge2 166.50(3) 7_546 7
Ge2 Gd1 Ge2 107.98(3) . 7
Ge2 Gd1 Ge2 87.37(4) 7_545 7
Ge1 Gd1 Co 133.71(2) 7_556 1_554
Ge1 Gd1 Co 133.706(19) 7_546 1_554
Ge2 Gd1 Co 98.43(4) . 1_554
Ge2 Gd1 Co 46.20(2) 7_545 1_554
Ge2 Gd1 Co 46.20(2) 7 1_554
Ge1 Gd1 In 54.87(3) 7_556 3
Ge1 Gd1 In 110.42(3) 7_546 3
Ge2 Gd1 In 136.697(17) . 3
Ge2 Gd1 In 112.28(3) 7_545 3
Ge2 Gd1 In 59.70(2) 7 3
Co Gd1 In 97.94(3) 1_554 3
Ge1 Gd1 In 110.42(3) 7_556 3_545
Ge1 Gd1 In 54.87(3) 7_546 3_545
Ge2 Gd1 In 136.697(17) . 3_545
Ge2 Gd1 In 59.70(2) 7_545 3_545
Ge2 Gd1 In 112.28(3) 7 3_545
Co Gd1 In 97.94(3) 1_554 3_545
In Gd1 In 79.53(3) 3 3_545
Ge1 Gd1 Co 44.38(3) 7_556 7_556
Ge1 Gd1 Co 100.32(4) 7_546 7_556
Ge2 Gd1 Co 43.70(2) . 7_556
Ge2 Gd1 Co 148.39(3) 7_545 7_556
Ge2 Gd1 Co 89.83(3) 7 7_556
Co Gd1 Co 114.23(3) 1_554 7_556
In Gd1 Co 93.11(3) 3 7_556
In Gd1 Co 147.74(2) 3_545 7_556
Ge1 Gd1 Co 100.32(4) 7_556 7_546
Ge1 Gd1 Co 44.38(3) 7_546 7_546
Ge2 Gd1 Co 43.70(2) . 7_546
Ge2 Gd1 Co 89.83(3) 7_545 7_546
Ge2 Gd1 Co 148.39(3) 7 7_546
Co Gd1 Co 114.23(3) 1_554 7_546
In Gd1 Co 147.74(2) 3 7_546
In Gd1 Co 93.11(3) 3_545 7_546
Co Gd1 Co 76.43(4) 7_556 7_546
Ge1 Gd1 Gd1 140.80(3) 7_556 7_545
Ge1 Gd1 Gd1 84.98(3) 7_546 7_545
Ge2 Gd1 Gd1 55.27(2) . 7_545
Ge2 Gd1 Gd1 52.71(2) 7_545 7_545
Ge2 Gd1 Gd1 102.62(3) 7 7_545
Co Gd1 Gd1 61.61(2) 1_554 7_545
In Gd1 Gd1 159.42(2) 3 7_545
In Gd1 Gd1 99.95(3) 3_545 7_545
Co Gd1 Gd1 97.54(3) 7_556 7_545
Co Gd1 Gd1 52.61(3) 7_546 7_545
Ge1 Gd1 Gd1 84.98(3) 7_556 7
Ge1 Gd1 Gd1 140.80(3) 7_546 7
Ge2 Gd1 Gd1 55.27(2) . 7
Ge2 Gd1 Gd1 102.62(3) 7_545 7
Ge2 Gd1 Gd1 52.71(2) 7 7
Co Gd1 Gd1 61.61(2) 1_554 7
In Gd1 Gd1 99.95(3) 3 7
In Gd1 Gd1 159.42(2) 3_545 7
Co Gd1 Gd1 52.61(3) 7_556 7
Co Gd1 Gd1 97.54(3) 7_546 7
Gd1 Gd1 Gd1 73.28(3) 7_545 7
Ge1 Gd2 Ge1 91.72(4) 3 3_545
Ge1 Gd2 Co 109.16(3) 3 5_656
Ge1 Gd2 Co 109.16(3) 3_545 5_656
Ge1 Gd2 Ge2 82.56(3) 3 3
Ge1 Gd2 Ge2 150.01(3) 3_545 3
Co Gd2 Ge2 47.12(2) 5_656 3
Ge1 Gd2 Ge2 150.01(3) 3 3_545
Ge1 Gd2 Ge2 82.56(3) 3_545 3_545
Co Gd2 Ge2 47.12(2) 5_656 3_545
Ge2 Gd2 Ge2 87.84(4) 3 3_545
Ge1 Gd2 Co 47.84(3) 3 3
Ge1 Gd2 Co 108.63(4) 3_545 3
Co Gd2 Co 61.37(3) 5_656 3
Ge2 Gd2 Co 47.41(3) 3 3
Ge2 Gd2 Co 106.30(4) 3_545 3
Ge1 Gd2 Co 108.63(4) 3 3_545
Ge1 Gd2 Co 47.84(3) 3_545 3_545
Co Gd2 Co 61.37(3) 5_656 3_545
Ge2 Gd2 Co 106.30(4) 3 3_545
Ge2 Gd2 Co 47.41(3) 3_545 3_545
Co Gd2 Co 87.29(4) 3 3_545
Ge1 Gd2 Ge1 107.84(3) 3 7_546
Ge1 Gd2 Ge1 49.01(3) 3_545 7_546
Co Gd2 Ge1 137.24(2) 5_656 7_546
Ge2 Gd2 Ge1 159.92(3) 3 7_546
Ge2 Gd2 Ge1 90.53(3) 3_545 7_546
Co Gd2 Ge1 150.79(3) 3 7_546
Co Gd2 Ge1 86.99(3) 3_545 7_546
Ge1 Gd2 Ge1 49.01(3) 3 7_556
Ge1 Gd2 Ge1 107.84(3) 3_545 7_556
Co Gd2 Ge1 137.24(2) 5_656 7_556
Ge2 Gd2 Ge1 90.53(3) 3 7_556
Ge2 Gd2 Ge1 159.92(3) 3_545 7_556
Co Gd2 Ge1 86.99(3) 3 7_556
Co Gd2 Ge1 150.79(3) 3_545 7_556
Ge1 Gd2 Ge1 84.19(4) 7_546 7_556
Ge1 Gd2 Ge2 78.31(3) 3 5_656
Ge1 Gd2 Ge2 78.31(3) 3_545 5_656
Co Gd2 Ge2 45.02(3) 5_656 5_656
Ge2 Gd2 Ge2 71.70(3) 3 5_656
Ge2 Gd2 Ge2 71.70(3) 3_545 5_656
Co Gd2 Ge2 43.76(2) 3 5_656
Co Gd2 Ge2 43.76(2) 3_545 5_656
Ge1 Gd2 Ge2 126.52(2) 7_546 5_656
Ge1 Gd2 Ge2 126.52(2) 7_556 5_656
Ge1 Gd2 In 150.64(3) 3 3_545
Ge1 Gd2 In 88.44(3) 3_545 3_545
Co Gd2 In 98.44(2) 5_656 3_545
Ge2 Gd2 In 110.70(3) 3 3_545
Ge2 Gd2 In 58.99(3) 3_545 3_545
Co Gd2 In 156.60(3) 3 3_545
Co Gd2 In 93.06(3) 3_545 3_545
Ge1 Gd2 In 52.41(2) 7_546 3_545
Ge1 Gd2 In 103.27(3) 7_556 3_545
Ge2 Gd2 In 130.197(16) 5_656 3_545
Ge1 Gd2 In 88.44(3) 3 3
Ge1 Gd2 In 150.64(3) 3_545 3
Co Gd2 In 98.44(2) 5_656 3
Ge2 Gd2 In 58.99(3) 3 3
Ge2 Gd2 In 110.70(3) 3_545 3
Co Gd2 In 93.06(3) 3 3
Co Gd2 In 156.60(3) 3_545 3
Ge1 Gd2 In 103.27(3) 7_546 3
Ge1 Gd2 In 52.41(2) 7_556 3
Ge2 Gd2 In 130.197(17) 5_656 3
In Gd2 In 77.53(3) 3_545 3
Ge2 Co Ge2 122.45(7) 7_556 7_546
Ge2 Co Ge1 111.04(4) 7_556 .
Ge2 Co Ge1 111.04(4) 7_546 .
Ge2 Co Ge2 101.29(4) 7_556 .
Ge2 Co Ge2 101.29(4) 7_546 .
Ge1 Co Ge2 107.78(5) . .
Ge2 Co Gd2 67.80(3) 7_556 5_656
Ge2 Co Gd2 67.80(3) 7_546 5_656
Ge1 Co Gd2 176.51(5) . 5_656
Ge2 Co Gd2 75.71(4) . 5_656
Ge2 Co Gd2 161.40(4) 7_556 3_445
Ge2 Co Gd2 74.80(3) 7_546 3_445
Ge1 Co Gd2 63.56(3) . 3_445
Ge2 Co Gd2 65.97(3) . 3_445
Gd2 Co Gd2 118.63(3) 5_656 3_445
Ge2 Co Gd2 74.80(3) 7_556 3_455
Ge2 Co Gd2 161.40(4) 7_546 3_455
Ge1 Co Gd2 63.56(3) . 3_455
Ge2 Co Gd2 65.97(3) . 3_455
Gd2 Co Gd2 118.63(3) 5_656 3_455
Gd2 Co Gd2 87.29(4) 3_445 3_455
Ge2 Co Gd1 66.34(3) 7_556 1_556
Ge2 Co Gd1 66.34(3) 7_546 1_556
Ge1 Co Gd1 104.71(5) . 1_556
Ge2 Co Gd1 147.51(5) . 1_556
Gd2 Co Gd1 71.80(3) 5_656 1_556
Gd2 Co Gd1 131.67(2) 3_445 1_556
Gd2 Co Gd1 131.67(2) 3_455 1_556
Ge2 Co Gd1 58.07(3) 7_556 7_556
Ge2 Co Gd1 123.75(5) 7_546 7_556
Ge1 Co Gd1 57.05(2) . 7_556
Ge2 Co Gd1 134.91(3) . 7_556
Gd2 Co Gd1 120.55(3) 5_656 7_556
Gd2 Co Gd1 120.55(4) 3_445 7_556
Gd2 Co Gd1 69.78(3) 3_455 7_556
Gd1 Co Gd1 65.77(3) 1_556 7_556
Ge2 Co Gd1 123.75(5) 7_556 7_546
Ge2 Co Gd1 58.07(3) 7_546 7_546
Ge1 Co Gd1 57.05(2) . 7_546
Ge2 Co Gd1 134.91(3) . 7_546
Gd2 Co Gd1 120.55(3) 5_656 7_546
Gd2 Co Gd1 69.78(3) 3_445 7_546
Gd2 Co Gd1 120.55(4) 3_455 7_546
Gd1 Co Gd1 65.77(3) 1_556 7_546
Gd1 Co Gd1 76.43(4) 7_556 7_546
Ge1 In Ge1 180.00(3) 5_556 1_554
Ge1 In Gd1 55.880(16) 5_556 3_445
Ge1 In Gd1 124.120(16) 1_554 3_445
Ge1 In Gd1 124.120(16) 5_556 7
Ge1 In Gd1 55.880(16) 1_554 7
Gd1 In Gd1 180.000(10) 3_445 7
Ge1 In Gd1 124.120(16) 5_556 7_545
Ge1 In Gd1 55.880(16) 1_554 7_545
Gd1 In Gd1 100.47(3) 3_445 7_545
Gd1 In Gd1 79.53(3) 7 7_545
Ge1 In Gd1 55.880(16) 5_556 3_455
Ge1 In Gd1 124.120(16) 1_554 3_455
Gd1 In Gd1 79.53(3) 3_445 3_455
Gd1 In Gd1 100.47(3) 7 3_455
Gd1 In Gd1 180.000(14) 7_545 3_455
Ge1 In Gd2 59.83(2) 5_556 3_455
Ge1 In Gd2 120.17(2) 1_554 3_455
Gd1 In Gd2 115.59(2) 3_445 3_455
Gd1 In Gd2 64.41(2) 7 3_455
Gd1 In Gd2 111.66(2) 7_545 3_455
Gd1 In Gd2 68.34(2) 3_455 3_455
Ge1 In Gd2 120.17(2) 5_556 7_545
Ge1 In Gd2 59.83(2) 1_554 7_545
Gd1 In Gd2 64.41(2) 3_445 7_545
Gd1 In Gd2 115.59(2) 7 7_545
Gd1 In Gd2 68.34(2) 7_545 7_545
Gd1 In Gd2 111.66(2) 3_455 7_545
Gd2 In Gd2 180.000(10) 3_455 7_545
Ge1 In Gd2 59.83(2) 5_556 3_445
Ge1 In Gd2 120.17(2) 1_554 3_445
Gd1 In Gd2 68.34(2) 3_445 3_445
Gd1 In Gd2 111.66(2) 7 3_445
Gd1 In Gd2 64.41(2) 7_545 3_445
Gd1 In Gd2 115.59(2) 3_455 3_445
Gd2 In Gd2 77.53(3) 3_455 3_445
Gd2 In Gd2 102.47(3) 7_545 3_445
Ge1 In Gd2 120.17(2) 5_556 7
Ge1 In Gd2 59.83(2) 1_554 7
Gd1 In Gd2 111.66(2) 3_445 7
Gd1 In Gd2 68.34(2) 7 7
Gd1 In Gd2 115.59(2) 7_545 7
Gd1 In Gd2 64.41(2) 3_455 7
Gd2 In Gd2 102.47(3) 3_455 7
Gd2 In Gd2 77.53(3) 7_545 7
Gd2 In Gd2 180.0 3_445 7
Co Ge1 Ge1 118.63(6) . 5_556
Co Ge1 In 132.51(4) . 1_556
Ge1 Ge1 In 108.87(6) 5_556 1_556
Co Ge1 Gd1 78.56(3) . 7_556
Ge1 Ge1 Gd1 132.56(2) 5_556 7_556
In Ge1 Gd1 69.25(3) 1_556 7_556
Co Ge1 Gd1 78.56(3) . 7_546
Ge1 Ge1 Gd1 132.56(2) 5_556 7_546
In Ge1 Gd1 69.25(3) 1_556 7_546
Gd1 Ge1 Gd1 92.52(4) 7_556 7_546
Co Ge1 Gd2 68.60(3) . 3_445
Ge1 Ge1 Gd2 69.77(3) 5_556 3_445
In Ge1 Gd2 133.14(2) 1_556 3_445
Gd1 Ge1 Gd2 147.04(4) 7_556 3_445
Gd1 Ge1 Gd2 78.58(3) 7_546 3_445
Co Ge1 Gd2 68.60(3) . 3_455
Ge1 Ge1 Gd2 69.77(3) 5_556 3_455
In Ge1 Gd2 133.14(2) 1_556 3_455
Gd1 Ge1 Gd2 78.58(3) 7_556 3_455
Gd1 Ge1 Gd2 147.04(4) 7_546 3_455
Gd2 Ge1 Gd2 91.72(4) 3_445 3_455
Co Ge1 Gd2 136.57(2) . 7_546
Ge1 Ge1 Gd2 61.22(3) 5_556 7_546
In Ge1 Gd2 67.76(2) 1_556 7_546
Gd1 Ge1 Gd2 136.81(3) 7_556 7_546
Gd1 Ge1 Gd2 76.14(3) 7_546 7_546
Gd2 Ge1 Gd2 72.16(3) 3_445 7_546
Gd2 Ge1 Gd2 130.98(3) 3_455 7_546
Co Ge1 Gd2 136.57(2) . 7_556
Ge1 Ge1 Gd2 61.22(3) 5_556 7_556
In Ge1 Gd2 67.76(2) 1_556 7_556
Gd1 Ge1 Gd2 76.14(3) 7_556 7_556
Gd1 Ge1 Gd2 136.81(3) 7_546 7_556
Gd2 Ge1 Gd2 130.98(3) 3_445 7_556
Gd2 Ge1 Gd2 72.16(3) 3_455 7_556
Gd2 Ge1 Gd2 84.19(4) 7_546 7_556
Co Ge2 Co 122.45(7) 7_556 7_546
Co Ge2 Co 78.71(4) 7_556 .
Co Ge2 Co 78.71(4) 7_546 .
Co Ge2 Gd1 78.23(4) 7_556 .
Co Ge2 Gd1 78.23(4) 7_546 .
Co Ge2 Gd1 130.92(5) . .
Co Ge2 Gd2 142.63(4) 7_556 3_445
Co Ge2 Gd2 65.08(4) 7_546 3_445
Co Ge2 Gd2 66.62(3) . 3_445
Gd1 Ge2 Gd2 135.574(19) . 3_445
Co Ge2 Gd2 65.08(4) 7_556 3_455
Co Ge2 Gd2 142.63(4) 7_546 3_455
Co Ge2 Gd2 66.62(3) . 3_455
Gd1 Ge2 Gd2 135.574(19) . 3_455
Gd2 Ge2 Gd2 87.84(4) 3_445 3_455
Co Ge2 Gd1 145.85(4) 7_556 7_545
Co Ge2 Gd1 67.46(3) 7_546 7_545
Co Ge2 Gd1 134.13(2) . 7_545
Gd1 Ge2 Gd1 72.02(3) . 7_545
Gd2 Ge2 Gd1 71.33(3) 3_445 7_545
Gd2 Ge2 Gd1 129.65(4) 3_455 7_545
Co Ge2 Gd1 67.46(3) 7_556 7
Co Ge2 Gd1 145.85(4) 7_546 7
Co Ge2 Gd1 134.13(2) . 7
Gd1 Ge2 Gd1 72.02(3) . 7
Gd2 Ge2 Gd1 129.65(4) 3_445 7
Gd2 Ge2 Gd1 71.33(3) 3_455 7
Gd1 Ge2 Gd1 87.37(4) 7_545 7
Co Ge2 Gd2 61.44(3) 7_556 5_656
Co Ge2 Gd2 61.44(3) 7_546 5_656
Co Ge2 Gd2 59.27(4) . 5_656
Gd1 Ge2 Gd2 71.65(4) . 5_656
Gd2 Ge2 Gd2 108.30(3) 3_445 5_656
Gd2 Ge2 Gd2 108.30(3) 3_455 5_656
Gd1 Ge2 Gd2 121.57(3) 7_545 5_656
Gd1 Ge2 Gd2 121.57(3) 7 5_656
loop_
_geom_bond_atom_site_label_1
_geom_bond_atom_site_label_2
_geom_bond_distance
_geom_bond_site_symmetry_2
Gd1 Ge1 2.9400(10) 7_556
Gd1 Ge1 2.9400(10) 7_546
Gd1 Ge2 2.9769(13) .
Gd1 Ge2 3.0753(11) 7_545
Gd1 Ge2 3.0753(11) 7
Gd1 Co 3.1012(15) 1_554
Gd1 In 3.3209(9) 3
Gd1 In 3.3209(9) 3_545
Gd1 Co 3.4338(12) 7_556
Gd1 Co 3.4338(12) 7_546
Gd1 Gd1 3.5593(12) 7_545
Gd1 Gd1 3.5593(12) 7
Gd2 Ge1 2.9598(10) 3
Gd2 Ge1 2.9598(10) 3_545
Gd2 Co 2.9995(17) 5_656
Gd2 Ge2 3.0622(10) 3
Gd2 Ge2 3.0622(10) 3_545
Gd2 Co 3.0776(11) 3
Gd2 Co 3.0776(11) 3_545
Gd2 Ge1 3.1687(11) 7_546
Gd2 Ge1 3.1687(11) 7_556
Gd2 Ge2 3.3814(14) 5_656
Gd2 In 3.3924(9) 3_545
Gd2 In 3.3924(9) 3
Co Ge2 2.4234(10) 7_556
Co Ge2 2.4234(10) 7_546
Co Ge1 2.4503(17) .
Co Ge2 2.4683(17) .
Co Gd2 2.9996(17) 5_656
Co Gd2 3.0776(11) 3_445
Co Gd2 3.0776(11) 3_455
Co Gd1 3.1013(15) 1_556
Co Gd1 3.4338(12) 7_556
Co Gd1 3.4338(12) 7_546
In Ge1 2.9044(13) 5_556
In Ge1 2.9044(13) 1_554
In Gd1 3.3209(9) 3_445
In Gd1 3.3209(9) 7
In Gd1 3.3209(9) 7_545
In Gd1 3.3209(9) 3_455
In Gd2 3.3923(9) 3_455
In Gd2 3.3923(9) 7_545
In Gd2 3.3923(9) 3_445
In Gd2 3.3923(9) 7
Ge1 Ge1 2.5493(19) 5_556
Ge1 In 2.9044(13) 1_556
Ge1 Gd1 2.9399(10) 7_556
Ge1 Gd1 2.9399(10) 7_546
Ge1 Gd2 2.9598(10) 3_445
Ge1 Gd2 2.9598(10) 3_455
Ge1 Gd2 3.1687(11) 7_546
Ge1 Gd2 3.1687(11) 7_556
Ge2 Co 2.4234(10) 7_556
Ge2 Co 2.4234(10) 7_546
Ge2 Gd2 3.0623(10) 3_445
Ge2 Gd2 3.0623(10) 3_455
Ge2 Gd1 3.0753(11) 7_545
Ge2 Gd1 3.0753(11) 7
Ge2 Gd2 3.3814(14) 5_656
