#------------------------------------------------------------------------------
#$Date: 2016-02-16 22:30:59 +0200 (Tue, 16 Feb 2016) $
#$Revision: 176467 $
#$URL: svn://www.crystallography.net/cod/cif/4/34/24/4342499.cif $
#------------------------------------------------------------------------------
#
# This file is available in the Crystallography Open Database (COD),
# http://www.crystallography.net/
#
# All data on this site have been placed in the public domain by the
# contributors.
#
data_4342499
loop_
_publ_author_name
'Clarke, Samantha M.'
'Freedman, Danna E.'
_publ_section_title
;
 (BiSe)1.23CrSe2 and (BiSe)1.22(Cr1.2Se2)2: Magnetic Anisotropy in the
 First Structurally Characterized Bi-Se-Cr Ternary Compounds.
;
_journal_issue                   6
_journal_name_full               'Inorganic chemistry'
_journal_page_first              2765
_journal_page_last               2771
_journal_paper_doi               10.1021/ic5029178
_journal_volume                  54
_journal_year                    2015
_chemical_formula_moiety         '0.13(Bi12 Cr10 Se32)'
_chemical_formula_sum            'Bi1.5 Cr1.25 Se4'
_chemical_formula_weight         694.31
_chemical_name_systematic        'Bismuth Chromium Selenide'
_space_group_crystal_system      monoclinic
_space_group_IT_number           8
_space_group_name_Hall           'C -2y'
_space_group_name_H-M_alt        'C 1 m 1'
_symmetry_space_group_name_Hall  'C -2y'
_symmetry_space_group_name_H-M   'C 1 m 1'
_atom_sites_solution_primary     direct
_audit_creation_date             2014-10-28
_audit_creation_method
;
Olex2 1.2
(compiled 2014.09.19 svn.r3010 for OlexSys, GUI svn.r4874)
;
_cell_angle_alpha                90
_cell_angle_beta                 95.04(3)
_cell_angle_gamma                90
_cell_formula_units_Z            8
_cell_length_a                   6.1706(19)
_cell_length_b                   17.748(5)
_cell_length_c                   11.474(4)
_cell_measurement_reflns_used    707
_cell_measurement_temperature    250(2)
_cell_measurement_theta_max      25.14
_cell_measurement_theta_min      4.78
_cell_volume                     1251.7(7)
_computing_molecular_graphics    'Olex2 (Dolomanov et al., 2009)'
_computing_publication_material  'Olex2 (Dolomanov et al., 2009)'
_computing_structure_refinement  'XL (Sheldrick, 2008)'
_computing_structure_solution    'XS (Sheldrick, 2008)'
_diffrn_ambient_temperature      250.0
_diffrn_detector                 'Bruker APEX2 area detector'
_diffrn_detector_area_resol_mean 7.9
_diffrn_detector_type            'CCD area detector'
_diffrn_measured_fraction_theta_full 0.965
_diffrn_measured_fraction_theta_max 0.963
_diffrn_measurement_device       'three-circle diffractometer'
_diffrn_measurement_device_type  'Bruker APEX-II CCD'
_diffrn_measurement_method       '\f and \w scans'
_diffrn_radiation_monochromator  'mirror optics'
_diffrn_radiation_probe          x-ray
_diffrn_radiation_type           MoK\a
_diffrn_radiation_wavelength     0.71073
_diffrn_reflns_av_R_equivalents  0.2564
_diffrn_reflns_av_unetI/netI     0.3584
_diffrn_reflns_Laue_measured_fraction_full 0.965
_diffrn_reflns_Laue_measured_fraction_max 0.963
_diffrn_reflns_limit_h_max       7
_diffrn_reflns_limit_h_min       -7
_diffrn_reflns_limit_k_max       21
_diffrn_reflns_limit_k_min       -22
_diffrn_reflns_limit_l_max       14
_diffrn_reflns_limit_l_min       -13
_diffrn_reflns_number            5563
_diffrn_reflns_point_group_measured_fraction_full 0.905
_diffrn_reflns_point_group_measured_fraction_max 0.896
_diffrn_reflns_theta_full        25.242
_diffrn_reflns_theta_max         26.344
_diffrn_reflns_theta_min         1.782
_diffrn_source                   'microfocus sealed X-ray tube'
_diffrn_source_type              'Incoatec I\ms'
_diffrn_standards_number         0
_exptl_absorpt_coefficient_mu    67.336
_exptl_absorpt_correction_T_max  0.7457
_exptl_absorpt_correction_T_min  0.2774
_exptl_absorpt_correction_type   multi-scan
_exptl_absorpt_process_details
;
SADABS-2012/1 (Bruker,2012) was used for absorption correction.
wR2(int) was 0.1223 before and 0.0661 after correction.
The Ratio of minimum to maximum transmission is 0.3720.
The \l/2 correction factor is 0.0015.
;
_exptl_crystal_colour            'metallic grayish'
_exptl_crystal_colour_lustre     metallic
_exptl_crystal_colour_modifier   grayish
_exptl_crystal_density_diffrn    7.368
_exptl_crystal_F_000             2324
_exptl_crystal_preparation       'Solid state reaction'
_exptl_crystal_recrystallization_method 'Salt flux'
_exptl_crystal_size_max          0.05
_exptl_crystal_size_mid          0.05
_exptl_crystal_size_min          0.02
_refine_diff_density_max         9.981
_refine_diff_density_min         -6.812
_refine_diff_density_rms         1.207
_refine_ls_abs_structure_details
;
 Flack x determined using 201 quotients [(I+)-(I-)]/[(I+)+(I-)]
 (Parsons and Flack (2004), Acta Cryst. A60, s61).
;
_refine_ls_abs_structure_Flack   0.38(16)
_refine_ls_extinction_method     none
_refine_ls_goodness_of_fit_ref   0.958
_refine_ls_hydrogen_treatment    undef
_refine_ls_matrix_type           full
_refine_ls_number_parameters     91
_refine_ls_number_reflns         2368
_refine_ls_number_restraints     2
_refine_ls_restrained_S_all      0.957
_refine_ls_R_factor_all          0.3256
_refine_ls_R_factor_gt           0.1362
_refine_ls_shift/su_max          0.000
_refine_ls_shift/su_mean         0.000
_refine_ls_structure_factor_coef Fsqd
_refine_ls_weighting_details
'w=1/[\s^2^(Fo^2^)+(0.2000P)^2^] where P=(Fo^2^+2Fc^2^)/3'
_refine_ls_weighting_scheme      calc
_refine_ls_wR_factor_gt          0.3102
_refine_ls_wR_factor_ref         0.4516
_reflns_Friedel_coverage         0.853
_reflns_Friedel_fraction_full    0.845
_reflns_Friedel_fraction_max     0.828
_reflns_number_gt                686
_reflns_number_total             2368
_reflns_threshold_expression     'I > 2\s(I)'
_cod_data_source_file            ic5029178_si_002.cif
_cod_data_source_block           cm_5
_cod_depositor_comments
'Adding full bibliography for 4342497--4342502.cif.'
_cod_original_cell_volume        1251.8(7)
_cod_original_formula_sum        'Bi1.50 Cr1.25 Se4'
_cod_database_code               4342499
#BEGIN Tags that were not found in dictionaries:
_shelxl_version_number           2013-3
_shelx_space_group_comment
;
The symmetry employed for this shelxl refinement is uniquely defined
by the following loop, which should always be used as a source of
symmetry information in preference to the above space-group names.
They are only intended as comments.
;
_olex2_refinement_description
;
1. Others
 Fixed U12: Bi3(0) Bi7(-0) Se17(0)
 Fixed U23: Bi3(0) Bi7(0) Se17(0)
 Fixed Y: Bi3(0) Se4(0) Bi7(0) Se8(0) Se12(0) Se17(0) Cr1(0)
;
_shelx_res_file
;
TITL cm_5 in Cm #8
CELL 0.71073 6.1706 17.7484 11.4744 90 95.0365 90
ZERR 8 0.0019 0.0053 0.0035 0 0.0253 0
LATT -7
SYMM +X,-Y,+Z

SFAC Bi Cr Se
UNIT 12 10 32

L.S. 20
PLAN  4
TEMP -23.15
REM reset to Cm #8
BOND
fmap 2 53
ACTA
REM <HKL>C:/Users/Samantha/Documents/XRD/smc64/work/supercell3/cm_5.hkl</HKL>

WGHT    0.200000
FVAR       0.02627
BI1   1   -0.269776   -0.166559   -0.161952    11.00000    0.01655    0.07027 =
         0.06074    0.00876    0.01301    0.00262
SE2   3   -0.028379   -0.098639   -0.386477    11.00000    0.00991
BI3   1    0.206740    0.000000   -0.168833    10.50000    0.05516    0.06383 =
         0.07754    0.00000    0.05112    0.00000
SE4   3    0.464978    0.000000   -0.391623    10.50000    0.01429
SE5   3   -0.524959   -0.198561   -0.393702    11.00000    0.01047
BI6   1   -0.162033   -0.332320    0.133512    11.00000    0.06070    0.07141 =
         0.06999    0.02863    0.02194    0.03141
BI7   1   -0.201395    0.000000    0.143212    10.50000    0.12233    0.06619 =
         0.13450    0.00000   -0.10116    0.00000
SE8   3   -0.239885    0.000000   -0.112050    10.50000    0.01937
SE9   3   -0.193793   -0.166159    0.083162    11.00000    0.04497    0.01908 =
         0.04234   -0.00304    0.01318   -0.00796
SE10  3    0.105617   -0.200830   -0.638145    11.00000    0.01585
CR11  2    0.293136   -0.099761   -0.510113    11.00000    0.00989
SE12  3    0.093193    0.000000   -0.638197    10.50000    0.01347
SE13  3   -0.403461   -0.101332   -0.638252    11.00000    0.01124
CR14  2   -0.199149   -0.199307   -0.515064    11.00000    0.01258
SE15  3   -0.235773   -0.332215   -0.111863    11.00000    0.03062    0.01921 =
         0.04472    0.00714    0.00135    0.00298
SE17  3    0.295849    0.000000    0.087037    10.50000    0.02717    0.03214 =
         0.04546    0.00000   -0.00132    0.00000
CR1   2   -0.206646    0.000000   -0.503075    10.50000    0.00814
HKLF 4

REM  cm_5 in Cm #8
REM R1 =  0.1362 for     686 Fo > 4sig(Fo)  and  0.3256 for all    2368 data
REM     91 parameters refined using      2 restraints

END

WGHT      0.2000      0.0000

REM Highest difference peak  9.981,  deepest hole -6.812,  1-sigma level  1.207
Q1    1   0.1004 -0.2007 -0.6790  11.00000  0.05    9.98
Q2    1  -0.5177 -0.2009 -0.3473  11.00000  0.05    9.80
Q3    1   0.4727  0.0000 -0.3459  10.50000  0.05    9.27
Q4    1  -0.4070 -0.1004 -0.6786  11.00000  0.05    8.94
;
_shelx_res_checksum              559
_shelx_hkl_file
;
   2   0   0  509.17   89.15
   4   0   0  157.42   29.07
   6   0   0  123.71   26.00
   3  -1   0    0.21    4.57
   3   1   0    3.68    4.21
   5  -1   0    5.26    7.91
   5   1   0    8.25    7.58
   7  -1   0    7.95   11.00
   7   1   0   12.87   11.88
   0  -2   0   -1.45    1.23
   0   2   0   -0.51    1.58
   2  -2   0   17.04    5.29
   2   2   0    6.57    4.10
   4  -2   0   -6.67    5.86
   4   2   0   -0.03    5.25
   6  -2   0    6.70   10.20
   6   2   0  -12.94    9.35
   1  -3   0   28.96    6.82
   1  -3   0   30.35    6.10
  -1   3   0   40.24    8.30
   3  -3   0   82.10   16.13
   3   3   0   68.13   13.95
   5  -3   0   47.75   12.31
   5   3   0   40.09   11.25
   7  -3   0   -4.15   11.07
   7   3   0    5.18   11.79
   0  -4   0   -0.76    2.65
   0  -4   0    0.17    2.48
   0   4   0    3.13    3.01
   2  -4   0    2.38    3.00
   2  -4   0    1.86    4.49
   2   4   0    2.77    4.77
  -2   4   0    9.64    4.46
   4  -4   0   -1.75    5.72
   4   4   0   -9.83    5.62
   6  -4   0   -9.37    9.14
   6   4   0   -5.48    9.81
   1  -5   0    0.27    3.75
   1  -5   0   -0.17    2.95
   1  -5   0   -5.02    2.88
  -1   5   0   -1.48    4.14
   1   5   0   -6.24    3.66
  -1   5   0    3.04    3.88
   3  -5   0  490.69   80.65
   3  -5   0  432.75   79.39
  -3   5   0  525.94   90.61
   5  -5   0   23.05    9.21
   5   5   0   18.82    9.70
   7  -5   0   34.63   13.33
   7   5   0    4.78   12.61
   0  -6   0  643.84  113.68
   0  -6   0  656.76  108.72
   0   6   0  816.88  145.81
   0   6   0  815.46  144.92
   0   6   0  899.28  141.07
   2  -6   0  398.94   67.09
  -2  -6   0  358.01   66.63
   2  -6   0  409.51   68.13
  -2   6   0  571.83   95.93
  -2   6   0  573.68   98.61
   4  -6   0   79.06   15.40
   4  -6   0   65.89   14.15
   4   6   0   21.09    9.02
   6  -6   0    8.96    9.58
   6   6   0   -9.39   10.86
   1  -7   0   -1.32    4.26
   1  -7   0    4.68    3.52
   1  -7   0   -4.07    3.16
  -1   7   0    9.15    4.70
   1   7   0   -0.71    4.23
  -1   7   0    1.09    4.47
   3  -7   0    6.70    6.22
   3  -7   0    0.60    4.31
  -3   7   0    3.10    5.46
   5  -7   0   -5.35    7.53
   5  -7   0    9.94    6.92
  -5   7   0   -1.76    5.64
   5   7   0    7.42   10.18
   7  -7   0   15.90   11.41
   0  -8   0    3.29    4.15
   0  -8   0    1.54    3.49
   0   8   0    6.54    4.68
   0   8   0   -7.10    4.39
   0   8   0    4.85    4.42
   2  -8   0    8.97    6.01
   2  -8   0    9.25    4.32
  -2   8   0    5.17    5.58
   2   8   0   13.59    6.12
  -2   8   0    9.98    6.01
   4  -8   0    0.43    6.52
   4  -8   0   -5.76    5.62
  -4   8   0    5.17    5.93
   6  -8   0    7.66    9.73
   6  -8   0  -13.81    8.19
   6   8   0    1.27   12.69
  -6   8   0   -8.29    6.24
  -1  -9   0   13.43    4.87
   1  -9   0   17.85    5.58
  -1  -9   0    9.89    5.36
   1  -9   0    8.78    4.32
   1  -9   0    8.15    4.07
  -1   9   0   13.07    6.48
   1   9   0   13.82    6.09
  -1   9   0   18.54    6.01
  -1   9   0   18.12    6.10
   3  -9   0   47.76   11.01
   3  -9   0   55.72   12.99
  -3   9   0   61.17   13.86
  -3   9   0   61.61   13.63
   5  -9   0   15.90    8.20
   5  -9   0   15.50    8.73
  -5   9   0   13.28    6.96
   7  -9   0  -16.27   10.74
   7  -9   0    9.30    9.79
  -7   9   0   -2.90    8.35
   0 -10   0  269.46   44.70
   0 -10   0  254.30   45.49
   0 -10   0  244.94   43.31
   0  10   0  284.21   42.97
   0  10   0  207.96   41.47
   2 -10   0   34.09    9.52
   2 -10   0   34.38    7.84
  -2  10   0   17.68    7.52
   2  10   0   36.88    8.16
  -2  10   0   14.33    7.60
   4 -10   0   -0.51    8.95
   4 -10   0    3.22    6.68
  -4  10   0   -2.05    6.91
   6 -10   0   76.96   15.79
   6 -10   0   51.08   14.84
  -6  10   0   58.37   14.45
   1 -11   0    5.26    3.99
  -1 -11   0    3.67    5.41
   1 -11   0    1.86    4.37
  -1 -11   0   -3.91    4.70
   1 -11   0    0.17    5.68
  -1  11   0    2.93    5.68
   1  11   0   -1.88    5.84
  -1  11   0   -0.32    5.96
  -1  11   0   -1.41    5.87
   1  11   0   -5.57    5.39
   3 -11   0   -0.84    5.84
   3 -11   0    3.22    8.19
  -3  11   0   -1.17    8.72
   3  11   0    2.62    8.55
  -3  11   0   -0.79    7.90
   5 -11   0    1.94    8.77
   5 -11   0    4.89    8.65
  -5  11   0    6.30    7.94
   0 -12   0  206.99   40.06
   0 -12   0  239.20   38.14
   0  12   0  165.93   34.31
   0  12   0  236.39   35.58
  -2 -12   0  161.99   25.68
   2 -12   0  132.11   23.58
   2 -12   0  121.93   24.54
   2 -12   0  136.92   25.89
   2  12   0  203.57   36.45
  -2  12   0  221.57   36.36
  -2  12   0  180.21   35.38
   4 -12   0   45.67   12.45
   4 -12   0   29.60   10.34
  -4  12   0   30.05   12.29
   4  12   0   67.65   13.06
   6 -12   0    3.17    9.92
   6 -12   0   -4.47    9.71
  -6  12   0   -6.21    8.63
  -1 -13   0    2.73    5.84
   1 -13   0    8.30    5.23
  -1 -13   0   -7.25    6.04
   1 -13   0   -2.02    6.38
  -1  13   0   -2.44    7.11
   1  13   0   -1.70    7.12
  -1  13   0   -5.10    6.42
   3 -13   0   14.06    9.71
   3 -13   0    7.63    7.17
  -3  13   0    8.15    9.20
   3  13   0   12.21   10.05
  -3  13   0  -13.49   10.23
   5 -13   0   -1.31    9.11
   5 -13   0    7.93    9.80
  -5  13   0    6.70    9.79
   0 -14   0   -9.64    6.18
   0 -14   0    0.64    6.29
   0  14   0  -10.88    6.90
   0  14   0    2.00    6.09
   2 -14   0   -6.23    8.03
   2 -14   0   -4.71    6.29
  -2 -14   0   -9.33    7.03
   2 -14   0    0.88    5.86
  -2  14   0   -5.56    8.80
   2  14   0   17.66    9.38
  -2  14   0   -0.91    9.37
   2  14   0    8.54    9.50
   4 -14   0  -10.19    9.20
   4 -14   0    2.22   10.68
   4  14   0  -12.81   10.24
  -4  14   0    2.09    8.82
   1 -15   0    0.70    7.40
   1 -15   0    0.17    6.32
  -1 -15   0    4.39    6.49
  -1 -15   0    3.00    8.29
  -1  15   0   -1.93    7.56
   1  15   0   10.97    8.75
   3 -15   0  145.00   30.93
  -3 -15   0  184.23   31.84
   3 -15   0  175.77   32.33
   3  15   0  221.07   38.97
  -3  15   0  196.56   38.57
   5 -15   0   13.08   11.56
   5 -15   0   24.25   13.06
  -5  15   0   21.82    9.23
   5  15   0   11.36   10.56
   0 -16   0   -0.09    7.57
   0 -16   0    1.48    6.85
  -2 -16   0   -0.79    7.31
   2 -16   0   -3.67    6.54
   2 -16   0    3.17    9.31
  -2  16   0   14.91    9.72
   2  16   0   -5.30   10.80
   4 -16   0  -14.09   11.87
   4 -16   0    0.19   10.56
  -4  16   0    0.77   10.33
   4  16   0    2.55   10.50
   1 -17   0   12.30    7.17
  -1 -17   0  -11.15   10.08
   1 -17   0    3.72    7.82
  -1 -17   0   -6.60    6.78
   1  17   0  -12.86    9.92
  -1  17   0   -0.66    8.03
   3 -17   0   -2.32   10.93
   3  17   0   -0.93   11.47
  -3  17   0    7.98   12.81
   0 -18   0   35.30    9.52
   0 -18   0   -0.38    7.92
   2 -18   0    5.31    7.64
   2 -18   0   24.75   10.25
  -2 -18   0    9.84    8.49
   2  18   0   18.65   12.78
  -2  18   0   28.46   11.57
   4 -18   0   16.11   13.62
   4  18   0   16.41   11.13
   1 -19   0   -1.81    8.23
  -1 -19   0    5.44    7.87
   1 -19   0   -4.54    7.22
  -1 -19   0   -7.89   11.82
  -1  19   0   -2.44    8.67
   3 -19   0   -2.92   11.54
  -3  19   0    3.67   13.94
   3  19   0    1.89   12.39
   0 -20   0   78.75   18.86
   0 -20   0   80.60   17.34
   2 -20   0   16.42   11.18
   2  20   0   19.35   13.94
  -2  20   0   18.39   11.79
   1 -21   0   -6.62    8.18
  -1 -21   0    8.69   13.74
  -1 -21   0   13.39    9.29
   1 -21   0   -2.89    9.14
  -1  21   0    4.37    9.26
   0 -22   0    9.64    9.17
   0 -22   0  -14.14   10.45
   6   0  -1   87.05   18.81
   4   0  -1  544.44   95.66
   2   0  -1  652.35  114.02
   0   0   1    1.40    1.41
   0   0  -1    1.04    1.36
   2   0   1  312.96   55.02
   4   0   1  316.24   56.35
   6   0   1   71.57   17.33
   7  -1  -1    1.70   10.00
   7   1  -1   12.29   10.76
   5  -1  -1   -2.21    7.01
   5   1  -1   -2.32    6.66
   3  -1  -1    5.65    4.58
   3   1  -1    1.14    3.85
   1  -1   1    5.19    2.05
   1  -1   1    2.92    2.64
  -1  -1  -1   -2.54    2.16
  -1   1  -1   -3.42    3.06
   1   1   1   -2.76    2.93
   3  -1   1    3.90    4.72
   3   1   1    9.98    4.74
   5  -1   1  -10.06    8.52
   5   1   1   -5.04    7.55
   7  -1   1    1.06   12.01
   7   1   1    7.43   12.34
   6  -2  -1   13.79    9.28
   6   2  -1    0.17    9.09
   4  -2  -1   26.89    7.67
   4   2  -1   14.45    6.00
   2  -2  -1    4.74    3.66
   2   2  -1    4.93    3.53
   0  -2   1    0.15    1.40
   0  -2  -1   -2.03    1.57
   0  -2   1    0.10    1.45
   0   2  -1   -2.13    1.79
   0   2   1   -0.62    1.97
   2  -2   1    2.65    4.67
  -2   2  -1    7.28    3.70
   2   2   1   -1.00    4.33
   4  -2   1    6.27    6.73
   4   2   1   13.11    6.40
   6  -2   1    1.61   11.11
   6   2   1   -7.20   10.13
   7  -3  -1   23.01   11.51
   7   3  -1    3.39   12.00
   5  -3  -1   58.94   13.41
   5   3  -1   37.44   10.41
   3  -3  -1   28.86    7.05
   3   3  -1   25.77    6.86
   1  -3  -1   70.80   12.81
   1  -3  -1   72.42   13.18
  -1   3   1   86.01   15.46
   1  -3   1  167.57   31.18
   1  -3   1  181.86   30.61
  -1   3  -1  206.05   35.11
  -1   3  -1  210.00   36.12
   1   3   1  208.12   36.30
   3  -3   1   76.70   15.46
  -3   3  -1   66.78   11.69
   3   3   1   48.48   12.78
   5  -3   1   -0.74    8.82
   5   3   1   -4.26    7.85
   7  -3   1    1.90   12.21
   7   3   1   -6.64   12.63
   6  -4  -1  -12.53    8.47
   6   4  -1   -5.24    9.22
   4  -4  -1   -1.68    5.05
   4   4  -1    2.61    5.71
   2  -4  -1    3.04    4.20
   2  -4  -1    4.12    3.14
  -2   4   1    1.75    4.19
   2   4  -1   -3.65    4.17
   0  -4  -1    3.66    2.80
   0  -4   1    0.89    2.88
   0  -4  -1    2.44    2.69
   0  -4   1   -1.04    2.32
   0   4   1   -2.47    3.23
   0   4  -1   -2.27    2.99
   0   4  -1   -0.38    3.34
   0   4   1   -4.99    2.88
   2  -4   1   -5.73    3.18
   2  -4   1   -5.42    4.57
  -2   4  -1    2.41    4.15
   2   4   1   -2.38    5.01
   4  -4   1    8.08    5.23
   4  -4   1    1.52    6.51
   4   4   1    7.76    6.57
  -4   4  -1    7.44    4.87
   6  -4   1  -13.00   10.23
   6   4   1   -0.50   10.34
   7  -5  -1   19.47   10.75
   5  -5  -1   10.68    7.52
   5   5  -1   -4.10    8.01
   3  -5  -1  362.86   63.02
   3  -5  -1  363.86   63.99
  -3   5   1  445.10   76.80
   1  -5  -1   57.13   10.75
   1  -5  -1   49.84   10.30
   1  -5  -1   56.00    9.88
  -1   5   1   74.77   13.30
  -1   5   1   78.11   13.02
   1   5  -1   61.23   13.01
   1  -5   1   56.81   13.28
   1  -5   1   78.64   12.23
   1  -5   1   67.03   12.65
  -1   5  -1   85.54   15.89
  -1   5  -1  102.66   16.55
   1   5   1   82.08   16.53
   3  -5   1   52.51   10.47
   3  -5   1   47.68   11.63
   3   5   1   30.31   10.69
  -3   5  -1   57.06   10.07
   5  -5   1   71.86   17.46
   5   5   1   55.17   14.12
   7  -5   1   96.91   22.71
   7   5   1   50.08   17.52
   6  -6  -1   47.64   12.72
   6   6  -1    8.16   10.73
   4  -6  -1  197.56   35.67
  -4   6   1  250.01   43.71
   2  -6  -1  495.63   84.91
   2  -6  -1  485.07   86.04
  -2   6   1  672.20  115.63
   0  -6   1  283.48   49.64
   0  -6  -1  274.87   49.58
   0  -6  -1  279.58   47.37
   0  -6   1  289.83   47.33
   0   6  -1  344.73   60.39
   0   6   1  351.23   60.38
   0   6   1  356.34   58.78
   0   6   1  344.03   60.77
   0   6  -1  349.33   58.74
   0   6  -1  354.88   60.79
   2  -6   1   29.11    6.88
   2  -6   1   17.90    5.35
  -2   6  -1   27.17    7.68
   2   6   1   38.78    8.73
  -2   6  -1   39.23    8.97
   4  -6   1    3.47    7.27
   4  -6   1   24.39    6.49
   4   6   1   -4.32    8.18
  -4   6  -1   10.95    5.72
   6  -6   1   23.36   11.46
   6   6   1    5.53   11.50
   7  -7  -1    7.36   10.52
   5  -7  -1    7.57    6.70
   5  -7  -1   -1.02    7.07
  -5   7   1    1.39    5.28
   5   7  -1    0.20    9.81
   3  -7  -1    4.73    4.25
   3  -7  -1   -2.71    6.03
  -3   7   1   -2.16    5.29
  -1  -7   1   -0.12    3.81
   1  -7  -1   -3.85    3.57
   1  -7  -1   -0.93    3.96
   1  -7  -1   -0.95    3.49
   1   7  -1   -3.15    3.83
  -1   7   1   -0.62    4.88
  -1   7   1    0.88    4.60
   1  -7   1    0.57    3.37
   1  -7   1    5.04    3.20
   1  -7   1    0.06    4.62
  -1  -7  -1    1.19    3.58
  -1   7  -1    1.05    5.35
  -1   7  -1   10.23    4.86
   1   7   1    0.87    4.69
  -1   7  -1    6.26    4.45
   3  -7   1   -1.66    6.62
   3  -7   1    3.54    4.60
   3   7   1    7.82    7.32
  -3   7  -1   -0.18    5.12
   5  -7   1   10.04    8.64
   5  -7   1    6.20    7.40
  -5   7  -1   10.93    6.18
   5   7   1   13.30   11.24
   7  -7   1  -10.14   11.22
   7   7   1   26.92   15.97
   6  -8  -1   -0.76    8.92
   6  -8  -1   -2.50    7.93
  -6   8   1    5.71    6.54
   4  -8  -1   17.48    6.13
   4  -8  -1   14.37    8.29
  -4   8   1   20.05    7.22
   2  -8  -1    5.38    4.29
   2  -8  -1    5.30    5.51
  -2  -8   1    8.05    4.23
   2   8  -1   15.20    5.79
  -2   8   1    7.96    5.69
   0  -8  -1    6.47    4.35
   0  -8  -1    4.49    3.78
   0  -8   1    0.20    3.58
   0  -8   1    2.54    4.56
   0  -8  -1   -0.62    3.47
   0   8  -1    5.15    4.16
   0   8   1    3.42    4.78
   0   8   1   -8.48    4.52
   0   8  -1   -3.65    3.99
   0   8   1    0.12    4.62
   0   8  -1    2.27    4.81
   2  -8   1    1.38    3.73
   2  -8   1   -1.13    5.95
   2   8   1    7.85    6.35
  -2   8  -1   -2.87    5.52
  -2   8  -1    7.23    5.40
   4  -8   1    7.49    6.24
   4  -8   1   -1.41    6.91
  -4   8  -1    1.78    5.61
   6  -8   1   -5.42    8.77
   6  -8   1    2.49   10.12
  -6   8  -1   -3.83    6.87
   6   8   1   -2.76   13.03
   7  -9  -1    4.86   11.28
   5  -9  -1   24.80    8.69
   5  -9  -1   19.75    8.97
  -5   9   1   21.01    7.60
   3  -9  -1   -6.84    6.82
   3  -9  -1    5.62    5.02
  -3   9   1   10.13    7.08
  -3   9   1    4.63    6.69
   1  -9  -1   14.97    5.60
   1  -9  -1    8.14    4.63
  -1  -9   1   23.98    4.90
   1  -9  -1   13.36    4.77
  -1  -9   1    8.37    5.18
  -1   9   1   22.76    6.93
  -1   9   1   28.32    6.56
  -1   9   1   15.96    6.46
   1   9  -1   19.74    6.24
   1  -9   1   48.36    8.42
  -1  -9  -1   47.26    8.81
   1  -9   1   39.01    9.33
   1  -9   1   32.70    8.41
  -1   9  -1   60.72   12.58
   1   9   1   61.12   12.36
  -1   9  -1   55.65   11.97
  -1   9  -1   61.45   13.00
   3  -9   1   18.20    6.31
   3  -9   1   27.54    9.04
  -3   9  -1   28.73    9.29
  -3   9  -1   34.11    8.88
   3   9   1   38.94   10.35
   5  -9   1    6.46    8.65
   5  -9   1    1.32    8.15
  -5   9  -1    8.02    6.80
   6 -10  -1  114.35   24.36
   6 -10  -1  132.58   25.26
  -6  10   1  139.63   26.31
   4 -10  -1    1.22    7.25
   4 -10  -1   27.73    9.27
  -4  10   1   -5.72    7.32
   2 -10  -1   30.10    8.44
   2 -10  -1   29.36    7.28
  -2  10   1    2.80    7.33
   2  10  -1   33.29    7.87
  -2  10   1   23.98    7.35
   0 -10   1  120.71   23.60
   0 -10  -1  128.40   23.66
   0 -10   1  136.04   24.19
   0 -10   1  157.23   25.10
   0 -10  -1  136.93   24.39
   0 -10  -1  152.97   25.06
   0  10   1  198.36   27.99
   0  10   1  150.60   27.83
   0  10   1  119.67   26.99
   0  10  -1  164.07   28.04
   2 -10   1   56.38   10.64
   2 -10   1   51.20   13.14
   2 -10   1   52.78   11.00
  -2  10  -1   60.05   13.92
   2  10   1   64.27   14.48
  -2  10  -1   75.66   14.47
   4 -10   1  119.21   20.80
   4 -10   1   86.11   19.58
  -4  10  -1   86.19   18.04
   6 -10   1    4.30   10.92
   6 -10   1    2.03    9.31
  -6  10  -1    6.79    7.38
   5 -11  -1    4.51    8.14
   5 -11  -1   -0.87    8.32
  -5  11   1   -3.58    7.05
   3 -11  -1   -2.45    7.72
   3 -11  -1   -6.83    6.12
   3  11  -1    2.58    8.24
  -3  11   1   -3.68    8.55
  -3  11   1    4.89    7.89
   1 -11  -1   -3.47    4.53
   1 -11  -1   -1.80    5.76
   1 -11  -1   -0.38    4.44
  -1 -11   1    7.78    4.93
  -1 -11   1   -2.12    4.97
  -1  11   1    0.78    6.11
  -1  11   1    0.59    5.72
  -1  11   1   -0.34    5.53
   1  11  -1    3.18    5.71
  -1 -11  -1    1.71    5.15
  -1 -11  -1    3.56    6.06
   1 -11   1    2.34    5.93
   1 -11   1    2.14    4.35
   1 -11   1   -2.76    3.70
  -1  11  -1   -1.27    5.68
  -1  11  -1    0.91    5.59
  -1  11  -1   -1.18    6.35
   1  11   1   -7.77    6.03
   3 -11   1    8.63    8.93
   3 -11   1    5.84    6.08
  -3  11  -1    0.51    7.60
  -3  11  -1  -11.23    8.39
   3  11   1    8.02    8.83
   5 -11   1    1.42    9.39
   5 -11   1   11.32    8.89
  -5  11  -1    7.59    8.00
   6 -12  -1   15.22   10.14
   6 -12  -1   16.25   10.30
  -6  12   1    7.51    7.55
   4 -12  -1   90.91   21.46
   4 -12  -1  110.56   20.78
   2 -12  -1  146.52   26.28
  -2 -12   1  134.80   25.95
   2  12  -1  208.78   41.29
  -2  12   1  269.60   41.54
  -2  12   1  224.30   40.38
   0 -12   1  100.93   21.38
   0 -12  -1  131.67   20.11
   0 -12   1  104.29   20.06
   0 -12  -1  115.14   21.50
   0  12  -1  108.71   21.62
   0  12   1   98.25   20.77
   0  12   1  141.90   21.64
   2 -12   1   16.59    8.08
   2 -12   1    1.41    5.12
   2 -12   1    7.64    4.95
   2  12   1   80.24   12.06
  -2  12  -1   12.25    9.92
  -2  12  -1   30.52   10.30
   4 -12   1   -2.30   10.49
   4 -12   1   11.24    8.39
   4  12   1   29.19   10.09
  -4  12  -1    4.46    9.01
   6 -12   1  -21.78   10.22
   6 -12   1   16.48   10.27
  -6  12  -1   -0.22    9.08
   5 -13  -1   -3.16   10.33
   5 -13  -1    0.27    9.26
  -5  13   1   11.99    8.45
   3 -13  -1   -3.73    7.31
   3 -13  -1    1.13    8.51
  -3  13   1   -0.77   10.58
  -3  13   1   -8.07    9.48
   3  13  -1    6.70    9.87
   1 -13  -1   -5.96    6.70
  -1 -13   1   -5.09    6.01
   1 -13  -1   -6.44    5.12
  -1 -13   1   -5.17    5.19
  -1  13   1   -0.71    7.50
  -1  13   1    7.22    7.35
   1  13  -1   14.07    7.11
  -1 -13  -1   -7.42    6.43
  -1 -13  -1    1.81    6.42
   1 -13   1    8.40    6.87
   1 -13   1    2.77    5.16
   1  13   1   -1.39    7.26
  -1  13  -1   -2.68    6.27
   3 -13   1   -6.42    9.88
   3 -13   1   -9.06    6.91
   3  13   1    5.48   10.18
  -3  13  -1    3.53   10.69
  -3  13  -1    8.53    9.54
   5 -13   1   19.97   10.09
   5 -13   1    3.60   10.19
  -5  13  -1   14.47    9.85
   4 -14  -1   -4.98    9.91
   4 -14  -1   -4.56    8.98
   4  14  -1    2.88   10.07
  -4  14   1    7.48   10.01
   2 -14  -1   -5.41    6.42
   2 -14  -1    1.77    7.53
  -2 -14   1   -6.39    6.62
   2 -14  -1   -9.34    5.74
  -2  14   1   -4.11    8.90
  -2  14   1    7.71    9.38
   2  14  -1   -0.30    8.43
   0 -14   1    1.57    6.02
   0 -14   1   -1.59    6.09
   0 -14  -1    2.61    6.40
   0 -14  -1    0.55    6.41
   0  14   1   -2.97    6.00
   0  14  -1   -5.32    7.19
   0  14   1    4.64    6.98
  -2 -14  -1   -3.58    7.81
   2 -14   1   -2.38    5.43
   2 -14   1   -2.44    9.31
  -2  14  -1  -12.97    8.55
   2  14   1   -2.79    9.09
  -2  14  -1   -0.58    9.26
   4 -14   1   16.83   11.98
   4 -14   1   -4.83    8.76
   4  14   1   -5.24   10.29
  -4  14  -1  -10.98    9.58
   5 -15  -1  -16.63   11.47
   5 -15  -1   -3.50   10.76
  -5  15   1    6.11    8.64
   3 -15  -1  159.46   28.58
   3 -15  -1  134.95   27.91
  -3  15   1  123.12   30.27
   3  15  -1  152.61   30.13
  -3  15   1  191.71   30.77
   1 -15  -1   26.25    8.55
  -1 -15   1   38.49    8.88
  -1 -15   1   12.30    9.46
   1 -15  -1   51.09   10.48
   1  15  -1   64.30   13.00
  -1  15   1   26.37   10.85
   1 -15   1   31.01    9.42
   1 -15   1   40.66   10.96
  -1 -15  -1   53.30   11.02
  -1 -15  -1   34.95   10.94
   1  15   1   31.98   10.03
  -1  15  -1    9.07    7.51
   3 -15   1   56.48   15.70
   3  15   1   59.25   13.71
  -3  15  -1   30.41   14.25
  -3  15  -1   32.44   12.69
   5 -15   1   34.40   12.39
   5 -15   1   39.54   12.88
  -5 -15  -1   26.42   11.12
   5  15   1   25.83   11.50
  -5  15  -1   31.48   12.38
   4 -16  -1  -14.76   10.95
   4 -16  -1   -5.96    9.94
  -4  16   1   10.26   10.83
   4  16  -1    7.70    9.50
   2 -16  -1   -0.13    8.36
  -2 -16   1   -7.00    7.23
   2 -16  -1   -9.27    6.53
  -2  16   1    5.69    9.60
   2  16  -1   -9.18    9.84
   0 -16  -1    2.28    7.83
   0 -16   1  -11.28    7.41
   0 -16   1   -1.64    6.72
   0 -16  -1  -13.71    7.12
   0  16   1    0.40    6.74
   2 -16   1    3.75    9.77
   2 -16   1  -12.91    6.22
  -2 -16  -1   -4.83    8.19
   2  16   1   -3.85   11.00
   2  16   1   -0.20   11.31
  -2  16  -1   -1.14    9.37
   4 -16   1  -16.55   12.40
  -4  16  -1  -10.49    9.53
   4  16   1    3.98   10.91
   3 -17  -1    7.32   10.27
  -3  17   1   -2.71   12.46
   3  17  -1   -5.01   10.64
  -1 -17   1   -1.98    6.89
   1 -17  -1    1.09    8.13
   1 -17  -1    9.38    7.28
  -1 -17   1    7.61    9.89
   1  17  -1    0.99   10.05
  -1  17   1   14.34    8.86
   1 -17   1   -6.82    7.97
   1 -17   1   -9.07    6.95
  -1 -17  -1  -15.31    7.26
  -1 -17  -1    4.71   10.43
  -1  17  -1    4.19    8.13
   1  17   1    0.25   10.59
   3 -17   1    0.51   11.71
  -3 -17  -1    2.01    9.35
   3  17   1    3.55   11.57
  -3  17  -1   -8.76   12.82
   4 -18  -1    4.48   11.99
   4  18  -1   14.43   10.72
   2 -18  -1   23.97    8.15
   2 -18  -1   14.80   10.30
   2  18  -1   31.17   13.68
  -2  18   1   44.18   13.11
   0 -18  -1    7.04    8.43
   0 -18   1   32.68   10.06
   0 -18  -1   37.92    9.80
   0 -18   1   10.90    8.44
  -2 -18  -1   -0.60    8.16
   2 -18   1    5.70   10.10
   2 -18   1   -3.51    7.23
  -2  18  -1    5.25   10.10
   2  18   1   13.21   13.08
   4 -18   1   10.54   14.05
  -4 -18  -1    6.12   10.73
   4  18   1    4.08   11.50
   3 -19  -1    7.83   11.60
   3  19  -1   -6.52   11.72
  -3  19   1   -9.63   12.42
   1 -19  -1   -4.23    7.29
   1 -19  -1   -6.97    8.44
  -1 -19   1   16.62   12.29
  -1  19   1   10.36    9.15
  -1 -19  -1    5.43    8.22
   1 -19   1    9.19    8.62
  -1 -19  -1  -20.01   11.86
   1 -19   1   -1.64    7.53
  -1  19  -1    2.08    8.45
   3 -19   1    0.31   11.47
   3  19   1   -6.71   12.97
  -3  19  -1   21.92   13.98
   2 -20  -1    7.18   10.15
   2 -20  -1   15.19    7.99
  -2  20   1   -3.09   11.82
   2  20  -1   45.16   14.41
   0 -20   1   49.05   11.92
   0 -20  -1   24.18   11.90
   0 -20   1   39.02   12.64
   0 -20  -1   57.15   12.36
   2 -20   1   12.64    8.70
  -2 -20  -1   39.27   10.99
   2 -20   1   16.54   11.46
   2  20   1   13.28   14.46
  -2  20  -1    0.76   10.85
   1 -21  -1   18.39    9.84
   1 -21  -1    7.11    8.50
  -1  21   1   -9.90    9.13
   1 -21   1    1.05    8.55
  -1 -21  -1    5.10   12.65
   1 -21   1  -14.19    8.65
  -1 -21  -1    1.42    9.05
   0 -22  -1    2.30    9.35
   0 -22  -1    4.98   10.54
   0 -22   1    1.84   10.83
   6   0  -2  289.95   52.64
   4   0  -2   48.33   11.10
   2   0  -2 1000.00  174.53
   0   0   2   -1.07    2.86
   0   0   2    1.32    2.80
   0   0  -2    1.11    2.71
  -2   0  -2  337.58   62.22
   2   0   2  356.88   63.10
   2   0   2  376.13   62.14
   4   0   2   41.52   10.29
   6   0   2   92.87   22.88
   7  -1  -2   -6.94    9.18
   5  -1  -2    8.21    6.78
   5   1  -2   -0.05    6.65
   3  -1  -2    6.84    3.95
   3   1  -2    2.77    3.78
  -1   1   2    0.25    2.41
  -1  -1  -2   -6.12    3.63
   1  -1   2    5.30    3.08
   1  -1   2    4.16    2.90
  -1   1  -2    4.48    4.27
   1   1   2    2.69    3.78
  -1   1  -2   -1.33    4.34
   1   1   2    3.65    4.01
   3  -1   2   -0.56    5.00
  -3   1  -2    7.06    5.71
  -3   1  -2    0.62    3.31
   3   1   2    1.26    4.62
   5  -1   2    6.10    8.78
   5   1   2   11.21    8.67
   7  -1   2   25.90   14.48
   7   1   2    3.34   13.52
   6  -2  -2   12.10    8.45
   6   2  -2   -3.91    8.38
   4  -2  -2    7.31    4.76
   4   2  -2    2.34    4.76
   2  -2  -2   -2.14    3.43
   2   2  -2    2.07    2.97
   0  -2   2   -0.15    2.38
   0  -2  -2   -2.39    2.22
   0  -2   2    1.92    2.74
   0  -2  -2   -2.73    2.55
   0   2  -2    2.43    2.58
   0   2   2    2.97    2.75
   0   2   2   -1.25    3.12
   2  -2   2   17.93    4.55
  -2  -2  -2   15.27    5.07
   2  -2   2   14.05    5.32
  -2   2  -2   19.03    5.46
   2   2   2    7.27    5.41
   2   2   2   18.36    5.05
   4  -2   2   10.12    7.51
   4   2   2    2.24    6.00
   6  -2   2   13.75   11.37
   6   2   2    4.99   11.08
   7  -3  -2   20.59   10.97
   5  -3  -2   -1.06    6.24
   5   3  -2   10.88    7.45
   3  -3  -2   32.88    7.36
   3   3  -2   31.56    7.49
  -1  -3   2  106.32   20.03
   1  -3  -2  117.40   20.18
   1  -3  -2  121.16   20.47
  -1   3   2  150.17   26.26
   1  -3   2   40.20    7.41
   1  -3   2   31.12    8.32
   1  -3   2   36.11    6.83
  -1  -3  -2   34.19    7.33
   1   3   2   47.29    9.62
  -1   3  -2   35.00    8.62
  -1   3  -2   46.53    9.04
   3  -3   2   26.76    5.89
   3  -3   2    6.96    6.66
   3   3   2   15.92    6.50
  -3   3  -2   18.88    5.71
   5  -3   2   49.47   13.54
   5   3   2    4.85    8.32
   7  -3   2   42.07   15.68
   7   3   2   32.89   15.62
   6  -4  -2  -10.51    7.63
   4  -4  -2    9.03    5.14
   4   4  -2   -3.32    5.52
   2  -4  -2   -3.32    3.73
   2  -4  -2   -2.97    2.85
   2   4  -2   -2.54    3.48
  -2   4   2    1.83    3.88
   0  -4  -2    0.30    2.91
   0  -4  -2    6.26    2.88
   0  -4   2    2.90    2.81
   0   4   2    0.22    3.58
   0   4   2    0.58    3.21
   0   4  -2    0.73    3.08
   0   4  -2    1.73    3.62
   0   4   2    5.11    3.65
  -2  -4  -2    8.50    4.15
   2  -4   2   -2.73    3.68
   2  -4   2    5.47    5.16
   2   4   2   -1.91    5.13
   2   4   2   -0.69    6.33
  -2   4  -2    0.40    4.84
  -2   4  -2    6.23    4.38
   4  -4   2   -2.91    5.98
   4  -4   2   11.88    7.52
   4   4   2    8.34    7.10
  -4   4  -2   11.92    5.51
   6  -4   2   -1.65   11.40
   6   4   2   11.91   11.72
   7  -5  -2    2.01   10.13
   5  -5  -2   64.44   14.73
   5   5  -2   48.07   12.45
   3  -5  -2   44.79    9.45
   3  -5  -2   48.12   10.50
   3   5  -2   34.25    8.69
   1  -5  -2  106.49   18.38
   1  -5  -2   99.38   18.66
   1   5  -2  132.56   23.21
  -1   5   2  130.00   23.24
  -1   5   2  130.53   22.81
   1  -5   2  353.08   61.45
   1  -5   2  363.11   62.37
  -1  -5  -2  342.49   61.14
  -1  -5  -2  345.95   59.43
   1  -5   2  368.38   59.40
   1   5   2  380.22   75.45
  -1   5  -2  455.61   72.92
  -1   5  -2  467.90   75.00
   3  -5   2    1.49    4.65
   3  -5   2   -0.93    6.13
   3   5   2    1.83    6.41
  -3   5  -2    3.32    4.98
   5  -5   2    3.79    9.37
   5  -5   2    2.54    7.39
   5   5   2   15.60    9.74
  -5   5  -2   13.93    7.02
   7  -5   2   81.46   20.43
   7   5   2   17.89   15.16
   6  -6  -2   66.12   15.08
   4  -6  -2  177.93   32.38
   4   6  -2  123.99   24.63
   2  -6  -2   89.59   15.98
   2  -6  -2   79.54   15.34
  -2   6   2  109.50   21.05
  -2   6   2  122.87   20.52
   0  -6  -2    7.50    3.55
   0  -6  -2    3.04    4.19
   0  -6  -2    9.24    3.67
   0  -6  -2   10.31    4.04
   0  -6   2    6.16    4.10
   0  -6   2    4.09    3.33
   0   6   2    5.78    4.48
   0   6  -2    3.74    3.81
   0   6   2    3.53    4.00
   0   6   2    8.42    4.16
   0   6  -2    9.16    4.58
   0   6  -2    4.82    4.13
   0   6   2    5.97    4.48
   2  -6   2  113.54   19.97
  -2  -6  -2  116.67   20.13
   2  -6   2   99.37   20.96
  -2   6  -2  147.39   25.48
   2   6   2  158.69   26.81
  -2   6  -2  135.61   26.01
   4  -6   2  117.36   21.32
   4  -6   2  106.37   22.71
   4   6   2   83.09   20.14
  -4   6  -2   89.36   17.04
   6  -6   2    6.24    9.27
   6  -6   2   43.40   12.17
   6   6   2   -6.71   11.86
  -6   6  -2   13.66    8.08
   7  -7  -2    1.62    9.95
   5  -7  -2    2.76    7.04
   3  -7  -2   -4.92    4.04
   3  -7  -2   -0.03    5.76
  -3   7   2    3.77    5.22
   1  -7  -2   -4.85    3.45
  -1  -7   2   -5.99    3.77
   1  -7  -2    4.40    3.79
   1  -7  -2    4.20    3.45
  -1   7   2    5.23    4.65
   1   7  -2   -0.67    4.03
  -1   7   2   -7.82    5.14
  -1  -7  -2   -5.41    3.69
   1  -7   2    5.94    3.36
   1  -7   2    4.06    4.97
   1  -7   2   -1.18    3.36
  -1   7  -2    0.21    4.79
  -1   7  -2   -7.15    4.77
   1   7   2   -9.97    5.16
  -1   7  -2    4.15    4.42
  -3  -7  -2    4.27    5.02
   3  -7   2   -2.78    4.94
   3  -7   2   -5.02    6.05
  -3   7  -2    3.18    6.93
   3   7   2  -13.65    8.57
  -3   7  -2    0.43    5.46
   5  -7   2   -1.26    9.16
   5  -7   2   14.17    8.25
  -5   7  -2    8.97    6.94
   5   7   2   -3.06   11.05
   7  -7   2    8.48   12.49
   7  -7   2    5.17    9.54
  -7   7  -2   -5.16    8.90
   7   7   2   20.40   15.84
   6  -8  -2    2.72    7.92
   6  -8  -2   10.23    8.48
   4  -8  -2    6.71    5.42
   4  -8  -2   12.23    7.57
  -4   8   2   -7.95    5.55
   2  -8  -2    6.68    4.77
   2  -8  -2   -1.48    4.03
  -2  -8   2   -2.87    3.87
  -2   8   2   -4.32    5.49
   2   8  -2   -1.10    4.27
  -2   8   2    2.04    5.36
   0  -8  -2   -1.87    3.88
   0  -8  -2   -1.87    3.50
   0  -8   2    4.05    4.46
   0  -8  -2   12.38    4.74
   0  -8   2   -2.91    3.49
   0   8  -2   -7.03    3.98
   0   8   2    3.35    4.37
   0   8  -2   -1.97    4.16
   0   8   2   -5.36    4.31
   0   8  -2    3.35    5.19
   0   8   2   -1.21    4.94
   2  -8   2    2.87    4.36
   2  -8   2    4.58    6.31
  -2  -8  -2    8.57    5.30
   2  -8   2   12.56    4.16
  -2   8  -2    9.38    5.93
   2   8   2    7.80    7.71
  -2   8  -2    9.48    6.22
   4  -8   2    9.85    6.97
   4  -8   2    1.12    7.80
   4   8   2    2.87   10.06
  -4   8  -2   11.83    6.88
   6  -8   2  -10.30    9.07
   6  -8   2  -28.26    9.98
   6   8   2  -21.34   13.27
   7  -9  -2    6.04   10.69
   5  -9  -2    0.41    6.48
   5  -9  -2   -3.95    7.71
  -5   9   2   -3.37    6.04
   3  -9  -2   10.83    5.65
   3  -9  -2   14.61    6.87
  -3   9   2   18.25    7.72
  -3   9   2   30.68    8.50
  -1  -9   2   37.91    7.67
   1  -9  -2   36.16    8.82
   1  -9  -2   40.29    8.02
   1  -9  -2   38.76    7.86
  -1  -9   2   25.70    7.76
  -1   9   2   44.03   11.03
   1   9  -2   44.40   10.41
  -1   9   2   54.22   11.02
  -1   9   2   48.12   10.51
   1  -9   2    5.51    3.86
   1  -9   2    6.31    4.21
  -1  -9  -2   10.60    4.65
   1  -9   2   10.46    5.94
   1   9   2   18.56    5.98
  -1   9  -2   -0.15    5.94
  -1   9  -2   12.23    5.48
  -1   9  -2   10.33    5.61
   3  -9   2   -0.17    8.23
   3  -9   2    8.16    5.76
  -3  -9  -2   11.53    5.89
  -3   9  -2    3.55    8.18
   3   9   2   15.74    8.94
  -3   9  -2    6.00    6.39
   5  -9   2   31.86   11.02
   5  -9   2   23.00   10.14
  -5   9  -2   11.85    7.22
   6 -10  -2   41.13   13.02
   6 -10  -2   56.05   12.87
  -6  10   2   54.20   13.28
   4 -10  -2   73.51   17.10
   4 -10  -2   75.00   15.94
  -4  10   2   69.65   15.76
  -2 -10   2  118.23   23.17
   2 -10  -2  129.12   23.67
   2 -10  -2  134.94   23.05
  -2  10   2  160.43   24.18
   2  10  -2  136.96   23.77
  -2  10   2   91.07   23.53
   0 -10   2    5.28    3.69
   0 -10   2    2.07    4.35
   0 -10  -2   -1.92    4.67
   0 -10   2   11.02    5.25
   0 -10  -2   13.79    4.26
   0 -10  -2    7.87    5.82
   0  10   2    2.22    5.21
   0  10  -2    9.31    4.60
   0  10  -2    4.01    5.84
   0  10   2    8.41    5.55
   0  10  -2   12.24    4.66
   0  10   2    2.70    5.17
   2 -10   2   28.70    8.52
  -2 -10  -2    8.78    6.62
   2 -10   2   25.56    6.34
   2 -10   2   27.68    6.02
   2  10   2   34.90   10.02
  -2  10  -2   49.71   10.47
  -2  10  -2   21.02    8.95
  -4 -10  -2  167.90   34.75
   4 -10   2  218.62   36.71
   4 -10   2  220.47   35.59
   4  10   2  198.10   39.80
  -4  10  -2  233.98   38.99
   6 -10   2   19.65   10.28
   6 -10   2    9.11   11.81
  -6  10  -2    7.66    8.32
   5 -11  -2   -4.28    9.76
   5 -11  -2   -0.76    8.62
  -5  11   2    6.77    7.42
   3 -11  -2   -5.63    7.07
   3 -11  -2   -5.93    6.12
  -3  11   2    1.19    8.96
   3  11  -2   -5.00    6.20
  -3  11   2   13.63    8.34
  -1 -11   2   -5.09    4.63
  -1 -11   2    2.17    4.35
   1 -11  -2   -4.36    4.36
   1 -11  -2   -1.41    4.59
   1 -11  -2   -5.97    5.80
   1  11  -2    0.78    5.61
  -1  11   2   -6.38    6.10
  -1  11   2   10.69    7.21
   1 -11   2   -3.43    4.23
   1 -11   2   -0.48    3.95
  -1 -11  -2    0.86    7.22
  -1 -11  -2    2.13    5.28
   1 -11   2    0.31    6.57
   1  11   2   -3.24    5.96
  -1  11  -2   -6.88    5.81
  -1  11  -2    1.42    6.60
  -1  11  -2   -3.08    5.60
   3 -11   2   -2.71    9.08
   3 -11   2   -4.04    6.19
  -3 -11  -2    2.37    6.38
  -3  11  -2   -1.90    8.90
  -3  11  -2   -5.89    7.20
   3  11   2   -4.65    9.76
   5 -11   2   -6.27    9.23
   5 -11   2   -0.09    9.72
  -5  11  -2    6.02    8.06
   6 -12  -2   13.61    9.78
   6 -12  -2   29.10   10.44
  -6  12   2    6.41    7.36
   4 -12  -2  105.05   18.39
   4 -12  -2   63.38   18.86
   2 -12  -2   31.40    9.36
   2 -12  -2   30.33    8.79
   2 -12  -2   47.32    8.88
  -2  12   2   85.55   14.42
  -2  12   2   67.60   13.30
   2  12  -2   37.39   12.04
   0 -12   2    7.68    5.90
   0 -12   2    2.08    5.30
   0 -12  -2   15.65    6.94
   0 -12  -2    4.37    5.62
   0  12   2   17.43    6.30
   0  12  -2   -0.20    6.58
   0  12   2   -0.25    5.86
   0  12   2    4.08    5.74
   2 -12   2   22.17    6.76
   2 -12   2   25.37    6.34
   2 -12   2   12.32    9.26
  -2  12  -2   34.33   10.85
  -2  12  -2   32.21   11.00
   2  12   2   61.49   12.81
  -4 -12  -2   26.06    8.65
   4 -12   2   31.30   11.54
   4 -12   2   36.82   10.17
  -4  12  -2   29.49   10.77
   4  12   2   44.52   12.69
   6 -12   2   26.82   12.68
   6 -12   2    4.72   10.45
  -6  12  -2   22.87   10.21
   5 -13  -2    2.75    9.39
   5 -13  -2    1.19   10.26
  -5  13   2    1.44    7.87
   3 -13  -2    4.27    7.96
   3 -13  -2    3.73    7.57
   3  13  -2    4.47    7.51
  -3  13   2   -8.14   10.11
  -3  13   2    7.36    9.67
   1 -13  -2   -2.73    5.34
  -1 -13   2    9.64    5.79
  -1 -13   2    6.61    6.19
   1 -13  -2   -3.73    6.75
  -1  13   2    3.91    7.79
   1  13  -2   -7.57    6.80
  -1  13   2   16.42    7.87
   1 -13   2   -1.50    5.10
  -1 -13  -2   -3.89    6.40
  -1 -13  -2    5.70    7.49
   1 -13   2   -4.92    7.21
   1  13   2   13.37    7.59
  -1  13  -2    4.59    6.31
  -3 -13  -2    9.68    7.32
   3 -13   2  -15.04   10.22
   3 -13   2    9.51    7.07
  -3  13  -2   13.08   10.91
   3  13   2    5.95   10.31
  -3  13  -2    5.03    9.23
   5 -13   2   -8.80   10.64
   5 -13   2  -17.60    9.44
  -5 -13  -2   -4.48    7.52
  -5  13  -2   -6.82    9.25
   5  13   2  -15.80    9.91
   4 -14  -2   -1.37    9.26
   4 -14  -2    1.56    9.42
   4  14  -2   -1.10    7.86
  -4  14   2    4.83   10.02
   2 -14  -2    3.08    6.85
   2 -14  -2   -0.88    5.96
   2 -14  -2   -3.02    6.52
   2  14  -2    6.84    8.36
  -2  14   2    4.16    9.67
  -2  14   2    5.05    9.04
   0 -14   2    3.70    6.43
   0 -14   2    5.48    6.10
   0 -14  -2  -10.06    6.51
   0 -14  -2   -0.57    7.45
   0  14   2    1.99    6.12
   0  14  -2    1.49    7.72
   0  14   2    7.10    7.07
   2 -14   2   14.89    9.61
   2 -14   2    0.48    5.52
  -2 -14  -2    1.72    9.11
  -2  14  -2    4.17    9.06
   2  14   2    4.69    8.94
   4 -14   2   -5.18    8.94
  -4 -14  -2   -7.59    7.87
   4 -14   2   -0.04   10.44
  -4  14  -2   -4.18    9.66
   4  14   2    5.17   10.66
   5 -15  -2   12.72   11.69
   5 -15  -2   33.64   11.48
  -5  15   2   23.38   10.02
   3 -15  -2   36.13   11.82
   3 -15  -2   46.14   12.11
   3  15  -2   26.60   10.53
  -3  15   2   15.39   12.59
  -3  15   2   37.55   12.74
   1 -15  -2   36.13    9.45
   1 -15  -2   53.73   11.57
  -1 -15   2   25.40   10.15
  -1 -15   2   42.92    9.81
   1  15  -2   33.30   10.62
  -1  15   2   33.07   10.59
   1 -15   2   92.11   20.01
  -1 -15  -2  122.53   22.48
  -1 -15  -2   92.14   21.25
   1 -15   2  157.29   22.92
  -3 -15  -2   -0.30    8.70
   3 -15   2   17.48   11.57
   3  15   2    8.28   11.19
  -3  15  -2   23.62   12.78
   5 -15   2   -2.81   10.75
   5 -15   2   -9.88   11.75
  -5 -15  -2   11.56    8.77
   5  15   2   12.79   10.94
  -5  15  -2   -0.25   10.86
   4 -16  -2    8.07   10.15
   4 -16  -2   -1.65   10.00
  -4  16   2    6.01   11.24
   4  16  -2   14.75    9.24
   2 -16  -2    0.31    6.89
   2 -16  -2    8.21    7.69
   2  16  -2    6.09    9.86
  -2  16   2   -1.95   10.00
   0 -16   2   -2.62    6.79
   0 -16  -2    6.66    7.88
   0 -16   2   10.66    7.34
   0 -16  -2    1.17    8.21
   0  16   2    3.21    6.76
   2 -16   2    7.35    6.81
   2 -16   2  -15.73    9.32
  -2 -16  -2   -3.30    9.16
  -2  16  -2   -1.32    9.29
   2  16   2   -5.62    9.96
   4 -16   2  -16.86   13.03
  -4 -16  -2    9.04    9.58
   4  16   2  -13.51   10.93
   3 -17  -2    9.52    9.60
  -3  17   2    4.77   11.78
   3  17  -2    4.32   10.42
   1 -17  -2   -4.91    8.86
  -1 -17   2    1.88    9.16
   1 -17  -2    3.59    7.08
  -1  17   2   -3.60    8.65
   1  17  -2   -4.65    9.95
  -1 -17  -2   -0.45    8.53
   1 -17   2   12.09    8.75
  -1 -17  -2   -5.49   10.39
   1 -17   2   -3.74    7.15
   1  17   2   -1.50   11.44
  -1  17  -2  -11.94    7.48
   3 -17   2  -11.05   11.59
  -3 -17  -2   15.84   10.40
  -3 -17  -2    2.66   10.47
  -3  17  -2    9.96   13.30
   3  17   2   -3.76   11.19
   4 -18  -2   24.61   12.14
   4  18  -2   15.51   10.38
   2 -18  -2   12.64    7.97
   2 -18  -2    0.34    8.41
   2  18  -2    2.00   11.60
  -2  18   2    9.69   11.56
   0 -18  -2   25.10    9.04
   0 -18   2   14.13    8.47
   0 -18  -2   10.79    9.33
   0 -18   2    6.43    9.29
   2 -18   2   -3.86    7.25
   2 -18   2   -7.22    9.93
  -2 -18  -2   -8.41    9.49
   2  18   2    3.96   12.92
   2  18   2   18.91   13.81
  -2  18  -2   10.06   10.11
  -4 -18  -2    9.43   11.09
   4 -18   2    3.26   14.43
   4  18   2    4.88   10.71
  -4  18  -2    4.25   17.54
   3 -19  -2   -1.73   10.67
   3  19  -2    1.52   11.72
  -3  19   2   -1.02   13.12
   1 -19  -2   16.91   10.02
   1 -19  -2    5.60    7.51
  -1  19   2    6.64    9.22
   1 -19   2    8.11    8.02
  -1 -19  -2   -4.43    8.91
  -1 -19  -2  -10.58   11.49
   1 -19   2   -1.22    9.12
  -1  19  -2   15.95    8.95
   3 -19   2   13.10   12.39
  -3 -19  -2   -1.43   11.26
  -3 -19  -2   17.44   11.18
   3  19   2   -1.19   13.72
  -3  19  -2  -15.37   13.21
   3  19   2    1.94   13.62
   2 -20  -2   37.11   10.69
   2 -20  -2   37.79   12.74
  -2  20   2   13.96   13.67
   2  20  -2   63.05   15.72
   0 -20   2  -12.22    9.63
   0 -20  -2    9.98    9.24
   0 -20  -2   13.08    9.24
   2 -20   2    2.60    8.30
   2 -20   2   11.92   11.10
  -2 -20  -2   20.71   10.22
  -2  20  -2    5.78   10.64
   1 -21  -2   -7.84    9.63
   1 -21  -2   -1.60    8.12
  -1  21   2   -4.96    9.29
  -1 -21  -2   13.21   12.48
   1 -21   2   -6.67    8.76
   1 -21   2  -12.22    9.71
  -1 -21  -2    3.45    9.30
   6   0  -3   27.00   10.05
   4   0  -3   88.47   16.80
   2   0  -3  822.88  143.62
   0   0   3  166.61   27.70
   0   0   3  166.32   28.53
   0   0  -3  160.15   27.67
   0   0  -3  162.61   28.67
   0   0  -3  155.73   28.67
   2   0   3  483.98   85.81
   2   0   3  504.02   84.64
  -2   0  -3  475.73   84.57
  -4   0  -3  413.03   74.52
   4   0   3  441.81   75.70
   6   0   3    6.17   12.25
   5  -1  -3    1.88    5.98
   5   1  -3   -0.58    6.40
   3  -1  -3    2.33    3.32
   3   1  -3    4.53    3.59
   1  -1  -3   -0.99    2.00
   1  -1  -3   -2.50    3.67
  -1  -1   3   -3.11    3.54
  -1   1   3    0.32    3.10
   1   1  -3   -1.81    3.49
  -1  -1  -3   -0.41    4.75
  -1  -1  -3   -5.66    3.85
   1  -1   3    3.04    3.91
   1  -1   3   -1.15    3.60
   1  -1   3    0.73    3.10
   1   1   3    6.98    4.84
   1   1   3   -2.70    4.00
   1   1   3    0.19    3.69
  -1   1  -3   -5.57    5.18
  -1   1  -3    1.19    5.06
  -3  -1  -3   -0.84    7.61
   3  -1   3    5.72    5.12
   3  -1   3    4.96    4.19
  -3   1  -3    5.06    7.16
   3   1   3    9.07    4.42
   3   1   3    7.95    5.33
   5  -1   3    4.84    8.74
   5   1   3    4.60    8.60
   7  -1   3   17.22   14.65
   7   1   3  -11.41   14.02
   6  -2  -3    3.82    7.64
   4  -2  -3    4.68    4.21
   4   2  -3   -4.14    4.68
   2  -2  -3   14.31    4.27
   0  -2  -3   -0.11    3.40
   0  -2  -3    0.72    3.64
   0  -2  -3   -2.29    3.65
   0  -2   3    0.38    3.57
   0  -2   3   -4.90    3.72
   0   2  -3   -1.82    4.16
   0   2  -3    0.10    3.10
   0   2   3   -9.72    3.66
   0   2   3    2.31    4.12
   2  -2   3    2.94    3.71
  -2  -2  -3    7.29    5.26
   2  -2   3    6.32    4.45
   2   2   3    7.91    5.15
  -2   2  -3   -0.46    5.49
  -2   2  -3   -8.09    5.82
   2   2   3    3.98    5.17
   4  -2   3    2.50    7.93
   4  -2   3    4.52    5.79
  -4   2  -3    1.19    6.56
   4   2   3    3.50    6.44
   6  -2   3  -11.39   11.25
   6   2   3    2.82   11.75
   7  -3  -3  -14.62    8.96
   5  -3  -3   -3.16    6.00
   5   3  -3    5.19    6.82
   3  -3  -3   45.63   10.12
   3   3  -3   42.28    9.21
  -1  -3   3    0.40    3.41
   1  -3  -3    5.47    2.72
   1  -3  -3    3.14    3.10
  -1   3   3    1.17    3.55
   1   3  -3    0.83    3.42
  -1   3   3   -2.45    4.24
   1  -3   3   78.70   12.25
   1  -3   3   73.24   12.83
   1  -3   3   46.99   13.19
   1  -3   3   69.17   12.66
  -1  -3  -3   67.33   12.94
  -1  -3  -3   73.78   12.32
   1   3   3   66.70   13.96
  -1   3  -3   72.75   12.97
  -1   3  -3   67.60   13.49
  -3  -3  -3  170.34   29.38
   3  -3   3  162.22   29.10
   3  -3   3  158.19   30.27
   3   3   3   91.56   17.88
   3   3   3   99.10   18.83
   5  -3   3   93.04   20.50
  -5   3  -3   63.03   12.00
   5   3   3   25.80   11.69
   7  -3   3    2.14   14.01
   7   3   3    3.95   14.72
   6  -4  -3    0.51    7.52
   4  -4  -3   -1.22    4.69
   4   4  -3   -5.57    5.31
   2  -4  -3    2.83    3.83
   2  -4  -3    5.55    3.12
  -2   4   3    3.80    3.91
   0  -4  -3    4.61    3.14
   0  -4   3    3.29    3.54
   0  -4   3   -1.40    3.42
   0  -4   3    2.18    3.37
   0  -4  -3    3.27    3.52
   0  -4  -3    3.56    3.30
   0   4   3   10.13    4.39
   0   4  -3    7.01    4.11
   0   4  -3    0.96    4.08
   0   4  -3    1.31    3.49
   0   4   3    6.15    3.91
   0   4   3    3.29    4.50
   2  -4   3    3.89    4.00
   2  -4   3   -3.15    5.04
  -2  -4  -3   -4.88    4.37
  -2   4  -3   -4.27    4.69
   2   4   3   -6.62    5.40
   2   4   3    4.21    6.79
  -2   4  -3   -3.34    5.43
   4  -4   3    5.81    6.19
  -4  -4  -3   -4.77    6.96
   4  -4   3   -6.06    8.09
   4   4   3   -1.85    7.21
  -4   4  -3    0.19    6.07
   6  -4   3   -7.08   11.16
  -6   4  -3   10.41    8.33
   6   4   3  -20.57   11.89
   7  -5  -3   47.03   13.33
   5  -5  -3  175.93   32.36
   3  -5  -3    1.67    4.73
   3  -5  -3    0.75    3.21
  -3   5   3    1.77    3.88
   3   5  -3   -2.68    4.87
  -1  -5   3    1.31    3.16
   1  -5  -3   -2.79    3.00
   1  -5  -3    1.50    3.20
   1  -5  -3   -0.02    3.37
  -1   5   3    3.48    4.11
   1   5  -3    0.45    3.87
  -1   5   3    6.50    5.17
  -1  -5  -3  290.88   52.15
   1  -5   3  303.61   50.65
   1  -5   3  310.03   52.41
  -1  -5  -3  291.12   50.68
   1  -5   3  315.99   53.29
  -1   5  -3  353.24   61.38
   1   5   3  375.09   63.62
  -1   5  -3  378.41   63.19
  -1   5  -3  356.12   63.43
  -3  -5  -3   25.75    7.02
   3  -5   3   21.18    6.78
   3  -5   3   20.11    8.07
   3   5   3   -1.34    7.40
  -3   5  -3   25.99    6.11
   3   5   3    8.46    8.45
   5  -5   3   84.90   17.61
   5  -5   3   64.52   16.28
   5   5   3   58.57   16.09
  -5   5  -3   68.83   14.59
   7  -5   3   26.91   14.77
  -7   5  -3   22.43   11.05
   7   5   3   18.88   15.30
   6  -6  -3   43.54   11.48
   4  -6  -3   21.41    7.15
  -4   6   3   15.73    5.36
   2  -6  -3   55.79   11.09
   2  -6  -3   60.73   11.61
  -2   6   3   77.20   14.71
   0  -6  -3  271.47   45.30
   0  -6  -3  263.77   46.83
   0  -6   3  242.45   47.51
   0  -6  -3  280.14   46.61
   0  -6   3  286.56   45.30
   0   6   3  313.39   53.80
   0   6  -3  295.05   52.32
   0   6   3  328.36   52.41
   0   6   3  312.60   54.16
   0   6  -3  310.67   53.85
   0   6  -3  309.13   54.19
   2  -6   3  248.57   44.13
   2  -6   3  239.18   45.16
  -2  -6  -3  268.05   44.04
  -2   6  -3  269.83   46.41
   2   6   3  319.74   48.47
  -2   6  -3  243.26   47.56
   4  -6   3   79.71   18.04
   4  -6   3   95.56   16.24
  -4  -6  -3   60.53   15.78
   4   6   3   35.17   14.54
  -4   6  -3   82.48   13.65
   6  -6   3   14.54   12.60
   6   6   3   -0.43   13.12
  -6   6  -3    0.12    8.14
   7  -7  -3    5.35    9.92
   5  -7  -3   13.26    5.55
   5  -7  -3    6.23    7.74
  -5   7   3   21.92    6.45
   3  -7  -3    4.78    4.10
   3  -7  -3    3.74    5.42
  -3   7   3    4.56    4.84
   1  -7  -3    3.00    3.82
   1  -7  -3   -5.41    3.52
   1  -7  -3    2.85    3.49
   1  -7  -3   -1.55    3.76
  -1  -7   3   -1.74    3.39
  -1   7   3   -8.83    4.56
  -1   7   3    4.62    5.99
   1   7  -3   -4.00    4.46
  -1  -7  -3    0.84    4.06
   1  -7   3    3.41    5.06
   1  -7   3    2.94    3.66
  -1  -7  -3    5.86    4.99
   1  -7   3    9.03    3.81
  -1   7  -3    5.61    4.85
   1   7   3    7.23    6.33
  -1   7  -3    6.83    5.23
  -1   7  -3    2.63    4.77
   3  -7   3    6.92    5.70
   3  -7   3  -15.95    6.68
  -3  -7  -3   -0.01    5.73
   3   7   3    5.57    9.63
  -3   7  -3    1.21    5.92
  -3   7  -3   14.05    7.73
   5  -7   3    1.20    8.72
   5  -7   3    4.23    9.89
   5   7   3   -3.27   11.96
  -5   7  -3    9.41    7.49
   6  -8  -3    1.01    8.26
  -6   8   3   -2.37    5.67
   4  -8  -3    9.81    5.21
   4  -8  -3    0.11    7.17
  -4   8   3    6.13    5.53
   2  -8  -3   14.82    5.11
  -2  -8   3   19.34    4.85
   2  -8  -3   14.56    5.58
  -2   8   3   14.44    5.75
   2   8  -3    6.06    4.91
  -2   8   3   10.26    6.32
   0  -8  -3    4.12    4.40
   0  -8  -3    6.49    5.50
   0  -8  -3    3.31    3.65
   0  -8  -3   -0.53    3.97
   0  -8   3    1.45    4.60
   0  -8   3   -0.80    3.74
   0   8  -3    5.63    5.09
   0   8  -3   -1.09    4.39
   0   8   3   -1.10    5.13
   0   8  -3    2.63    4.13
   0   8   3    1.82    4.46
   0   8   3    4.52    4.40
  -2  -8  -3    5.01    4.75
   2  -8   3   -0.30    3.97
   2  -8   3    4.67    4.73
   2  -8   3   -2.52    6.03
  -2  -8  -3   10.42    5.78
   2   8   3   14.49    8.65
  -2   8  -3   -2.82    6.25
  -2   8  -3   -7.70    5.75
   4  -8   3    6.10    8.87
   4  -8   3   21.52    7.96
  -4  -8  -3    3.00    6.25
   4   8   3  -13.27   11.02
  -4   8  -3   -2.95    6.91
   6  -8   3    9.17    9.90
   6  -8   3   12.01   12.03
   6   8   3   -3.78   14.31
  -6   8  -3    5.63    9.15
   5  -9  -3   -7.45    6.37
   5  -9  -3    0.48    8.68
  -5   9   3    7.04    6.15
   3  -9  -3   16.32    6.40
   3  -9  -3    5.96    5.25
  -3   9   3   24.75    8.81
  -3   9   3   10.86    6.64
   1  -9  -3    2.30    4.13
  -1  -9   3    3.32    4.02
  -1  -9   3   -6.69    4.04
   1  -9  -3    2.59    4.82
   1  -9  -3    2.32    3.97
   1  -9  -3    2.48    4.33
  -1   9   3    4.83    4.91
  -1   9   3   -2.15    5.30
   1   9  -3   -3.10    5.09
  -1   9   3    2.11    6.94
   1  -9   3   28.54    7.31
  -1  -9  -3   42.24    8.67
  -1  -9  -3   29.78    7.09
   1  -9   3   27.09    6.60
   1  -9   3   29.88    7.94
  -1   9  -3   17.42    7.10
   1   9   3   45.27    8.00
  -1   9  -3   28.28    7.44
  -1   9  -3   29.29    7.14
   1   9   3   19.75    6.39
   3  -9   3   78.88   16.59
  -3  -9  -3   90.02   16.58
   3  -9   3   77.60   17.96
  -3   9  -3   84.41   18.56
   3   9   3  122.70   20.52
  -3   9  -3   76.47   17.86
   5  -9   3   57.84   14.78
   5  -9   3   70.37   16.29
   5   9   3   31.63   14.12
  -5   9  -3   47.40   11.63
   6 -10  -3   -0.52    7.74
   6 -10  -3   -0.93    9.02
  -6  10   3    8.76    6.47
   4 -10  -3   29.70    8.99
   4 -10  -3   33.93   10.10
  -4  10   3   26.55    8.78
   2 -10  -3  195.24   36.46
   2 -10  -3  210.96   35.94
  -2  10   3  260.42   42.24
   2  10  -3  222.99   42.12
   0 -10  -3    6.14    5.03
   0 -10  -3   15.21    5.45
   0 -10   3   -0.84    4.51
   0 -10  -3   12.46    4.45
   0 -10  -3   16.41    6.54
   0 -10   3   12.73    5.85
   0  10  -3    2.89    4.67
   0  10   3   10.03    5.32
   0  10   3    8.26    5.50
   0  10  -3    8.80    6.13
   0  10  -3   16.09    5.28
   0  10   3   18.74    6.02
   2 -10   3    8.73    7.54
   2 -10   3    8.99    4.60
  -2 -10  -3    7.03    6.58
   2 -10   3    8.12    5.29
  -2 -10  -3    5.59    6.06
  -2  10  -3   13.21    7.37
   2  10   3   10.36    9.32
  -2  10  -3    6.20    7.02
   4 -10   3   82.21   18.34
   4 -10   3   86.22   16.20
  -4 -10  -3   56.24   14.97
   4  10   3  100.73   19.83
  -4  10  -3   70.24   17.22
   6 -10   3   45.79   12.14
   6 -10   3    9.72   13.49
  -6  10  -3   18.94    9.71
   5 -11  -3    0.25    9.44
   5 -11  -3    0.71    7.64
  -5  11   3    6.48    7.03
   3 -11  -3    4.45    6.53
   3 -11  -3    9.08    6.67
  -3  11   3   -1.13    9.53
  -3  11   3   -4.31    7.73
   3  11  -3    3.54    6.16
   1 -11  -3   -4.70    5.93
   1 -11  -3   -7.28    4.29
  -1 -11   3    1.36    4.91
  -1 -11   3   -3.53    4.58
   1 -11  -3   -4.19    4.71
  -1  11   3    6.31    6.69
   1  11  -3   11.32    6.35
  -1  11   3    8.60    8.06
  -1 -11  -3    5.88    5.63
  -1 -11  -3   -8.55    8.08
   1 -11   3    3.75    6.64
  -1 -11  -3   10.90    6.29
   1 -11   3    3.99    4.60
   1 -11   3    0.95    4.45
   1  11   3    2.15    6.56
  -1  11  -3   -8.15    6.00
  -1  11  -3   -6.00    5.53
  -1  11  -3   -0.77    6.51
   3 -11   3   -0.85    8.68
  -3 -11  -3   -0.90    6.92
   3 -11   3    8.52    6.94
  -3  11  -3   -0.88    9.33
  -3  11  -3    2.79    7.73
   3  11   3    3.39   11.36
   5 -11   3    2.34   10.73
   5 -11   3  -11.43    9.15
  -5 -11  -3   -8.47    6.90
  -5  11  -3   -2.16    8.34
   5  11   3   -5.09   10.52
   6 -12  -3   15.89   10.15
   6 -12  -3    4.76    9.50
  -6  12   3   12.31    7.29
   4 -12  -3   -1.67    8.30
   4 -12  -3   16.27    8.43
  -4  12   3    3.58    8.32
   2 -12  -3   19.80    7.43
   2 -12  -3   24.57    7.24
   2  12  -3   14.98    8.40
  -2  12   3   36.92   10.40
  -2  12   3   43.81    9.94
   0 -12  -3   78.78   14.89
   0 -12  -3   67.78   16.55
   0 -12  -3   99.35   15.66
   0 -12   3   68.96   14.77
   0  12   3   58.80   13.26
   0  12   3   46.86   12.70
   0  12  -3   84.48   14.23
   2 -12   3   68.94   17.24
  -2 -12  -3  121.20   18.19
   2 -12   3   89.14   19.52
  -2 -12  -3  114.49   17.70
   2 -12   3   77.62   16.31
  -2  12  -3   86.82   20.84
  -2  12  -3  111.77   21.51
   2  12   3  129.24   22.30
  -4 -12  -3   31.04    9.51
   4 -12   3   34.35   10.45
   4 -12   3   33.72   12.44
   4  12   3   53.07   14.53
  -4  12  -3   35.73   11.33
   6 -12   3  -17.03   12.60
   6 -12   3    8.38   10.77
   6  12   3   12.29   11.72
  -6  12  -3    9.42    9.66
   5 -13  -3   21.40    9.82
   5 -13  -3   14.16   10.54
  -5  13   3   17.60    8.74
   3 -13  -3    3.54    7.60
   3 -13  -3   -5.55    6.81
  -3  13   3  -11.68   10.68
  -3  13   3  -18.44    9.38
   3  13  -3    6.82    7.32
   1 -13  -3   11.54    5.78
  -1 -13   3   13.04    5.93
   1 -13  -3   11.06    7.66
  -1 -13   3   -3.78    6.13
  -1  13   3    4.79    7.74
   1  13  -3  -10.94    7.11
  -1  13   3   -6.94    8.23
   1 -13   3   -4.33    7.30
   1 -13   3    2.30    5.43
  -1 -13  -3    3.85    6.99
  -1 -13  -3   -2.77    7.34
  -1 -13  -3    1.20    8.79
  -1  13  -3   -3.29    6.13
   1  13   3   -0.17    7.12
  -3 -13  -3    0.43    7.87
   3 -13   3    7.39    7.49
   3 -13   3    1.52   10.63
  -3  13  -3   31.39   11.20
   3  13   3   -5.28   11.66
  -3  13  -3    6.62    9.56
   5 -13   3   14.01   12.07
   5 -13   3    7.13   10.27
  -5 -13  -3   -6.74    7.79
  -5  13  -3    8.11    9.12
   5  13   3  -23.36   11.27
   4 -14  -3   -9.60    8.69
   4 -14  -3   -0.36    9.45
  -4  14   3   -4.67    9.53
   4  14  -3   -5.62    7.47
   2 -14  -3    8.23    6.98
   2 -14  -3    0.54    7.02
   2  14  -3    1.26    8.03
  -2  14   3    0.55    9.77
  -2  14   3   -5.34    9.79
   0 -14   3  -11.98    6.37
   0 -14  -3   -0.58    6.57
   0 -14  -3   -8.18    8.40
   0 -14   3    2.78    6.42
   0 -14  -3    7.41    7.62
   0  14  -3   -4.43    8.14
   0  14   3   -2.60    6.39
   2 -14   3   -7.63    8.81
  -2 -14  -3   -2.08    8.13
   2 -14   3    1.15    5.74
   2  14   3    7.38    9.88
  -2  14  -3   13.34    9.33
   4 -14   3    4.59   11.27
  -4 -14  -3    2.00    8.00
   4 -14   3   -8.68    8.47
   4  14   3   -6.02   11.81
  -4  14  -3    6.03    9.87
   5 -15  -3   60.87   16.18
   5 -15  -3   76.19   17.84
  -5  15   3   81.13   18.69
   3 -15  -3    0.54    7.70
   3 -15  -3    4.12    8.65
   3  15  -3    1.67    8.66
  -3  15   3   -5.95   10.95
  -3  15   3   -1.27   11.05
  -1 -15   3   -2.01    7.72
   1 -15  -3    4.54    6.63
   1 -15  -3    7.94    8.54
   1  15  -3   -0.62    8.78
  -1  15   3   19.47    9.11
  -1 -15  -3  105.98   24.52
   1 -15   3  126.28   26.38
  -1 -15  -3  131.76   26.64
  -1 -15  -3  173.28   25.71
   1  15   3  147.52   28.32
  -3 -15  -3   49.54   12.35
   3 -15   3   34.82   14.33
  -3  15  -3   42.86   14.50
   3  15   3   27.21   12.95
   5 -15   3   45.30   15.06
   5 -15   3   30.44   12.78
  -5 -15  -3   31.83   11.44
   5  15   3   39.13   14.14
  -5  15  -3   51.45   14.17
   4 -16  -3    9.69    9.70
   4 -16  -3   -0.31   10.26
  -4  16   3   -8.12   10.33
   4  16  -3    3.33    8.96
   2 -16  -3    5.59    7.65
   2 -16  -3    5.45    8.11
  -2  16   3   -4.20   10.80
   2  16  -3   -7.01    9.44
   0 -16   3   -6.24    7.34
   0 -16  -3    3.27    7.57
   0 -16  -3   -3.03    9.24
   0 -16   3   -4.23    7.49
   0  16   3   -0.23    7.01
  -2 -16  -3   -1.94   10.10
  -2 -16  -3   -7.52    8.83
   2 -16   3   -1.69    9.47
   2 -16   3    3.03    6.93
   2  16   3    0.34   10.38
  -2  16  -3    1.78    9.71
   4 -16   3    7.45   12.27
  -4 -16  -3    4.39    9.78
   4  16   3   13.74   11.73
   3 -17  -3   -7.44    8.67
  -3  17   3  -20.90   12.23
   3  17  -3    6.82   10.07
   1 -17  -3    6.24    9.73
   1 -17  -3   -5.96    6.94
  -1  17   3    1.03    9.25
   1  17  -3   14.80   10.73
  -1 -17  -3    4.42   10.06
   1 -17   3   -4.88    7.41
   1 -17   3   -9.44    8.51
  -1 -17  -3   -5.77    9.60
  -1  17  -3   -5.18    6.95
  -3 -17  -3   12.05   10.73
  -3 -17  -3   -6.76   11.39
   3 -17   3    0.99   11.93
  -3  17  -3   -9.93   13.07
   3  17   3   -7.34   11.11
   4 -18  -3    1.93   10.20
   4  18  -3    3.22    9.99
   2 -18  -3  -12.60    9.10
   2 -18  -3    7.26    8.34
   2  18  -3   15.17   11.67
  -2  18   3    8.70   12.14
   0 -18   3   13.19    9.60
   0 -18  -3   10.82   10.42
   0 -18  -3   22.86    8.80
   2 -18   3   13.12   10.39
  -2 -18  -3    5.91   10.46
   2 -18   3   18.07    7.97
  -2 -18  -3    3.23   10.75
   2  18   3    8.20   11.47
  -2  18  -3   12.55    9.82
  -4 -18  -3   12.47   11.80
   4 -18   3    8.27   13.77
   4  18   3   14.34   11.87
  -4  18  -3    3.53   17.26
   3 -19  -3   -3.34    9.71
  -3  19   3   -5.91   14.37
   3  19  -3  -17.89   11.23
   1 -19  -3   -5.14    7.12
   1 -19  -3   -5.04   10.20
  -1  19   3   -2.15    9.33
  -1 -19  -3   11.33   10.23
   1 -19   3   -5.06    9.35
   1 -19   3    2.61    8.08
  -1 -19  -3    5.71   10.80
  -1  19  -3   15.65    8.90
   3 -19   3   -8.98   12.24
  -3 -19  -3  -13.71   11.32
  -3 -19  -3   -3.97   11.88
   3  19   3   -3.62   12.13
  -3  19  -3   -2.78   13.92
   2 -20  -3   64.64   16.14
   2 -20  -3   70.81   15.02
  -2  20   3   44.61   15.58
   2  20  -3   65.60   16.81
   0 -20  -3   -0.73    9.03
   0 -20   3    6.00   10.17
   0 -20  -3   10.44   10.61
   2 -20   3   -4.86   10.54
  -2 -20  -3   11.29   10.67
   2 -20   3    2.76    7.94
  -2  20  -3   -4.68    9.55
   1 -21  -3   -1.16   11.44
   1 -21  -3    6.76    8.25
  -1  21   3    6.36    9.91
   1 -21   3    5.73    9.29
  -1 -21  -3   -3.04   11.80
  -1 -21  -3    2.08   10.48
   4   0  -4   32.10    7.97
  -2   0   4    6.76    6.18
   2   0  -4   23.08    4.91
   0   0   4  663.10  103.09
   0   0  -4  600.82  103.04
   0   0   4  616.62  105.91
   0   0  -4  592.38  106.56
   0   0  -4  603.74  106.00
   2   0   4    6.93    4.75
  -2   0  -4   -0.72    5.22
   2   0   4   -1.44    4.75
  -2   0  -4    0.66    7.61
  -4   0  -4   14.72    9.83
   4   0   4    8.36    7.24
   4   0   4    8.18    5.58
   6   0   4    8.57   12.28
   5  -1  -4   -5.92    5.78
   3  -1  -4   -2.20    2.78
   3   1  -4    4.69    3.18
   1  -1  -4    5.25    4.47
   1  -1  -4    5.91    2.59
  -1  -1   4    6.19    4.52
  -1   1   4   10.65    4.12
   1   1  -4    2.56    4.37
   1  -1   4   -3.54    4.02
   1  -1   4    0.76    4.46
  -1  -1  -4   -1.96    4.68
   1  -1   4   -4.13    4.14
  -1  -1  -4    3.09    5.53
   1  -1   4    1.19    4.08
  -1   1  -4    3.13    5.61
   1   1   4   -5.47    5.20
   1   1   4    2.11    4.45
   1   1   4   -0.71    4.49
  -1   1  -4   -0.08    6.02
   1   1   4   -6.34    4.27
   3  -1   4    3.70    5.43
  -3  -1  -4   12.50    8.80
   3  -1   4    8.17    4.86
   3   1   4    2.32    5.63
  -3   1  -4    9.20    8.45
   3   1   4    2.02    4.78
   5  -1   4    2.58    9.25
  -5  -1  -4    2.22    9.41
   5  -1   4    4.24    6.82
   5   1   4   16.01    9.03
  -5   1  -4   -9.44    8.81
   7  -1   4  -10.86   14.49
   7   1   4   12.06   15.09
   4  -2  -4    2.97    3.97
   4   2  -4    1.99    4.44
   2  -2  -4    3.33    3.33
   2  -2  -4    1.85    3.76
  -2  -2   4   -2.41    3.59
  -2   2   4   -2.89    3.70
   0  -2   4   -5.37    3.23
   0  -2   4    1.34    4.48
   0  -2   4   -7.38    4.42
   0  -2  -4    3.11    4.50
   0  -2  -4    3.34    4.55
   0  -2  -4    4.52    4.12
   0   2   4    3.74    4.56
   0   2   4    1.02    4.88
   0   2  -4    1.99    3.57
   0   2  -4   -1.26    4.47
   0   2  -4    2.49    4.65
   2  -2   4   -2.34    4.43
   2  -2   4   -2.31    4.06
  -2  -2  -4   -3.16    5.77
  -2  -2  -4   -2.24    3.88
   2   2   4    3.59    5.58
  -2   2  -4    3.51    6.49
   2   2   4   -1.23    5.57
  -2   2  -4   -3.98    6.52
  -4  -2  -4   19.00    9.67
   4  -2   4   -1.46    5.87
   4  -2   4   10.90    7.49
  -4   2  -4   -0.09    8.21
   4   2   4    6.28    7.00
   4   2   4   -1.27    5.59
   6  -2   4   -8.70   11.64
   6  -2   4   -5.26    8.26
  -6   2  -4   -1.97    9.42
   6   2   4  -10.19   11.61
   5  -3  -4   49.37   10.92
   3  -3  -4    9.81    4.38
   3   3  -4    5.64    3.80
   1  -3  -4  104.74   18.44
  -1  -3   4   92.71   18.60
   1  -3  -4  108.09   18.52
  -1   3   4  133.61   23.18
   1   3  -4  114.59   23.28
  -1   3   4  145.81   22.66
   1  -3   4  257.69   46.78
  -1  -3  -4  266.68   44.62
   1  -3   4  261.11   46.16
  -1  -3  -4  263.93   46.00
   1  -3   4  275.07   44.61
   1  -3   4  264.76   45.86
   1   3   4  214.50   37.17
  -1   3  -4  226.60   35.70
  -1   3  -4  227.21   36.91
   1   3   4  184.50   36.62
   1   3   4  190.92   35.70
  -1   3  -4  220.00   36.97
  -3  -3  -4  163.43   28.39
   3  -3   4  160.89   27.74
   3  -3   4  138.57   28.73
   3   3   4  117.48   27.91
  -3   3  -4  176.71   27.62
  -3   3  -4  158.66   27.13
   5  -3   4   43.99   10.44
   5  -3   4   53.75   12.99
  -5  -3  -4   15.55   11.66
   5   3   4   20.71   11.21
  -5   3  -4   43.64   10.64
   7  -3   4   -1.59   14.91
   7  -3   4   14.80    9.82
  -7   3  -4    7.27   11.02
   7   3   4    3.75   14.74
   6  -4  -4   15.97    7.99
   4  -4  -4    3.35    4.80
   2  -4  -4    9.78    3.72
   2  -4  -4   -0.80    3.39
  -2   4   4   -0.55    4.11
   0  -4   4    5.30    4.24
   0  -4   4    0.68    3.93
   0  -4  -4    8.12    3.51
   0  -4  -4   -2.37    4.03
   0  -4  -4    4.74    3.86
   0  -4   4   -1.28    2.99
   0   4  -4    2.10    3.70
   0   4  -4   -0.68    4.45
   0   4   4   -6.62    4.70
   0   4   4    3.63    4.90
   0   4   4   -2.15    4.27
   0   4  -4    3.30    4.26
   2  -4   4   -6.01    4.89
   2  -4   4    1.11    3.97
  -2  -4  -4    2.88    3.93
  -2  -4  -4    0.44    5.07
   2   4   4    1.64    6.11
  -2   4  -4    6.26    5.46
   2   4   4    0.93    7.03
  -2   4  -4   -1.93    6.03
   4  -4   4   -0.87    6.83
  -4  -4  -4   13.43    8.05
   4  -4   4   -3.25    8.51
   4   4   4   13.52    8.01
   4   4   4   -9.70    7.21
  -4   4  -4    7.63    7.40
   6  -4   4   18.02   12.54
   6  -4   4   -7.48    8.92
   6   4   4    6.34   12.43
  -6   4  -4    0.88    8.93
   5  -5  -4  106.25   20.96
   3  -5  -4   35.36    7.75
   3  -5  -4   29.49    7.49
  -3   5   4   30.58    7.64
  -1  -5   4  121.87   20.15
   1  -5  -4  115.01   20.46
   1  -5  -4  103.02   20.22
   1   5  -4  149.98   26.22
  -1   5   4  141.37   25.61
  -1   5   4  149.64   26.11
  -1  -5  -4   51.52   10.88
   1  -5   4   50.29   10.51
   1  -5   4   56.82   10.17
  -1  -5  -4   51.15   10.20
   1  -5   4   56.92   11.40
   1  -5   4   57.19   10.55
   1   5   4   51.08   11.26
   1   5   4   41.49   10.86
  -1   5  -4   56.67   11.29
   1   5   4   58.38   12.53
  -1   5  -4   71.82   11.98
  -1   5  -4   61.21   11.52
   3  -5   4   90.22   21.94
   3  -5   4  122.03   20.79
  -3  -5  -4  114.66   20.95
  -3   5  -4   76.56   17.51
   3   5   4   77.10   17.80
  -3   5  -4  103.33   17.30
   3   5   4   84.08   18.84
   5  -5   4   90.32   19.39
   5  -5   4  145.38   22.76
  -5  -5  -4   73.64   18.58
  -5   5  -4  128.09   20.48
   5   5   4   68.80   21.18
   6  -6  -4   -0.51    7.67
   4  -6  -4   61.81   13.75
  -4   6   4   87.42   16.22
   2  -6  -4  244.84   40.50
  -2  -6   4  188.94   40.35
   2  -6  -4  255.59   41.01
  -2  -6   4  236.08   40.20
   2   6  -4  334.21   59.75
  -2   6   4  349.30   59.41
  -2   6   4  347.77   58.08
   0  -6   4  252.69   40.93
   0  -6  -4  249.80   40.86
   0  -6  -4  243.76   42.27
   0  -6   4  224.21   42.84
   0  -6   4  237.72   42.03
   0  -6  -4  244.61   42.01
   0   6  -4  234.92   45.62
   0   6   4  256.61   44.41
   0   6  -4  261.81   45.89
   0   6   4  277.07   45.57
   0   6   4  279.97   45.92
   0   6  -4  264.45   44.28
   2  -6   4   92.70   17.34
   2  -6   4   78.28   16.43
  -2  -6  -4  108.52   17.76
   2  -6   4  106.17   18.64
  -2  -6  -4   95.81   16.67
  -2   6  -4   94.34   18.60
  -2   6  -4   98.31   18.84
   2   6   4  106.17   20.38
  -4  -6  -4   21.91    7.88
   4  -6   4   -0.33    8.01
   4  -6   4   12.61    9.88
  -4   6  -4    8.16    7.59
   4   6   4   12.50    9.90
   4   6   4   -1.31    9.82
   6  -6   4   -2.74    9.88
   6  -6   4   -4.56   12.87
   6   6   4  -15.28   13.14
  -6   6  -4    7.28    9.70
   7  -7  -4  -10.55    9.52
   5  -7  -4    5.88    7.74
  -5   7   4    2.48    4.54
   3  -7  -4    6.18    5.09
   3  -7  -4    2.39    3.89
  -3   7   4   -2.57    4.65
   1  -7  -4    5.26    4.32
   1  -7  -4   -1.85    3.79
  -1  -7   4    1.98    4.35
   1  -7  -4   11.85    4.16
   1  -7  -4    1.31    3.15
  -1   7   4   -3.62    4.90
   1   7  -4    4.57    4.92
  -1   7   4    8.81    6.31
   1  -7   4   -0.94    3.82
  -1  -7  -4   -1.36    4.54
   1  -7   4    5.02    5.23
   1  -7   4   -6.21    3.56
  -1  -7  -4    2.48    4.12
   1   7   4   -1.98    4.83
   1   7   4   -4.89    6.69
  -1   7  -4    3.15    5.21
  -1   7  -4   -1.76    4.62
  -1   7  -4    6.90    5.12
   1   7   4   -2.20    4.23
   3  -7   4    4.30    7.83
  -3  -7  -4    2.41    6.59
   3  -7   4    4.50    6.24
  -3   7  -4   -7.47    8.40
   3   7   4   -2.96   10.59
  -3   7  -4   12.19    6.60
   5  -7   4   -3.18   10.50
   5  -7   4    3.49    9.53
  -5  -7  -4   -5.28    7.47
  -5   7  -4    7.86    8.81
   5   7   4   -4.85   11.88
   5   7   4  -13.64   11.18
   6  -8  -4    2.90    8.92
   4  -8  -4   -4.12    4.90
   4  -8  -4    1.72    6.95
  -4   8   4   -6.94    4.78
   2  -8  -4   -2.32    3.84
   2  -8  -4   -3.58    4.54
   2   8  -4   -2.35    4.92
  -2   8   4   -7.58    5.31
  -2   8   4   -7.62    7.07
   0  -8   4    1.39    4.23
   0  -8  -4   -0.77    6.72
   0  -8   4    4.97    4.64
   0  -8  -4    3.61    3.90
   0  -8  -4    1.49    4.32
   0  -8  -4   -0.53    4.26
   0   8  -4   -0.77    4.56
   0   8   4    3.57    4.71
   0   8  -4    2.22    4.91
   0   8  -4   -1.63    4.17
   0   8   4    1.91    5.42
   0   8   4   -7.39    4.66
   2  -8   4   -2.05    6.48
  -2  -8  -4   -2.49    4.94
  -2  -8  -4    1.42    5.97
   2  -8   4    2.62    4.79
   2  -8   4    4.44    4.18
   2   8   4    8.60    9.68
  -2   8  -4    8.79    6.76
  -2   8  -4    3.47    6.20
   4  -8   4   -5.07    9.52
  -4  -8  -4    7.14    7.11
   4  -8   4    2.28    7.98
  -4   8  -4   12.52    8.23
   4   8   4   18.79   12.58
   6  -8   4   -8.99   10.20
   6  -8   4   -1.83   12.91
  -6   8  -4   -6.16    9.99
   6   8   4    6.65   15.03
   5  -9  -4   17.36    8.77
   5  -9  -4    3.74    6.43
  -5   9   4   11.06    5.99
   3  -9  -4   10.16    5.22
   3  -9  -4    4.69    5.68
  -3   9   4   17.69    7.03
  -1  -9   4   48.06   10.10
   1  -9  -4   55.95   10.25
  -1  -9   4   43.94   10.43
   1  -9  -4   46.88   10.05
   1  -9  -4   50.10   10.04
   1  -9  -4   53.86   11.11
  -1   9   4   69.62   14.68
   1   9  -4   65.81   14.25
  -1   9   4   71.94   14.08
  -1  -9  -4  126.08   19.44
  -1  -9  -4  138.54   20.46
   1  -9   4   98.57   19.15
   1  -9   4   86.24   19.73
   1  -9   4  117.43   21.09
   1   9   4  163.39   24.56
  -1   9  -4  135.19   23.17
  -1   9  -4  109.11   23.84
  -1   9  -4  125.18   24.15
   3  -9   4   69.08   18.60
   3  -9   4   81.26   16.79
  -3  -9  -4   89.79   16.87
   3   9   4  118.79   22.75
  -3   9  -4   98.66   19.15
  -3   9  -4   78.40   19.38
   5  -9   4   26.39   10.66
  -5  -9  -4   15.45    8.25
   5  -9   4    8.09   11.67
  -5   9  -4   15.55    9.81
   5   9   4   14.60   13.15
   5   9   4   12.13   13.23
   6 -10  -4    5.14    9.39
   6 -10  -4    8.85    7.97
  -6  10   4   -2.85    5.88
   4 -10  -4   34.92    8.63
   4 -10  -4   20.89    9.60
  -4  10   4   27.29    8.34
   2 -10  -4  106.75   22.30
   2 -10  -4  133.08   21.97
   2  10  -4  148.09   28.14
  -2  10   4  163.10   28.23
   0 -10   4   48.89   10.99
   0 -10  -4   39.25    9.22
   0 -10  -4   38.18    9.35
   0 -10  -4   64.55   11.34
   0 -10  -4   47.28    9.88
   0  10   4   25.90    8.26
   0  10   4   28.25    8.10
   0  10   4   32.48    7.91
   0  10  -4   49.70    9.77
  -2 -10  -4  143.05   23.71
   2 -10   4  111.32   21.98
  -2 -10  -4  118.63   22.68
   2 -10   4  130.81   23.07
   2 -10   4  141.78   24.72
   2  10   4  174.10   33.66
  -2  10  -4  182.28   32.26
  -2  10  -4  173.83   31.45
   4 -10   4   -6.97   10.25
   4 -10   4   -8.31    8.29
  -4 -10  -4    6.17    7.46
   4  10   4   18.02   13.75
  -4  10  -4   26.54    9.50
   6 -10   4   20.06   13.48
   6 -10   4   16.68   11.72
   6  10   4    7.86   13.19
  -6  10  -4   22.81   11.07
   5 -11  -4   -4.22    7.86
   5 -11  -4   18.71    9.36
  -5  11   4   -9.29    6.26
   3 -11  -4   -0.66    6.22
   3 -11  -4    0.98    6.24
   3  11  -4   -0.83    6.48
  -3  11   4    6.80    7.70
   1 -11  -4    6.89    5.33
   1 -11  -4   -3.04    4.64
  -1 -11   4    9.50    5.42
   1 -11  -4  -11.63    6.35
  -1  11   4   -2.40    8.12
   1  11  -4   -9.12    6.47
  -1  11   4    7.44    6.74
  -1 -11  -4  -10.28    6.58
   1 -11   4    6.77    4.96
   1 -11   4   -2.07    6.63
  -1 -11  -4   -1.31    5.83
  -1  11  -4    5.18    6.78
   1  11   4   14.69    7.29
  -1  11  -4   -0.67    5.78
   3 -11   4   -2.42    7.05
   3 -11   4    0.56    9.18
  -3 -11  -4   10.47    7.70
   3  11   4   -3.48   12.67
  -3  11  -4   -4.95   10.44
  -3  11  -4   -9.89    7.99
   5 -11   4   -0.37    9.86
  -5 -11  -4   -1.16    7.54
   5 -11   4   -8.15   11.85
   5  11   4  -11.07   12.20
  -5  11  -4   22.03    9.73
   6 -12  -4    1.25    9.80
   6 -12  -4   -6.04    8.67
  -6  12   4   -0.95    6.54
   4 -12  -4   23.66    9.83
   4 -12  -4   34.87    9.90
  -4  12   4   32.91   10.08
   2 -12  -4   80.54   16.78
   2 -12  -4   83.47   16.31
  -2  12   4  135.72   23.71
   2  12  -4  107.03   23.52
  -2  12   4  131.01   24.12
   0 -12   4   95.29   22.73
   0 -12  -4  139.59   23.27
   0 -12   4   92.00   21.21
   0 -12  -4  135.84   21.31
   0 -12  -4  139.61   22.22
   0  12  -4  120.01   20.80
   0  12   4   92.99   19.14
   0  12   4  103.82   19.66
   2 -12   4   46.73   14.08
  -2 -12  -4   73.39   13.89
  -2 -12  -4   64.22   14.54
   2  12   4  104.45   15.83
  -2  12  -4   43.04   11.96
  -2  12  -4   26.18   12.18
   4 -12   4   16.15    9.08
  -4 -12  -4   -3.95    7.69
   4 -12   4   -0.59   11.07
   4  12   4    6.17   13.88
  -4  12  -4  -10.54    8.72
   5 -13  -4    4.87    9.29
   5 -13  -4   -7.76    8.84
  -5  13   4   -7.91    7.45
   3 -13  -4    5.10    6.82
   3 -13  -4   -4.98    7.48
  -3  13   4   -6.76    9.08
  -3  13   4   -7.22   10.80
   3  13  -4   -6.01    7.63
   1 -13  -4  -12.06    7.69
  -1 -13   4    6.81    6.45
   1 -13  -4   -3.58    6.10
   1  13  -4   -6.48    7.90
  -1  13   4   -2.79    8.87
   1 -13   4    8.70    6.01
  -1 -13  -4   -5.21    9.57
  -1 -13  -4  -10.65    7.89
   1 -13   4    0.84    7.20
  -1 -13  -4   -7.31    7.34
   1  13   4   -4.88    7.42
  -1  13  -4   -3.59    6.14
   3 -13   4    2.21    9.90
  -3 -13  -4   11.71    9.09
  -3  13  -4   17.83   11.08
   3  13   4  -12.22   13.24
  -3  13  -4    0.04    9.35
  -5 -13  -4   -5.19    8.34
   5 -13   4    2.84   13.12
   5 -13   4   17.18   10.56
   5  13   4   -0.45   13.54
  -5  13  -4   -5.57    9.52
   4 -14  -4    9.29    9.30
   4 -14  -4   13.75    8.89
   4  14  -4   -5.39    7.76
  -4  14   4    5.70    9.15
   2 -14  -4   11.39    8.26
   2 -14  -4    3.29    7.19
   2  14  -4    3.81    8.65
  -2  14   4    2.84   11.00
  -2  14   4   23.91   10.31
   0 -14  -4   -4.64    6.86
   0 -14  -4    0.94    9.20
   0 -14   4    6.43    6.82
   0  14  -4   -7.56    8.83
   0  14   4    8.73    6.96
   0  14  -4   -2.29    5.55
   2 -14   4  -11.33    9.22
  -2 -14  -4  -12.23    8.99
   2 -14   4   -8.56    5.92
  -2  14  -4   16.64    9.75
   2  14   4   20.22   10.86
   4 -14   4   -8.48   11.77
  -4 -14  -4  -14.46    8.26
   4  14   4  -20.07   13.29
   5 -15  -4   80.57   15.14
   5 -15  -4   33.89   14.03
  -5  15   4   78.63   18.11
   3 -15  -4   18.09    8.58
   3 -15  -4   16.29    9.37
  -3  15   4   26.06   13.08
   3  15  -4   33.42   10.60
  -3  15   4   19.47   12.09
   1 -15  -4   67.41   12.66
   1 -15  -4   44.66   10.37
  -1 -15   4   22.14   10.72
  -1  15   4   56.42   15.38
   1  15  -4   80.55   16.88
  -1 -15  -4   72.13   14.46
   1 -15   4   30.24   11.44
  -1 -15  -4   52.47   14.31
  -1 -15  -4   66.74   13.40
   1 -15   4   55.52   13.05
  -1  15  -4   33.71   10.45
   1  15   4   73.05   14.37
  -3 -15  -4   67.95   16.55
   3 -15   4   70.44   17.37
  -3  15  -4   79.23   20.65
   3  15   4   99.44   20.95
   5 -15   4   53.99   16.51
  -5 -15  -4   30.51   11.93
   5  15   4   33.14   14.70
   4 -16  -4   -1.76    9.96
   4 -16  -4   -1.32    8.69
   4  16  -4   -0.73    9.00
  -4  16   4   -9.42   10.08
   2 -16  -4   -8.04    9.38
   2  16  -4   -4.86    9.67
  -2  16   4    3.27   11.64
   0 -16  -4    5.10   10.68
   0 -16  -4    1.88    7.48
   0 -16   4    6.83    8.27
   0  16   4   -1.96    7.29
   2 -16   4   -5.94   10.06
   2 -16   4  -10.17    6.86
  -2 -16  -4    1.10   12.26
  -2 -16  -4    5.18   10.43
   2  16   4   -9.98   10.57
  -2  16  -4    1.20    9.40
   4 -16   4   -7.57   12.60
  -4 -16  -4   -2.72    9.57
  -4  16  -4   -4.19   15.95
   4  16   4   18.23   12.58
   3 -17  -4    9.71    8.63
   3  17  -4   -9.39   10.00
  -3  17   4   12.49   13.96
   1 -17  -4   -9.13   10.17
   1 -17  -4    8.01    7.40
  -1  17   4   -2.41    9.49
   1  17  -4   -5.52   10.32
  -1 -17  -4   -2.95   10.01
  -1 -17  -4  -10.33   11.16
   1 -17   4   -8.86    7.76
  -1  17  -4   -0.05    6.96
   3 -17   4   -5.86   11.37
  -3 -17  -4   -0.09   10.86
  -3 -17  -4    7.18   13.48
  -3  17  -4   17.34   13.79
   3  17   4   -3.09   11.78
   4 -18  -4   -5.84    9.76
   4  18  -4   -6.48    9.69
   2 -18  -4   14.53    9.78
   2  18  -4   20.60   11.74
  -2  18   4   14.78   12.70
   0 -18  -4   17.84    8.78
   0 -18  -4   17.11   12.12
   0 -18   4   33.08   10.63
  -2 -18  -4   44.64   13.02
   2 -18   4   -3.82   11.33
  -2 -18  -4   19.22   12.02
   2 -18   4   11.29    8.37
  -2  18  -4    9.63    9.86
   2  18   4   14.87   12.86
   3 -19  -4    5.12    9.40
  -3  19   4   -9.87   14.67
   3  19  -4   -7.01   11.24
   1 -19  -4   -1.50    7.44
   1 -19  -4    7.78   11.68
  -1  19   4   -9.94    9.77
  -1 -19  -4    7.42   10.77
   1 -19   4    2.15    8.90
  -1 -19  -4    3.52   11.28
  -1  19  -4    4.24    8.82
  -3 -19  -4    4.30   12.87
  -3 -19  -4   11.37   13.20
   3 -19   4   -7.43   11.89
  -3  19  -4   -9.08   13.70
   3  19   4   13.71   12.92
   2 -20  -4   51.14   13.66
   2 -20  -4   32.93   10.94
  -2  20   4   23.59   13.85
   2  20  -4   38.37   14.39
   0 -20  -4  -12.69    8.77
   0 -20   4   -2.06   10.74
   0 -20  -4   24.48   12.53
   2 -20   4    8.90    9.22
  -2 -20  -4   36.26   13.05
  -2  20  -4    0.97    9.57
   1 -21  -4    3.16    8.43
   1 -21  -4  -10.86   12.03
  -1  21   4  -19.42    9.97
  -1 -21  -4   -7.70   11.52
  -1 -21  -4   -3.03   11.96
   1 -21   4  -13.07    9.38
   4   0  -5  589.36  103.19
   2   0  -5  290.23   54.55
  -2   0   5  325.07   54.11
   2   0  -5  322.26   54.90
   0   0  -5   -3.48    5.39
   0   0   5    5.96    5.17
   0   0  -5    2.14    5.12
   0   0   5    2.55    5.26
   0   0  -5    4.35    5.44
   2   0   5  159.23   30.23
  -2   0  -5  162.85   29.51
   2   0   5  158.37   30.81
  -2   0  -5  223.95   31.51
   4   0   5   39.38   11.58
   4   0   5   41.67   10.45
  -4   0  -5   89.35   16.84
   6   0   5   -4.32   12.24
   6   0   5   -8.45    8.57
  -6   0  -5  -19.66   10.34
  -3  -1   5    2.58    4.85
   3  -1  -5    3.57    3.54
   3   1  -5    1.17    2.60
  -1  -1   5   -2.74    4.88
  -1  -1   5    6.89    5.15
   1  -1  -5    1.02    4.97
   1  -1  -5    6.05    3.01
   1   1  -5    3.89    4.62
  -1   1   5   10.73    4.71
  -1   1   5    1.02    4.96
  -1  -1  -5    2.63    6.00
   1  -1   5    1.84    4.84
  -1  -1  -5   11.13    5.36
   1  -1   5    4.94    4.66
   1  -1   5    1.19    5.10
   1  -1   5    0.83    4.69
  -1  -1  -5    2.75    5.41
   1   1   5   -0.59    4.73
  -1   1  -5    2.62    6.18
  -1   1  -5   -0.77    6.28
   1   1   5    4.54    5.29
   1   1   5   -5.68    5.54
   1   1   5    1.38    4.72
  -1   1  -5    2.29    5.52
   3  -1   5    6.13    5.93
  -3  -1  -5  -15.91    9.07
   3  -1   5   -8.22    5.08
   3   1   5    6.49    6.17
   3   1   5    1.44    5.40
  -3   1  -5   -3.68    7.18
  -3   1  -5   -2.46    9.42
   5  -1   5    0.62    7.25
   5  -1   5   -4.48    9.00
  -5  -1  -5    5.37   11.09
   5   1   5    6.87    9.21
  -5   1  -5   -2.12   10.73
   5   1   5    7.12    7.41
   4  -2  -5    7.36    4.30
  -2  -2   5    0.86    4.19
   2  -2  -5   -0.92    4.36
  -2  -2   5   -0.19    4.12
   2  -2  -5   -0.59    3.10
  -2   2   5   -0.07    4.00
   0  -2   5    6.31    5.11
   0  -2  -5   -4.21    5.08
   0  -2  -5    4.32    4.66
   0  -2   5    1.03    5.10
   0  -2   5   -1.62    3.50
   0  -2  -5    0.44    5.07
   0   2  -5   -6.68    4.74
   0   2  -5   -0.81    5.08
   0   2   5   -0.66    5.31
   0   2  -5    1.73    3.99
   0   2   5    0.66    4.70
   0   2   5   12.30    5.29
  -2  -2  -5    6.01    4.80
   2  -2   5    1.53    4.76
  -2  -2  -5    7.65    6.81
   2  -2   5    2.79    4.11
   2  -2   5   10.21    5.15
  -2   2  -5    9.96    7.82
   2   2   5   13.92    6.45
  -2   2  -5   -3.92    7.17
   2   2   5   15.74    6.50
  -4  -2  -5   22.77   11.10
   4  -2   5    9.06    7.79
   4  -2   5    6.25    6.92
  -4   2  -5    0.52   10.30
   4   2   5   -0.29    6.44
   4   2   5   -0.51    7.33
  -6  -2  -5   -0.78   10.70
   6  -2   5   -0.41   12.46
   6  -2   5   11.67    9.10
   6   2   5    7.09   12.51
  -6   2  -5   -9.17   10.66
   6   2   5    5.58    8.81
   5  -3  -5    4.84    5.71
   3  -3  -5   55.17   11.20
  -3   3   5   59.63   11.73
   1  -3  -5  229.47   38.46
  -1  -3   5  206.31   37.19
   1  -3  -5  236.52   38.29
  -1  -3   5  194.08   38.15
  -1   3   5  281.61   47.39
   1   3  -5  253.62   47.70
  -1   3   5  284.28   46.18
   1  -3   5  134.28   22.98
  -1  -3  -5  133.08   22.97
  -1  -3  -5  135.22   24.15
   1  -3   5  124.33   24.09
  -1  -3  -5  138.02   23.91
   1  -3   5  138.38   23.67
   1  -3   5  126.43   23.81
   1   3   5  112.17   20.65
  -1   3  -5  112.37   20.16
  -1   3  -5  105.01   19.66
   1   3   5  105.90   20.03
  -1   3  -5  117.48   20.51
   1   3   5  104.00   19.63
   3  -3   5   23.02    8.79
  -3  -3  -5   42.82   10.20
   3  -3   5   30.89    7.92
   3   3   5   32.03    8.68
   3   3   5   23.33    9.09
  -3   3  -5   25.35   10.02
  -3   3  -5   36.77   10.36
   5  -3   5   15.29   10.53
  -5  -3  -5    2.96   10.63
   5  -3   5  -10.31    8.09
  -5   3  -5    6.57   10.01
   5   3   5    1.46    7.82
   5   3   5   -1.54    9.42
   4  -4  -5    0.30    5.35
   2  -4  -5   -3.99    3.92
   2  -4  -5    0.80    3.19
  -2  -4   5   -1.91    4.14
  -2  -4   5    3.43    4.32
  -2   4   5   -3.47    4.61
   0  -4  -5    6.26    4.60
   0  -4  -5    6.29    4.00
   0  -4  -5    4.86    4.91
   0  -4   5   10.40    4.85
   0  -4   5    4.35    4.94
   0  -4   5    2.33    3.50
   0   4   5   -2.13    5.14
   0   4   5    3.06    5.45
   0   4   5    2.68    5.00
   0   4  -5   10.12    4.64
   0   4  -5    4.15    5.13
   0   4  -5   11.13    4.19
   2  -4   5   -4.29    4.41
   2  -4   5    2.70    3.93
   2  -4   5    2.36    5.37
  -2  -4  -5    6.33    5.95
   2  -4   5    5.67    3.95
  -2  -4  -5    0.56    4.38
   2   4   5    6.37    7.37
  -2   4  -5    4.68    6.39
   2   4   5   -0.93    6.36
  -2   4  -5    4.97    7.08
   4  -4   5    7.54    7.50
   4  -4   5    6.85    8.72
  -4  -4  -5    9.68    9.61
   4   4   5    0.69    8.32
  -4   4  -5    8.65    9.38
   4   4   5    7.85    7.99
   6  -4   5  -18.88   12.00
   6  -4   5   -4.24    9.79
  -6  -4  -5   -2.64   10.10
  -6   4  -5   -6.00   10.40
   6   4   5  -14.85    9.47
   6   4   5  -18.25   12.43
   5  -5  -5   51.72   12.00
   3  -5  -5   90.04   15.69
   3  -5  -5   74.66   15.26
  -3   5   5   82.93   15.61
  -1  -5   5  158.88   31.19
   1  -5  -5  177.22   32.22
  -1  -5   5  204.25   31.80
   1   5  -5  254.73   38.71
  -1   5   5  213.54   38.43
  -1   5   5  190.26   37.51
  -1  -5  -5    0.74    4.46
   1  -5   5   -2.83    4.31
  -1  -5  -5   -3.53    4.11
   1  -5   5   -3.71    4.11
  -1  -5  -5    4.47    5.71
   1  -5   5   -1.17    3.99
   1  -5   5   -5.50    3.81
  -1   5  -5    2.43    5.21
  -1   5  -5   -4.46    5.17
   1   5   5   -2.37    5.51
   1   5   5    3.40    4.93
   1   5   5   -8.54    5.86
  -1   5  -5    4.94    5.17
  -3  -5  -5    5.10    7.67
   3  -5   5    7.70    7.54
   3  -5   5    5.11    6.02
  -3   5  -5   -4.47    7.41
  -3   5  -5    5.09    9.18
   3   5   5   -5.56    7.98
   3   5   5   13.16    8.81
  -5  -5  -5   58.56   16.72
   5  -5   5   86.29   17.79
   5  -5   5   97.58   20.64
   5   5   5   42.44   15.33
   5   5   5   46.48   13.95
  -5   5  -5   90.60   16.43
   6  -6  -5   53.63   12.84
   4  -6  -5  150.66   28.88
   4  -6  -5  161.40   27.99
  -4   6   5  176.11   31.05
  -2  -6   5  177.65   29.89
   2  -6  -5  167.72   30.10
   2  -6  -5  166.38   30.30
   2   6  -5  240.61   40.86
  -2   6   5  238.13   40.60
  -2   6   5  214.01   39.83
   0  -6   5   36.10    7.99
   0  -6   5   28.25    8.18
   0  -6   5   42.24    8.67
   0  -6  -5   36.70    8.26
   0  -6  -5   40.05    8.70
   0  -6  -5   40.20    8.20
   0   6   5   42.25    9.18
   0   6  -5   34.56    8.48
   0   6  -5   40.45    9.33
   0   6   5   42.93    9.15
   0   6  -5   33.08    8.39
   0   6   5   40.77    9.47
   2  -6   5   -1.59    4.08
  -2  -6  -5   -5.94    5.93
   2  -6   5    7.28    4.79
  -2  -6  -5    5.14    4.82
   2  -6   5   -3.57    6.19
  -2   6  -5    2.45    7.18
  -2   6  -5    8.39    6.41
   2   6   5    4.66    8.48
  -4  -6  -5   17.76    9.02
   4  -6   5    9.53   10.81
   4  -6   5    9.37    8.54
  -4   6  -5    0.92    8.80
   4   6   5    6.71   10.08
   4   6   5   16.14   10.38
   6  -6   5   -8.68   10.39
  -6  -6  -5   20.82    9.88
   6  -6   5    2.71   12.86
  -6   6  -5   -0.37   11.03
   6   6   5    1.23   13.67
   5  -7  -5    0.51    5.13
   5  -7  -5    0.84    7.70
  -5   7   5    0.35    4.69
   3  -7  -5    5.34    4.27
   3  -7  -5    1.21    5.31
  -3   7   5   -2.67    5.04
   1  -7  -5    1.85    4.21
   1  -7  -5   -1.04    4.40
   1  -7  -5    7.00    4.66
   1  -7  -5    2.78    3.39
  -1  -7   5   -0.72    4.38
  -1  -7   5   -1.40    5.17
   1   7  -5   -7.03    5.13
  -1   7   5    2.21    6.53
  -1   7   5   -0.68    5.23
   1  -7   5   -1.40    3.78
  -1  -7  -5   -5.98    4.85
   1  -7   5    1.94    4.29
   1  -7   5    5.01    5.36
  -1  -7  -5    2.73    4.49
  -1   7  -5   -1.12    4.90
  -1   7  -5   -1.94    5.25
   1   7   5    1.93    5.14
   1   7   5    3.82    7.34
  -1   7  -5    7.17    5.71
   1   7   5   -5.43    4.68
   3  -7   5   -2.04    6.60
   3  -7   5    5.65    8.87
  -3  -7  -5   -3.88    7.73
  -3   7  -5    5.53    7.57
   3   7   5   15.79   11.10
  -3   7  -5   -7.37    9.91
  -5  -7  -5    9.02    9.04
   5  -7   5   11.18   10.33
   5  -7   5    7.44   12.17
   5   7   5   -7.18   11.21
  -5   7  -5   -0.29    9.92
   5   7   5   -7.17   12.64
   6  -8  -5   -5.87    6.33
   6  -8  -5    7.62    9.20
  -6   8   5   -1.31    5.30
   4  -8  -5   10.55    5.33
   4  -8  -5    5.52    7.24
  -4   8   5    8.14    5.62
  -2  -8   5    0.17    4.37
   2  -8  -5   -2.33    4.51
   2  -8  -5    0.47    4.45
  -2   8   5   -7.68    7.73
   2   8  -5   -0.92    5.98
  -2   8   5   -1.81    5.92
   0  -8  -5    1.28    4.27
   0  -8  -5    0.96    4.40
   0  -8  -5    2.67    4.66
   0  -8   5   -7.66    4.54
   0  -8   5   -4.10    4.44
   0  -8  -5   -5.61    7.52
   0   8   5   -7.28    5.03
   0   8   5    2.50    5.68
   0   8  -5    0.40    5.23
   0   8   5   -0.35    5.14
   2  -8   5   -6.55    4.93
   2  -8   5   -3.43    4.54
   2  -8   5    6.57    7.27
  -2  -8  -5    0.08    6.80
  -2  -8  -5    2.68    5.50
   2   8   5    3.29   10.53
  -2   8  -5    4.70    6.91
  -2   8  -5    0.65    7.88
   4  -8   5  -11.57    8.73
  -4  -8  -5   -3.57    8.39
   4  -8   5  -11.53   10.76
  -4   8  -5   15.73    9.40
   4   8   5    6.25   12.68
   6  -8   5    5.93   11.36
   6  -8   5    1.93   13.73
  -6  -8  -5   -0.55    8.93
  -6   8  -5   -3.30   11.35
   6   8   5    7.08   12.73
   6   8   5   15.77   15.40
   5  -9  -5    4.44    6.33
   5  -9  -5  -11.93    7.71
  -5   9   5    2.44    5.30
   3  -9  -5   40.44    9.29
   3  -9  -5   32.13    8.74
  -3   9   5   38.21    9.50
   1  -9  -5   96.27   18.20
   1  -9  -5  104.39   19.11
  -1  -9   5   83.46   17.89
   1  -9  -5  109.39   17.64
  -1   9   5  112.33   21.61
   1   9  -5  112.28   21.92
  -1   9   5  125.96   21.71
  -1  -9  -5   85.92   15.33
  -1  -9  -5   80.79   14.41
   1  -9   5   75.94   16.37
   1  -9   5   65.12   14.13
  -1   9  -5   81.54   15.09
  -1   9  -5   68.03   15.97
  -1   9  -5   65.87   15.59
   1   9   5  105.01   17.22
   3  -9   5   12.23    7.72
   3  -9   5   -6.34    9.46
  -3  -9  -5   14.56    8.55
  -3   9  -5   17.15   11.48
  -3   9  -5    7.15    8.27
   3   9   5   12.58   13.22
  -5  -9  -5    0.01    8.31
   5  -9   5   -2.31   12.48
   5  -9   5    4.90   10.71
   5   9   5   -2.06   13.20
  -5   9  -5    2.11    9.85
   6 -10  -5   47.40   11.10
   6 -10  -5   26.34   11.80
  -6  10   5   31.20    8.31
   4 -10  -5   66.45   14.28
   4 -10  -5   59.38   14.67
  -4  10   5   77.94   16.10
   2 -10  -5    0.19    5.22
   2 -10  -5    9.56    5.71
  -2  10   5    1.50    9.65
  -2  10   5    0.02    6.98
   2  10  -5    2.64    7.13
   0 -10   5   45.48   10.23
   0 -10   5   39.88   10.00
   0 -10  -5   47.03    9.57
   0 -10  -5   63.01   12.07
   0 -10  -5   35.89    9.66
   0  10   5   31.15    8.28
   0  10  -5   58.25   10.12
   0  10   5   46.90    8.50
   0  10   5   24.25    7.91
   0  10  -5   13.24    6.89
   2 -10   5   91.46   21.54
  -2 -10  -5  143.43   23.59
   2 -10   5  167.51   25.08
   2 -10   5  129.38   22.62
  -2 -10  -5  121.72   22.28
  -2  10  -5  162.99   29.70
  -2  10  -5  156.97   28.87
   2  10   5  159.17   31.64
   4 -10   5   12.31    9.70
   4 -10   5   -6.90   10.83
  -4 -10  -5   -5.83    8.49
   4  10   5   26.93   14.77
  -4  10  -5   14.32   10.08
   6 -10   5    1.12   14.14
  -6 -10  -5    0.05    9.08
   6 -10   5  -10.34   11.34
   6  10   5  -10.69   13.85
  -6  10  -5    5.31   11.68
   5 -11  -5    0.60    8.30
   5 -11  -5  -12.42    7.53
  -5  11   5    2.03    6.32
   3 -11  -5    1.52    6.35
   3 -11  -5   -0.65    6.09
   3  11  -5    0.74    7.27
  -3  11   5   -8.37    7.50
   1 -11  -5    1.78    5.03
   1 -11  -5  -15.46    7.10
   1 -11  -5    5.20    5.57
  -1 -11   5   -3.35    6.13
  -1  11   5   -2.15    8.53
  -1  11   5    7.35    7.24
   1  11  -5   11.84    7.57
   1 -11   5    6.43    7.24
   1 -11   5   -2.43    5.46
  -1 -11  -5    0.86    6.85
  -1 -11  -5   -1.02    6.29
  -1  11  -5   -2.46    5.90
   1  11   5    2.37    8.04
  -3 -11  -5  -13.26    8.28
   3 -11   5    9.91   10.18
   3 -11   5   -0.20    7.63
  -3  11  -5    9.67    9.61
  -3  11  -5   18.36   11.94
   3  11   5    0.13   14.26
   5 -11   5    6.38   10.95
   5 -11   5    7.06   13.26
  -5 -11  -5   -8.12    8.46
   5  11   5    8.80   14.62
  -5  11  -5    9.69   10.85
   6 -12  -5   17.22   10.33
   6 -12  -5   21.24    9.81
  -6  12   5   10.02    6.89
   4 -12  -5   66.93   15.57
   4 -12  -5   65.40   15.45
  -4  12   5   70.61   16.12
   2 -12  -5   64.58   14.91
   2 -12  -5   73.27   14.47
   2  12  -5   87.48   19.60
  -2  12   5  100.02   19.32
  -2  12   5   91.82   20.36
   0 -12   5   33.58    9.23
   0 -12  -5   26.64   10.87
   0 -12  -5   47.71    9.69
   0  12  -5   21.86    9.17
   0  12   5   28.00    8.12
   2 -12   5    0.68    5.76
   2 -12   5    2.06    8.94
  -2 -12  -5   -1.62    8.01
  -2 -12  -5    9.00    8.45
  -2  12  -5   12.18    8.97
   2  12   5    6.51   12.36
  -4 -12  -5   14.49    8.93
   4 -12   5   -5.16    9.30
   4 -12   5   18.74   12.23
  -4  12  -5   11.98    9.84
   4  12   5    1.21   15.44
   5 -13  -5  -11.60    8.76
   5 -13  -5    0.56    8.86
  -5  13   5   -7.54    6.76
   3 -13  -5    5.78    7.41
   3 -13  -5   -2.30    6.56
  -3  13   5    7.46    8.92
   3  13  -5   -0.25    8.30
   1 -13  -5   -6.15    8.61
  -1 -13   5   -9.64    6.97
   1 -13  -5   -0.56    6.17
  -1  13   5   -1.26    9.48
   1  13  -5    0.52    8.55
   1 -13   5    4.89    8.33
  -1 -13  -5   11.44   11.79
   1 -13   5   16.52    6.68
  -1 -13  -5   -3.34    7.54
  -1 -13  -5   -5.60    8.42
  -1  13  -5   12.90    6.81
   1  13   5    4.90    8.66
   3 -13   5   -4.66   10.54
  -3 -13  -5   -1.08    9.24
  -3  13  -5   -4.84   11.27
   3  13   5    5.36   14.98
  -5 -13  -5    0.29    9.08
   5 -13   5   -0.47   11.46
   5 -13   5   17.28   13.52
   5  13   5  -16.67   15.29
  -5  13  -5   11.41   10.75
   4 -14  -5   -4.88    8.83
   4 -14  -5   -0.98    7.99
  -4  14   5   -8.10    9.04
   4  14  -5    7.00    8.38
   2 -14  -5   14.02    9.10
   2  14  -5   -3.02    9.09
  -2  14   5   -0.88    9.76
  -2  14   5   -8.42   11.05
   0 -14  -5   -5.57    6.82
   0 -14   5   -2.20    7.24
   0 -14  -5    2.82   10.45
   0  14  -5  -10.44    9.24
   0  14   5    1.84    7.21
   2 -14   5   -1.82    9.22
  -2 -14  -5    3.47    9.88
   2 -14   5    0.10    6.64
  -2 -14  -5    3.94    8.84
   2  14   5    3.57   11.30
  -2  14  -5  -14.15    8.80
   4 -14   5  -10.74   12.07
  -4 -14  -5   -0.02    8.83
   4  14   5    3.71   15.46
  -4  14  -5   -3.93   14.06
   5 -15  -5   22.65   10.81
   5 -15  -5    9.21    9.89
  -5  15   5   19.88   10.13
   3 -15  -5   25.21   10.07
   3 -15  -5   53.36   11.28
   3  15  -5   35.40   12.84
  -3  15   5   46.22   16.17
  -3  15   5   65.35   14.36
   1 -15  -5   95.42   19.97
   1 -15  -5   88.05   17.28
  -1  15   5   89.23   20.30
   1  15  -5   99.18   20.88
   1 -15   5   17.48    8.45
  -1 -15  -5   19.97    9.50
  -1 -15  -5   16.45   11.55
  -1  15  -5   10.73    7.29
   3 -15   5    0.13   11.09
  -3 -15  -5   -2.69    9.58
  -3  15  -5   -8.14   12.04
   3  15   5    9.38   13.46
   4 -16  -5   -1.73    9.73
   4 -16  -5    4.05    8.72
  -4  16   5    0.58   10.44
   4  16  -5    0.63    9.19
   2 -16  -5   -2.87    9.75
   2  16  -5    6.34   10.46
  -2  16   5    5.44   11.80
   0 -16  -5   24.77   11.69
   0 -16  -5   -4.70    7.19
   0 -16   5    4.20    8.88
   0  16   5    2.31    7.84
   2 -16   5    2.83    7.57
   2 -16   5   11.59   10.81
  -2 -16  -5  -38.84   13.82
  -2 -16  -5    1.75   11.09
  -2  16  -5    5.94    9.48
   2  16   5   -8.71   11.68
  -4 -16  -5  -14.46    9.29
   4 -16   5    2.55   12.99
  -4  16  -5   17.00   15.35
   4  16   5   21.18   14.34
   3 -17  -5   -9.27    7.84
  -3  17   5  -15.45   14.20
   3  17  -5   -7.36   10.02
   1 -17  -5   -1.89    7.09
   1 -17  -5    1.17   11.10
   1  17  -5  -13.08   11.04
  -1  17   5  -18.47   10.07
   1 -17   5   -3.42    8.49
  -1 -17  -5   -0.93   11.17
  -1 -17  -5   -4.22    9.24
  -1  17  -5   -5.14    6.95
   3 -17   5   -3.88   11.74
  -3 -17  -5   -5.37   10.34
   3  17   5   14.87   13.57
  -3  17  -5   16.67   14.20
   2 -18  -5   16.56   11.84
   2  18  -5   20.98   12.18
  -2  18   5   13.21   13.44
   0 -18  -5   27.62    9.28
   0 -18   5   13.38   11.10
   0 -18  -5   24.61   13.82
  -2 -18  -5   19.74   13.36
   2 -18   5   -4.18    8.42
  -2  18  -5   -0.55    9.47
   3 -19  -5    8.66    9.97
  -3  19   5   -7.58   15.55
   3  19  -5  -10.59   11.32
   1 -19  -5   -3.45    7.62
   1 -19  -5    8.42   12.68
  -1  19   5  -14.54   10.39
   1 -19   5   -3.23    9.53
  -1 -19  -5    5.45   13.01
  -1 -19  -5   -4.42   10.16
  -1  19  -5   -8.38    7.78
   2 -20  -5    4.50   10.92
  -2  20   5   13.12   13.38
   2  20  -5   -1.66   12.53
   0 -20   5   -1.27   11.31
   0 -20  -5   17.91   13.87
   0 -20  -5   14.97    9.43
   2   0  -6   51.29    9.61
   2   0  -6   50.07   10.94
  -2   0   6   48.18   10.27
   0   0   6   45.35   12.58
   0   0  -6   83.25   13.53
   0   0   6   72.56   13.32
   0   0  -6   65.73   12.97
   0   0  -6   60.63   13.51
   0   0   6   58.59   12.86
   2   0   6  225.63   41.51
  -2   0  -6  239.61   40.42
   2   0   6  242.63   42.35
   4   0   6    1.02    6.65
   4   0   6   -7.73    7.54
  -4   0  -6   24.62   13.36
  -6   0  -6   11.49   14.16
   6   0   6   44.31   12.06
   6   0   6   63.26   15.68
   3  -1  -6    0.55    3.52
  -3   1   6    3.42    3.69
   1  -1  -6    4.30    3.66
   1  -1  -6    0.29    5.30
  -1  -1   6   -5.03    5.04
  -1  -1   6   -0.39    5.63
  -1   1   6    0.07    5.49
   1   1  -6    5.64    5.12
  -1   1   6    6.91    5.23
  -1  -1  -6    7.01    6.18
  -1  -1  -6    4.42    6.51
   1  -1   6   -7.14    4.81
  -1  -1  -6    5.00    5.71
   1  -1   6    4.43    5.40
   1  -1   6    1.18    5.34
   1  -1   6   -3.27    5.33
  -1   1  -6   14.31    6.01
   1   1   6   -3.92    5.16
   1   1   6   -1.53    5.56
   1   1   6  -10.69    5.57
   1   1   6    1.21    5.10
  -1   1  -6    4.78    6.78
  -1   1  -6    2.34    6.71
  -3  -1  -6    8.05   10.55
   3  -1   6   -4.02    6.32
   3  -1   6   -8.02    5.55
  -3  -1  -6    1.06    6.74
  -3   1  -6    6.10    8.66
   3   1   6   10.35    6.38
  -3   1  -6    3.73   11.13
   3   1   6    3.77    6.96
  -5  -1  -6    2.10   12.71
   5  -1   6    9.10    8.08
   5  -1   6   -3.15    9.31
  -5   1  -6  -19.01   12.90
   5   1   6    8.72    8.01
   5   1   6   10.94    9.47
   2  -2  -6    1.94    5.08
   2  -2  -6    4.13    3.04
  -2  -2   6    5.87    4.62
  -2   2   6   -3.89    4.39
   2   2  -6   -2.61    4.36
   0  -2  -6   -0.13    5.53
   0  -2  -6   -4.61    4.92
   0  -2   6    1.48    3.90
   0  -2   6    4.29    5.81
   0  -2  -6    0.95    5.90
   0  -2   6    0.66    5.03
   0  -2   6  -12.93    5.66
   0   2   6   -4.96    5.65
   0   2  -6   -2.02    5.26
   0   2   6    4.00    5.88
   0   2  -6    6.13    4.56
   0   2  -6   -6.70    5.14
   0   2   6   -0.07    4.79
  -2  -2  -6   19.51    7.58
   2  -2   6   -9.75    5.23
   2  -2   6    1.10    5.25
  -2  -2  -6   -0.68    5.51
   2  -2   6   -7.98    4.31
  -2   2  -6  -10.27    8.29
   2   2   6   -8.94    6.44
   2   2   6   -3.52    6.26
  -2   2  -6  -14.14    7.85
   4  -2   6   -5.81    6.91
  -4  -2  -6  -12.45   11.51
   4  -2   6   -9.76    7.96
  -4   2  -6   10.38   12.54
   4   2   6   13.61    7.47
   4   2   6   -0.26    8.08
  -6  -2  -6  -15.94   11.40
   6  -2   6   -0.44    9.86
   6  -2   6   -5.57   12.62
  -6   2  -6  -14.73   12.47
   6   2   6   12.77    9.66
   6   2   6    5.84   12.81
   3  -3  -6  110.67   20.24
   3  -3  -6  108.34   20.10
  -3   3   6  126.75   22.72
  -1  -3   6   48.30   10.52
  -1  -3   6   57.06   11.13
   1  -3  -6   44.47   10.36
   1  -3  -6   47.55   10.14
  -1   3   6   37.82    9.86
   1   3  -6   45.01    9.36
  -1   3   6   41.70    9.81
   1  -3   6   -2.04    4.76
   1  -3   6   -7.63    5.01
  -1  -3  -6    2.71    5.70
   1  -3   6    8.43    5.12
   1  -3   6   -0.84    4.51
  -1  -3  -6   -0.79    5.03
  -1  -3  -6   -5.35    5.15
   1   3   6   13.98    6.45
  -1   3  -6    3.66    6.55
  -1   3  -6    4.28    5.45
   1   3   6   -0.23    5.81
   1   3   6    2.97    6.08
  -1   3  -6   17.92    6.31
  -3  -3  -6   26.95    9.02
  -3  -3  -6   37.56   11.49
   3  -3   6   45.50    9.35
   3  -3   6   37.56   10.02
  -3   3  -6   53.60   12.25
  -3   3  -6   50.46   12.66
   3   3   6   30.00   10.28
   3   3   6   21.79    9.82
   5  -3   6   11.53   10.93
  -5  -3  -6   15.42   12.41
   5  -3   6   15.81    9.39
   5   3   6   22.26   11.01
  -5   3  -6    7.79   13.18
   5   3   6   23.20    9.50
   4  -4  -6   -2.98    5.75
  -4   4   6    1.39    4.62
   2  -4  -6   -0.63    4.97
  -2  -4   6    2.70    4.87
   2  -4  -6    5.81    3.19
  -2   4   6    4.13    5.21
   2   4  -6   -4.76    4.75
   0  -4  -6   -3.68    5.04
   0  -4   6    7.35    5.55
   0  -4   6    2.92    5.48
   0  -4  -6    2.93    4.30
   0  -4   6   -1.40    3.59
   0  -4  -6    1.46    5.41
   0   4  -6    1.66    5.40
   0   4  -6   -3.09    4.45
   0   4   6    3.11    5.41
   0   4  -6   -4.03    4.32
   0   4   6    3.58    5.16
   0   4   6    3.21    5.89
   2  -4   6   -1.80    5.09
   2  -4   6    2.74    4.39
   2  -4   6   -2.11    5.51
  -2  -4  -6   -6.97    6.46
  -2  -4  -6   -2.72    5.19
   2   4   6   -1.22    7.61
  -2   4  -6   -0.46    7.91
  -2   4  -6   -2.76    7.43
  -4  -4  -6   -6.37   10.40
   4  -4   6    2.89    9.11
   4  -4   6   -2.45    7.81
   4   4   6    9.49    8.50
   4   4   6    6.00    9.07
  -4   4  -6    2.01   11.37
   6  -4   6   14.84   13.29
   6  -4   6   -4.02   10.29
  -6  -4  -6    5.76   11.18
  -6   4  -6    5.87   12.92
   6   4   6    8.87   10.31
   6   4   6   -3.74   13.19
   5  -5  -6   -1.35    7.44
   3  -5  -6   -1.82    4.90
   3  -5  -6    0.31    4.66
  -3   5   6  -12.29    4.97
  -1  -5   6  127.28   25.07
  -1  -5   6  153.80   25.46
   1  -5  -6  127.02   25.57
   1  -5  -6  154.26   25.67
  -1   5   6  139.89   27.92
   1   5  -6  172.18   28.79
  -1   5   6  166.73   28.56
  -1  -5  -6   29.39    7.72
   1  -5   6   21.37    7.49
   1  -5   6   44.73    8.49
   1  -5   6   35.52    7.53
  -1  -5  -6   32.93    7.43
   1  -5   6   29.53    7.31
   1   5   6   23.46    8.08
  -1   5  -6   43.77    8.47
   1   5   6   27.58    8.79
  -1   5  -6   32.99    8.15
  -1   5  -6   35.15    8.12
   1   5   6   22.24    7.77
  -3  -5  -6   78.07   17.33
   3  -5   6   67.76   17.46
   3  -5   6   79.30   15.93
   3   5   6   72.00   16.99
   3   5   6   74.30   16.65
  -3   5  -6   81.14   18.23
  -3   5  -6   75.37   17.13
  -5  -5  -6   36.33   13.93
   5  -5   6   47.80   14.67
   5  -5   6   55.86   13.57
   5   5   6   43.54   13.53
  -5   5  -6   41.49   14.29
   5   5   6   29.86   12.19
   4  -6  -6   87.44   17.36
   4  -6  -6   93.14   18.10
  -4   6   6   95.91   18.04
   2  -6  -6    6.58    5.28
  -2  -6   6    4.74    4.97
   2  -6  -6    5.73    3.93
   2   6  -6   12.35    6.34
  -2   6   6   19.77    6.74
  -2   6   6   18.41    7.94
   0  -6  -6    9.95    4.91
   0  -6   6    6.23    4.09
   0  -6   6    8.83    5.67
   0  -6  -6   19.60    5.86
   0  -6  -6   12.99    5.22
   0  -6   6   13.82    5.80
   0   6   6   10.05    5.76
   0   6  -6    1.51    5.65
   0   6  -6   14.26    4.85
   0   6   6    1.77    6.06
   0   6  -6    6.49    5.48
   0   6   6   10.70    6.04
  -2  -6  -6   41.31    9.43
   2  -6   6   32.30    7.49
   2  -6   6   35.75    9.29
   2  -6   6   32.36    8.16
  -2  -6  -6   26.24    8.03
   2   6   6   34.32   11.14
  -2   6  -6   24.37   10.35
  -2   6  -6   42.32   10.00
  -4  -6  -6    6.68   10.22
   4  -6   6   16.21    9.13
   4  -6   6   13.17   11.18
   4   6   6   24.20   10.63
  -4   6  -6    5.96   10.74
   4   6   6   -6.11   10.58
   6  -6   6    1.96   13.19
   6  -6   6   29.47   12.17
  -6  -6  -6    7.47   10.72
   6   6   6    0.74   13.95
  -6   6  -6   17.81   13.32
   6   6   6   13.66   11.76
   5  -7  -6   -0.41    7.89
   5  -7  -6    1.04    5.57
  -5   7   6    5.85    5.45
   3  -7  -6    0.67    5.16
   3  -7  -6    1.10    5.10
  -3   7   6    2.08    5.88
   1  -7  -6    6.87    5.28
   1  -7  -6   -0.43    5.07
  -1  -7   6   10.15    5.31
  -1  -7   6    5.59    6.26
   1  -7  -6    4.69    5.28
  -1   7   6    9.76    6.11
  -1   7   6   -0.79    7.04
   1   7  -6    2.32    5.87
   1  -7   6    6.17    4.94
  -1  -7  -6    9.88    5.25
  -1  -7  -6    7.56    5.59
   1  -7   6    1.76    5.41
   1  -7   6    0.42    4.51
  -1   7  -6   15.78    6.60
   1   7   6    4.04    8.31
   1   7   6    0.77    5.64
  -1   7  -6    6.74    6.31
  -1   7  -6    6.92    5.99
   3  -7   6    3.61    9.00
   3  -7   6   -7.78    7.06
  -3  -7  -6   -7.54    8.69
  -3   7  -6   -6.09   11.33
  -3   7  -6  -12.86    8.93
   3   7   6    6.45   11.08
   5  -7   6   -6.63   10.60
   5  -7   6   -7.19   11.67
  -5  -7  -6    1.16    9.70
   5   7   6    0.33   11.23
   5   7   6  -36.01   11.95
  -5   7  -6   18.63   11.92
   6  -8  -6    2.25    9.91
   6  -8  -6    2.48    6.86
  -6   8   6   -0.83    6.02
   4  -8  -6    5.68    5.60
   4  -8  -6   -0.31    6.81
  -4   8   6    1.96    5.70
   2  -8  -6   -4.37    5.20
  -2  -8   6   10.42    5.27
   2  -8  -6   -2.49    4.52
  -2   8   6   -2.06    6.67
  -2   8   6    4.95    8.64
   2   8  -6   10.13    6.70
   0  -8  -6    2.85    5.17
   0  -8   6   -6.69    5.41
   0  -8  -6    7.50    4.79
   0  -8  -6   -3.08    5.21
   0  -8   6   -3.48    5.38
   0   8   6   -1.91    5.84
   0   8  -6   -3.74    5.88
   0   8   6    9.04    6.28
   0   8  -6   -3.47    4.80
   0   8   6    0.99    5.77
   2  -8   6   -1.02    5.46
  -2  -8  -6    5.02    7.66
   2  -8   6    2.63    7.65
   2  -8   6   -2.13    5.03
  -2  -8  -6    5.68    6.21
  -2   8  -6    0.54    8.82
   2   8   6    7.96   10.80
  -2   8  -6   -8.06    7.68
  -4  -8  -6   -6.20    9.52
   4  -8   6   10.11   11.60
   4  -8   6    7.98    9.56
  -4   8  -6   -0.44   10.26
   4   8   6   -8.33   12.43
   6  -8   6   12.55   13.55
  -6  -8  -6   11.32   10.17
   6  -8   6    2.65   12.20
  -6   8  -6   18.40   12.80
   6   8   6   -0.91   12.92
   5  -9  -6   14.93    8.54
   5  -9  -6    7.81    7.15
  -5   9   6   18.73    6.99
   3  -9  -6   42.25   11.43
   3  -9  -6   55.08   11.41
  -3   9   6   64.84   14.25
   3   9  -6   63.96   15.32
   1  -9  -6   30.51    7.28
   1  -9  -6   25.57    7.46
  -1  -9   6   26.26    8.08
   1  -9  -6   32.21    8.66
   1   9  -6   31.45   10.09
  -1   9   6   50.53   11.03
  -1   9   6   42.15   10.92
   1  -9   6    1.90    5.49
  -1  -9  -6   -2.39    5.73
   1  -9   6   -0.83    6.67
  -1  -9  -6    1.77    6.28
   1   9   6    5.06    5.49
   1   9   6    0.51    8.76
  -1   9  -6    0.73    6.14
   3  -9   6   19.10   11.35
  -3  -9  -6   32.64   10.56
   3  -9   6   19.11    8.96
   3   9   6   32.39   14.65
  -3   9  -6   28.61   10.83
  -3   9  -6   27.12   13.47
   5  -9   6   32.88   14.18
  -5  -9  -6    4.19    9.79
   5  -9   6   -7.03   11.19
   5   9   6   34.70   14.67
  -5   9  -6   19.82   12.59
   6 -10  -6   -7.49    9.32
   6 -10  -6    0.28    8.27
  -6  10   6    3.09    6.43
   4 -10  -6   88.35   18.68
   4 -10  -6   97.17   18.69
  -4  10   6   98.34   19.31
   2 -10  -6   20.67    6.58
   2 -10  -6    5.15    6.35
  -2  10   6   21.01   10.86
  -2  10   6   14.64    8.46
   2  10  -6   19.50    8.83
   0 -10  -6   24.95    9.88
   0 -10  -6   12.50    6.71
   0 -10   6   24.52    7.33
   0  10  -6   19.00    7.70
   0  10   6    0.86    7.13
   2 -10   6   76.31   17.06
  -2 -10  -6   64.30   13.69
   2 -10   6   47.68   12.59
  -2 -10  -6   73.85   15.15
  -2  10  -6   74.49   19.12
   2  10   6  128.50   22.17
  -4 -10  -6   43.89   12.89
   4 -10   6   49.90   15.00
   4 -10   6   39.75   13.18
  -4  10  -6   44.16   13.35
   4  10   6   43.91   17.50
   5 -11  -6    6.44    8.19
   5 -11  -6   -5.69    8.01
  -5  11   6    1.10    6.64
   3 -11  -6    1.49    6.71
   3 -11  -6   -0.92    6.17
   3  11  -6   -3.45    8.42
  -3  11   6   15.12    8.12
   1 -11  -6  -10.24    8.23
  -1 -11   6    8.87    6.86
   1 -11  -6   -6.43    5.66
   1 -11  -6   -4.23    5.75
  -1  11   6   -4.82    9.16
  -1  11   6   12.04    7.97
   1  11  -6    7.54    8.34
  -1 -11  -6   -1.21    7.16
   1 -11   6    5.55    8.06
  -1 -11  -6    7.53    6.83
   1 -11   6   -6.08    6.38
   1  11   6   -0.12    5.51
  -1  11  -6   -2.38    6.43
   1  11   6    1.76    9.59
  -3 -11  -6   -6.03    9.33
   3 -11   6   -1.20   10.93
  -3  11  -6   -0.20   12.08
   3  11   6   -5.41   14.53
   5 -11   6   -5.14   11.79
  -5 -11  -6    7.37    9.89
   5 -11   6    9.68   14.46
  -5  11  -6  -12.55   11.46
   5  11   6    8.26   15.01
   4 -12  -6   12.60    8.36
   4 -12  -6   27.19    9.08
  -4  12   6   57.24   14.16
   2 -12  -6   11.76    7.10
   2 -12  -6   17.34    7.86
   2  12  -6   12.68    9.25
  -2  12   6   13.63    9.27
  -2  12   6    6.61   11.23
   0 -12  -6   13.28    9.53
   0 -12  -6   -8.91    6.29
   0 -12   6    1.68    7.04
   0  12  -6   -3.53    8.29
   0  12   6   10.29    7.33
  -2 -12  -6    3.42    8.60
  -2 -12  -6    7.86    8.69
   2 -12   6   18.10    7.00
   2 -12   6   10.77    9.94
  -2  12  -6    8.67    9.12
   2  12   6    8.92   13.81
   4 -12   6    6.53   12.51
  -4 -12  -6    0.70    9.68
   4  12   6    5.50   16.20
   5 -13  -6   -9.14    9.15
   5 -13  -6   -8.87    8.55
  -5  13   6   -1.66    7.43
   3 -13  -6    5.19    7.83
   3 -13  -6    2.82    7.36
  -3  13   6   13.74    9.24
   3  13  -6   -4.50    9.14
   1 -13  -6   14.29    9.94
   1 -13  -6    6.37    6.73
   1  13  -6    7.61    9.63
  -1  13   6    3.37    9.99
  -1 -13  -6   24.47   12.66
  -1 -13  -6   -8.87    7.59
   1 -13   6   -1.62    7.30
  -1  13  -6    8.17    6.77
  -3 -13  -6    8.87    9.90
   3 -13   6   -3.78   10.93
   3  13   6   -7.72   16.65
  -3  13  -6    5.12   11.54
   5 -13   6   22.43   14.47
  -5 -13  -6    5.34   10.22
   5  13   6    8.98   16.96
   4 -14  -6    5.48    8.30
   4 -14  -6   -9.05    8.68
  -4  14   6   12.31    9.26
   4  14  -6    1.34    8.85
   2 -14  -6  -16.85    8.72
  -2  14   6    3.00   12.07
   2  14  -6   -2.46    9.92
  -2  14   6    3.96   12.06
   0 -14  -6   -2.42    6.88
   0 -14   6   14.05    8.45
   0 -14  -6    1.43   11.17
   0  14   6   -0.03    7.61
   2 -14   6   -7.89   10.30
  -2 -14  -6   15.10    9.71
  -2 -14  -6    0.28    9.00
   2 -14   6   -1.39    7.49
  -2  14  -6    2.59    9.12
   2  14   6   -9.47   13.43
   4 -14   6   -0.74   12.60
  -4 -14  -6   -6.71    9.62
   4  14   6    8.18   17.61
  -4  14  -6   -3.01   14.50
   3 -15  -6   20.57    9.06
   3  15  -6   14.73   10.05
  -3  15   6   15.81   11.40
   1 -15  -6   61.96   14.17
   1 -15  -6   84.51   17.41
  -1  15   6   89.05   19.98
   1  15  -6   89.57   20.74
  -1 -15  -6   18.74    8.97
  -1 -15  -6    2.90   11.94
   1 -15   6    9.45    9.00
  -1  15  -6    6.78    6.97
  -3 -15  -6   31.26   12.54
   3 -15   6   50.88   14.67
  -3  15  -6   24.90   13.91
   3  15   6   45.71   17.81
   4 -16  -6    2.04    9.18
   4 -16  -6    1.97    9.66
   4  16  -6  -14.63    9.43
  -4  16   6    3.67   10.08
   2 -16  -6   10.40   10.80
   2  16  -6    3.43   10.92
  -2  16   6   -5.88   12.45
   0 -16  -6    6.49    7.16
   0 -16   6    5.86    9.76
   0 -16  -6   -9.08   12.07
   0  16   6   -7.41    8.16
   2 -16   6   -6.10    8.32
  -2 -16  -6  -20.73   15.30
  -2  16  -6   -2.60    9.23
   3 -17  -6  -13.37    8.53
   3  17  -6  -17.95   10.26
  -3  17   6  -16.61   15.31
   1 -17  -6  -16.76   11.74
   1 -17  -6   -0.83    7.46
   1  17  -6    5.95   11.94
  -1  17   6    0.68   10.94
  -1 -17  -6    3.60   12.14
   1 -17   6  -15.55    9.09
  -1 -17  -6   -0.20    8.85
  -1  17  -6   -4.39    7.54
  -3 -17  -6    6.62   10.54
   3  17   6    1.51   15.07
  -3  17  -6  -20.20   13.49
   2 -18  -6    7.27   12.02
   2  18  -6   12.41   12.29
  -2  18   6    8.21   14.39
   0 -18   6    1.00   11.08
   0 -18  -6   -7.93   13.81
   0 -18  -6    2.67    8.27
   0  18   6   10.19    8.93
   2 -18   6    7.29    9.11
  -2 -18  -6  -10.61   13.63
  -2  18  -6   14.45    9.91
   1 -19  -6    1.17   13.62
   1 -19  -6   -6.30    7.76
  -1  19   6   -5.30   10.92
   1 -19   6   -0.98   10.37
  -1 -19  -6    6.85   10.73
  -1 -19  -6  -13.33   13.70
  -1  19  -6   -0.29    8.34
   0 -20  -6    7.71   15.09
   0 -20   6   -7.80   12.08
   0  20   6    4.05    9.67
  -2   0   7  126.08   27.36
  -2   0   7  184.15   27.22
   2   0  -7  165.37   28.00
   0   0   7    9.52    6.49
   0   0   7    4.00    5.43
   0   0  -7    9.05    6.88
   0   0  -7   12.69    6.46
   0   0  -7   15.69    6.62
   0   0   7   12.61    6.99
  -2   0  -7    4.08    7.81
  -2   0  -7   -8.53    8.86
   2   0   7   -3.31    6.22
   2   0   7    4.42    6.65
  -4   0  -7   56.65   16.20
   4   0   7   11.37    9.20
   4   0   7   14.82    8.46
   6   0   7   30.70   15.02
  -6   0  -7   45.39   15.83
   6   0   7   32.01   11.86
  -3  -1   7    1.50    4.01
   3  -1  -7    2.33    5.61
  -3   1   7   -6.07    3.91
   1  -1  -7   12.02    6.06
  -1  -1   7   -5.39    6.32
  -1  -1   7   -1.21    5.63
   1   1  -7    1.59    5.51
  -1   1   7   -3.76    5.65
  -1   1   7    0.02    6.18
  -1  -1  -7   -1.71    6.08
   1  -1   7    6.34    5.57
  -1  -1  -7    1.61    7.03
   1  -1   7   -1.65    5.96
  -1  -1  -7    2.17    6.87
   1  -1   7    6.40    6.13
   1  -1   7    6.31    6.28
  -1   1  -7   -5.22    7.23
   1   1   7    1.48    6.07
   1   1   7    4.84    6.28
   1   1   7   -2.66    5.31
  -1   1  -7    1.88    6.40
   1   1   7   -0.39    6.44
  -1   1  -7    3.05    7.46
  -3  -1  -7    9.44    8.23
   3  -1   7    0.25    7.15
   3  -1   7    4.05    6.74
  -3  -1  -7   18.36   11.61
   3   1   7    7.46    7.15
  -3   1  -7    3.97   12.47
   3   1   7   -1.30    7.43
  -3   1  -7   11.64    9.80
   5  -1   7    2.89    8.72
   5  -1   7    0.60    9.96
  -5  -1  -7  -27.55   14.06
   5   1   7   -0.89    8.64
  -5   1  -7   14.16   15.21
   5   1   7   -1.20    9.63
  -2  -2   7    1.62    5.00
   2  -2  -7    4.45    3.00
   2  -2  -7   -2.60    6.00
  -2   2   7    2.52    4.93
   2   2  -7   -4.04    5.11
   0  -2  -7   -5.03    6.20
   0  -2   7   -3.53    6.19
   0  -2  -7   -1.00    5.54
   0  -2  -7    9.36    6.62
   0  -2   7    6.87    6.51
   0   2  -7   -3.96    5.78
   0   2  -7    2.77    5.22
   0   2   7    7.53    6.68
   0   2   7    7.01    6.24
   0   2   7    4.41    5.32
   0   2  -7   14.27    6.22
  -2  -2  -7   -3.55    6.34
   2  -2   7   -5.89    5.96
   2  -2   7   -2.96    5.86
  -2  -2  -7   -9.70    7.89
   2  -2   7   -5.45    4.87
   2   2   7   -6.08    7.06
   2   2   7    7.38    7.16
  -2   2  -7    3.69    9.10
  -2   2  -7   -5.91    9.27
  -4  -2  -7    8.34   13.19
   4  -2   7   -1.59    8.57
   4  -2   7   -2.60    7.57
  -4   2  -7  -10.58   14.20
   4   2   7   -2.28    7.73
   4   2   7   -2.95    8.99
  -6  -2  -7    9.19   13.56
   6  -2   7  -12.26   10.10
   6  -2   7  -16.27   12.69
  -6   2  -7    4.10   14.47
   6   2   7   -9.05    9.97
   6   2   7  -11.82   13.08
  -3  -3   7   22.64    6.19
   3  -3  -7   20.09    6.03
   3  -3  -7   21.04    7.05
  -3   3   7   34.10    7.07
   3   3  -7   21.20    7.04
   1  -3  -7   21.83    6.14
   1  -3  -7   19.13    7.17
  -1  -3   7   11.56    7.27
  -1  -3   7   22.36    7.86
  -1   3   7   15.10    6.35
  -1   3   7   10.72    6.73
   1   3  -7    9.07    6.22
   1  -3   7   78.74   17.41
   1  -3   7   72.83   17.25
  -1  -3  -7  100.65   16.86
   1  -3   7  108.61   17.62
  -1  -3  -7   97.23   17.61
   1  -3   7   87.23   16.84
  -1   3  -7  131.36   19.62
  -1   3  -7   98.36   19.83
   1   3   7  103.87   20.01
   1   3   7   92.79   19.17
   1   3   7   91.03   19.59
  -1   3  -7  111.14   20.78
   3  -3   7  108.97   19.40
  -3  -3  -7   97.33   20.83
   3  -3   7   88.48   18.25
  -3  -3  -7   76.71   17.93
   3   3   7  105.77   24.18
  -3   3  -7  156.54   24.26
  -3   3  -7  110.35   26.12
   3   3   7  106.89   22.93
   5  -3   7   32.81   12.33
  -5  -3  -7   45.37   15.77
   5  -3   7   54.86   14.15
   5   3   7   29.77   10.78
   5   3   7   25.13   12.07
  -5   3  -7   35.54   16.26
   4  -4  -7   -1.39    5.86
  -4   4   7   -2.60    4.88
  -2  -4   7    3.36    5.55
   2  -4  -7  -16.15    5.66
   2  -4  -7    5.50    3.47
   2   4  -7    7.32    5.42
  -2   4   7    6.11    6.88
  -2   4   7   -4.18    5.67
   0  -4   7   -5.64    6.09
   0  -4  -7   -5.84    6.20
   0  -4   7    4.27    6.41
   0  -4   7   -1.81    4.01
   0  -4  -7   -4.32    5.84
   0  -4  -7   -0.24    4.61
   0   4   7   -4.20    6.02
   0   4   7    7.26    6.41
   0   4  -7    1.59    6.11
   0   4  -7   -4.68    4.86
  -2  -4  -7    5.95    7.64
  -2  -4  -7    1.44    6.22
   2  -4   7    1.50    5.07
   2  -4   7   18.23    6.51
   2  -4   7    1.63    5.88
  -2   4  -7   -2.30    8.77
   2   4   7   21.75    8.67
  -2   4  -7  -14.82    9.04
   4  -4   7   -5.22    8.17
   4  -4   7  -15.94    8.99
  -4  -4  -7   -1.82   12.11
  -4   4  -7  -14.95   13.16
   4   4   7   14.87    9.14
   4   4   7   -6.32    9.39
   6  -4   7    4.36   13.32
  -6  -4  -7   21.16   12.76
   6  -4   7  -10.76   10.92
   6   4   7    8.04   13.70
   6   4   7    0.00   10.68
  -6   4  -7   -8.15   14.04
   3  -5  -7   57.41   10.63
  -3  -5   7   32.36    9.61
   3  -5  -7   52.76   11.36
  -3   5   7   69.22   14.23
  -1  -5   7   69.77   14.28
  -1  -5   7   56.95   14.46
   1  -5  -7   79.13   14.30
   1  -5  -7   64.27   14.02
   1   5  -7   85.39   16.15
  -1   5   7   75.58   15.81
  -1   5   7   74.95   15.62
   1  -5   7   45.96   10.93
   1  -5   7   42.56   10.68
   1  -5   7   35.66    9.44
  -1  -5  -7   48.03   10.74
  -1  -5  -7   48.22    9.64
   1   5   7   26.09   10.40
  -1   5  -7   49.17   10.24
   1   5   7   35.66    9.83
  -1   5  -7   50.68   10.28
  -1   5  -7   45.95   10.60
  -3  -5  -7   83.31   18.61
   3  -5   7   71.55   18.46
   3  -5   7   79.35   16.74
  -3   5  -7   84.39   21.62
   3   5   7   80.35   20.19
  -3   5  -7  115.16   21.40
  -5  -5  -7   26.01   12.22
   5  -5   7    5.44   11.75
   5  -5   7   -2.99   10.27
   5   5   7   14.77   10.22
  -5   5  -7    5.49   14.20
   5   5   7    0.38   11.53
   4  -6  -7    8.26    7.21
   4  -6  -7    9.86    6.43
  -4   6   7    3.88    5.74
  -2  -6   7   13.26    6.64
   2  -6  -7   21.64    5.56
   2  -6  -7   21.64    7.37
  -2   6   7   37.45   10.07
  -2   6   7   26.66    8.94
   2   6  -7   33.76    8.79
   0  -6  -7   28.68    9.32
   0  -6   7   54.21   11.02
   0  -6   7   50.43   10.76
   0  -6  -7   53.57   11.28
   0  -6  -7   39.95    9.74
   0   6  -7   36.26    9.83
   0   6   7   36.28   10.19
   0   6   7   56.41   11.21
   0   6  -7   60.89   11.85
   2  -6   7   17.10    6.68
   2  -6   7   13.99    7.63
  -2  -6  -7   14.27    8.18
  -2  -6  -7   13.61    6.88
   2  -6   7   10.75    5.87
  -2   6  -7   18.62    9.94
  -2   6  -7   13.05    9.16
   2   6   7    2.49    9.59
   4  -6   7   -1.35   10.66
  -4  -6  -7    4.95   11.25
   4  -6   7    0.14    9.44
  -4   6  -7   -7.47   12.13
   4   6   7   -2.93   10.72
   4   6   7    3.43   10.44
   6  -6   7   -8.49   13.91
  -6  -6  -7  -13.25   11.41
   6  -6   7   -2.92   12.22
   6   6   7   12.94   14.69
   6   6   7   15.13   12.01
  -6   6  -7    0.69   14.90
   5  -7  -7   12.49    6.80
  -5   7   7    2.49    5.66
  -3  -7   7    6.47    5.69
   3  -7  -7    2.80    5.15
   3  -7  -7    1.03    6.37
   3   7  -7    8.10    6.73
  -3   7   7    3.60    6.60
   1  -7  -7    3.59    6.41
  -1  -7   7    7.85    7.43
   1  -7  -7   -0.02    6.10
   1  -7  -7    8.17    5.61
  -1  -7   7   -5.07    6.02
  -1   7   7    5.93    7.56
   1   7  -7   -1.33    6.77
  -1   7   7   -5.26    6.67
   1  -7   7    1.66    5.54
   1  -7   7   -8.05    5.49
   1  -7   7   14.05    6.76
  -1  -7  -7    0.89    5.90
  -1  -7  -7   -2.86    6.18
   1   7   7    5.86    6.10
  -1   7  -7   -4.32    6.66
   1   7   7    2.28    8.42
  -3  -7  -7   17.79   10.21
   3  -7   7   -7.83    8.02
   3  -7   7   12.71    9.73
  -3   7  -7  -12.71   12.75
   3   7   7  -17.63   10.76
  -3   7  -7  -10.38   10.69
  -5  -7  -7   15.37   11.47
   5  -7   7   -3.68   11.43
   5  -7   7   -6.16   12.46
   5   7   7   11.50   11.75
  -5   7  -7   15.53   13.76
   6  -8  -7   -4.77    7.43
  -6   8   7   -1.28    6.29
   4  -8  -7   11.54    6.58
   4  -8  -7    1.46    6.78
  -4   8   7   -4.88    6.12
   2  -8  -7   -3.68    6.48
  -2  -8   7   -6.16    5.92
   2  -8  -7   -2.82    4.90
  -2   8   7  -14.95    9.17
   2   8  -7   -4.30    7.29
  -2   8   7   10.05    7.65
   0  -8  -7   -3.09    5.68
   0  -8   7    2.88    6.62
   0  -8   7    3.81    6.46
   0   8  -7   -3.30    5.24
   0   8  -7   -0.37    7.15
   0   8   7    1.74    6.82
   0   8   7    1.86    6.67
   2  -8   7   10.96    5.89
  -2  -8  -7    9.22    7.26
   2  -8   7  -13.81    7.78
  -2  -8  -7   -4.09    8.34
  -2   8  -7  -17.03    9.61
   2   8   7    5.04   11.29
   4  -8   7   14.74   11.91
   4  -8   7    9.30   10.36
  -4  -8  -7   -0.01   11.05
  -4   8  -7    0.63   11.81
   4   8   7    0.13   12.02
   5  -9  -7   11.42    8.67
   5  -9  -7   13.56    7.96
  -5   9   7   10.98    6.70
  -3  -9   7    8.89    6.62
   3  -9  -7    3.05    5.86
   3  -9  -7    8.71    6.73
  -3   9   7   18.19    7.66
   3   9  -7   -4.29    7.97
   1  -9  -7   15.76    6.90
   1  -9  -7    4.26    7.50
  -1  -9   7    8.38    6.81
  -1  -9   7   12.93    7.84
   1  -9  -7    7.12    5.96
   1   9  -7    1.94    8.08
  -1   9   7   13.42    7.84
  -1   9   7   11.66    8.98
  -1  -9  -7   68.86   13.39
  -1  -9  -7   67.72   14.71
   1  -9   7   59.68   13.60
  -1   9  -7   27.08    8.45
   1   9   7   50.27   11.60
   1   9   7   20.91    7.72
  -3  -9  -7   94.84   18.58
   3  -9   7   57.77   17.46
   3   9   7   19.23   13.99
  -3   9  -7   29.73   14.27
   5  -9   7   10.41   13.97
  -5  -9  -7   16.83   11.26
   5  -9   7   -2.74   12.42
   5   9   7    5.15   13.27
  -5   9  -7   24.88   13.72
   6 -10  -7    4.91    8.87
  -6  10   7    2.60    6.74
   4 -10  -7   71.05   14.71
   4 -10  -7   52.55   14.07
  -4  10   7   60.58   13.33
   2 -10  -7   27.08    8.69
   2 -10  -7   26.98    8.16
  -2  10   7   58.05   13.13
  -2  10   7   28.64   11.12
   2  10  -7   39.59   11.72
   0 -10  -7   89.08   17.28
   0 -10   7   81.59   17.93
   0 -10  -7  121.06   20.90
   0  10   7   64.04   16.87
   0  10  -7  118.24   18.65
  -2 -10  -7   25.78    9.37
   2 -10   7   31.41   11.06
   2 -10   7   14.62    7.97
  -2 -10  -7   47.76   10.95
  -2  10  -7   20.56   10.22
   2  10   7   20.19   13.81
   4 -10   7   33.26   13.59
  -4 -10  -7    8.74   11.45
   4  10   7   -0.61   14.79
  -4  10  -7    4.86   12.12
   5 -11  -7   -2.55    8.54
   5 -11  -7    2.99    8.58
  -5  11   7   13.76    7.29
   3 -11  -7   -4.91    6.30
   3 -11  -7    4.87    7.58
  -3  11   7  -10.55    7.91
   3  11  -7   -8.38    9.03
  -1 -11   7    1.63    8.03
   1 -11  -7   -5.63    6.14
   1 -11  -7   11.02    9.11
  -1  11   7    9.85    9.84
   1  11  -7  -17.46    9.09
   1 -11   7   -8.01    7.15
  -1 -11  -7   -5.84    7.07
   1  11   7    2.07    6.05
  -1  11  -7   -6.16    6.64
   3 -11   7    4.82   11.34
  -3 -11  -7   -5.45   10.34
   3  11   7  -21.39   14.78
  -3  11  -7  -14.91   12.79
   5 -11   7  -12.10   13.71
  -5 -11  -7  -12.11   10.55
   5  11   7  -12.69   14.72
   4 -12  -7    9.13    7.39
   4 -12  -7    5.20    8.40
   4  12  -7   10.84    9.46
  -4  12   7   -3.94    7.67
   2 -12  -7  -10.42    7.38
   2 -12  -7   14.07    7.61
  -2  12   7   -6.54   12.16
  -2  12   7   26.71    9.86
   2  12  -7   23.90   10.92
   0 -12  -7    9.84   10.55
   0 -12   7   14.95    8.78
   0 -12  -7   13.45    7.19
   0  12  -7   12.03   10.27
   0  12   7   16.00    8.17
  -2 -12  -7   15.02    9.14
   2 -12   7    1.91    7.48
  -2 -12  -7   15.27    9.96
  -2  12  -7    7.40    9.44
   2  12   7    8.68   14.99
  -4 -12  -7    3.46   10.35
   4 -12   7  -12.17   12.77
   4  12   7   -5.52   15.83
  -4  12  -7    0.00   16.84
   5 -13  -7    6.00    8.77
   5 -13  -7    4.11    9.47
  -5  13   7    2.78    7.48
   3 -13  -7    8.09    8.49
   3 -13  -7    6.56    7.67
   3  13  -7   -8.55   10.15
  -3  13   7    4.36    8.97
   1 -13  -7   -4.62   10.55
   1 -13  -7    7.66    7.00
  -1  13   7    0.74   10.62
   1  13  -7    4.10   10.55
  -1 -13  -7   -2.98    7.75
   1 -13   7   -5.94    8.04
  -1 -13  -7    3.97   13.04
  -1  13  -7    5.87    6.89
   3 -13   7   12.71   12.05
  -3 -13  -7    9.96   10.78
   3  13   7   -5.71   17.94
  -3  13  -7   -6.85   12.15
   4 -14  -7    7.18    8.15
   4 -14  -7    2.34    9.20
  -4  14   7    5.53    8.70
   4  14  -7  -14.49    9.58
   2 -14  -7  -12.10    9.14
   2  14  -7  -13.68   10.71
  -2  14   7    5.10   13.17
   0 -14  -7    9.83   11.00
   0 -14   7    0.29    9.46
   0 -14  -7    0.72    6.91
   0  14   7   12.03    8.65
  -2 -14  -7  -15.34    9.85
   2 -14   7    0.04    8.35
  -2  14  -7    5.81    9.40
   4 -14   7   -5.54   13.00
  -4 -14  -7    6.56   10.47
  -4  14  -7   -4.52   14.97
   4  14   7   -5.99   19.23
   3 -15  -7    9.24    9.08
   3  15  -7   39.48   13.50
   1 -15  -7   28.36   13.77
   1 -15  -7   34.35    9.39
  -1  15   7   35.91   14.29
   1  15  -7   57.62   14.85
   1 -15   7   22.89   10.39
  -1 -15  -7   21.91    9.25
  -1 -15  -7   24.36   13.59
  -1  15  -7   14.78    7.90
  -3 -15  -7   53.98   14.82
   3  15   7   70.41   22.90
  -3  15  -7   47.38   16.50
   4 -16  -7   -4.82    9.10
   4  16  -7   -2.47    9.97
  -4  16   7   -2.78    9.64
   2 -16  -7   -0.39   11.23
   2  16  -7    9.71   11.85
  -2  16   7    3.74   14.03
   0 -16   7    5.82   10.57
   0 -16  -7   -7.49   12.73
   0 -16  -7   -3.27    7.28
   0  16   7    0.49    8.69
  -2 -16  -7   12.24   10.90
  -2 -16  -7  -13.50   16.14
   2 -16   7   10.86    9.35
  -2  16  -7   25.34   10.51
   3 -17  -7    6.14    9.90
  -3  17   7   -0.54   16.04
   3  17  -7  -17.08   11.16
   1 -17  -7    6.39   13.40
   1 -17  -7   -0.36    7.70
  -1  17   7  -12.99   11.44
  -1 -17  -7   15.08   13.49
   1 -17   7    3.36   10.40
  -1 -17  -7   -9.77    9.06
   2 -18  -7    4.24   12.25
   2  18  -7   -0.24   12.37
  -2  18   7    0.87   14.73
   0 -18  -7   17.48    8.82
   0 -18   7  -12.16   11.96
   0 -18  -7    9.26   14.51
   0  18   7    6.45    9.10
   2 -18   7    5.82   10.19
  -2 -18  -7   -1.50   15.01
  -2  18  -7    4.76    9.53
   1 -19  -7    3.01   14.29
   1 -19  -7   -3.00    8.48
  -1  19   7   12.74   12.41
   2   0  -8   33.13    8.05
  -2   0   8   17.69    6.95
   0   0  -8  312.14   51.04
   0   0  -8  281.61   49.07
   0   0   8  299.68   50.55
   0   0   8  260.41   49.21
  -2   0  -8   34.28   10.88
   2   0   8    7.99    6.88
  -2   0  -8   24.91    9.43
   2   0   8    7.69    7.61
   2   0   8    9.36    8.06
  -4   0  -8    1.18   15.65
   4   0   8   17.04    8.57
   4   0   8    6.41    9.45
   3  -1  -8    6.70    6.51
  -3  -1   8    6.96    4.64
  -3   1   8    4.67    4.59
   3   1  -8    4.52    5.84
   1  -1  -8    0.89    6.94
  -1  -1   8   -0.18    6.59
  -1  -1   8    6.41    7.53
  -1   1   8   -6.77    6.39
  -1   1   8   -1.19    7.21
   1   1  -8   -6.29    6.96
   1  -1   8    2.15    6.09
  -1  -1  -8  -21.94    7.27
   1  -1   8    4.10    7.31
  -1  -1  -8   -1.32    7.99
   1  -1   8   -7.30    6.74
   1   1   8   -5.98    7.06
  -1   1  -8   -3.69    8.10
  -1   1  -8    8.94    8.55
   1   1   8    6.39    6.99
  -3  -1  -8   -3.37   12.02
   3  -1   8    5.48    7.51
   3  -1   8   -9.13    7.87
  -3  -1  -8    0.67    9.10
  -3   1  -8    5.37   10.71
  -3   1  -8    1.04   13.58
   3   1   8   -4.46    8.54
   3   1   8   11.61    7.87
   5  -1   8   -4.16    9.15
   5  -1   8  -14.10   10.27
  -5  -1  -8   -7.54   15.62
   5   1   8   -1.22   10.85
  -5   1  -8   23.52   17.04
   5   1   8    7.92    9.53
   4  -2  -8  -10.05    6.58
  -4   2   8    1.07    4.46
  -2  -2   8   -1.98    5.55
   2  -2  -8    0.73    6.83
   2   2  -8    9.90    6.22
  -2   2   8    4.34    5.78
   0  -2  -8   -7.16    7.07
   0  -2   8  -22.22    7.45
   0  -2   8  -13.94    7.38
   0  -2  -8   13.36    7.46
   0   2   8  -10.91    6.89
   0   2   8   -6.55    7.10
   0   2  -8  -14.52    5.87
   0   2  -8    3.07    7.14
   2  -2   8   13.97    7.35
  -2  -2  -8   -0.84    7.70
  -2  -2  -8   -2.23    9.01
   2  -2   8    4.74    6.11
   2  -2   8    2.19    6.87
   2   2   8    5.40    8.16
  -2   2  -8   12.50   10.18
  -2   2  -8    3.05   11.22
   2   2   8    5.76    7.85
   4  -2   8   -1.08    9.33
  -4  -2  -8   -4.76   13.98
   4  -2   8   -1.73    8.27
   4   2   8    3.96    9.78
  -4   2  -8   14.49   16.39
   4   2   8    6.57    8.65
   3  -3  -8   31.34    8.91
  -3  -3   8   26.33    7.31
   3   3  -8   32.67    8.08
  -3   3   8   30.42    7.99
  -1  -3   8  141.57   21.92
   1  -3  -8   93.82   21.73
   1  -3  -8  108.24   22.33
  -1  -3   8  130.43   22.07
  -1   3   8  108.64   21.19
   1   3  -8  121.74   21.97
  -1   3   8  113.12   21.68
  -1  -3  -8   91.08   18.76
   1  -3   8   88.28   18.73
   1  -3   8   98.56   19.84
  -1  -3  -8  102.80   19.56
   1  -3   8  116.44   19.63
  -1   3  -8  153.38   24.01
   1   3   8  125.16   23.55
   1   3   8  113.78   24.38
  -3  -3  -8   70.37   15.85
   3  -3   8   62.95   13.70
  -3  -3  -8   46.48   12.90
   3  -3   8   51.86   12.74
   3   3   8   41.15   14.58
  -3   3  -8   93.15   17.58
  -3   3  -8   91.50   18.88
   3   3   8   52.11   13.87
   5  -3   8   -0.43   11.37
   5  -3   8    8.77   10.12
  -5  -3  -8   39.19   14.98
  -5   3  -8   41.79   17.27
   5   3   8   10.38   10.01
   5   3   8   -6.56   10.51
   4  -4  -8    1.17    6.77
  -4   4   8    1.44    5.17
  -2  -4   8   -4.08    6.41
   2  -4  -8   -8.57    7.09
   2  -4  -8    4.06    3.96
   2   4  -8   -1.50    6.28
  -2   4   8   -0.14    6.49
  -2   4   8   -2.56    8.14
   0  -4   8   -4.06    7.28
   0  -4  -8    2.17    6.46
   0  -4   8  -17.00    7.09
   0  -4  -8    5.03    7.68
   0   4   8    2.30    7.13
   0   4  -8    4.21    5.84
   0   4   8    9.40    7.28
   0   4  -8    1.51    7.19
   2  -4   8    8.65    5.68
  -2  -4  -8   13.16    7.26
   2  -4   8    3.98    6.98
   2  -4   8   -3.18    6.64
  -2  -4  -8  -11.87    8.15
  -2   4  -8   10.22   10.81
  -2   4  -8  -13.32   10.49
   2   4   8   12.43    9.01
  -4  -4  -8   11.73   13.23
   4  -4   8  -12.33    8.70
   4  -4   8   13.86   10.54
  -4   4  -8   -7.38   15.20
   4   4   8    6.33   10.29
   4   4   8   14.52    9.66
   5  -5  -8   37.92   10.33
  -5   5   8   25.06    7.58
   3  -5  -8   72.00   14.58
   3  -5  -8   77.15   16.02
  -3  -5   8   70.07   14.97
  -3   5   8   83.61   17.13
   3   5  -8   88.06   17.14
  -1  -5   8   12.16    8.48
  -1  -5   8   -6.24    7.12
   1  -5  -8    6.16    6.42
   1  -5  -8   -0.46    7.56
  -1   5   8   -2.37    6.99
   1   5  -8   -0.36    6.91
  -1   5   8    3.59    7.53
  -1  -5  -8   -1.05    6.49
  -1  -5  -8    4.31    6.49
   1  -5   8    5.39    5.65
   1  -5   8    2.58    6.39
  -1   5  -8    6.84    7.91
   1   5   8    7.68    7.89
   1   5   8    4.58    6.95
  -3  -5  -8   68.99   15.91
  -3  -5  -8  100.87   18.01
   3  -5   8   67.10   16.36
   3  -5   8   65.54   15.61
  -3   5  -8   80.38   22.16
   3   5   8   89.02   20.79
  -3   5  -8  121.76   22.78
   5  -5   8    2.09   11.26
   5  -5   8   28.87   13.12
  -5  -5  -8    8.82   14.15
  -5   5  -8   27.86   16.70
   5   5   8    9.82   11.10
   5   5   8   19.64   12.84
   4  -6  -8   62.70   15.01
  -4   6   8   37.23    9.29
   2  -6  -8   37.79    8.82
   2  -6  -8   37.14   10.43
  -2  -6   8   32.27    9.35
   2   6  -8   51.07   12.65
  -2   6   8   63.05   13.89
  -2   6   8   62.35   14.48
   0  -6  -8   10.63    6.34
   0  -6   8   11.58    7.81
   0  -6   8    3.99    7.95
   0   6  -8   11.12    7.79
   0   6   8   12.99    7.42
   0   6   8   -3.69    7.19
   2  -6   8    2.39    5.86
  -2  -6  -8    5.14    7.27
   2  -6   8   -2.60    7.27
  -2  -6  -8   -3.22    8.41
  -2   6  -8   13.96   11.13
   2   6   8    7.84   10.06
  -4  -6  -8    0.92   12.20
   4  -6   8    9.71   11.30
   4  -6   8    0.42   10.07
  -4   6  -8    3.83   14.68
   4   6   8   10.40   10.35
   5  -7  -8    7.15    7.87
  -5   7   8    5.06    6.28
   3  -7  -8   -1.25    5.40
   3  -7  -8    4.20    7.57
  -3  -7   8    1.40    6.27
  -3   7   8   22.41    7.56
   3   7  -8   -1.86    7.24
   1  -7  -8    3.95    6.83
   1  -7  -8    0.49    7.81
  -1  -7   8  -15.83    7.01
  -1  -7   8   -8.58    8.39
  -1   7   8    3.95    7.94
   1   7  -8    0.20    7.80
  -1   7   8    0.06    8.30
  -1  -7  -8   -3.13    6.56
   1  -7   8    4.00    6.44
   1   7   8    9.13    6.81
  -1   7  -8   -0.38    7.75
  -3  -7  -8    0.91   10.73
   3  -7   8    4.43    9.46
   3   7   8   -0.33   11.05
  -3   7  -8  -10.39   14.03
  -5  -7  -8    9.67   12.63
   5  -7   8    1.65   12.43
   5  -7   8   27.99   14.01
   5   7   8   11.01   11.48
  -5   7  -8   -3.08   15.74
   6  -8  -8    8.58    8.78
  -6   8   8   -8.78    6.22
   4  -8  -8   -2.82    7.03
   4  -8  -8    0.48    7.70
  -4   8   8   -1.94    6.49
   2  -8  -8   -5.98    7.90
   2  -8  -8    3.22    5.48
  -2  -8   8   -4.57    6.83
   2   8  -8  -10.47    8.36
  -2   8   8  -11.53    8.19
  -2   8   8   -6.37    9.77
   0  -8  -8    5.84    6.29
   0  -8   8    3.51    7.80
   0  -8   8    1.81    7.38
   0   8   8  -22.50    7.09
   0   8  -8    3.34    8.34
  -2  -8  -8   -1.94    9.58
  -2  -8  -8   -5.38    7.94
   2  -8   8    4.65    6.58
   2  -8   8    2.18    8.15
   2   8   8  -24.90   10.86
  -2   8  -8   -1.01   10.72
   4  -8   8    8.00   12.37
  -4  -8  -8   -0.99   12.01
   4  -8   8   14.84   12.65
   4   8   8    8.05   12.21
  -4   8  -8    9.38   14.94
   5  -9  -8    0.24    8.41
  -5   9   8    5.83    6.69
  -3  -9   8   13.17    7.81
   3  -9  -8   16.69    8.49
   3  -9  -8   16.30    6.78
  -3   9   8   15.03    8.38
   3   9  -8    8.27    9.11
  -1  -9   8   68.47   15.49
   1  -9  -8   59.82   14.17
  -1  -9   8   88.73   15.60
   1  -9  -8   91.63   16.14
   1  -9  -8   54.25   15.44
  -1   9   8   67.88   16.84
  -1   9   8   65.87   16.85
   1   9  -8   97.27   17.97
   1  -9   8   78.88   17.18
  -1  -9  -8   95.02   16.93
  -1   9  -8   59.10   11.08
   1   9   8   27.62    9.35
  -3  -9  -8   55.37   14.24
   3  -9   8   28.16   13.26
   3   9   8    9.44   13.16
  -3   9  -8   13.29   13.87
   5  -9   8   -4.97   14.18
  -5  -9  -8   -6.20   11.54
   5  -9   8    6.85   14.38
   5   9   8    4.92   12.96
   4 -10  -8    4.53    7.17
   4 -10  -8    3.02    8.30
  -4  10   8    2.00    7.16
   2 -10  -8   11.62    7.08
   2 -10  -8   19.46    8.67
  -2 -10   8    7.81    7.89
  -2  10   8   24.05   10.21
  -2  10   8   11.05   11.97
   2  10  -8   32.26   11.37
   0 -10  -8   46.43   10.67
   0 -10   8   38.25   11.70
   0 -10  -8   65.35   15.03
   0  10  -8   68.53   14.56
   0  10   8   48.18   12.77
  -2 -10  -8   29.79   10.81
   2 -10   8    3.09    7.88
  -2 -10  -8   16.70    9.20
   2  10   8   26.84   14.62
  -2  10  -8   12.09   10.48
  -4 -10  -8   -1.77   11.70
   4 -10   8   -3.07   12.93
   4  10   8    1.66   14.02
  -4  10  -8   21.53   17.62
   5 -11  -8   -4.16    8.91
   5 -11  -8    0.35    9.03
  -5  11   8    4.04    6.89
   3 -11  -8   -0.92    6.73
   3 -11  -8   -3.18    8.33
  -3  11   8    7.08    8.72
   3  11  -8   -0.58   10.32
   1 -11  -8    9.02    6.95
   1 -11  -8   -5.41    9.77
  -1  11   8    1.52   10.09
   1  11  -8    2.59   10.57
  -1 -11  -8   -4.70    7.21
   1 -11   8   -6.96    8.11
  -1  11  -8   -9.54    6.94
   1  11   8   -2.67    6.38
  -3 -11  -8    0.93   11.97
   3 -11   8    5.14   11.82
  -3  11  -8   -8.96   13.66
   3  11   8    4.96   15.61
   4 -12  -8    4.39    9.02
   4 -12  -8   13.27    7.41
  -4  12   8    7.45    7.89
   4  12  -8   23.88   10.15
   2 -12  -8    5.41    8.12
  -2  12   8   39.51   13.23
   2  12  -8    4.10   11.70
  -2  12   8   12.93   10.46
   0 -12  -8   -5.85   10.51
   0 -12   8  -10.94    9.37
   0 -12  -8    8.76    7.06
   0  12   8   -0.02    8.09
  -2 -12  -8    0.59    9.36
   2 -12   8    4.52    8.41
  -2  12  -8    0.13    9.56
   4 -12   8   -3.82   13.75
  -4 -12  -8   -7.85   11.96
  -4  12  -8   -3.75   18.04
   4  12   8  -22.02   15.92
   3 -13  -8    9.11    9.20
   3 -13  -8    9.13    8.12
  -3  13   8   -0.28    9.37
   3  13  -8   14.47   11.40
   1 -13  -8  -12.57    6.93
   1 -13  -8    0.83   11.27
   1  13  -8  -12.10   11.16
  -1  13   8    2.82   11.06
   1 -13   8    6.64    9.50
  -1 -13  -8    5.82    7.83
  -1 -13  -8  -25.70   13.10
  -1  13  -8   -1.02    7.10
  -3 -13  -8  -12.60   11.63
   3  13   8  -24.32   18.68
  -3  13  -8    0.28   12.66
   4 -14  -8   -9.91    9.52
   4 -14  -8   -0.22    8.10
  -4  14   8   -8.19    7.88
   4  14  -8   -2.02   10.26
   2 -14  -8    7.91    9.90
  -2  14   8    1.44   13.79
   2  14  -8    4.03   12.22
   0 -14   8    9.67   10.69
   0 -14  -8   -3.49    7.17
   0 -14  -8    2.30   11.36
   0  14   8    0.62    8.49
  -2 -14  -8    2.99   10.10
   2 -14   8   -1.59    8.91
  -2  14  -8    4.80    9.84
   3 -15  -8   29.89   11.06
   3  15  -8   86.01   20.07
   1 -15  -8   35.60   14.16
   1 -15  -8   18.89    8.70
   1  15  -8   34.21   13.90
  -1  15   8   11.32   12.66
  -1 -15  -8   10.36    9.05
   1 -15   8   30.51   11.38
  -1 -15  -8   25.76   13.88
  -1  15  -8   15.60    8.54
  -3  15  -8   55.70   17.01
   2 -16  -8    7.10   11.83
   2  16  -8  -14.44   12.44
  -2  16   8    7.80   14.86
   0 -16  -8   -0.62   14.01
   0 -16   8  -15.76   11.84
   0 -16  -8    6.24    8.18
   0  16   8    3.98    9.16
  -2 -16  -8   -2.41   10.42
   2 -16   8   -3.23    9.84
  -2 -16  -8   -3.26   16.85
  -2  16  -8   16.79   10.03
   1 -17  -8  -12.38    7.91
   1 -17  -8  -14.73   13.66
  -1  17   8   15.14   12.96
  -1 -17  -8  -16.90   12.68
  -1 -17  -8    6.33    9.57
   1 -17   8    8.48   11.37
   0 -18   8   14.29   13.56
   0 -18  -8   11.15   15.36
   0 -18  -8   -2.32    8.77
   0  18   8   10.09   10.15
  -4   0   9   56.73   11.73
  -2   0   9    3.00    5.99
   2   0  -9    3.52    7.27
   0   0   9   83.53   19.45
   0   0  -9  106.24   18.93
   0   0  -9  112.30   20.53
   0   0   9   89.41   20.01
  -2   0  -9   17.82   10.38
  -2   0  -9   31.86   12.29
   2   0   9    9.95    7.90
   2   0   9   13.96    8.80
   4   0   9   39.72   12.45
   4   0   9   31.11   13.40
  -4   0  -9  143.69   22.84
   3  -1  -9    9.93    7.38
  -3  -1   9    3.65    5.20
   3   1  -9   -0.51    6.54
  -3   1   9    5.00    5.09
   1  -1  -9    7.40    8.59
  -1  -1   9   11.54    8.91
  -1  -1   9    9.15    7.82
   1   1  -9   14.01    8.40
  -1   1   9   -4.75    7.37
  -1   1   9   -9.46    8.01
  -1  -1  -9  -25.64    8.50
   1  -1   9   -0.62    7.71
   1  -1   9   -3.93    6.42
  -1   1  -9    4.77    9.01
   1   1   9    4.07    7.64
   3  -1   9   -0.54    8.18
   3  -1   9   -2.33    8.68
  -3  -1  -9    2.81   10.21
  -3  -1  -9   -5.06   13.06
  -3   1  -9    6.68   11.72
   3   1   9    4.53    9.43
  -3   1  -9   20.70   14.85
   3   1   9    8.73    8.93
  -5  -1  -9   34.57   17.89
   5  -1   9   15.77   11.63
   5  -1   9    0.84   10.46
   5   1   9   -3.36    9.87
  -5   1  -9   24.94   18.88
   5   1   9    0.17   11.19
   4  -2  -9   -4.15    7.30
  -4  -2   9    0.45    5.29
   4   2  -9   12.38    6.72
  -4   2   9    7.73    5.22
  -2  -2   9   -5.17    6.15
   2  -2  -9    5.81    8.14
   2   2  -9    0.94    7.08
  -2   2   9   -1.83    6.37
   0  -2   9  -10.46    8.49
   0  -2  -9    2.44    8.65
   0  -2  -9   14.42    8.10
   0  -2   9  -10.32    8.07
   0   2  -9  -11.46    6.83
   0   2   9   -1.66    8.16
   0   2  -9   -8.19    9.02
   0   2   9   -7.24    7.80
   2  -2   9    1.85    6.86
  -2  -2  -9   15.53    8.61
  -2  -2  -9   10.56   10.25
   2  -2   9    3.54    7.90
   2   2   9   -0.35    8.84
  -2   2  -9   -4.13   10.79
   2   2   9   -4.72    7.50
  -4  -2  -9   10.14   15.29
   4  -2   9    0.71    8.94
   4   2   9   -6.50   10.19
  -4   2  -9    1.82   17.37
   4   2   9   -1.35    9.15
  -5   3   9    5.11    5.70
   3  -3  -9   71.76   16.07
  -3  -3   9   64.65   13.88
  -3   3   9   69.31   14.55
   3   3  -9   74.96   15.35
   1  -3  -9  124.20   25.43
   1  -3  -9  144.53   26.11
  -1  -3   9  139.36   25.34
  -1  -3   9  133.98   25.39
  -1   3   9   80.04   19.98
  -1   3   9  101.74   20.40
   1   3  -9  135.85   21.27
   1  -3   9   25.92    8.16
  -1  -3  -9   24.79    9.00
   1  -3   9   20.73    8.88
  -1   3  -9   47.97   11.91
   1   3   9   37.89   10.88
  -3  -3  -9   18.00   12.75
   3  -3   9    1.27    8.80
  -3  -3  -9   11.37    9.50
   3  -3   9    3.47    8.57
   3   3   9   -4.21    9.92
   3   3   9    5.26    9.12
  -3   3  -9  -10.98   15.00
  -3   3  -9    3.05   13.10
   5  -3   9   -8.87   11.32
   5  -3   9   11.98   10.77
  -5  -3  -9   23.96   15.99
   5   3   9   -7.00   11.36
  -5   3  -9  -14.73   18.61
   5   3   9   -4.06    9.86
   4  -4  -9  -20.19    7.82
  -4   4   9    0.94    5.39
  -2  -4   9    5.18    6.97
   2  -4  -9    0.86    8.55
  -2   4   9   -0.56    6.97
   2   4  -9   -1.74    7.35
   0  -4  -9    0.92    7.37
   0  -4   9   -5.63    8.33
   0  -4   9  -16.45    8.24
   0   4   9    9.80    8.30
   0   4  -9   -4.50    6.80
   0   4  -9   -7.01    8.28
   0   4   9   -0.62    7.81
  -2  -4  -9    7.77    7.85
   2  -4   9   -1.07    6.20
   2  -4   9   -7.20    7.35
  -2  -4  -9   -3.87    9.54
   2   4   9   11.33    9.81
  -2   4  -9    0.55   11.64
   4  -4   9    6.37   11.04
   4  -4   9   -6.45    9.46
  -4  -4  -9    8.88   14.13
   4   4   9    4.22   11.02
  -4   4  -9  -17.44   16.98
   4   4   9    4.50    9.87
   5  -5  -9    5.18    8.54
  -5   5   9    0.37    5.84
  -3  -5   9   64.45   15.46
   3  -5  -9   89.58   17.38
  -3   5   9   69.16   14.36
   3   5  -9   60.93   14.67
   1  -5  -9   49.59   11.03
  -1  -5   9   23.86   11.16
  -1  -5   9   36.58   12.41
   1  -5  -9   55.24   12.26
  -1   5   9   29.38   10.63
   1   5  -9   29.50   10.92
  -1   5   9   49.22   10.93
   1  -5   9    9.94    7.96
  -1  -5  -9   26.17    7.98
   1   5   9   23.99    8.70
  -1   5  -9   19.14   10.02
  -3  -5  -9   18.44   11.19
  -3  -5  -9   38.43   13.64
   3  -5   9   40.94   11.64
  -3   5  -9   72.17   16.52
   3   5   9   29.93   12.64
  -5  -5  -9    6.99   14.41
   5  -5   9    6.41   11.82
   5  -5   9    0.47   12.69
   5   5   9   18.42   11.21
  -5   5  -9  -11.26   18.70
   5   5   9   25.67   13.57
  -6   6   9   19.62    7.72
   4  -6  -9   28.74   10.52
  -4   6   9   27.24    8.13
   2  -6  -9   22.23    9.65
  -2  -6   9    4.53    7.53
   2  -6  -9   -0.24    5.35
  -2   6   9    7.19    8.58
   2   6  -9   12.53    8.48
  -2   6   9   28.09   10.64
   0  -6   9  -16.48    8.17
   0  -6  -9   -2.10    6.82
   0  -6   9   -3.44    8.77
   0   6  -9   -0.76    8.92
   0   6   9    2.88    7.79
  -2  -6  -9    6.22    7.99
  -2  -6  -9   -7.78   10.21
   2  -6   9    5.09    6.32
   2  -6   9   -0.69    7.86
  -2   6  -9   -3.98   11.52
  -4  -6  -9   -0.38   13.21
   4  -6   9   10.49   12.04
   4   6   9   -0.95   10.46
   5  -7  -9   -3.76    8.84
  -5   7   9  -10.28    6.38
   3  -7  -9   -4.74    9.09
  -3  -7   9   -1.46    7.04
  -3   7   9    2.24    7.54
   3   7  -9    3.84    7.90
   1  -7  -9   -9.54    9.65
  -1  -7   9   -6.00    8.03
   1  -7  -9    4.41    7.89
  -1  -7   9    0.49    9.85
   1  -7  -9   -1.22    7.11
  -1   7   9    6.36    9.12
   1   7  -9   -2.01    8.95
  -1   7   9  -12.49    8.73
   1  -7   9   -8.09    7.08
  -1  -7  -9    8.23    7.13
  -1   7  -9    2.65    8.87
   1   7   9   -3.37    7.38
  -3  -7  -9   -9.94   11.74
   3  -7   9  -14.81    9.66
   3   7   9    7.58   11.54
  -3   7  -9  -13.81   14.09
   5  -7   9    5.87   14.01
  -5  -7  -9    2.87   13.30
   5   7   9   -6.46   10.89
  -4  -8   9    0.20    8.32
   4  -8  -9    9.40    9.41
   4   8  -9  -11.03    7.43
  -4   8   9    2.34    7.12
   2  -8  -9    6.00    9.86
   2  -8  -9  -16.77    6.07
  -2  -8   9   -6.22    7.80
  -2   8   9   14.74   10.72
  -2   8   9  -16.27    8.87
   2   8  -9   -4.19    9.22
   0  -8   9    2.38    9.09
   0  -8   9    7.33    8.59
   0   8  -9  -18.14    9.33
   0   8   9    0.12    8.02
   2  -8   9    0.09    7.54
  -2  -8  -9    7.56    8.40
  -2   8  -9  -20.05   10.65
  -4  -8  -9   12.60   13.34
   4  -8   9   -5.12   12.44
   4   8   9   -3.08   11.80
  -4   8  -9   15.54   18.63
   5  -9  -9    2.77    9.62
  -5   9   9   12.40    7.28
  -3  -9   9   46.01   12.11
   3  -9  -9   43.47   12.97
   3  -9  -9   55.10   11.74
   3   9  -9   71.58   17.32
  -3   9   9   65.52   16.06
   1  -9  -9   55.45   11.56
  -1  -9   9   56.20   12.54
   1  -9  -9   29.16   12.56
   1   9  -9  106.54   19.16
  -1   9   9   59.35   16.53
  -1  -9  -9    8.25    7.50
   1  -9   9   17.56    8.33
  -1   9  -9   19.38    8.37
   1   9   9   19.68    8.04
  -3  -9  -9    9.53   12.75
   3  -9   9    8.15   11.92
  -3   9  -9   -0.91   13.96
   3   9   9   10.40   13.13
   4 -10  -9    5.03    9.44
  -4 -10   9    4.70    9.36
  -4  10   9    3.78    7.43
   4  10  -9   18.23    9.30
   2 -10  -9   22.27    9.75
  -2 -10   9    1.43    8.51
   2 -10  -9    0.01    7.23
  -2  10   9    6.97   12.15
  -2  10   9    9.20   10.16
   2  10  -9   17.32   11.35
   0 -10  -9   42.41   10.38
   0 -10   9   38.58   12.31
   0 -10  -9   60.20   14.97
   0  10   9   30.49   10.19
   2 -10   9   21.94    9.37
  -2 -10  -9   19.02    9.70
  -2  10  -9    0.03   10.33
  -4 -10  -9   14.64   13.77
   4 -10   9   26.42   14.64
   4  10   9   23.94   15.02
  -4  10  -9   -0.25   16.89
   5 -11  -9  -11.26   10.08
  -5  11   9    2.86    6.95
   3 -11  -9   -5.49    9.44
   3 -11  -9   -3.53    6.46
  -3  11   9   -3.12    8.61
   3  11  -9   -7.04   10.85
   1 -11  -9    3.43   10.23
  -1  11   9   14.91   11.05
   1  11  -9    4.65   11.68
  -1 -11  -9   -1.75    7.40
   1 -11   9    0.74    9.54
   1  11   9   -5.66    6.84
  -1  11  -9  -15.15    7.28
  -3  11  -9    5.82   14.83
   4 -12  -9   10.44    7.82
   4 -12  -9  -11.43    9.93
  -4  12   9    4.49    7.88
   4  12  -9   19.17   10.61
   2 -12  -9    7.22    8.57
   2  12  -9   12.42   12.86
  -2  12   9    9.08   13.40
   0 -12  -9    4.45    7.07
   0 -12  -9  -24.27   10.48
   0 -12   9    2.12   10.80
   0  12   9    6.00    8.95
  -2 -12  -9  -12.20    8.94
   2 -12   9    9.88    9.44
  -2  12  -9    2.69   10.06
   3 -13  -9   -5.57    8.25
   3 -13  -9   -4.72   10.34
   3  13  -9   -0.66   12.41
  -3  13   9    7.83    9.22
   1 -13  -9    4.31   11.49
   1 -13  -9   -4.16    7.38
  -1  13   9    2.99   11.61
   1  13  -9  -18.08   13.10
  -1 -13  -9   14.89   14.11
  -1 -13  -9   -4.05    7.76
   1 -13   9   -8.82   10.23
  -1  13  -9   -1.95    7.55
  -3  13  -9  -11.46   14.31
   2 -14  -9   10.41   10.35
  -2  14   9   -2.02   14.60
   2  14  -9   12.75   13.26
   0 -14   9   -9.09   11.89
   0 -14  -9   -9.43   11.86
   0 -14  -9    5.50    7.71
   0  14   9   12.67    9.50
   2 -14   9    2.96   10.10
  -2 -14  -9   10.93   10.34
  -2  14  -9   -3.30   10.02
   3 -15  -9   14.47   10.25
   3  15  -9   59.73   17.61
   1 -15  -9   25.37    9.53
   1 -15  -9   16.13   14.17
  -1  15   9   19.48   13.26
  -1 -15  -9   29.83    9.88
   1 -15   9    1.03   11.95
  -1 -15  -9   11.62   14.04
  -1  15  -9   12.49    8.59
   2 -16  -9   -1.63   11.44
   2  16  -9   -4.43   13.62
  -2  16   9   34.06   16.31
   0 -16  -9   17.63    8.91
   0 -16   9  -13.37   13.01
   0 -16  -9   -7.76   13.89
   0  16   9    4.41    9.80
   1 -17  -9   12.51   14.71
   1 -17  -9   -0.86    8.99
  -1  17   9    5.00   13.30
   4   0 -10   14.87    8.06
  -4   0  10   -1.22    5.26
   2   0 -10   47.95   11.72
  -2   0  10   35.06   10.16
   0   0  10    8.58    9.11
   0   0 -10    3.00    8.33
   0   0  10    2.94    9.39
  -2   0 -10    2.21    9.97
   2   0  10   -6.01    7.79
   2   0  10   15.84    9.09
  -4   0 -10   94.03   20.22
   4   0  10   15.68   11.66
   4   0  10   43.55   13.49
  -5   1  10    3.09    5.94
  -3  -1  10    3.79    5.75
   3  -1 -10    0.66    8.35
   3   1 -10   10.31    7.62
  -3   1  10   -2.54    5.61
  -1  -1  10   -6.38   10.21
   1  -1 -10    0.38    9.89
  -1  -1  10   -3.71    8.05
   1   1 -10    5.26    9.34
  -1   1  10   -4.69    9.08
  -1   1  10   -1.80    8.03
   1  -1  10   18.21    8.80
  -1  -1 -10   -4.91    9.12
   1   1  10    6.84    8.63
  -1   1 -10   -0.30    9.54
  -3  -1 -10  -14.64   10.40
   3  -1  10  -11.85    9.23
   3   1  10   -1.76   10.04
  -3   1 -10    3.18   11.62
   5  -1  10   -3.74   10.66
  -5  -1 -10    2.92   18.12
   5  -1  10    0.31   12.00
   5   1  10   26.00   11.02
   5   1  10  -21.47   11.38
  -5   1 -10   17.86   19.99
   4  -2 -10   -6.13    8.63
  -4  -2  10   -0.95    5.66
   4   2 -10    1.05    6.97
  -4   2  10    2.12    5.45
  -2  -2  10   -4.73    6.98
   2  -2 -10    2.99    9.38
  -2   2  10   -1.94    6.96
   2   2 -10   -3.77    8.23
   0  -2  10   -4.48    9.13
   0  -2  10   -4.68    9.26
   0  -2 -10    4.55    8.55
   0   2  10    5.67    9.43
   0   2 -10  -15.10   11.24
   0   2 -10    8.69    8.39
   2  -2  10   -5.22    7.32
  -2  -2 -10   12.86    9.10
   2  -2  10    7.75    8.61
   2   2  10   -2.96    8.21
  -2   2 -10    5.30   10.97
  -4  -2 -10  -10.56   15.76
   4  -2  10  -19.18   10.61
   4   2  10    3.01   11.17
   4   2  10   15.10   10.45
   5  -3 -10   59.46   14.52
  -5   3  10   27.74    7.75
  -3  -3  10   73.25   15.93
   3  -3 -10   86.94   18.24
   3   3 -10   77.29   15.72
  -3   3  10   64.02   14.62
  -1  -3  10   14.47    9.33
   1  -3 -10   18.68   10.76
  -1  -3  10   13.23   10.45
  -1   3  10   11.65    9.65
   1   3 -10   28.69   10.06
  -1   3  10    6.29    9.03
  -1  -3 -10   -1.20    8.10
   1  -3  10   -3.57    8.23
  -1   3 -10    3.59   10.11
   1   3  10   -8.56    8.06
   3  -3  10   19.00   10.20
  -3  -3 -10    5.10   10.25
  -3   3 -10   -0.05   12.76
   4  -4 -10    1.03    9.43
  -4  -4  10    4.05    7.23
   4   4 -10   -1.18    6.81
  -4   4  10   -3.92    5.69
  -2  -4  10   -1.90    7.54
   2  -4 -10   -1.24    9.95
  -2   4  10   -6.57    7.64
   2   4 -10   -8.66    8.06
   0  -4 -10   -3.88    7.94
   0  -4  10   -3.96    9.43
   0  -4  10   -9.85    9.57
   0   4  10   -6.36    8.77
   0   4 -10    0.40    8.10
   2  -4  10   -4.62    6.90
  -2  -4 -10    1.58    8.22
  -2   4 -10   -2.79   11.47
   2   4  10    3.11    8.32
   4  -4  10    3.65   11.43
  -4  -4 -10    2.42   15.36
   4   4  10    1.23   10.21
   5  -5 -10  -11.11    9.82
  -5   5  10    6.75    6.36
  -3  -5  10   12.18    8.06
   3  -5 -10   26.24   10.87
   3   5 -10   25.87    9.26
  -3   5  10   28.07    8.87
   1  -5 -10   16.38   11.59
  -1  -5  10    7.15    9.57
   1  -5 -10   19.55    9.44
  -1  -5  10   28.48   11.30
   1   5 -10    3.27    9.89
  -1   5  10   19.21    9.64
  -1   5  10    7.13    9.44
  -1  -5 -10   29.05    9.10
   1  -5  10   25.22    9.79
  -1   5 -10   62.96   14.74
   1   5  10   58.51   13.51
   3  -5  10   -1.32    9.73
  -3  -5 -10   -1.46    9.89
  -3   5 -10   -0.77   13.70
  -4  -6  10    0.45    8.22
   4  -6 -10    1.40   10.13
  -4   6  10    0.69    6.64
   4   6 -10    7.96    7.28
  -2  -6  10   -4.00    8.09
   2  -6 -10   -0.86   10.72
   2   6 -10    3.09    8.79
  -2   6  10  -10.95    8.41
   0  -6  10  -15.58   10.13
   0  -6 -10    6.13    7.32
   0  -6  10   -5.61    9.31
   0   6  10    2.83    8.52
  -2  -6 -10   15.02    8.20
   2  -6  10   -5.39    7.01
  -2   6 -10  -12.02   11.43
  -4  -6 -10   -8.49   14.62
   4  -6  10    3.25   11.92
  -4   6 -10    1.94   18.30
   4   6  10    8.10   11.13
   5  -7 -10   -2.82   10.36
  -5   7  10   -1.58    6.78
   3  -7 -10    7.71   10.83
  -3  -7  10    6.67    7.97
   3   7 -10   -7.17    8.24
  -3   7  10    1.35    8.16
  -1  -7  10   -6.40    9.26
   1  -7 -10    0.48    9.31
   1   7 -10    0.40   10.06
  -1   7  10   -9.81    9.54
  -1  -7 -10  -11.98    6.87
   1  -7  10   -5.97    7.86
  -1   7 -10    2.08    9.56
   1   7  10   -6.83    7.70
  -3  -7 -10   -3.92   10.64
  -3   7 -10   -9.79   13.56
  -4  -8  10  -10.39    8.78
   4  -8 -10   -9.98   10.17
   4   8 -10   -2.59    7.84
  -4   8  10   -8.75    7.23
  -2  -8  10   -2.54    8.52
   2  -8 -10   13.69    7.55
   2  -8 -10    1.16   11.19
  -2   8  10   17.03   11.75
  -2   8  10    7.70   10.07
   2   8 -10   19.00   10.93
   0  -8  10  -10.21    9.66
   0  -8 -10   -6.41    7.00
   0   8  10   -3.71    8.57
  -2  -8 -10   13.67    8.82
   2  -8  10    5.27    9.00
  -2   8 -10  -10.82   11.19
   4  -8  10   -3.43   13.19
  -4  -8 -10    3.16   14.21
   4   8  10   23.52   12.81
  -4   8 -10   -2.60   18.22
   5  -9 -10   25.92   11.95
  -5   9  10    9.86    7.56
   3  -9 -10   12.27   11.40
  -3  -9  10   22.98    9.67
   3   9 -10   25.60   10.72
  -3   9  10   10.10    9.25
  -1  -9  10   13.15    9.85
   1  -9 -10   14.67   10.30
   1   9 -10    8.00   11.45
  -1   9  10   -9.01   10.24
  -1  -9 -10    1.04    7.13
   1  -9  10    4.73    8.65
   1   9  10    4.19    7.73
  -1   9 -10    1.86    8.24
  -3   9 -10   -6.97   14.74
   4 -10 -10   20.69   11.02
  -4 -10  10    2.96    9.85
  -4  10  10   12.96    8.81
   4  10 -10   34.71   10.57
  -2 -10  10   32.17   10.11
   2 -10 -10   10.16    8.99
   2  10 -10   51.48   15.95
  -2  10  10   67.96   16.07
  -2  10  10   49.75   15.54
   0 -10 -10   16.70    7.64
   0 -10 -10   24.60   11.08
   0 -10  10    6.02   10.67
   0  10  10    7.52    9.12
   2 -10  10    6.16    9.71
  -2 -10 -10   17.34    9.21
  -2  10 -10    0.37   11.04
   3 -11 -10   -6.90   10.56
   3 -11 -10   -8.61    7.57
  -3  11  10    8.13    9.54
   3  11 -10    8.39   11.71
   1 -11 -10   -4.39   10.49
   1 -11 -10   -6.55    7.35
   1  11 -10  -12.45   12.14
  -1  11  10  -15.56   11.00
  -1 -11 -10    0.93    7.35
   1 -11  10    6.11   10.64
   1  11  10   -6.68    7.46
  -1  11 -10   -0.44    8.03
  -3  11 -10  -25.04   15.52
   4 -12 -10   -6.24   10.44
  -4  12  10    3.88    7.94
   4  12 -10   -2.83   10.81
   2 -12 -10   -3.59    9.44
   2  12 -10   16.04   13.39
  -2  12  10   -6.94   13.46
   0 -12 -10   21.24   11.42
   0 -12 -10   -4.80    7.41
   0 -12  10    0.60   11.06
   0  12  10   -0.67    9.39
   2 -12  10    4.69    9.87
  -2 -12 -10  -15.15    9.72
  -2  12 -10   -4.04   10.40
   3 -13 -10    1.05    8.92
   3  13 -10    0.11   12.98
   1 -13 -10   -4.62   11.47
  -1  13  10   -8.89   12.03
   1  13 -10  -15.63   15.12
  -1 -13 -10    0.43    8.63
   1 -13  10    2.96   11.38
  -1 -13 -10   12.27   14.14
  -1  13 -10   -6.85    8.16
   2 -14 -10    1.53   10.95
  -2  14  10   -0.68   15.12
   2  14 -10    3.65   14.47
   0 -14 -10    2.64    8.05
   0 -14  10    8.56   13.41
   0 -14 -10    0.40   12.16
   0  14  10   -1.97    9.78
   2 -14  10    0.09   10.96
  -2 -14 -10   -9.74   10.75
  -2  14 -10   -6.50   10.50
   1 -15 -10  -20.79   12.69
  -1  15  10    0.01   13.17
   1 -15  10   10.92   12.99
  -1 -15 -10   29.70   10.51
  -1 -15 -10   10.99   13.47
  -4   0  11    3.87    5.96
   4   0 -11   -0.15    8.84
   2   0 -11  182.81   27.97
  -2   0  11  117.94   26.35
   0   0 -11   -2.03    9.30
   0   0  11    4.64    9.79
  -2   0 -11    5.78    9.69
   2   0  11   -3.31    8.50
   4   0  11    9.63   11.73
  -5  -1  11   -7.00    6.68
   5  -1 -11   14.70    9.44
  -5   1  11  -10.84    5.99
   3  -1 -11    6.47    9.52
  -3  -1  11    7.75    6.44
   3   1 -11    4.59    8.66
  -3   1  11    0.65    6.27
  -1  -1  11    5.28    9.11
   1  -1 -11    1.72   11.03
  -1  -1  11    8.36   10.84
   1   1 -11    6.03   10.65
  -1   1  11   11.65    9.33
  -1   1  11   17.27   10.86
   1  -1  11    7.10    9.38
  -1  -1 -11   -2.30    9.01
  -1   1 -11  -12.15    9.60
   1   1  11    1.74    9.22
  -3  -1 -11    6.51   10.44
   3  -1  11    4.36   10.22
  -3   1 -11    0.24   11.12
  -4  -2  11   -2.32    6.40
   4  -2 -11    4.85    9.73
  -4   2  11   -7.00    5.99
   4   2 -11    2.81    7.98
   2  -2 -11    3.75   10.18
  -2  -2  11   -5.62    7.88
  -2   2  11   -9.74    7.43
   2   2 -11   15.72    9.86
   0  -2 -11    1.15    9.22
   0  -2  11    4.44   10.07
   0   2  11   17.87   10.12
   2  -2  11   -4.30    7.94
  -2  -2 -11  -19.21    8.49
  -2   2 -11    1.13   10.68
   2   2  11   -1.84    8.82
   4  -2  11    1.03   11.49
   4   2  11    9.60   12.35
   5  -3 -11    0.44   10.16
  -5   3  11   11.26    6.58
   3  -3 -11    2.94    9.84
  -3  -3  11   -1.49    7.10
   3   3 -11   -5.85    8.25
  -3   3  11    1.03    6.89
   1  -3 -11   22.49   12.28
  -1  -3  11    9.48    9.81
  -1  -3  11   14.22   11.20
  -1   3  11   -1.69   10.12
  -1   3  11    9.66    9.63
   1   3 -11   23.96   10.84
   1  -3  11   18.63   10.24
  -1  -3 -11   18.42    8.95
  -1   3 -11   27.73   12.06
   1   3  11   36.95   11.09
   3  -3  11    4.49   10.53
  -3  -3 -11   17.90   10.11
  -3   3 -11    3.16   11.89
  -4  -4  11    3.97    7.83
   4  -4 -11  -18.73   10.06
   4   4 -11    7.02    7.88
  -4   4  11    0.71    6.16
  -2  -4  11   -7.09    8.04
   2  -4 -11  -14.48   10.76
   2   4 -11    3.64    9.52
  -2   4  11   -3.68    8.17
   0  -4  11   15.37   10.65
   0  -4 -11   -1.24    8.43
   0   4  11   -5.99    9.87
   2  -4  11    5.58    7.75
  -2  -4 -11   -0.53    8.04
   2   4  11    8.38    8.87
  -2   4 -11    5.16   11.61
   4  -4  11    1.53   12.05
   5  -5 -11   58.40   15.68
  -5   5  11   19.74    7.67
  -3  -5  11   -4.64    7.89
   3  -5 -11  -12.26   10.94
   3   5 -11   -5.52    8.13
  -3   5  11    5.37    7.33
  -1  -5  11  -11.47    9.39
  -1  -5  11   -3.96   11.97
   1   5 -11  -14.90   10.64
  -1   5  11    9.66   10.13
  -1  -5 -11   31.90   10.00
   1  -5  11   48.48   11.87
   1   5  11   73.57   16.75
  -1   5 -11   79.23   18.11
  -3  -5 -11   18.80   10.62
  -3   5 -11   25.36   14.87
  -4  -6  11   -6.69    8.65
   4  -6 -11  -23.56   10.77
   4   6 -11   12.04    8.22
  -4   6  11   -6.00    6.81
   2  -6 -11   21.37   12.30
  -2  -6  11    7.08    9.25
  -2   6  11    2.39    9.32
   2   6 -11   15.51   10.14
   0  -6 -11    7.85    7.82
   0  -6  11   -3.87   10.59
   0   6  11   12.02    9.85
  -2  -6 -11   -8.78    7.95
   2  -6  11    4.98    7.73
  -2   6 -11    7.13   12.02
  -3  -7  11    3.45    8.39
   3  -7 -11  -12.02   11.36
   3   7 -11  -31.46    8.69
  -3   7  11    9.00    8.64
   1  -7 -11    4.36   10.64
  -1  -7  11  -16.22    9.91
   1   7 -11  -10.02   11.18
  -1   7  11   -0.74   10.36
  -1  -7 -11   -3.60    7.13
   1  -7  11   -7.24    8.84
  -1   7 -11    4.67   10.01
   1   7  11    1.85    8.28
  -3  -7 -11    5.32   10.54
  -3   7 -11   -7.10   14.75
  -4  -8  11   -7.71    9.49
   4  -8 -11    7.85   11.72
   4   8 -11    2.40    8.66
  -4   8  11    0.85    7.71
   2  -8 -11    0.62   12.83
  -2  -8  11   -2.68    9.20
  -2   8  11    6.72   10.29
   2   8 -11    6.39   10.95
   0  -8 -11   -5.20    7.28
   0  -8 -11    0.33   10.77
   0  -8  11   -2.62   10.88
   0   8  11   16.66    9.87
   2  -8  11   -1.70    9.74
  -2  -8 -11    1.45    8.16
  -2   8 -11   -3.66   12.32
   3  -9 -11  -12.95   11.51
  -3  -9  11  -16.57    9.21
  -3   9  11    3.24    9.15
   3   9 -11   -3.92   10.47
   1  -9 -11   14.90   11.50
  -1  -9  11   -0.17   10.24
   1   9 -11  -17.80   12.12
  -1   9  11    0.29   11.01
   1  -9  11   -2.64    9.30
  -1  -9 -11    9.61    8.02
   1   9  11   16.95    8.77
  -1   9 -11   14.15    9.43
  -3  -9 -11   17.62   12.05
  -3   9 -11   31.48   16.66
   4 -10 -11    5.78   11.71
  -4 -10  11  -12.23   10.09
  -4  10  11    1.40    8.22
   4  10 -11   20.22   10.52
   2 -10 -11    1.72   10.30
  -2 -10  11    9.69    9.84
  -2  10  11   57.29   17.18
   2  10 -11   58.53   16.64
   0 -10 -11   10.30   10.50
   0 -10 -11   10.96    7.69
   0 -10  11    1.06   11.56
   0  10  11   16.40   10.11
  -2 -10 -11    4.42    9.62
   2 -10  11   -7.52   10.19
  -2  10 -11   -4.15   11.27
  -3 -11  11    1.65    9.76
   3  11 -11  -14.16   11.89
  -3  11  11   -0.60    9.75
   1 -11 -11    3.10   11.69
  -1  11  11   -1.65   11.87
   1 -11  11   -3.61   11.54
  -1 -11 -11    5.68    8.39
  -1  11 -11   -6.46    9.10
   1  11  11    7.72    8.31
   2 -12 -11   -3.47   11.00
  -2  12  11   22.43   14.72
   2  12 -11   -1.63   13.95
   0 -12  11  -18.85   11.99
   0 -12 -11    5.39   10.90
   0 -12 -11    2.28    7.94
   0  12  11   -6.59    9.73
   2 -12  11   -5.69   11.12
  -2 -12 -11    6.31   10.48
  -2  12 -11   -4.38   11.12
   1 -13 -11  -10.94   12.16
  -1  13  11  -19.00   12.59
  -1 -13 -11   23.19   13.62
   1 -13  11   -2.77   12.52
  -1 -13 -11    1.90    8.82
   1  13  11   -3.02    8.72
   0 -14 -11   -1.52    8.64
   0 -14  11   -1.01   14.88
   0 -14 -11    7.66   12.26
   0  14  11    5.38   10.54
   4   0 -12   25.53    9.82
  -4   0  12    3.60    6.72
  -2   0  12   29.55   10.13
   2   0 -12   46.16   12.90
   0   0  12   15.71   11.23
   2   0  12   16.16   10.29
  -2   0 -12   42.98   11.37
   3  -1 -12    9.11    9.81
  -3  -1  12   -3.20    6.30
  -3   1  12   -0.01    6.57
   3   1 -12   10.53    9.67
  -1  -1  12    4.67    9.75
  -1  -1  12    1.05   11.25
   1   1 -12   22.24   13.57
  -1   1  12    6.09   12.19
  -1   1  12   14.80   10.72
  -1  -1 -12    9.31    9.15
   1  -1  12   -3.24   10.04
  -1   1 -12   -9.92    9.75
   1   1  12   -0.60    9.68
   3  -1  12    3.92   11.54
  -3  -1 -12   -4.54   10.79
  -3   1 -12   14.56   11.77
   4  -2 -12   18.18   10.16
  -4  -2  12   -4.24    6.80
   4   2 -12   16.62    9.02
  -4   2  12    8.97    6.83
   2  -2 -12   21.38   11.35
  -2  -2  12    1.15    8.23
   2   2 -12   -0.90   10.22
  -2   2  12   -5.80    8.00
   0  -2  12   -4.13   10.84
   0  -2 -12   13.12    9.43
   0   2  12  -16.85    9.84
   2  -2  12    9.78    9.06
  -2  -2 -12    2.65    9.52
   2   2  12    2.64    9.36
  -2   2 -12    7.90   11.14
   3  -3 -12   38.92   11.55
  -3  -3  12   10.19    8.33
   3   3 -12   24.83   10.09
  -3   3  12   13.24    7.83
  -1  -3  12   46.66   14.27
  -1  -3  12   28.41   12.23
   1   3 -12   49.51   14.15
  -1   3  12   21.26   12.93
   1  -3  12   34.14   11.21
  -1  -3 -12   12.45    9.02
  -1   3 -12    5.40   10.60
   1   3  12   18.16   10.01
  -3  -3 -12    0.47   10.60
  -3   3 -12   18.31   13.05
  -4  -4  12    7.50    8.38
   4  -4 -12    1.80   11.04
  -4   4  12   -0.60    6.75
   4   4 -12   -3.86    8.60
  -2  -4  12   -1.28    8.50
   2  -4 -12   -5.83   11.93
  -2   4  12   -4.92    8.96
   2   4 -12   10.78   10.38
   0  -4 -12   -1.55    8.71
   0  -4  12    8.87   11.38
   0   4  12   -1.81   10.64
   2  -4  12    1.07    8.18
  -2  -4 -12   -2.96    9.02
  -2   4 -12   15.16   12.15
   2   4  12   -6.31    8.93
   3  -5 -12   13.36   12.04
  -3  -5  12    3.30    8.29
  -3   5  12    2.29    7.87
   3   5 -12    5.09    9.27
  -1  -5  12    3.27   10.26
   1   5 -12   34.08   13.08
  -1   5  12   -1.03   11.02
  -1  -5 -12    4.17    7.61
   1  -5  12   -2.82    9.80
  -1   5 -12   21.83   11.30
   1   5  12   14.48    9.95
  -3  -5 -12    9.01   10.94
  -3   5 -12  -15.70   13.73
   4  -6 -12    2.87   12.13
  -4  -6  12   -9.83    9.19
   4   6 -12   11.56    9.17
  -4   6  12   14.61    7.78
  -2  -6  12    6.37    9.27
   2  -6 -12    5.09   13.61
  -2   6  12  -14.58    9.62
   2   6 -12    1.27   10.91
   0  -6 -12   -1.43    8.07
   0  -6  12  -11.85   11.07
   0   6  12   -4.27   10.42
  -2  -6 -12   -5.13    8.82
   2  -6  12    2.64    8.44
  -2   6 -12   14.61   12.76
   3  -7 -12   -0.69   12.08
  -3  -7  12    7.49    8.87
  -3   7  12   15.68    8.72
   3   7 -12   -6.10    9.68
  -1  -7  12   -3.12   11.04
  -1   7  12   -9.07   11.20
   1  -7  12  -13.96    9.76
  -1  -7 -12   -2.32    7.95
   1   7  12   -3.16    8.76
  -2  -8  12   -6.11    9.60
   2   8 -12   -7.70   11.51
   0  -8 -12   -5.62    7.75
   0  -8  12  -25.28   11.78
   0  -8 -12   19.58   12.53
   0   8  12   -0.99   10.24
  -2  -8 -12   20.19    9.69
   2  -8  12  -14.80   10.46
  -2   8 -12   -8.23   12.65
  -3  -9  12    1.58    9.91
   3  -9 -12    2.46   12.69
   3   9 -12    7.22   11.12
  -3   9  12   12.06    9.86
  -1   9  12    5.22   11.69
   1  -9  12    2.94   10.74
  -1  -9 -12   15.27    8.54
   1   9  12    1.23    8.70
  -1   9 -12    7.25   10.03
  -2 -10  12   22.29   11.40
   2  10 -12   31.08   14.66
   0 -10 -12   -3.63    7.92
   0 -10 -12    9.94   10.89
   0 -10  12  -19.58   12.29
   0  10  12   25.66   11.47
   1 -11 -12   -9.31   13.37
  -1  11  12   14.80   13.22
   1 -11  12  -12.15   12.44
  -1 -11 -12   -6.73    8.73
   1  11  12   -4.49    8.59
   0 -12 -12   -5.47    8.32
   0 -12 -12   -1.22   11.01
   0 -12  12  -25.13   12.96
   0  12  12    0.73   10.76
   2   0 -13   -9.40   11.04
  -2   0  13    7.51    8.13
   0   0  13    9.09   11.85
   2   0  13    1.47    9.63
  -2   0 -13   27.32   10.69
   3  -1 -13   16.47   10.70
  -3  -1  13   -3.48    6.86
  -3   1  13   -3.08    6.83
   3   1 -13   14.68   10.14
  -1  -1  13   -8.18   12.37
  -1   1  13   -7.08   11.95
  -1  -1 -13  -15.69    9.12
   1  -1  13  -10.98   10.41
  -1   1 -13    0.62   10.11
   1   1  13    0.44   10.37
   2  -2 -13   21.03   12.34
  -2  -2  13    4.87    8.43
  -2   2  13   -3.15    8.97
   2   2 -13   17.09   10.97
   0  -2  13   -2.44   11.78
   0   2  13  -19.69   10.65
  -2  -2 -13    2.91    9.65
   2  -2  13  -11.88    9.10
   2   2  13    2.58    9.60
  -2   2 -13   10.32   11.20
   3  -3 -13   34.90   12.29
  -3  -3  13   14.23    8.72
  -3   3  13   19.61    8.96
   3   3 -13   37.87   11.45
  -1   3  13   23.55   13.43
   1  -3  13   16.31   11.38
  -1  -3 -13   15.99    9.49
   1   3  13    4.47    9.91
  -1   3 -13    3.07   11.21
  -2  -4  13   -8.87    8.64
   2   4 -13   20.93   11.56
   0  -4 -13   -7.31    8.86
   0  -4  13   -5.97   12.21
   0   4  13   14.26   11.02
   2  -4  13   -6.36    9.02
  -2  -4 -13    1.43    9.46
  -2   4 -13   -3.96   12.15
   2   4  13  -15.70    8.99
  -3  -5  13   -8.55    8.20
   3  -5 -13   21.22   12.43
  -3   5  13    1.51    8.33
   3   5 -13    8.34   10.09
  -1   5  13   16.72   12.80
   1  -5  13   -8.33   10.82
  -1  -5 -13    6.41    8.43
  -1   5 -13   -1.27   11.69
   1   5  13    4.10    9.69
  -2  -6  13   -3.76    9.26
   2   6 -13  -14.38   11.40
   0  -6  13   -5.30   12.41
   0   6  13   18.85   11.81
  -1   7  13  -18.68   12.07
   1  -7  13  -17.68   10.59
  -1  -7 -13   -3.15    8.39
   1   7  13    6.09    9.56
  -2  -8  13    0.33    9.97
   2   8 -13   19.79   12.87
   0  -8  13  -23.37   12.62
   0  -8 -13   -4.37    8.61
   0   8  13   14.62   11.56
  -1   9  13  -11.68   12.70
   0   0  14   -3.19   12.22
  -1   1  14    0.47   12.92
  -2  -2  14   -4.66    8.73
   0  -2  14   12.75   13.05
   0   2  14    5.47   11.85
  -1   3  14   23.24   14.09
   0  -4  14  -17.27   13.04
   0   4  14  -10.85   11.09
   0   0   0    0.00    0.00
;
_shelx_hkl_checksum              20902
_olex2_submission_special_instructions 'No special instructions were received'
#END Tags that were not found in dictionaries
loop_
_space_group_symop_operation_xyz
'x, y, z'
'x, -y, z'
'x+1/2, y+1/2, z'
'x+1/2, -y+1/2, z'
loop_
_atom_site_label
_atom_site_type_symbol
_atom_site_fract_x
_atom_site_fract_y
_atom_site_fract_z
_atom_site_U_iso_or_equiv
_atom_site_adp_type
_atom_site_occupancy
_atom_site_site_symmetry_order
_atom_site_calc_flag
_atom_site_refinement_flags_posn
_atom_site_refinement_flags_adp
_atom_site_refinement_flags_occupancy
Bi1 Bi -0.2698(17) -0.1666(8) -0.1620(10) 0.049(3) Uani 1 1 d . . .
Se2 Se -0.028(3) -0.0986(10) -0.3865(15) 0.010(4) Uiso 1 1 d . . .
Bi3 Bi 0.207(3) 0.0000 -0.1688(16) 0.063(7) Uani 1 2 d S T P
Se4 Se 0.465(4) 0.0000 -0.392(2) 0.014(6) Uiso 1 2 d S T P
Se5 Se -0.525(3) -0.1986(11) -0.3937(16) 0.010(4) Uiso 1 1 d . . .
Bi6 Bi -0.162(2) -0.3323(9) 0.1335(12) 0.066(4) Uani 1 1 d . . .
Bi7 Bi -0.201(4) 0.0000 0.143(2) 0.114(13) Uani 1 2 d S T P
Se8 Se -0.240(5) 0.0000 -0.112(3) 0.019(7) Uiso 1 2 d S T P
Se9 Se -0.194(4) -0.1662(15) 0.083(2) 0.035(6) Uani 1 1 d . . .
Se10 Se 0.106(3) -0.2008(12) -0.6381(17) 0.016(4) Uiso 1 1 d . . .
Cr11 Cr 0.293(5) -0.0998(15) -0.510(3) 0.010(5) Uiso 1 1 d . . .
Se12 Se 0.093(4) 0.0000 -0.638(2) 0.013(6) Uiso 1 2 d S T P
Se13 Se -0.403(3) -0.1013(11) -0.6383(15) 0.011(4) Uiso 1 1 d . . .
Cr14 Cr -0.199(5) -0.1993(18) -0.515(3) 0.013(6) Uiso 1 1 d . . .
Se15 Se -0.236(4) -0.3322(15) -0.112(2) 0.032(6) Uani 1 1 d . . .
Se17 Se 0.296(6) 0.0000 0.087(3) 0.035(10) Uani 1 2 d S T P
Cr1 Cr -0.207(7) 0.0000 -0.503(3) 0.008(8) Uiso 1 2 d S T P
loop_
_atom_site_aniso_label
_atom_site_aniso_U_11
_atom_site_aniso_U_22
_atom_site_aniso_U_33
_atom_site_aniso_U_23
_atom_site_aniso_U_13
_atom_site_aniso_U_12
Bi1 0.017(5) 0.070(8) 0.061(7) 0.009(6) 0.013(5) 0.003(5)
Bi3 0.055(14) 0.064(13) 0.078(14) 0.000 0.051(12) 0.000
Bi6 0.061(9) 0.071(10) 0.070(9) 0.029(8) 0.022(7) 0.031(7)
Bi7 0.12(2) 0.066(16) 0.13(2) 0.000 -0.10(2) 0.000
Se9 0.045(16) 0.019(13) 0.042(15) -0.003(13) 0.013(11) -0.008(13)
Se15 0.031(14) 0.019(11) 0.045(16) 0.007(12) 0.001(12) 0.003(12)
Se17 0.03(2) 0.03(2) 0.05(2) 0.000 -0.001(16) 0.000
loop_
_atom_type_symbol
_atom_type_description
_atom_type_scat_dispersion_real
_atom_type_scat_dispersion_imag
_atom_type_scat_source
Bi Bi -4.1077 10.2566 'International Tables Vol C Tables 4.2.6.8 and 6.1.1.4'
Cr Cr 0.3209 0.6236 'International Tables Vol C Tables 4.2.6.8 and 6.1.1.4'
Se Se -0.0929 2.2259 'International Tables Vol C Tables 4.2.6.8 and 6.1.1.4'
loop_
_geom_angle_atom_site_label_1
_geom_angle_atom_site_label_2
_geom_angle_atom_site_label_3
_geom_angle
_geom_angle_site_symmetry_1
_geom_angle_site_symmetry_3
Se8 Bi1 Se5 111.7(8) . .
Se9 Bi1 Se5 155.4(8) . .
Se9 Bi1 Se8 78.8(8) . .
Se9 Bi1 Se15 78.9(8) . .
Se9 Bi1 Se15 83.5(7) . 4_445
Se15 Bi1 Se5 74.4(7) 4_445 .
Se15 Bi1 Se5 90.4(7) . .
Se15 Bi1 Se8 90.8(8) 4_445 .
Se15 Bi1 Se8 157.4(9) . .
Se15 Bi1 Se15 90.5(8) 4_445 .
Cr14 Se2 Cr11 88.5(11) . .
Cr1 Se2 Cr11 92.1(12) . .
Cr1 Se2 Cr14 92.5(10) . .
Se8 Bi3 Se4 138.5(12) . .
Se8 Bi3 Se15 92.7(5) . 4_545
Se8 Bi3 Se15 92.7(5) . 3
Se8 Bi3 Se17 82.7(10) . .
Se15 Bi3 Se4 96.7(5) 4_545 .
Se15 Bi3 Se4 96.7(5) 3 .
Se15 Bi3 Se15 153.0(13) 3 4_545
Se17 Bi3 Se4 138.8(12) . .
Se17 Bi3 Se15 77.2(6) . 4_545
Se17 Bi3 Se15 77.2(6) . 3
Cr11 Se4 Bi3 103.3(11) 2 .
Cr11 Se4 Bi3 103.3(11) . .
Cr11 Se4 Cr11 94.1(15) . 2
Cr11 Se4 Cr1 92.7(12) 2 1_655
Cr11 Se4 Cr1 92.7(12) . 1_655
Cr1 Se4 Bi3 156.3(15) 1_655 .
Cr11 Se5 Bi1 122.0(11) 1_455 .
Cr11 Se5 Cr14 93.6(11) 1_455 4_445
Cr11 Se5 Cr14 93.0(11) 1_455 .
Cr14 Se5 Bi1 143.1(11) 4_445 .
Cr14 Se5 Bi1 96.1(9) . .
Cr14 Se5 Cr14 90.8(11) 4_445 .
Se9 Bi6 Se9 91.1(8) 4_545 .
Se9 Bi6 Se10 132.8(9) 4_545 4_446
Se9 Bi6 Se10 87.1(7) . 4_446
Se9 Bi6 Se13 74.5(7) 4_545 4_546
Se9 Bi6 Se13 122.8(9) . 4_546
Se9 Bi6 Se17 91.5(9) 4_545 3_445
Se9 Bi6 Se17 157.8(11) . 3_445
Se10 Bi6 Se13 67.4(6) 4_446 4_546
Se15 Bi6 Se9 83.2(8) . 4_545
Se15 Bi6 Se9 78.8(8) . .
Se15 Bi6 Se10 141.9(8) . 4_446
Se15 Bi6 Se13 148.5(8) . 4_546
Se15 Bi6 Se17 79.7(10) . 3_445
Se17 Bi6 Se10 106.9(10) 3_445 4_446
Se17 Bi6 Se13 79.0(9) 3_445 4_546
Se8 Bi7 Se9 76.9(7) . .
Se8 Bi7 Se9 76.9(7) . 2
Se8 Bi7 Se12 147.0(13) . 1_556
Se8 Bi7 Se17 78.0(12) . .
Se8 Bi7 Se17 78.5(11) . 1_455
Se9 Bi7 Se9 153.5(13) . 2
Se9 Bi7 Se17 89.3(7) 2 1_455
Se9 Bi7 Se17 85.4(7) 2 .
Se9 Bi7 Se17 89.3(7) . 1_455
Se9 Bi7 Se17 85.4(7) . .
Se12 Bi7 Se9 99.9(7) 1_556 .
Se12 Bi7 Se9 99.9(7) 1_556 2
Se12 Bi7 Se17 134.5(14) 1_556 1_455
Se12 Bi7 Se17 69.0(10) 1_556 .
Se17 Bi7 Se17 156.5(17) 1_455 .
Bi1 Se8 Bi1 157.6(12) 2 .
Bi3 Se8 Bi1 90.0(6) . .
Bi3 Se8 Bi1 90.0(6) . 2
Bi3 Se8 Bi7 103.4(12) . .
Bi7 Se8 Bi1 100.9(6) . .
Bi7 Se8 Bi1 100.9(6) . 2
Bi1 Se9 Bi6 96.5(10) . 4_445
Bi1 Se9 Bi6 101.1(9) . .
Bi1 Se9 Bi7 103.0(10) . .
Bi6 Se9 Bi6 90.1(8) 4_445 .
Bi6 Se9 Bi7 86.0(9) 4_445 .
Bi6 Se9 Bi7 155.9(11) . .
Cr11 Se10 Bi6 97.6(10) . 4_544
Cr14 Se10 Bi6 155.0(11) . 4_544
Cr14 Se10 Bi6 111.7(11) 4_545 4_544
Cr14 Se10 Cr11 90.1(11) 4_545 .
Cr14 Se10 Cr11 89.6(12) . .
Cr14 Se10 Cr14 92.2(12) . 4_545
Se2 Cr11 Se12 87.4(12) . .
Se4 Cr11 Se2 90.3(12) . .
Se4 Cr11 Se5 93.5(12) . 1_655
Se4 Cr11 Se10 178.0(14) . .
Se4 Cr11 Se12 89.0(11) . .
Se4 Cr11 Se13 91.4(13) . 1_655
Se5 Cr11 Se2 92.6(11) 1_655 .
Se5 Cr11 Se10 88.5(11) 1_655 .
Se5 Cr11 Se12 177.6(16) 1_655 .
Se5 Cr11 Se13 88.9(11) 1_655 1_655
Se10 Cr11 Se2 89.4(11) . .
Se10 Cr11 Se12 89.1(11) . .
Se13 Cr11 Se2 177.6(15) 1_655 .
Se13 Cr11 Se10 88.8(11) 1_655 .
Se13 Cr11 Se12 91.1(12) 1_655 .
Cr11 Se12 Bi7 135.8(8) . 1_554
Cr11 Se12 Bi7 135.8(8) 2 1_554
Cr11 Se12 Cr11 88.0(16) . 2
Cr1 Se12 Bi7 95.3(14) . 1_554
Cr1 Se12 Cr11 89.4(11) . 2
Cr1 Se12 Cr11 89.4(11) . .
Cr11 Se13 Bi6 98.2(10) 1_455 4_444
Cr11 Se13 Cr14 92.4(11) 1_455 .
Cr11 Se13 Cr1 88.6(12) 1_455 .
Cr14 Se13 Bi6 113.5(10) . 4_444
Cr14 Se13 Cr1 87.6(11) . .
Cr1 Se13 Bi6 157.3(10) . 4_444
Se2 Cr14 Se5 89.2(11) . .
Se2 Cr14 Se10 176.1(16) . 4_445
Se2 Cr14 Se13 90.1(12) . .
Se5 Cr14 Se2 93.0(11) 4_545 .
Se5 Cr14 Se5 91.2(12) 4_545 .
Se5 Cr14 Se10 87.9(12) 4_545 4_445
Se5 Cr14 Se13 175.5(16) 4_545 .
Se10 Cr14 Se2 92.5(12) . .
Se10 Cr14 Se5 87.0(12) 4_445 .
Se10 Cr14 Se5 178.0(15) . .
Se10 Cr14 Se5 89.9(12) . 4_545
Se10 Cr14 Se10 91.3(12) . 4_445
Se10 Cr14 Se13 93.2(12) . .
Se10 Cr14 Se13 88.8(11) 4_445 .
Se13 Cr14 Se5 85.6(11) . .
Bi1 Se15 Bi1 91.3(8) 4_545 .
Bi1 Se15 Bi3 92.7(8) 4_545 3_445
Bi1 Se15 Bi3 155.1(11) . 3_445
Bi6 Se15 Bi1 101.2(9) . .
Bi6 Se15 Bi1 96.8(9) . 4_545
Bi6 Se15 Bi3 102.6(9) . 3_445
Bi3 Se17 Bi6 100.5(8) . 4_545
Bi3 Se17 Bi6 100.5(8) . 3
Bi3 Se17 Bi7 107.6(13) . 1_655
Bi3 Se17 Bi7 95.9(12) . .
Bi6 Se17 Bi6 158.2(15) 3 4_545
Bi6 Se17 Bi7 91.9(8) 4_545 .
Bi6 Se17 Bi7 84.0(8) 3 1_655
Bi6 Se17 Bi7 84.0(8) 4_545 1_655
Bi6 Se17 Bi7 91.9(8) 3 .
Bi7 Se17 Bi7 156.5(17) 1_655 .
Se2 Cr1 Se2 93.2(15) 2 .
Se2 Cr1 Se4 93.9(12) 2 1_455
Se2 Cr1 Se4 93.9(12) . 1_455
Se2 Cr1 Se12 91.0(13) 2 .
Se2 Cr1 Se12 91.0(13) . .
Se2 Cr1 Se13 89.7(5) . .
Se2 Cr1 Se13 176.9(14) 2 .
Se2 Cr1 Se13 89.7(5) 2 2
Se2 Cr1 Se13 176.9(14) . 2
Se4 Cr1 Se12 172.9(19) 1_455 .
Se4 Cr1 Se13 87.0(12) 1_455 .
Se4 Cr1 Se13 87.0(12) 1_455 2
Se12 Cr1 Se13 87.9(11) . .
Se12 Cr1 Se13 87.9(11) . 2
Se13 Cr1 Se13 87.3(14) . 2
loop_
_geom_bond_atom_site_label_1
_geom_bond_atom_site_label_2
_geom_bond_distance
_geom_bond_site_symmetry_2
Bi1 Se5 3.02(2) .
Bi1 Se8 3.014(16) .
Bi1 Se9 2.81(3) .
Bi1 Se15 2.98(3) 4_445
Bi1 Se15 3.00(3) .
Se2 Cr11 2.54(3) .
Se2 Cr14 2.49(4) .
Se2 Cr1 2.41(3) .
Bi3 Se4 3.13(3) .
Bi3 Se8 2.89(4) .
Bi3 Se15 3.06(3) 3
Bi3 Se15 3.06(3) 4_545
Bi3 Se17 2.94(4) .
Se4 Cr11 2.42(3) .
Se4 Cr11 2.42(3) 2
Se4 Cr1 2.49(5) 1_655
Se5 Cr11 2.42(3) 1_455
Se5 Cr14 2.47(4) 4_445
Se5 Cr14 2.54(4) .
Bi6 Se9 3.01(3) .
Bi6 Se9 3.00(3) 4_545
Bi6 Se10 3.15(3) 4_446
Bi6 Se13 3.17(2) 4_546
Bi6 Se15 2.81(3) .
Bi6 Se17 3.031(18) 3_445
Bi7 Se8 2.92(4) .
Bi7 Se9 3.03(3) 2
Bi7 Se9 3.03(3) .
Bi7 Se12 2.97(3) 1_556
Bi7 Se17 3.11(5) 1_455
Bi7 Se17 3.19(5) .
Se8 Bi1 3.014(16) 2
Se9 Bi6 3.00(3) 4_445
Se10 Bi6 3.15(3) 4_544
Se10 Cr11 2.53(4) .
Se10 Cr14 2.51(4) 4_545
Se10 Cr14 2.45(4) .
Cr11 Se5 2.42(3) 1_655
Cr11 Se12 2.55(3) .
Cr11 Se13 2.48(4) 1_655
Se12 Bi7 2.97(3) 1_554
Se12 Cr11 2.55(3) 2
Se12 Cr1 2.52(5) .
Se13 Bi6 3.17(2) 4_444
Se13 Cr11 2.48(4) 1_455
Se13 Cr14 2.51(3) .
Se13 Cr1 2.60(3) .
Cr14 Se5 2.47(4) 4_545
Cr14 Se10 2.51(4) 4_445
Se15 Bi1 2.98(3) 4_545
Se15 Bi3 3.06(3) 3_445
Se17 Bi6 3.031(18) 4_545
Se17 Bi6 3.031(18) 3
Se17 Bi7 3.11(5) 1_655
Cr1 Se2 2.41(3) 2
Cr1 Se4 2.49(5) 1_455
Cr1 Se13 2.60(3) 2
