#------------------------------------------------------------------------------
#$Date: 2015-06-05 06:11:09 +0300 (Fri, 05 Jun 2015) $
#$Revision: 138160 $
#$URL: svn://www.crystallography.net/cod/cif/4/34/29/4342998.cif $
#------------------------------------------------------------------------------
#
# This file is available in the Crystallography Open Database (COD),
# http://www.crystallography.net/
#
# All data on this site have been placed in the public domain by the
# contributors.
#
data_4342998
loop_
_publ_author_name
'Silver, Mark A.'
'Dorfner, Walter L.'
'Cary, Samantha K.'
'Cross, Justin N.'
'Lin, Jian'
'Schelter, Eric J.'
'Albrecht-Schmitt, Thomas E'
_publ_section_title
;
 Why is uranyl formohydroxamate red?
;
_journal_issue                   11
_journal_name_full               'Inorganic chemistry'
_journal_page_first              5280
_journal_page_last               5284
_journal_paper_doi               10.1021/acs.inorgchem.5b00262
_journal_volume                  54
_journal_year                    2015
_chemical_formula_moiety         UO2(HCONHO)2
_chemical_formula_sum            'C2 H4 N2 O6 U'
_chemical_formula_weight         390.10
_chemical_name_common            Uranyl(VI)Formohydroxamate
_chemical_name_systematic
;
 ?
;
_space_group_crystal_system      orthorhombic
_space_group_IT_number           56
_space_group_name_Hall           '-P 2ab 2ac'
_space_group_name_H-M_alt        'P c c n'
_symmetry_space_group_name_Hall  '-P 2ab 2ac'
_symmetry_space_group_name_H-M   'P c c n'
_atom_sites_solution_hydrogens   difmap
_audit_creation_method           SHELXL-2014
_cell_angle_alpha                90
_cell_angle_beta                 90
_cell_angle_gamma                90
_cell_formula_units_Z            4
_cell_length_a                   11.1729(11)
_cell_length_b                   6.3712(7)
_cell_length_c                   8.6929(9)
_cell_measurement_reflns_used    7128
_cell_measurement_temperature    100(2)
_cell_measurement_theta_max      26.358
_cell_measurement_theta_min      3.647
_cell_volume                     618.80(11)
_computing_cell_refinement       'smart saint'
_computing_data_collection       smart
_computing_data_reduction        SAINT
_computing_molecular_graphics    'SHELXL-2013 (Sheldrick, 2013)'
_computing_publication_material  'SHELXLCIF-97 (Sheldrick, 1997)'
_computing_structure_refinement  'SHELXL-2013 (Sheldrick, 2013)'
_computing_structure_solution    'SHELXL-2013 (Sheldrick, 2013)'
_diffrn_ambient_temperature      100(2)
_diffrn_detector_area_resol_mean 0
_diffrn_measured_fraction_theta_full 0.998
_diffrn_measured_fraction_theta_max 0.998
_diffrn_measurement_device_type  'BRUKER apex II'
_diffrn_measurement_method       '0.5 wide w/ exposures'
_diffrn_radiation_type           MoK\a
_diffrn_radiation_wavelength     0.71073
_diffrn_reflns_av_R_equivalents  0.0317
_diffrn_reflns_av_unetI/netI     0.0144
_diffrn_reflns_laue_measured_fraction_full 0.998
_diffrn_reflns_laue_measured_fraction_max 0.998
_diffrn_reflns_limit_h_max       13
_diffrn_reflns_limit_h_min       -13
_diffrn_reflns_limit_k_max       7
_diffrn_reflns_limit_k_min       -7
_diffrn_reflns_limit_l_max       10
_diffrn_reflns_limit_l_min       -10
_diffrn_reflns_number            7128
_diffrn_reflns_point_group_measured_fraction_full 0.998
_diffrn_reflns_point_group_measured_fraction_max 0.998
_diffrn_reflns_theta_full        25.242
_diffrn_reflns_theta_max         26.358
_diffrn_reflns_theta_min         3.647
_diffrn_source                   'Imus microfocused'
_exptl_absorpt_coefficient_mu    26.218
_exptl_absorpt_correction_type   multi-scan
_exptl_absorpt_process_details   SHELTXPREP
_exptl_crystal_colour            red
_exptl_crystal_density_diffrn    4.187
_exptl_crystal_density_meas      ?
_exptl_crystal_density_method    'not measured'
_exptl_crystal_description       plate
_exptl_crystal_F_000             680
_exptl_crystal_size_max          0.065
_exptl_crystal_size_mid          0.050
_exptl_crystal_size_min          0.035
_exptl_transmission_factor_max   0.7456
_exptl_transmission_factor_min   0.5703
_refine_diff_density_max         2.089
_refine_diff_density_min         -0.748
_refine_diff_density_rms         0.277
_refine_ls_extinction_method     none
_refine_ls_goodness_of_fit_ref   1.357
_refine_ls_hydrogen_treatment    refxyz
_refine_ls_matrix_type           full
_refine_ls_number_parameters     57
_refine_ls_number_reflns         631
_refine_ls_number_restraints     16
_refine_ls_restrained_S_all      1.344
_refine_ls_R_factor_all          0.0353
_refine_ls_R_factor_gt           0.0251
_refine_ls_shift/su_max          0.001
_refine_ls_shift/su_mean         0.000
_refine_ls_structure_factor_coef Fsqd
_refine_ls_weighting_details
'w=1/[\s^2^(Fo^2^)+(0.0199P)^2^+8.8565P] where P=(Fo^2^+2Fc^2^)/3'
_refine_ls_weighting_scheme      calc
_refine_ls_wR_factor_gt          0.0561
_refine_ls_wR_factor_ref         0.0591
_reflns_d_resolution_high        0.8004
_reflns_Friedel_coverage         0.000
_reflns_number_gt                489
_reflns_number_total             631
_reflns_threshold_expression     'I > 2\s(I)'
_cod_data_source_file            ic5b00262_si_002.cif
_cod_data_source_block           UO2(FHA)2
_cod_depositor_comments
;
The following automatic conversions were performed:

'_exptl_crystal_density_meas' value 'N/A' was changed to '?' - the
value is perceived as not measured.

Automatic conversion script
Id: cif_fix_values 3271 2015-04-21 07:52:19Z andrius 

 Adding full bibliography for 4342998.cif.
;
_cod_database_code               4342998
_shelx_space_group_comment
;
The symmetry employed for this shelxl refinement is uniquely defined
by the following loop, which should always be used as a source of
symmetry information in preference to the above space-group names.
They are only intended as comments.
;
_shelxl_version_number           2014-3
_shelx_res_file
;
REM Solution 2  R1  0.155  Rweak  0.001,  Alpha = 0.0262  in Pccn
REM Formula:  C2 O8 U
TITL UO2(FHA)2 in Pccn
CELL  0.71073  11.1729   6.3712   8.6929   90.000   90.000   90.000
ZERR    4.00   0.00110   0.00070   0.00090   0.0000   0.0000   0.0000
LATT  1
SYMM 1/2-X, 1/2-Y, Z
SYMM -X, 1/2+Y, 1/2-Z
SYMM 1/2+X, -Y, 1/2-Z
SFAC C H N O U
UNIT 8 16 8 24 4
TEMP 23.000
SHEL 999 0.800
L.S. 20
BOND
ACTA
ISOR 0.004 O2
LIST 6
FMAP 2
PLAN 20
DELU
WGHT    0.019900    8.856500
FVAR       0.26495
U1    5    0.750000    0.750000    0.959820    10.50000    0.00875    0.00629 =
         0.00570    0.00000    0.00000   -0.00075
O1    4    0.645127    1.087181    0.973030    11.00000    0.00981    0.00996 =
         0.00811   -0.00230   -0.00153    0.00120
O2    4    0.781157    0.927615    1.213551    11.00000    0.01059    0.00680 =
         0.00987   -0.00478   -0.00108   -0.00548
O3    4    0.601846    0.648934    0.948055    11.00000    0.00524    0.00986 =
         0.00909    0.00168   -0.00158   -0.00346
N1    3    0.858359    1.097742    1.215059    11.00000    0.02116    0.00898 =
         0.01077    0.00128    0.00171   -0.00708
C1    1    0.609187    1.169771    0.847460    11.00000    0.01429    0.00813 =
         0.01153   -0.00532   -0.00352   -0.00006
H1    2    0.558711    1.292349    0.854960    11.00000   -1.20000
H2    2    0.874398    1.190991    1.100842    11.00000   -1.20000

HKLF 4

REM  UO2(FHA)2 in Pccn
REM R1 =  0.0251 for     489 Fo > 4sig(Fo)  and  0.0353 for all     631 data
REM     57 parameters refined using     16 restraints

END

WGHT      0.0199      8.8567

REM Highest difference peak  2.089,  deepest hole -0.748,  1-sigma level  0.277
Q1    1   0.7500  0.7500  0.8473  10.50000  0.05    2.09
Q2    1   0.6636  0.7617  0.9646  11.00000  0.05    2.07
Q3    1   0.7147  0.7591  1.0430  11.00000  0.05    1.57
Q4    1   0.7801  0.7475  1.1703  11.00000  0.05    1.45
Q5    1   0.6106  0.7244  0.8349  11.00000  0.05    0.63
Q6    1   0.8913  0.7473  1.1798  11.00000  0.05    0.62
Q7    1   0.8226  1.2771  1.2425  11.00000  0.05    0.55
Q8    1   0.5796  0.7582  0.9821  11.00000  0.05    0.55
Q9    1   0.7936  1.0713  0.9867  11.00000  0.05    0.49
Q10   1   0.7383  0.8832  0.9241  11.00000  0.05    0.44
Q11   1   0.8763  1.2976  1.2137  11.00000  0.05    0.44
Q12   1   0.7757  0.8950  1.0865  11.00000  0.05    0.44
Q13   1   0.6130  1.2458  0.9082  11.00000  0.05    0.43
Q14   1   0.5890  0.4489  0.9443  11.00000  0.05    0.43
Q15   1   0.9313  0.8871  1.2545  11.00000  0.05    0.43
Q16   1   0.7960  1.2766  1.0961  11.00000  0.05    0.42
Q17   1   0.6634  1.0714  1.1570  11.00000  0.05    0.41
Q18   1   0.5092  0.7348  0.9839  11.00000  0.05    0.40
Q19   1   0.6677  1.3660  0.8205  11.00000  0.05    0.39
Q20   1   0.7431  1.1856  0.8148  11.00000  0.05    0.37
;
_shelx_res_checksum              77974
_shelx_hkl_file
;
   0  -1   0   -7.60    2.40
   0  -1   0   -8.80    1.90
   0   1   0   -6.30    2.00
   0   1   0   -7.40    2.10
   0  -1   0   -4.20    2.60
   0   2   0 5704.53  111.49
   0  -2   0 5737.73  114.99
   0   2   0 5471.55  109.39
   0   3   0   -1.40    5.80
   0   3   0    2.50    6.10
   0  -3   0   -0.80    5.60
   0   4   0 1757.82   50.19
   0   4   0 1733.73   49.80
   0  -4   0 1865.41   52.09
   0  -5   0    7.60   10.90
   0   5   0   -8.00   10.80
   0   5   0   -5.90   10.60
   0  -6   0 2780.42   81.59
   0   6   0 2705.83   77.39
   0   6   0 2706.93   76.59
   0   7   0  -11.80   19.70
   0   7   0  -25.40   21.50
   0  -7   0  -13.10   19.20
   0  -8   0 1078.79   57.89
   0   8   0 1049.70   53.19
   0   8   0 1026.70   52.89
   0   0  -1   -6.00    1.20
   0   0  -1   -7.60    0.90
   0   0   1   -6.80    1.10
   0   0  -1   -5.40    1.20
   0   0  -1   -6.10    1.30
   0   0  -1   -6.90    0.80
   0  -1  -1   -7.60    2.70
   0   1   1   -9.00    2.00
   0  -1   1   -4.60    2.50
   0  -1  -1   -6.80    2.00
   0   1   1   -8.00    2.40
   0  -1   1   -6.00    1.50
   0   1  -1   -4.50    1.60
   0  -1  -1  -10.60    2.00
   0  -1  -1   -8.30    1.80
   0  -1   1   -8.50    2.10
   0  -1  -1   -8.70    1.40
   0   1   1   -6.40    1.50
   0  -1   1   -7.60    2.30
   0   1  -1   -5.40    2.30
   0   1  -1   -6.40    2.40
   0  -2  -1   -1.20    3.80
   0  -2   1   -3.80    4.00
   0   2   1   -0.70    4.50
   0   2  -1    0.30    4.20
   0   2  -1   -1.90    3.80
   0   2  -1   -3.60    2.20
   0  -2   1   -5.10    1.80
   0   2   1   -3.20    3.60
   0  -3   1   -3.90    5.60
   0   3   1    5.90    5.70
   0   3  -1    1.80    5.80
   0   3   1    0.60    6.70
   0  -3  -1   -0.70    5.40
   0   3  -1    2.80    6.60
   0  -4   1    9.10    7.90
   0  -4  -1    0.40    7.70
   0   4   1   -0.10    9.00
   0   4   1    1.60    8.20
   0   4  -1    4.10    9.10
   0   4  -1   13.10    8.90
   0   5  -1   -0.10   11.30
   0   5   1   -0.10   12.50
   0  -5   1  -19.40   10.90
   0   5  -1    4.60   11.40
   0  -5  -1    0.70   10.10
   0   5   1   16.70   11.10
   0  -6   1    8.90   14.50
   0   6   1    6.90   15.40
   0   6  -1    1.00   15.50
   0   6   1  -14.90   15.60
   0  -6  -1   12.00   14.40
   0   7   1   -4.00   19.60
   0   7  -1    5.50   20.50
   0   7   1   17.10   21.40
   0   7  -1   10.90   20.00
   0  -7   1   -0.80   19.50
   0   8  -1  -17.50   26.20
   0   8   1  -41.30   27.90
   0  -8   1   12.40   25.70
   0  -8  -1   33.40   26.50
   0   8   1    1.40   25.60
   0   8  -1   29.80   28.40
   0   0  -2 4703.53   88.89
   0   0  -2 4688.03   88.79
   0   0   2 4749.02   88.29
   0   0  -2 4714.53   93.69
   0   0   2 4522.55   93.09
   0   0  -2 4993.10   92.09
   0   1  -2 1177.68   29.00
   0  -1   2 1233.18   29.90
   0   1  -2 1166.08   29.30
   0   1   2 1183.48   29.10
   0  -1  -2 1178.38   29.00
   0   1  -2 1196.68   28.80
   0  -1   2 1185.68   25.90
   0   1   2 1256.87   28.40
   0   1   2 1210.58   27.20
   0   1  -2 1182.48   25.90
   0  -1  -2 1156.08   28.50
   0  -1   2 1171.28   29.00
   0  -1  -2 1210.28   26.70
   0   2   2 4919.51  100.49
   0   2  -2 4736.73   95.79
   0   2   2 4976.90   96.79
   0   2   2 4958.40   96.59
   0  -2  -2 4890.21   96.39
   0  -2   2 4935.01  103.69
   0   2  -2 4742.63   96.39
   0  -2   2 4700.43   96.29
   0  -2  -2 5157.88  100.39
   0   2  -2 4796.12   97.49
   0   3   2 1092.89   27.80
   0   3  -2 1099.89   31.70
   0   3  -2 1085.69   33.50
   0   3  -2 1085.29   27.40
   0  -3  -2 1032.40   26.90
   0   3   2 1121.09   32.70
   0   3   2 1062.79   34.20
   0  -3   2 1119.89   35.00
   0  -3   2 1114.09   27.40
   0  -3  -2 1073.09   31.90
   0  -4  -2 2348.07   61.09
   0   4  -2 2320.27   59.79
   0   4   2 2343.27   59.79
   0   4  -2 2274.27   61.19
   0  -5   2  472.85   28.00
   0  -5  -2  459.25   25.50
   0   5   2  480.65   26.60
   0   5  -2  424.06   23.20
   0   5  -2  484.95   26.50
   0   5   2  449.95   25.10
   0   6   2 1226.48   49.30
   0   6  -2 1280.67   46.60
   0   6  -2 1191.68   47.30
   0  -6   2 1180.58   49.90
   0   6   2 1284.67   46.80
   0  -6  -2 1243.28   47.60
   0   7   2  504.35   35.90
   0   7   2  473.05   34.00
   0  -7  -2  368.76   36.40
   0   7  -2  435.96   31.30
   0   7  -2  406.16   34.00
   0  -7   2  407.76   36.10
   0  -8   2 1081.29   57.99
   0  -8  -2 1139.99   56.89
   0   8   2 1125.69   56.59
   0   0  -3    0.30    2.80
   0   0  -3   -2.50    3.00
   0   0   3    3.00    3.00
   0   0   3   -1.70    3.10
   0   0   3    3.30    3.40
   0   0  -3    4.00    3.70
   0   1  -3   -4.10    3.80
   0   1   3    2.20    2.80
   0  -1   3    4.40    3.90
   0  -1   3    3.00    3.50
   0   1   3    2.60    3.50
   0  -1  -3    1.30    3.30
   0   1   3   -1.60    3.30
   0  -1   3    2.90    3.60
   0   1  -3    1.80    3.30
   0  -1  -3    1.50    3.70
   0   2  -3    3.00    4.60
   0   2  -3    3.10    5.20
   0  -2   3    2.40    5.20
   0   2   3   -1.60    4.10
   0   2   3   -7.40    5.30
   0  -2   3    0.10    3.90
   0   2   3    3.70    4.20
   0   3  -3   -2.80    6.40
   0  -3   3    9.20    6.80
   0  -3   3    0.70    4.90
   0   3  -3   -2.60    6.50
   0   3   3    0.80    6.20
   0   3   3    1.00    4.80
   0   3   3   10.80    7.90
   0  -3  -3    1.90    6.00
   0   4   3   -0.40    5.70
   0   4  -3    0.20    9.50
   0  -4   3    6.40    6.10
   0  -4   3   -4.30    9.50
   0   4   3   -5.30    9.90
   0  -4  -3    2.20    8.00
   0   4   3   -1.90    8.30
   0   5  -3  -10.20   12.80
   0   5  -3  -14.40   12.50
   0  -5   3    1.70   13.20
   0   5   3   12.90   11.20
   0   5   3  -17.50   12.70
   0  -5  -3    2.60   11.20
   0   6  -3   -2.30   16.60
   0   6  -3   -1.30   16.80
   0  -6   3    2.80   16.50
   0   6   3   -9.30   16.70
   0  -6  -3   -2.90   15.60
   0   6   3   -1.70   14.90
   0   7  -3   27.00   22.10
   0   7   3  -24.60   20.60
   0  -7   3   20.00   21.20
   0   7   3    8.00   22.40
   0  -7  -3   32.10   20.80
   0   7  -3   -0.70   21.50
   0  -8   3    8.80   30.00
   0  -8  -3    0.00   29.70
   0   0   4 2780.52   66.79
   0   0   4 2952.10   61.09
   0   0  -4 2819.32   58.19
   0   0  -4 2770.72   61.79
   0  -1  -4 4300.87   87.39
   0   1  -4 4278.97   89.19
   0  -1  -4 4256.47   87.09
   0  -1   4 3844.72   81.99
   0  -1   4 4463.55   91.19
   0  -1   4 4369.86   93.79
   0   1   4 4316.77   86.69
   0   1   4 4259.97   93.49
   0   1  -4 4265.97   82.99
   0   1   4 4220.08   87.89
   0   2   4  537.45   22.10
   0   2  -4  524.25   21.20
   0   2   4  528.95   18.50
   0  -2   4  556.84   22.30
   0   2  -4  538.45   17.40
   0  -2  -4  498.35   20.20
   0   2   4  528.95   20.30
   0  -2   4  517.05   21.60
   0   3  -4 2481.95   57.89
   0   3  -4 2560.24   63.99
   0  -3   4 2543.75   61.69
   0  -3  -4 2563.34   60.69
   0   3   4 2554.84   62.29
   0  -3  -4 2470.45   63.79
   0   3   4 2504.85   61.39
   0  -3   4 2511.75   66.49
   0   4   4  482.85   22.60
   0   4   4  506.35   23.80
   0   4  -4  533.75   26.50
   0   4  -4  505.55   23.00
   0  -4   4  543.35   22.80
   0   4   4  512.25   26.90
   0  -4  -4  499.05   23.10
   0  -4   4  486.95   27.40
   0   5   4 1259.17   44.40
   0  -5  -4 1247.58   43.00
   0   5   4 1199.18   47.30
   0   5  -4 1228.38   45.80
   0   5   4 1227.58   36.90
   0  -5   4 1260.97   49.80
   0  -5   4 1234.58   36.70
   0   5  -4 1291.57   41.80
   0  -6  -4  894.91   42.30
   0   6  -4  937.61   38.30
   0   6   4  903.21   42.10
   0   6   4  947.91   43.40
   0   6  -4  898.71   43.80
   0  -6   4  949.21   46.40
   0   7  -4  686.93   43.10
   0  -7  -4  692.23   42.20
   0   7   4  658.93   42.90
   0   7  -4  651.63   38.30
   0   0   5    0.30    5.70
   0   0  -5   10.70    6.40
   0   0   5    5.10    5.30
   0   0  -5    4.40    5.30
   0   1   5    7.90    5.60
   0   1   5   -1.60    5.50
   0  -1   5   -2.30    5.80
   0   1  -5   -1.00    5.10
   0  -1   5   -0.50    5.60
   0   1  -5    3.70    6.00
   0   1   5   -6.40    4.70
   0  -1  -5   -7.30    6.00
   0   2  -5    6.80    7.60
   0  -2   5    2.10    6.70
   0   2   5    9.90    6.50
   0   2   5    5.60    6.80
   0   2  -5    3.90    6.50
   0  -2   5   -2.40    7.90
   0   2   5   -2.50    6.50
   0  -2  -5    0.50    7.80
   0  -3  -5   -0.70    7.20
   0   3   5  -11.10    7.60
   0   3   5    0.80    8.60
   0   3  -5  -10.40    9.40
   0   3  -5  -18.10    8.40
   0  -3   5  -10.30    7.60
   0   4  -5    0.90   11.80
   0  -4   5    9.90   10.00
   0  -4   5    7.80   12.80
   0   4  -5   12.70   12.00
   0  -4  -5    2.60   10.90
   0   4   5    3.20    9.30
   0  -4  -5   -3.50    9.60
   0   4   5   -1.80   10.40
   0   5  -5   -7.70   14.70
   0  -5  -5    8.20   15.20
   0   5   5    5.00   13.50
   0   5  -5  -21.40   15.20
   0  -5   5  -11.70   11.90
   0  -5   5    6.40   15.90
   0  -5  -5    9.30   12.40
   0  -6  -5   17.00   17.50
   0  -6  -5    3.40   18.60
   0   6  -5   12.40   19.90
   0  -6   5   -7.30   19.80
   0   6  -5   46.40   19.60
   0   6   5  -12.20   17.10
   0   7   5  -17.20   23.00
   0  -7  -5   11.10   23.40
   0   7  -5    2.40   25.40
   0   7  -5  -40.50   26.30
   0  -7  -5   29.80   24.00
   0  -7   5    9.40   27.40
   0   1  -6 3467.95   71.49
   0   1   6 3422.76   74.79
   0   1  -6 3408.76   81.19
   0  -1   6 3308.37   87.09
   0  -1  -6 3585.84   76.69
   0  -1   6 3486.05   79.19
   0   2  -6   97.99   13.30
   0  -2   6   82.09   15.30
   0   2   6   88.09   15.90
   0   3  -6 2972.80   77.29
   0   3   6 2879.71   75.89
   0   3  -6 2925.31   65.99
   0   3   6 2947.61   74.79
   0  -3   6 2828.32   77.09
   0  -3  -6 2976.60   69.09
   0  -3   6 3011.70   77.29
   0  -3  -6 2854.71   74.09
   0  -4  -6   48.40   16.40
   0   4  -6   82.39   16.50
   0   4  -6   63.89   18.40
   0  -4   6   73.49   23.00
   0   4   6   55.89   17.10
   0  -4  -6   96.49   17.40
   0  -5   6 1188.58   42.10
   0  -5   6 1142.09   50.79
   0   5   6 1184.58   45.70
   0   5  -6 1117.99   39.60
   0  -5  -6 1178.18   46.40
   0  -5  -6 1152.08   41.70
   0   5  -6 1152.68   47.70
   0   5   6 1130.29   42.20
   0  -6   6   62.29   24.30
   0   6   6   22.40   20.10
   0   6  -6   94.39   25.20
   0   6  -6   15.70   22.60
   0  -6  -6   78.29   24.20
   0  -6  -6   56.19   20.90
   0  -7   6 1020.50   58.69
   0  -7  -6 1187.08   53.59
   0  -7  -6 1099.79   53.49
   0   7   6 1173.88   54.19
   0   7  -6 1035.70   57.89
   0   0   7  -10.50    8.40
   0   0  -7   12.30    8.40
   0   0   7    8.10    9.00
   0   0  -7   19.70    9.00
   0   1  -7    2.90    8.50
   0   1   7  -18.00    9.10
   0  -1   7    3.20    9.30
   0  -1   7    1.80    9.20
   0  -1  -7   -6.10    9.00
   0   1  -7   -0.50   10.40
   0   1   7   -3.00    7.90
   0   2   7   -7.70    9.90
   0   2   7   15.50    9.90
   0   2   7   -0.90    9.50
   0   2  -7   12.70   10.90
   0   2  -7   -3.70    9.70
   0  -2   7    3.90   10.30
   0  -3   7  -12.50   11.80
   0  -3  -7   -5.80   10.00
   0   3  -7  -13.20   11.90
   0   3   7  -13.70   11.10
   0  -3  -7  -21.10   12.70
   0   3   7   10.60   11.50
   0  -3   7  -23.40   14.40
   0   3  -7   -4.30   13.40
   0  -4  -7   -4.00   15.60
   0   4   7   -9.50   13.90
   0   4  -7   -1.30   16.20
   0  -4   7   24.60   17.00
   0  -4  -7    0.40   13.30
   0  -4   7   13.70   13.70
   0   4  -7  -11.60   15.50
   0   5  -7   47.90   20.10
   0   5   7    8.80   16.00
   0  -5   7   -3.40   16.50
   0  -5   7   18.70   23.60
   0  -5  -7  -11.90   16.90
   0  -5  -7   -4.60   19.80
   0   5   7   -1.90   17.20
   0   0   8  654.53   26.70
   0   0  -8  694.43   25.20
   0   0  -8  638.24   30.30
   0   0   8  597.14   34.60
   0  -1   8 1470.15   45.40
   0   1   8 1519.55   42.00
   0   1  -8 1437.76   49.30
   0  -1   8 1492.65   54.39
   0   1  -8 1477.55   39.10
   0  -1  -8 1530.35   43.40
   0  -1  -8 1517.15   49.00
   0   1   8 1475.25   54.89
   0   2  -8  431.36   26.40
   0   2   8  431.76   23.40
   0   2   8  426.56   28.80
   0  -2  -8  410.46   22.80
   0  -2   8  368.86   29.20
   0  -2   8  416.06   25.10
   0  -2  -8  379.86   24.30
   0   3   8 1650.13   57.99
   0  -3  -8 1719.23   47.10
   0  -3  -8 1682.53   52.79
   0  -3   8 1696.03   59.79
   0   3   8 1679.83   55.29
   0   3  -8 1641.94   57.49
   0  -3   8 1637.14   56.19
   0  -4  -8  190.58   25.60
   0  -4   8  262.27   29.10
   0   4   8  220.78   30.20
   0  -4   8  280.87   32.60
   0   4   8  310.47   26.70
   0   4  -8  256.27   30.20
   0  -5   8 1202.08   49.90
   0   5   8 1198.18   52.59
   0   5   8 1237.38   52.49
   0   5  -8 1196.78   54.69
   0  -5   8 1195.78   58.89
   0  -5  -8 1224.28   50.09
   0   0  -9   -5.30   14.60
   0   0   9    8.10   14.00
   0   0   9  -19.50   13.70
   0   0  -9  -12.00   13.40
   0   1   9   22.60   14.10
   0  -1   9  -17.50   14.30
   0   1  -9    1.60   14.50
   0  -1  -9  -17.10   13.70
   0   2  -9   -8.80   17.30
   0  -2   9   35.30   19.80
   0  -2  -9   57.29   17.90
   0  -2  -9   29.20   15.00
   0   2   9    2.20   15.70
   0  -2   9    4.10   17.20
   0  -3  -9  -11.20   17.70
   0  -3   9   28.10   17.00
   0   3   9  105.39   29.60
   0  -3  -9   -3.10   18.40
   0  -3   9    3.30   21.10
   0   4   9  -26.00   20.20
   0  -4   9    4.10   20.30
   0  -4  -9    4.80   21.30
   0  -4   9   -2.70   24.50
   0   5  -9   49.40   29.60
   0  -5   9   33.60   23.70
   0   5   9  122.29   33.50
   0   5   9   26.10   25.50
   0   0  10 1223.58   54.39
   0   0 -10 1218.18   49.20
   0  -1 -10  421.96   31.60
   0   1 -10  491.45   33.40
   0  -1  10  477.25   36.10
   0   1  10  469.35   37.60
   0  -2  10 1195.48   46.80
   0  -2 -10 1188.38   43.90
   0  -2  10 1263.07   55.79
   0   2  10 1263.37   56.39
   0  -3  10  609.24   42.40
   0   3  10  619.44   47.20
   0  -3 -10  596.34   37.20
   0   3 -10  592.44   41.60
   0  -3 -10  632.64   33.50
   0   0 -11   -0.20   23.00
   0   0  11   46.60   23.10
   0   1 -11    1.70   23.10
   0  -1 -11    7.20   23.10
   0   1  11  -16.80   22.50
   0  -1  11    9.40   23.30
   1   1   0 6468.35  125.59
   1   1   0 6543.54  126.29
  -1  -1   0 6921.61  126.59
   1  -1   0 6812.12  124.99
   1   1   0 6379.56  120.59
  -1   1   0 6966.80  124.79
  -1   1   0 7009.40  129.79
  -1  -1   0 6507.25  125.59
  -1  -1   0 6614.84  120.99
  -1  -1   0 6722.93  130.49
   1  -1   0 7333.17  130.09
  -1   1   0 6493.25  123.99
   1  -1   0 6920.51  124.69
  -1  -1   0 6754.62  130.29
   1  -1   0 6355.06  124.49
  -1   1   0 6759.52  124.99
  -1   2   0   -7.10    4.00
  -1  -2   0   -4.70    4.50
   1   2   0   -7.70    3.80
   1   2   0    2.00    4.50
  -1   2   0   -3.60    4.70
  -1  -2   0   -5.60    3.80
   1  -2   0   -5.20    3.60
   1   2   0   -3.80    2.70
  -1   3   0 5055.79  109.49
   1   3   0 5391.16  111.89
   1   3   0 5109.49  107.59
  -1  -3   0 5387.76  114.69
  -1   3   0 5189.38  111.49
   1  -3   0 5764.92  115.69
   1  -4   0   10.60    7.80
   1   4   0    1.00    8.70
  -1   4   0    3.40    8.20
  -1  -4   0    7.50    8.00
  -1   4   0   -2.00    8.50
   1   4   0   -1.60    7.50
  -1  -5   0 2985.00   80.99
   1  -5   0 3027.00   79.79
   1   5   0 2936.11   77.49
  -1   5   0 2893.01   76.99
  -1   5   0 2877.41   77.49
   1   6   0  -19.80   14.30
  -1   6   0    0.50   15.30
   1   6   0   23.30   16.00
  -1   6   0  -14.00   15.10
  -1  -6   0    3.00   13.90
   1  -6   0   10.10   15.40
   1   7   0 1523.65   54.89
  -1  -7   0 1418.66   60.19
   1   7   0 1497.25   56.29
   1  -7   0 1511.85   59.39
  -1   7   0 1475.15   56.99
  -1   7   0 1463.45   55.89
   1  -8   0  -28.80   26.60
  -1  -8   0   33.60   26.40
   1   8   0    6.90   27.80
  -1   8   0   20.80   28.10
   1   8   0  -40.40   26.30
  -1   0   1   -5.60    1.40
   1   0  -1   -5.70    1.40
  -1   0   1   -3.70    1.60
  -1   0  -1   -2.30    1.50
   1   0   1   -4.90    1.40
  -1   0   1   -6.80    1.50
  -1   0  -1   -6.60    1.60
  -1   0  -1   -3.60    1.50
   1   0  -1   -3.10    1.60
   1   0   1   -1.80    1.60
   1  -1   1   -8.60    3.00
   1  -1   1   -4.20    2.80
  -1  -1  -1   -5.30    3.00
  -1   1   1   -6.70    2.00
  -1   1   1   -8.90    2.30
   1  -1   1   -5.70    2.20
  -1  -1  -1   -8.80    2.20
   1   1  -1   -7.60    2.20
  -1  -1  -1   -3.80    2.10
   1   1  -1   -5.60    2.60
  -1  -1  -1   -2.90    2.00
   1   1  -1   -5.90    2.60
   1   1  -1   -9.10    2.00
  -1   1  -1   -4.90    2.10
  -1  -1   1   -7.40    2.30
   1  -1  -1   -8.40    2.90
   1   1   1   -6.70    1.80
   1   1   1   -6.00    2.10
  -1  -1   1   -9.50    2.70
   1   1   1  -10.00    2.80
  -1   1  -1   -8.20    2.60
  -1   1  -1   -3.80    3.10
  -1  -1   1   -8.70    2.40
  -1   1  -1   -7.90    1.70
   1   1   1   -3.00    1.90
   1  -1  -1   -4.40    2.50
  -1  -1   1   -5.90    2.10
   1  -1  -1   -3.90    1.80
   1  -1  -1   -6.80    2.90
   1  -1  -1   -4.70    2.00
  -1  -2  -1  168.28    9.70
   1   2  -1  148.09    7.60
   1   2  -1  159.38    9.10
   1   2  -1  148.59    9.20
  -1   2   1  155.68    9.70
  -1  -2  -1  143.69    7.40
   1  -2   1  162.18   10.00
  -1  -2  -1  167.08    7.50
  -1   2  -1  150.28    6.40
   1   2   1  144.19    9.80
  -1   2  -1  155.88   10.20
  -1  -2   1  152.68    9.90
   1   2   1  151.08    8.10
  -1   2  -1  151.48    8.30
   1  -2  -1  152.98    8.60
  -1  -2   1  153.58    7.20
  -1   3   1   32.10    9.30
  -1   3   1   26.80    7.70
   1   3  -1   43.80    9.00
   1   3  -1   30.10    7.80
   1  -3   1   24.80    8.90
  -1  -3  -1   21.80    6.50
  -1  -3   1   29.00    5.10
  -1  -3   1   29.30    8.10
   1   3   1   34.90    8.10
   1  -3  -1   21.20    7.60
  -1   3  -1   20.60    7.40
  -1   3  -1   45.10    9.50
   1   3   1   28.90    6.90
   1   4  -1    3.10    8.50
  -1   4   1    6.60    9.20
   1  -4   1   -4.70    7.70
   1   4  -1   -1.10    8.10
  -1  -4  -1   -1.40    7.70
  -1   4   1   -8.00    8.70
  -1   4  -1   23.20    8.60
  -1   4  -1    4.80    8.70
   1   4   1   11.00    8.00
   1   4   1   -3.10    8.90
   1  -4  -1   12.90    8.40
  -1  -4   1    5.60    8.10
   1  -5   1   -8.50   11.30
   1   5  -1  -17.00   11.40
  -1   5   1  -16.00   11.00
  -1   5   1   -4.00   11.30
  -1  -5  -1    5.80   10.30
  -1   5  -1   27.10   11.20
   1  -5  -1  -10.70   11.40
  -1   5  -1   19.10   11.70
   1   5   1   15.50   11.90
  -1  -5   1    9.60   11.60
  -1   6   1   14.00   16.10
  -1   6   1  -18.90   15.40
  -1  -6  -1   -3.20   14.30
   1   6  -1   70.19   19.70
   1  -6   1    3.20   14.90
   1   6  -1   12.00   15.80
  -1   6  -1   14.50   16.00
  -1  -6   1   -8.70   15.80
   1   6   1   13.10   15.80
   1   6   1   -9.30   15.20
   1  -6  -1   -0.90   14.10
  -1   6  -1  -14.50   16.40
   1   7  -1   48.70   20.40
   1   7  -1    5.60   20.70
  -1   7   1    1.80   20.20
  -1  -7  -1   16.70   19.40
  -1   7   1   42.30   22.20
   1  -7   1    1.60   19.20
  -1   7  -1   47.10   22.80
  -1   7  -1  -22.10   19.60
   1   7   1  -19.10   20.40
  -1  -7   1    6.90   19.00
   1  -7  -1   51.49   20.00
  -1   8   1  -16.10   28.30
   1   8  -1  -38.70   25.40
   1   8  -1  -20.40   27.70
   1  -8   1   15.00   26.30
  -1  -8  -1  -29.90   26.60
   1  -8  -1   25.00   27.80
   1   8   1   31.90   28.50
   1   8   1   37.80   25.60
  -1  -8   1   38.20   27.70
  -1   0  -2 1902.21   39.50
   1   0  -2 1868.11   39.20
  -1   0   2 1801.92   39.10
   1   0  -2 1855.01   39.40
   1   0  -2 1792.12   41.90
  -1   0   2 1869.91   42.50
   1   0   2 1833.32   39.10
  -1   0  -2 1958.60   41.20
   1   0   2 1997.00   41.40
  -1   0   2 1852.91   39.10
  -1  -1  -2 4916.91   90.99
   1  -1   2 4877.31   97.99
  -1  -1  -2 4915.61   96.89
   1   1  -2 4741.93   92.59
  -1  -1  -2 4709.33   93.29
   1   1  -2 4805.62   91.79
  -1   1   2 4766.42   95.39
  -1  -1  -2 4852.81   95.89
   1   1  -2 4678.03   96.09
   1  -1   2 4776.02   95.59
  -1   1   2 4905.51   92.69
  -1  -1   2 4863.51   96.39
   1   1   2 4900.31   96.09
  -1   1  -2 4829.92   95.89
  -1   1  -2 4636.24   92.89
   1  -1  -2 4735.43   95.19
  -1  -1   2 4589.64   92.19
  -1  -1   2 4621.64   91.59
   1  -1  -2 4713.13   94.39
   1  -1  -2 4875.41   92.19
   1  -1  -2 4853.71   91.99
   1   1   2 4980.50   90.99
  -1  -1   2 4914.61   97.09
   1   1   2 5003.40   96.79
   1   1   2 4720.53   93.59
   1  -2   2 1646.64   37.90
   1  -2   2 1673.63   38.80
   1  -2   2 1724.43   43.70
   1   2  -2 1662.03   40.00
   1   2  -2 1671.43   40.20
  -1   2   2 1687.63   38.30
   1  -2  -2 1643.84   42.20
  -1   2  -2 1674.23   38.80
  -1   2  -2 1725.43   38.30
   1   2   2 1702.73   39.90
  -1  -2   2 1723.73   43.50
  -1   2  -2 1668.23   41.80
   1   2   2 1669.33   42.50
   1  -2  -2 1700.23   38.30
   1   2   2 1768.42   39.60
   1   2   2 1737.03   42.10
   1  -2  -2 1721.43   39.40
  -1  -2   2 1735.93   39.80
   1  -2  -2 1628.74   39.40
   1   3  -2 4177.88   91.89
  -1   3   2 4283.37   95.59
  -1   3   2 4431.66   93.39
  -1   3   2 4539.75   86.79
   1  -3   2 4343.27   98.09
  -1  -3  -2 4449.96   95.79
   1  -3   2 4313.07   86.59
   1   3  -2 4152.98   91.29
  -1   3  -2 4289.17   90.29
   1   3   2 4271.17   95.79
   1   3   2 4346.57   89.99
  -1   3  -2 4219.38   86.09
   1  -3  -2 4384.46   93.59
  -1  -3   2 4350.16   88.09
  -1  -3   2 4285.57   98.09
   1   3   2 4398.96   88.59
   1  -3  -2 4342.57   85.89
  -1   3  -2 4232.98   94.09
   1   4  -2  654.43   26.10
  -1   4   2  662.33   27.30
   1   4  -2  644.04   27.50
  -1  -4  -2  615.84   25.90
  -1   4  -2  640.84   28.10
  -1   4  -2  652.33   25.40
   1  -4  -2  665.03   26.70
  -1  -4   2  660.13   20.10
   1   4   2  657.53   25.90
   1  -5   2 1297.77   47.80
   1   5  -2 1277.27   43.80
   1   5  -2 1259.47   43.50
  -1   5   2 1285.27   44.20
  -1  -5  -2 1300.47   44.60
  -1   5   2 1282.87   46.50
  -1  -5   2 1302.27   48.60
   1   5   2 1332.27   43.10
   1  -5  -2 1308.97   44.60
  -1   5  -2 1246.48   45.50
   1   5   2 1252.17   45.70
  -1   5  -2 1248.48   42.20
  -1   6   2  253.17   25.00
   1   6  -2  277.37   25.30
  -1   6   2  278.37   26.00
   1  -6   2  263.97   27.60
   1   6  -2  272.47   24.30
  -1  -6  -2  284.07   26.40
   1   6   2  241.58   26.30
   1  -6  -2  222.48   26.40
  -1   6  -2  299.97   23.50
   1   6   2  241.18   24.20
  -1  -6   2  285.07   27.80
  -1   6  -2  302.17   27.10
  -1   7   2 1189.68   51.79
   1  -7   2 1138.69   52.79
  -1   7   2 1170.58   50.29
   1   7  -2 1080.79   47.70
  -1  -7  -2 1135.49   51.09
   1   7  -2 1150.88   48.70
  -1   7  -2 1111.29   47.50
  -1  -7   2 1094.29   52.49
   1  -7  -2 1080.89   49.80
   1   7   2 1090.39   48.10
   1   7   2 1209.58   51.89
  -1   7  -2 1144.59   50.99
   1  -8   2  231.68   41.80
  -1  -8  -2  166.48   43.00
   1   8  -2  331.07   39.20
  -1   8   2  191.08   40.40
   1   8  -2  341.77   35.70
  -1   8  -2  288.67   40.90
  -1  -8   2  231.58   41.00
   1   8   2  284.27   37.70
   1   8   2  290.47   37.80
  -1   0   3   -3.40    3.10
   1   0   3   -1.10    3.20
  -1   0  -3    2.00    3.30
   1   0  -3   -0.90    3.40
   1   0   3   -1.00    3.20
  -1   0  -3   -1.60    3.10
   1   0  -3    6.50    3.50
   1   0  -3   -1.00    2.90
   1  -1   3   21.90    5.30
  -1   1   3   23.90    5.20
   1   1  -3   23.60    5.20
   1  -1   3   22.00    6.10
   1   1  -3   26.00    4.90
  -1   1   3   24.20    5.70
   1   1   3   22.50    6.10
   1   1   3   19.10    4.70
   1   1   3   18.20    5.40
  -1  -1   3   26.50    5.60
   1  -1  -3   20.30    5.20
   1   1   3   21.00    4.50
  -1  -1   3   20.50    6.10
  -1   1  -3   28.80    5.80
  -1   2   3   65.99    7.10
   1   2  -3   51.49    6.80
   1  -2   3   59.59    7.90
   1   2  -3   67.59    8.10
  -1   2   3   62.19    7.40
   1  -2   3   72.99    9.20
   1  -2   3   72.59    7.40
   1   2   3   67.99    7.90
  -1  -2   3   60.49    7.70
  -1   2  -3   63.29    6.30
   1  -2  -3   60.79    7.00
   1  -2  -3   57.19    7.40
   1   2   3   59.89    7.10
  -1   2  -3   61.49    8.50
  -1  -2   3   73.29    9.30
   1   2   3   69.79    7.70
   1  -2  -3   57.09    6.50
   1   2   3   53.79    8.30
   1   3  -3   39.80    9.00
   1   3  -3   30.20    8.80
   1  -3   3   49.10    9.60
   1  -3   3   36.70    8.30
  -1   3   3   37.00    8.70
  -1   3   3   28.70    7.80
  -1  -3  -3   49.40    9.20
  -1   3  -3   33.80    8.40
   1   3   3   29.60    8.50
  -1   3  -3   36.40    9.50
  -1  -3   3   28.10    8.70
   1   3   3   29.00    7.90
   1   3   3   32.80   10.20
   1  -3  -3   31.80    8.90
   1  -3  -3   34.80    8.40
  -1  -3   3   38.20    8.40
   1  -4   3    9.00   10.30
   1   4  -3    3.80    9.90
  -1   4   3    3.70    8.80
   1   4  -3   16.40   10.30
  -1  -4  -3   11.10    8.10
  -1   4   3   12.30    6.00
  -1   4   3   -0.40   10.40
   1  -4   3    9.30    6.10
  -1   4  -3   -9.90    9.70
   1   4   3   10.50    8.60
  -1  -4   3    5.50    6.50
   1   4   3    7.40    6.50
   1  -4  -3   -2.90    7.90
  -1   4  -3   14.00   10.10
  -1  -4   3   14.70   10.90
   1   4   3   -2.00   10.50
   1  -5   3   65.19   19.70
  -1  -5  -3   22.60   11.80
   1   5  -3   29.80   12.60
  -1   5   3   62.49   17.10
  -1   5   3   39.30   14.30
   1   5  -3   32.60   14.30
   1  -5  -3   36.30   12.10
   1   5   3   57.09   17.70
  -1  -5   3   26.00   13.50
  -1   5  -3   30.10   14.20
   1   5   3   18.80   11.20
  -1   6   3    7.40   15.90
   1   6  -3   13.70   16.70
   1  -6   3    0.10   16.40
  -1   6   3   20.00   17.70
  -1  -6  -3   17.50   16.00
   1   6  -3   -9.00   16.80
   1   6   3    8.70   14.90
  -1   6  -3   24.90   17.40
   1  -6  -3    6.90   15.40
  -1  -6   3    0.20   17.30
   1   6   3    5.20   17.90
  -1   6  -3   30.00   17.60
   1  -7   3    4.90   22.00
  -1   7   3   40.90   21.70
  -1  -7  -3  -14.50   20.50
   1   7  -3   28.20   22.70
   1   7  -3   -0.50   22.20
  -1  -7   3   11.80   22.10
  -1   7  -3   22.90   22.30
   1   7   3  -12.20   20.10
   1  -7  -3   39.30   21.50
   1   7   3   25.20   23.40
   1  -7  -3   56.79   21.20
  -1   7  -3   38.20   24.20
   1   0  -4 6399.96  124.89
  -1   0  -4 6385.76  124.99
   1   0  -4 6276.47  123.59
   1   0  -4 6248.98  124.39
  -1   0  -4 6311.97  119.49
   1   0   4 6426.36  133.29
  -1   0   4 6351.26  132.39
  -1   0   4 6413.26  124.49
   1   0   4 6706.43  129.39
  -1   0  -4 6347.86  120.09
  -1  -1  -4 1268.07   32.60
   1  -1   4 1368.96   39.20
  -1   1   4 1294.77   37.40
   1   1  -4 1274.57   32.10
   1   1  -4 1292.07   35.30
  -1   1   4 1319.47   35.90
   1  -1   4 1350.56   36.20
   1   1   4 1356.56   34.00
   1   1   4 1299.87   38.30
  -1  -1   4 1327.57   34.40
   1   1   4 1346.57   34.80
  -1   1  -4 1355.76   36.80
  -1  -1   4 1339.67   38.50
   1  -1  -4 1264.07   34.50
   1  -2   4 1913.11   42.90
  -1   2   4 2074.79   52.19
   1   2  -4 2018.50   47.50
   1  -2   4 2054.59   53.19
   1  -2   4 2113.99   53.29
   1   2  -4 2023.60   50.99
   1   2   4 2058.59   49.80
   1  -2  -4 2006.60   51.39
  -1  -2   4 2048.70   52.59
   1  -2  -4 2052.19   45.60
   1   2   4 2063.09   49.80
  -1   2  -4 2100.49   52.99
   1   2   4 2046.80   51.29
   1  -2  -4 1983.20   45.20
  -1  -2   4 2058.89   52.79
   1   2   4 2009.70   52.59
  -1   2  -4 2003.20   43.30
   1   3  -4 1085.69   35.40
  -1   3   4 1116.09   33.80
   1   3  -4 1102.09   32.50
  -1  -3  -4 1117.49   33.90
   1  -3   4 1057.79   33.60
   1  -3   4 1138.69   38.40
   1  -3  -4 1044.30   30.70
   1   3   4 1152.38   35.80
  -1   3  -4 1131.29   37.00
   1   3   4 1108.29   37.30
  -1   3  -4 1123.39   30.40
   1   3   4 1111.79   33.90
  -1  -3   4 1058.79   36.90
   1  -3  -4 1039.90   35.70
  -1  -3   4 1082.19   34.10
   1  -4   4 1365.76   39.40
  -1   4   4 1386.86   44.80
  -1   4   4 1427.26   39.60
  -1  -4  -4 1424.46   43.70
   1   4  -4 1350.66   43.50
   1  -4   4 1383.76   47.90
   1   4  -4 1420.96   42.50
   1   4   4 1349.96   46.90
  -1  -4   4 1335.97   47.50
  -1  -4   4 1383.06   40.20
   1  -4  -4 1366.66   45.80
  -1   4  -4 1382.76   46.10
   1   4   4 1395.56   42.80
  -1   4  -4 1466.65   40.60
   1  -4  -4 1373.06   40.90
   1   4   4 1349.56   40.80
  -1  -5  -4  575.24   24.20
  -1   5   4  575.84   30.70
  -1  -5  -4  603.04   29.70
   1  -5   4  553.14   24.70
   1   5  -4  556.54   27.80
   1  -5   4  568.24   32.10
   1   5  -4  529.45   29.60
  -1   5   4  513.05   22.90
   1  -5  -4  559.44   30.40
  -1  -5   4  529.85   32.80
   1   5   4  558.64   27.20
   1   5   4  578.14   31.50
  -1   5  -4  592.14   32.70
  -1  -5   4  563.74   25.00
   1  -6   4 1693.43   62.89
   1   6  -4 1642.34   55.69
  -1  -6  -4 1722.03   58.49
   1   6  -4 1609.54   58.19
  -1   6   4 1755.42   59.09
   1   6   4 1649.23   55.09
   1  -6  -4 1635.94   58.59
   1  -6  -4 1678.33   56.29
  -1  -6   4 1619.94   63.09
  -1   6  -4 1655.53   60.79
   1   6   4 1687.83   61.69
  -1   6  -4 1700.93   53.39
   1   7  -4  253.17   34.10
  -1   7   4  259.47   34.10
  -1  -7  -4  234.78   35.70
   1   7  -4  261.87   31.10
   1   7   4  310.87   32.50
  -1   7  -4  210.78   31.30
   1  -7  -4  221.18   34.60
  -1   7  -4  345.97   35.90
   1   0   5    3.60    5.60
   1   0  -5    4.30    5.90
  -1   0  -5    1.30    4.70
  -1   0  -5    2.90    7.20
  -1   0   5    1.70    5.30
   1   0   5   -3.00    5.70
  -1   0  -5   -4.10    5.90
  -1   0   5   -5.50    4.70
   1   0  -5    1.40    5.30
  -1   1   5    1.70    5.70
  -1  -1  -5   -1.40    5.90
   1   1  -5   -9.70    5.70
   1  -1   5    3.10    6.50
   1   1  -5  -13.80    5.60
   1  -1   5    7.90    6.00
  -1  -1  -5    2.70    5.70
  -1   1   5    0.60    4.20
  -1   1   5   -8.90    5.90
   1  -1  -5    0.80    5.40
  -1  -1   5    4.80    5.80
   1   1   5   -5.40    5.20
  -1  -1   5   -8.40    6.10
  -1   1  -5   -8.20    6.10
   1  -1  -5    8.60    6.80
   1   1   5   -9.20    5.80
  -1   2   5   54.09   11.50
  -1   2   5   42.70    9.90
   1  -2   5   41.90   12.00
  -1  -2  -5   32.60    9.30
   1  -2   5   43.70   12.40
   1   2  -5   48.20    8.80
   1   2  -5   36.10   10.00
   1   2   5   35.70    9.10
   1   2   5   58.29    9.40
   1   2   5   31.10    8.20
  -1  -2   5   60.99   11.90
  -1   2  -5   35.10    7.10
   1  -2  -5   49.99   10.30
  -1  -2   5   43.30   11.50
  -1   2  -5   56.59   10.90
   1  -3   5   -4.60   10.90
   1   3  -5    8.80    9.10
  -1   3   5    1.40    7.50
   1   3  -5   -9.80    9.10
  -1   3   5   10.70    8.30
  -1  -3  -5  -14.40   10.10
   1  -3   5   -6.60    7.50
   1   3   5    0.70    7.60
   1  -3  -5    3.30    6.90
  -1   3  -5   13.90    9.60
   1  -3  -5   16.50   10.70
  -1  -3   5    3.80    9.50
  -1   3  -5    5.80    8.90
  -1  -3   5   -1.80    7.90
   1   3   5   -2.80    8.60
   1   4  -5    8.80   12.40
   1  -4   5   -8.70    9.10
   1  -4   5    1.60   13.60
  -1   4   5    4.60   11.20
  -1  -4  -5   11.40   10.20
   1   4  -5   -1.80   11.60
  -1   4   5    1.90    9.20
   1  -4  -5    8.80    9.70
  -1  -4   5  -16.90   12.90
   1   4   5    6.70   10.40
  -1   4  -5   -8.80   11.60
  -1  -4   5    2.40    9.70
  -1   4  -5   16.90   12.00
   1   4   5   19.40   13.50
   1   4   5   13.20   10.10
   1  -4  -5   24.30   12.70
  -1   5   5   -1.80   10.90
   1   5  -5    8.90   15.50
  -1   5   5   -6.10   12.80
   1  -5   5    4.20   16.60
   1  -5   5   22.40   12.40
   1   5  -5   19.00   15.20
  -1  -5   5   12.00   12.20
  -1  -5   5  -25.10   16.60
   1   5   5    2.60   16.70
  -1   5  -5   -2.10   15.30
   1   5   5   11.10   11.80
  -1   5  -5  -20.80   15.60
   1   5   5   -5.90   13.10
   1  -5  -5   23.10   15.50
  -1   6   5   27.60   18.40
  -1  -6  -5   22.90   16.90
   1  -6   5   -0.30   22.10
   1   6  -5   33.40   20.60
   1   6  -5   -1.20   21.10
  -1   6  -5    6.20   20.20
  -1  -6   5  -24.60   20.60
   1  -6  -5   41.60   17.50
  -1   6  -5   -0.80   19.80
   1   6   5   34.60   23.40
   1  -6  -5   27.00   18.50
   1   6   5    4.60   18.30
   1  -7   5    9.40   26.20
  -1  -7  -5   15.40   24.60
  -1  -7  -5  -27.10   24.60
   1   7  -5   30.80   25.60
   1   7  -5   21.20   25.70
  -1   7  -5  -45.10   26.30
   1  -7  -5   15.80   23.00
  -1  -7   5    1.20   27.00
   1  -7  -5  -40.10   24.20
   1   7   5  -20.70   23.60
   1   0   6 2699.93   73.99
  -1   0   6 2762.42   60.79
   1   0   6 2843.62   65.49
  -1   0   6 2768.52   73.89
  -1   0  -6 2785.92   58.29
   1   0  -6 2596.04   68.19
   1   0  -6 2732.53   62.19
   1  -1   6   59.29   14.00
  -1   1   6    6.10    9.00
   1   1  -6    5.40    7.50
  -1  -1   6    4.10    7.30
  -1  -1   6   10.90    8.30
   1  -1  -6   20.40    7.60
   1  -1  -6    2.30    7.40
   1   2  -6 3075.19   76.79
   1  -2   6 3217.68   79.19
   1  -2   6 3237.48   81.69
   1   2  -6 3165.88   69.79
  -1   2   6 3038.90   81.19
  -1   2   6 3128.59   76.79
  -1  -2  -6 3128.89   73.29
   1   2   6 3083.89   74.59
  -1  -2   6 3142.59   76.79
   1  -2  -6 3113.39   75.39
  -1   2  -6 3113.09   78.19
   1   2   6 3050.29   80.29
   1   2   6 3216.58   73.59
  -1  -2   6 3155.28   80.69
   1  -3   6  107.09   16.50
  -1  -3  -6  106.69   14.00
   1  -3   6   84.79   19.20
   1   3  -6   88.09   12.40
  -1   3  -6   91.09   16.70
   1   3   6   90.39   16.10
  -1   3  -6   89.49   12.10
   1   3   6  132.49   15.70
   1   3   6  117.89   15.00
  -1  -4  -6 2033.70   61.19
  -1   4   6 2037.20   61.59
   1  -4   6 2012.40   65.19
  -1   4   6 2041.50   58.59
   1  -4   6 2052.09   59.39
   1   4  -6 2067.39   55.29
   1   4  -6 2092.69   62.49
   1  -4  -6 2001.40   62.19
  -1   4  -6 2163.78   52.19
   1   4   6 2039.60   59.29
   1   4   6 2046.90   60.29
  -1   4  -6 2026.10   63.39
  -1  -4   6 2098.89   60.59
  -1  -4   6 2071.09   65.59
   1  -4  -6 2078.79   54.09
   1  -5   6    7.20   14.00
   1  -5   6   37.70   19.80
   1   5  -6   20.20   17.70
   1   5  -6    4.40   17.50
  -1  -5  -6   82.19   21.70
  -1   5   6   39.20   16.60
  -1   5  -6   35.30   18.00
   1   5   6   83.59   22.80
   1   5   6   41.30   16.20
   1  -5  -6   29.10   17.20
  -1  -5   6   34.20   19.00
  -1  -5   6   12.10   13.90
   1   6  -6 1198.58   47.10
  -1  -6  -6 1257.97   50.29
   1  -6   6 1189.38   56.89
  -1  -6  -6 1239.08   52.19
  -1   6   6 1215.48   51.69
   1   6  -6 1231.98   53.69
   1  -6  -6 1258.27   48.40
  -1   6  -6 1196.98   46.20
  -1   6  -6 1311.67   55.79
   1   6   6 1251.27   50.49
  -1  -6   6 1241.78   56.79
   1  -6  -6 1234.98   52.69
   1  -7   6   16.80   32.30
  -1  -7  -6   45.00   25.50
  -1  -7  -6    2.40   27.90
  -1  -7   6   58.29   31.60
   1  -7  -6  -21.60   26.90
   1   0  -7   -2.50    9.40
  -1   0  -7   -3.10    7.90
   1   0   7  -10.40    8.80
   1   0  -7   -2.50    9.50
   1   0   7    5.70    8.80
  -1   0  -7    2.30    9.00
  -1   0   7   18.20   10.30
   1   1  -7   39.60   11.30
   1  -1   7   53.79   12.00
  -1  -1  -7   55.09   13.50
   1  -1   7   76.29   16.40
  -1   1   7   53.19   15.20
   1   1  -7   39.10   12.60
  -1  -1  -7   62.89   11.40
  -1  -1   7   49.00   12.90
   1   1   7   34.30   10.30
  -1  -1   7   45.10   11.80
  -1   1  -7   47.70   13.30
   1  -1  -7   39.30   12.20
   1   1   7   51.79   12.50
   1  -1  -7   70.69   13.50
  -1  -2  -7   47.70   13.00
  -1  -2  -7   28.90   10.70
   1   2  -7   38.80   12.60
  -1   2   7   46.90   12.10
   1  -2   7   23.20   10.40
   1   2  -7   30.00   12.40
  -1   2   7   33.90   10.50
   1  -2   7   31.70   12.10
   1  -2  -7   40.90   12.10
   1   2   7   48.20   14.00
  -1  -2   7   44.20   13.00
  -1   2  -7   43.20   12.30
  -1  -2   7   40.00   11.50
   1   2   7   13.10   10.50
  -1  -3  -7   30.50   13.50
   1   3  -7   34.50   12.60
   1   3  -7    8.30   14.20
  -1   3   7   40.30   14.30
   1  -3   7  -10.00   14.70
   1  -3   7   23.00   12.30
  -1   3   7   23.90   12.00
  -1   3  -7   10.00   14.20
   1  -3  -7   20.20   14.20
   1  -3  -7   35.90   10.30
  -1  -3   7   34.40   14.70
   1   3   7    8.70   13.30
   1   3   7   29.00   11.70
  -1  -3   7   25.60   12.00
   1   3   7    3.50   11.60
   1   4  -7   -6.40   16.20
   1  -4   7  -36.10   17.50
  -1   4   7  -27.20   14.40
  -1  -4  -7  -26.30   16.60
   1   4  -7   25.40   16.60
  -1   4   7    2.70   13.40
   1  -4   7   10.90   14.20
  -1  -4  -7  -26.40   13.80
  -1  -4   7  -30.80   17.60
  -1  -4   7   -2.00   14.20
   1   4   7    5.70   14.00
   1  -4  -7  -22.90   15.60
   1   4   7   -1.00   13.40
  -1   4  -7   12.30   16.40
   1  -4  -7    4.30   12.10
   1  -5   7  -14.00   16.40
  -1   5   7   20.60   18.70
  -1  -5  -7    4.30   19.10
   1   5  -7   11.60   19.60
   1  -5   7   10.10   20.90
  -1  -5  -7    9.00   17.10
   1   5  -7   -4.10   20.70
  -1   5   7  -22.00   16.70
  -1  -5   7  -18.20   22.20
   1   5   7   24.20   17.50
   1   5   7    1.80   17.90
  -1  -5   7  -23.10   17.20
   1  -5  -7   31.20   20.10
  -1   5  -7   39.20   21.20
  -1   6   7  -20.60   23.20
   1  -6   7   10.70   26.60
   1   6  -7  -41.70   26.00
  -1  -6  -7   -7.60   23.10
   1  -6  -7    4.90   23.20
   1   6   7   24.20   22.50
  -1   6  -7   -5.50   26.20
  -1   0   8 3052.09   71.39
   1   0   8 3212.58   77.19
  -1   0   8 3153.28   89.29
   1   0   8 3149.98   88.59
   1   0  -8 3201.78   73.99
  -1   0  -8 3132.09   81.39
   1   0  -8 3020.10   80.89
  -1   0  -8 3252.47   68.89
   1   1  -8  543.75   23.60
   1   1  -8  525.05   28.90
  -1  -1  -8  575.44   23.40
  -1   1   8  545.85   32.90
   1  -1   8  587.24   32.80
  -1  -1  -8  564.14   29.10
   1   1   8  579.34   33.40
  -1  -1   8  552.44   25.10
  -1  -1   8  547.45   32.20
  -1   1  -8  552.54   29.70
   1   1   8  521.85   25.10
   1  -1  -8  555.04   27.60
   1  -2   8 1375.76   47.00
   1  -2   8 1317.87   50.69
  -1   2   8 1321.47   50.99
  -1  -2  -8 1364.16   46.30
   1   2  -8 1402.76   39.30
   1   2  -8 1327.97   47.60
   1   2   8 1423.16   43.50
  -1   2  -8 1349.27   49.30
   1  -2  -8 1324.37   43.30
  -1  -2   8 1379.56   51.99
   1   2   8 1301.07   50.89
   1  -3   8  285.67   28.00
   1   3  -8  296.97   20.10
  -1  -3  -8  268.07   23.20
   1   3  -8  283.77   25.30
  -1   3   8  279.27   24.70
  -1   3   8  296.77   27.60
  -1  -3  -8  330.87   24.00
  -1  -3   8  306.17   27.80
   1   3   8  313.97   26.20
   1   3   8  280.17   28.60
  -1   3  -8  272.27   27.10
  -1  -3   8  239.48   27.30
   1  -3  -8  239.68   23.10
   1  -4   8  964.10   44.00
  -1  -4  -8 1007.10   40.80
  -1  -4  -8  972.70   38.70
   1   4  -8  948.51   43.70
  -1   4   8  931.51   43.20
   1  -4   8  897.31   47.00
  -1   4   8  981.70   44.00
   1  -4  -8  917.31   41.00
  -1   4  -8  931.71   44.30
  -1  -4   8  908.51   46.60
   1   4   8  997.30   42.10
   1   4   8  958.30   46.40
  -1  -4   8  928.01   44.80
   1  -5   8  257.27   38.40
   1   5  -8  283.37   32.80
   1  -5   8  187.18   34.50
  -1  -5  -8  300.27   29.00
   1  -5  -8  196.38   30.00
   1   5   8  295.47   29.90
  -1  -5   8  302.67   36.70
   1   5   8  277.87   35.60
  -1  -5   8  310.47   33.80
   1   0  -9   -0.40   13.70
  -1   0   9   43.00   15.80
   1   0   9   15.70   14.20
  -1   0  -9    0.00   14.10
   1   1  -9   12.80   15.40
   1  -1   9    1.10   15.50
  -1  -1  -9  -15.50   14.00
  -1  -1  -9   11.00   14.80
  -1   1   9  -11.30   15.10
   1   1  -9    5.00   14.80
   1  -1   9    9.70   15.60
   1   1   9   16.20   15.40
   1  -1  -9  -16.90   13.80
  -1  -1   9    4.40   14.50
   1   1   9   11.60   14.10
   1  -1  -9  -17.20   14.90
  -1  -1   9    1.80   15.10
  -1   1  -9    6.40   14.50
   1   2  -9   -8.50   16.40
   1  -2   9   -0.90   15.60
  -1  -2  -9   25.40   15.30
  -1  -2  -9   20.80   15.60
  -1   2   9    6.90   15.30
   1  -2   9   27.80   17.00
   1  -2  -9   34.50   14.70
  -1   2  -9    9.20   17.70
  -1  -2   9   14.50   15.80
  -1  -2   9    4.60   17.30
   1  -2  -9   36.00   17.40
   1   2   9   12.00   16.10
   1  -3   9   28.90   18.20
   1   3  -9  -14.60   18.30
  -1   3   9   18.80   17.20
   1  -3   9   10.80   19.90
  -1  -3  -9   24.60   17.00
  -1  -3  -9    3.30   18.90
  -1   3  -9  -43.10   19.10
  -1  -3   9  -13.60   18.80
   1  -3  -9  -16.40   16.40
   1  -3  -9    1.70   22.10
   1   3   9  -36.60   17.70
  -1  -4  -9  -12.20   19.90
  -1  -4  -9   -8.40   22.60
   1  -4   9   18.80   21.60
  -1   4  -9  -38.60   22.60
   1   4   9    1.50   21.50
  -1  -4   9  -55.69   26.00
  -1  -4   9  -19.30   21.40
   1  -4  -9  -40.90   21.40
  -1   0  10  410.46   38.00
   1   0 -10  459.95   31.50
   1   0  10  481.85   37.50
  -1   0 -10  454.35   32.60
   1  -1  10  987.70   41.00
  -1   1  10 1026.40   51.19
   1   1 -10 1039.60   46.00
   1  -1  10 1002.60   50.59
  -1  -1 -10 1013.90   45.10
  -1   1 -10 1031.90   46.40
   1  -1 -10  996.00   44.70
   1   1  10 1084.79   51.49
   1  -1 -10 1030.60   38.70
  -1  -1  10  979.70   51.79
  -1   2  10  508.35   38.30
  -1  -2 -10  530.55   36.20
   1  -2  10  533.85   35.80
   1  -2  10  527.35   40.40
   1   2  10  533.95   41.80
  -1  -2  10  432.86   42.40
   1  -2 -10  502.85   30.90
   1  -3  10  896.81   46.60
  -1  -3 -10  914.41   45.80
  -1  -3 -10  892.81   40.50
  -1   3  10  955.40   53.09
   1   3 -10  959.40   48.40
   1  -3 -10  888.21   45.20
   1  -3 -10  974.10   40.10
  -1   3 -10  869.91   48.40
   1   0  11   51.69   25.40
  -1   0  11   26.00   21.70
  -1   0 -11   14.00   23.10
   1   0 -11  -44.20   23.10
  -1  -1 -11   35.30   23.80
   1  -1  11   54.99   23.60
  -1   1  11   10.10   22.20
   1   1 -11  -18.50   23.20
  -1   1 -11   14.80   23.20
   1   1  11   23.60   24.20
  -2   0   0 9868.41  182.48
   2   0   0 9549.74  170.48
  -2   0   0 9910.71  170.48
  -2   0   0 8982.10  175.48
   2   0   0 9441.56  181.68
  -2   0   0 9686.23  182.38
   2   0   0 9999.00  184.28
   2   0   0 9572.24  177.88
  -2   1   0   -1.60    3.00
  -2   1   0   -5.20    2.50
   2   1   0    6.00    3.70
  -2   1   0   -1.30    3.10
   2  -1   0   -1.90    2.90
  -2  -1   0   -8.20    2.50
  -2  -1   0   -6.30    2.80
   2  -1   0   -1.30    3.80
   2  -1   0   -6.00    2.80
   2   1   0  -10.20    3.00
  -2   1   0   -6.60    3.10
   2  -1   0   -2.90    2.50
  -2  -1   0   -7.20    3.40
   2   1   0   -3.30    2.70
   2   2   0 3863.11   81.69
  -2  -2   0 3952.30   77.89
   2  -2   0 4221.98   85.09
   2   2   0 3983.60   83.79
   2  -2   0 3950.20   81.79
   2   2   0 3934.41   77.59
  -2   2   0 4117.29   85.09
  -2  -2   0 4053.39   86.19
  -2  -2   0 3926.31   81.19
  -2  -3   0    1.80    4.00
  -2   3   0   -5.10    6.10
  -2  -3   0  -13.50    5.00
   2   3   0   -5.30    5.30
   2   3   0   -6.60    5.20
   2   3   0   -0.10    7.00
   2  -3   0   -2.50    5.60
  -2   3   0    1.60    6.60
   2   4   0 3215.98   74.99
  -2   4   0 3252.57   81.29
   2   4   0 3276.27   80.89
   2  -4   0 3472.85   81.89
  -2  -4   0 3302.87   82.19
  -2   4   0 3297.47   78.89
  -2   5   0   -0.90   11.40
  -2  -5   0    4.00   11.50
  -2   5   0    5.50   12.20
   2   5   0   -1.20   10.50
   2  -5   0   -0.40   10.60
   2   5   0   -6.90   11.70
  -2   6   0 2649.93   77.19
   2   6   0 2747.63   79.49
  -2   6   0 2701.83   78.89
   2  -6   0 2866.21   81.39
  -2  -6   0 2814.72   83.29
   2   6   0 2755.92   74.29
   2  -7   0   12.70   19.40
  -2  -7   0  -20.80   20.10
   2   7   0  -11.20   21.50
  -2   7   0   12.60   21.00
  -2   7   0    6.20   20.80
   2   7   0   16.20   20.00
   2   8   0 1046.90   52.09
   2  -8   0 1072.89   56.29
  -2  -8   0  907.01   54.99
   2   8   0 1035.80   50.29
  -2   8   0 1037.20   54.79
  -2   8   0  982.60   52.49
  -2   0  -1   -6.80    1.80
   2   0   1   -3.10    1.90
   2   0  -1   -3.40    2.40
  -2   0  -1   -3.00    2.30
  -2   0  -1   -5.50    2.60
   2   0   1   -5.70    2.10
  -2   0   1   -1.60    1.80
  -2   0   1   -4.20    1.50
   2   0  -1   -4.80    1.80
   2   0  -1   -2.90    2.30
   2   0   1   -4.20    2.00
  -2   0   1   -2.60    2.30
   2   0  -1   -1.20    1.50
  -2   0   1   -4.20    2.50
  -2   0  -1   -4.00    2.30
  -2  -1  -1  275.27   11.20
   2  -1   1  283.87    8.90
  -2  -1  -1  277.37   11.70
   2  -1   1  302.67   12.00
  -2  -1  -1  260.17   10.50
  -2   1   1  283.07   11.00
  -2   1   1  284.37    9.20
  -2   1   1  291.17   10.90
   2   1  -1  271.07   11.20
   2  -1   1  255.67   11.20
  -2  -1  -1  288.67    8.30
   2   1   1  292.97   11.40
  -2  -1   1  280.47   10.90
  -2  -1   1  279.87    8.60
  -2  -1   1  296.07   12.00
  -2   1  -1  274.87   11.10
  -2  -1   1  288.87   11.00
  -2   1  -1  262.67   10.40
   2   1   1  280.37    8.20
   2  -1  -1  276.27   11.10
  -2   1  -1  279.97   11.60
   2   1   1  273.17   11.00
   2  -1  -1  274.57   10.50
  -2  -2  -1  500.65   15.40
   2  -2   1  552.24   19.30
   2   2  -1  506.15   18.30
   2   2  -1  512.45   16.30
  -2  -2  -1  500.55   16.50
   2   2  -1  471.75   16.50
  -2  -2  -1  513.75   17.20
  -2   2   1  518.35   15.00
  -2   2   1  538.65   19.60
  -2  -2   1  490.65   15.80
  -2  -2   1  502.35   18.60
  -2   2  -1  524.15   19.90
  -2   2  -1  525.15   15.00
  -2   2  -1  521.75   15.70
   2   2   1  522.85   19.00
  -2   2  -1  512.25   16.50
   2   2   1  513.65   19.00
  -2  -2   1  530.75   17.10
   2  -2  -1  521.15   17.10
   2  -2  -1  521.95   15.00
   2  -2  -1  515.85   18.30
   2   2   1  516.75   15.30
   2   3  -1   29.10    8.30
  -2  -3  -1    8.40    4.50
   2   3  -1   17.60    7.00
  -2   3   1   15.10    7.30
  -2  -3  -1    7.90    6.00
  -2   3   1   22.70    7.50
   2  -3   1   11.90    6.20
   2   3   1   18.00    5.60
  -2   3  -1    9.30    6.70
  -2  -3   1    7.70    4.20
  -2   3  -1   18.60    7.00
  -2  -3   1   14.10    6.00
   2  -3  -1   11.00    5.90
   2   3   1   11.30    7.00
  -2   4   1   -2.60    9.10
  -2  -4  -1    4.40    8.10
   2   4  -1    5.60    8.30
   2   4  -1    3.90    8.80
   2  -4   1   -4.70    8.00
  -2   4   1    0.80    8.70
   2   4   1    4.30    8.70
  -2   4  -1   -7.90    9.10
   2   4   1   -3.10    7.50
   2  -4  -1   -7.70    7.80
  -2  -4   1   -0.60    4.60
  -2  -4   1   -2.30    8.10
  -2   4  -1   -6.80    8.70
  -2   5   1   25.70   12.70
   2   5  -1   16.80   13.20
  -2  -5  -1   27.00   11.60
   2  -5   1   23.30   12.90
   2   5  -1   34.10   12.90
  -2   5   1   34.60   13.20
   2  -5  -1   26.40   11.30
  -2  -5   1   16.90   11.80
  -2   5  -1   20.00   11.80
  -2   5  -1   23.90   13.10
   2   5   1   30.00   11.50
   2   5   1   53.99   14.20
  -2   6   1   -2.80   16.00
   2  -6   1   28.60   15.50
   2   6  -1   23.40   15.50
  -2  -6  -1    9.00   14.40
   2   6  -1   18.20   16.60
  -2   6   1   -2.40   15.70
   2   6   1   18.50   14.70
  -2   6  -1    8.00   16.40
   2  -6  -1    7.80   14.80
   2   6   1   19.40   16.20
  -2  -6   1   33.60   14.30
  -2   6  -1   51.59   16.70
  -2   7   1  -39.10   20.80
  -2   7   1    4.80   21.50
  -2  -7  -1   22.90   19.50
   2   7  -1  -18.20   19.00
   2  -7   1   17.30   20.20
   2   7  -1    1.90   20.50
   2  -7  -1   10.80   19.60
  -2   7  -1   39.60   21.80
  -2  -7   1  -23.90   20.80
   2   7   1   -5.50   20.40
  -2   7  -1    8.50   20.80
   2   7   1    5.90   18.00
   2   8  -1    0.40   25.80
   2   8  -1  -22.20   27.40
  -2   8   1   53.29   27.70
   2  -8   1  -24.30   28.20
  -2  -8  -1   -0.50   28.40
   2   8   1  -25.50   25.60
  -2   8  -1    9.90   28.50
   2  -8  -1   63.69   29.40
  -2  -8   1    0.30   26.50
   2  -8  -1   40.00   26.20
   2   8   1  -41.90   28.10
  -2   0   2 3114.99   60.29
   2   0   2 3214.68   65.09
  -2   0  -2 3046.60   60.39
   2   0  -2 2906.91   61.99
  -2   0   2 3064.89   65.59
   2   0   2 2999.50   59.69
   2   0  -2 2865.31   59.29
  -2  -1  -2 1216.28   26.80
  -2   1   2 1163.98   30.20
   2  -1   2 1251.37   31.70
   2  -1   2 1164.28   30.50
  -2   1   2 1191.38   29.60
   2   1  -2 1174.28   27.30
   2   1  -2 1131.89   28.60
  -2  -1  -2 1113.19   28.10
   2   1  -2 1157.98   29.20
   2   1   2 1153.58   31.10
   2   1   2 1148.29   28.80
   2   1   2 1156.68   26.40
   2   1   2 1203.48   30.40
  -2   1  -2 1171.58   30.30
  -2  -1   2 1136.59   28.70
   2  -1  -2 1170.68   30.10
  -2  -1   2 1099.59   26.60
  -2  -1   2 1197.68   31.40
  -2   2   2 4440.86   91.09
  -2   2   2 4427.76   88.99
   2  -2   2 4233.58   85.79
   2  -2   2 4324.37   89.09
  -2   2   2 4151.48   88.89
   2   2  -2 4336.67   86.99
   2  -2   2 4569.14   95.99
   2   2  -2 4367.46   90.69
  -2  -2   2 4460.55   91.39
   2   2   2 4437.06   94.39
   2   2   2 4413.96   85.29
   2  -2  -2 4391.36   92.39
  -2   2  -2 4327.87   91.29
   2  -2  -2 4369.96   88.89
   2   2   2 4484.25   91.79
  -2  -2   2 4404.86   94.59
   2   2   2 4482.65   92.79
  -2   2  -2 4314.77   85.49
  -2   3   2 1277.87   37.80
   2  -3   2 1286.57   31.70
   2   3  -2 1207.98   35.90
   2  -3   2 1250.77   38.90
   2   3  -2 1244.08   35.10
  -2   3   2 1257.17   30.80
  -2  -3  -2 1329.67   38.00
  -2  -3  -2 1246.18   33.80
   2  -3  -2 1230.88   30.90
   2   3   2 1256.77   33.40
  -2  -3   2 1243.88   38.60
  -2   3  -2 1263.67   33.70
  -2  -3   2 1282.27   33.90
   2  -3  -2 1279.77   35.40
   2   3   2 1250.97   38.70
  -2   3  -2 1261.07   38.80
   2  -3  -2 1241.18   37.70
  -2  -4  -2 2756.82   61.69
   2   4  -2 2662.93   66.39
  -2  -4  -2 2750.02   70.79
   2   4  -2 2658.73   68.49
   2   4   2 2697.93   64.19
  -2   4  -2 2666.53   65.49
  -2  -4   2 2703.83   60.59
   2  -4  -2 2776.52   68.39
   2  -5   2  475.95   29.00
  -2  -5  -2  499.25   27.50
   2   5  -2  501.75   27.30
  -2   5   2  531.65   28.20
   2  -5  -2  499.45   26.20
   2  -5  -2  511.35   27.10
  -2   5  -2  528.85   29.00
  -2  -5   2  488.15   29.00
   2   5   2  530.75   28.60
   2   6  -2 1303.67   49.70
  -2  -6  -2 1371.36   51.59
   2   6  -2 1263.97   47.00
   2  -6   2 1293.47   51.79
  -2   6   2 1327.67   49.70
   2  -6  -2 1352.56   50.29
  -2  -6   2 1239.28   54.19
   2  -6  -2 1353.66   49.60
  -2   6  -2 1283.67   46.80
  -2   6  -2 1275.17   50.69
   2   6   2 1333.77   46.20
   2   6   2 1295.27   51.49
  -2   7   2  363.56   34.80
   2  -7   2  287.87   33.00
   2   7  -2  376.16   30.20
  -2  -7  -2  304.87   35.90
   2   7  -2  398.86   31.10
  -2   7  -2  387.06   34.70
  -2   7  -2  329.77   30.50
  -2  -7   2  308.07   35.50
   2   7   2  348.57   30.90
   2   7   2  297.27   31.20
   2  -7  -2  380.46   33.60
   2  -7  -2  350.66   29.70
  -2  -8  -2 1042.00   56.89
   2   8  -2 1063.09   50.09
   2   8  -2  938.31   52.49
   2  -8   2  990.60   54.89
  -2   8   2  930.61   55.29
  -2   8  -2  994.60   55.79
   2  -8  -2  995.20   49.80
   2   8   2  972.30   52.89
  -2   8  -2  888.11   51.99
   2   8   2  999.90   49.30
  -2  -8   2  954.60   56.49
   2   0   3   -1.20    3.90
   2   0  -3    0.50    3.80
  -2   0   3    5.30    3.70
  -2   0  -3   -2.80    3.40
  -2   0   3    2.40    3.70
   2   0   3    4.60    3.60
  -2   1   3   70.79    7.30
   2  -1   3   81.89    7.70
   2   1  -3   63.19    6.50
   2   1  -3   69.29    6.40
  -2  -1  -3   64.19    6.00
  -2   1   3   75.99    7.80
   2   1  -3   60.69    6.90
   2  -1   3   65.89    7.40
   2   1   3   61.49    6.80
   2   1   3   62.79    7.80
  -2   1  -3   67.09    8.00
   2   1   3   72.69    6.90
   2  -1  -3   78.69    7.20
  -2  -1   3   67.89    7.80
  -2  -1   3   55.69    6.70
   2  -2   3  119.79    9.70
   2  -2   3  102.69    7.50
  -2   2   3  108.29    9.20
   2   2  -3  106.59    9.00
   2  -2   3   97.69   10.10
   2   2  -3  104.69    9.00
  -2   2   3   99.39    8.90
   2   2   3   96.49    9.10
   2  -2  -3   94.09    6.80
   2   2   3  103.59    9.70
  -2  -2   3  115.39    9.70
   2   2   3  108.59   10.00
  -2  -2   3  116.19   10.10
   2  -2  -3   99.09    9.40
  -2   2  -3   99.29   10.00
   2   2   3  115.39    8.40
   2  -2  -3  116.89    7.50
  -2   3   3   32.80    9.00
   2  -3   3   27.60    8.70
   2  -3   3   35.10   10.70
  -2   3   3   21.60    6.00
   2   3  -3   28.10    8.10
   2   3  -3   17.50    8.00
   2   3   3   11.00    6.80
   2   3   3   23.70    7.00
  -2   3  -3   31.40   10.10
  -2  -3   3   14.60    5.80
  -2   3  -3   31.20    8.10
  -2  -3   3   26.60    8.10
   2  -3  -3   24.50    8.30
   2   3   3   37.20    9.80
   2   3   3   38.80    9.60
   2  -3  -3   20.40    6.30
   2   4  -3   50.89   12.70
  -2  -4  -3   29.00    7.60
   2  -4   3   37.10    7.90
  -2  -4  -3   40.10   11.90
  -2   4   3   45.30   11.60
   2  -4   3   40.20   11.30
   2   4  -3   33.70   10.60
  -2   4   3   31.00    9.70
  -2   4  -3   36.60   11.00
   2   4   3   47.60   12.90
  -2  -4   3   42.70   11.20
   2  -4  -3   42.40   11.70
   2   4   3   36.10   10.80
  -2  -4   3   37.40   13.90
  -2   4  -3   49.20   11.40
   2  -4  -3   44.40   12.40
   2   5  -3    8.00   13.30
   2   5  -3   16.00   13.10
  -2  -5  -3   22.80   11.30
  -2   5   3    2.50   12.70
  -2  -5  -3   10.20    8.30
   2  -5   3   19.60   12.40
   2  -5  -3   22.70   12.20
   2   5   3    6.00   10.80
   2   5   3   12.20   13.70
  -2  -5   3    4.30   13.20
  -2  -5   3    4.00    8.10
  -2   5  -3   -5.00   13.70
  -2   5  -3   16.80   14.80
   2   6  -3   42.50   16.90
   2   6  -3   21.00   17.40
  -2   6   3   11.80   17.00
   2  -6   3   22.50   17.10
  -2  -6  -3   30.60   16.70
  -2   6  -3   31.80   18.20
   2   6   3   16.20   18.80
  -2   6  -3   49.30   21.60
   2  -6  -3   30.60   15.50
   2  -6  -3   27.40   16.70
  -2  -6   3   19.40   18.30
   2   6   3   31.00   15.10
   2   7  -3    8.50   21.50
  -2  -7  -3   -3.20   20.80
   2   7  -3  -17.70   22.70
   2  -7   3   -7.30   21.40
  -2   7   3   29.40   23.10
   2   7   3   20.00   20.50
   2  -7  -3  -15.50   20.00
   2   7   3    3.20   23.70
   2  -7  -3    3.70   20.70
  -2   7  -3   -0.30   22.50
  -2  -7   3   66.69   24.60
  -2   7  -3    4.70   23.50
  -2   0   4 1853.71   50.29
  -2   0  -4 1918.71   46.40
   2   0   4 1986.40   47.80
   2   0  -4 1905.41   46.10
   2   0   4 1908.31   50.89
   2   0  -4 1945.61   46.00
  -2   1   4 2735.73   66.59
   2  -1   4 2782.52   67.09
  -2  -1  -4 2796.82   61.39
  -2   1   4 2778.32   63.39
   2   1  -4 2778.52   61.69
   2   1  -4 2779.32   62.29
   2  -1   4 2838.72   65.99
  -2  -1   4 2811.62   68.09
  -2  -1   4 2803.72   61.79
  -2   1  -4 2854.01   64.59
   2   1   4 2729.93   59.89
   2  -1  -4 2796.62   63.89
   2   1   4 2852.31   64.09
   2   1   4 2793.12   68.29
  -2   2   4  830.72   28.60
   2  -2   4  846.92   29.80
   2  -2   4  802.12   28.40
   2   2  -4  851.21   26.80
  -2   2   4  838.22   28.30
   2   2  -4  835.62   27.40
  -2  -2   4  830.42   29.40
   2   2   4  854.41   26.60
  -2   2  -4  875.51   30.40
   2  -2  -4  822.42   29.20
   2   2   4  853.61   30.20
   2   2   4  838.02   27.60
  -2  -2   4  827.12   28.50
   2   2   4  808.82   28.30
  -2   3   4 1972.60   51.39
   2   3  -4 2011.70   52.09
   2  -3   4 2034.50   52.99
   2  -3   4 2005.40   61.69
   2   3  -4 2078.79   53.89
  -2  -3   4 2008.00   53.79
   2  -3  -4 2035.20   48.40
  -2   3  -4 2021.60   46.10
   2   3   4 2059.59   54.99
   2   3   4 2006.50   54.69
   2  -3  -4 2074.09   61.69
  -2  -3   4 2091.49   57.69
   2   3   4 2051.89   56.89
   2   3   4 2032.30   51.19
   2  -4   4  645.74   32.50
  -2   4   4  660.73   25.10
   2   4  -4  625.34   28.40
   2  -4   4  661.83   25.80
  -2  -4   4  675.33   26.30
  -2   4  -4  615.54   30.30
   2  -4  -4  650.63   25.20
  -2  -4   4  636.84   31.10
   2  -4  -4  673.33   30.20
  -2   4  -4  636.24   24.20
   2   4   4  696.03   27.60
   2   4   4  636.44   30.90
   2   5  -4 1821.02   55.69
   2  -5   4 1855.01   62.79
  -2  -5  -4 1911.21   51.09
   2   5  -4 1845.72   56.99
   2  -5   4 1833.22   49.20
  -2   5   4 1827.32   47.60
  -2   5   4 1883.51   59.19
  -2  -5  -4 1864.21   57.69
  -2   5  -4 1919.31   52.79
  -2   5  -4 1869.21   60.89
   2   5   4 1834.52   53.89
   2  -5  -4 1935.41   57.79
   2  -5  -4 1836.02   59.49
  -2  -5   4 1845.82   63.29
   2   5   4 1866.21   61.69
  -2  -5   4 1827.12   50.19
  -2   6   4  632.34   36.30
   2  -6   4  624.24   38.90
   2   6  -4  551.34   32.30
   2   6  -4  599.64   35.70
  -2  -6  -4  606.94   35.80
   2  -6  -4  642.44   33.70
   2  -6  -4  625.34   34.30
  -2   6  -4  617.94   31.70
   2   6   4  621.84   31.60
   2   6   4  579.04   36.90
  -2   6  -4  597.84   36.90
  -2  -6   4  579.84   39.00
   2   7  -4  958.10   46.20
  -2  -7  -4  944.41   48.20
   2   7  -4  904.21   46.00
  -2   7   4 1034.60   50.29
   2  -7   4  899.41   56.19
  -2   7  -4  946.61   50.79
   2  -7  -4  900.61   46.60
   2   7   4  879.31   42.60
   2  -7  -4  965.00   50.69
  -2   7  -4  929.11   43.50
   2   0   5    2.10    5.90
  -2   0   5   -4.00    5.60
   2   0  -5    6.10    6.30
   2   0   5    2.00    6.30
   2   0  -5   -4.50    5.60
  -2   0  -5    8.30    5.90
  -2  -1  -5    1.30    5.90
  -2   1   5    3.00    6.30
   2  -1   5    6.30    6.20
   2   1  -5   -3.80    6.10
  -2  -1  -5    5.80    6.20
   2   1  -5    2.50    7.00
  -2   1   5    5.30    6.50
   2  -1   5    9.00    7.30
  -2  -1   5   -0.40    6.00
  -2  -1   5   -4.00    5.90
   2   1   5   -2.80    6.30
  -2   1  -5   -1.80    6.70
   2  -1  -5   -6.50    6.70
   2   1   5   -4.80    6.00
  -2   2   5   -4.10    6.50
   2  -2   5    8.90    7.00
   2   2  -5    9.30    8.30
   2   2  -5    8.10    7.70
   2  -2   5   -2.70    8.10
   2   2   5   -0.40    6.80
   2   2   5    4.30    6.50
   2   2   5   14.80    7.40
  -2  -2   5    0.80    6.60
  -2  -2   5    5.20    8.00
   2  -2  -5   -9.70    7.90
   2  -3   5   58.29   16.20
   2  -3   5   53.89   14.40
  -2   3   5   49.60   12.40
   2   3  -5   53.19   12.00
  -2  -3   5   89.79   15.00
   2   3   5   65.89   13.50
   2   3   5   48.60   14.20
   2  -3  -5   55.59    9.90
  -2   3  -5   85.49   14.20
  -2  -3   5   58.89   13.10
   2  -3  -5   63.49   12.30
   2   3   5   55.69   14.20
  -2   4   5    7.60    9.40
   2  -4   5   11.60   13.20
   2   4  -5   18.90   11.40
  -2  -4  -5   -9.30   11.00
   2  -4   5   -1.60    9.90
  -2   4   5   -4.80   10.70
   2  -4  -5    3.00    9.30
   2   4   5    8.00   10.50
   2   4   5    5.30   10.20
   2   4   5   10.60   14.00
  -2   4  -5   22.80   11.90
  -2  -4   5    5.80   13.90
  -2  -4   5   13.50   10.60
   2  -4  -5    5.60   12.30
  -2   4  -5   -4.90   12.40
  -2  -5  -5   36.70   12.30
   2   5  -5   35.00   16.00
  -2   5   5   27.50   11.20
   2  -5   5   46.90   17.60
  -2  -5  -5   21.20   14.00
   2  -5   5   31.80   13.30
   2   5  -5   52.69   17.90
  -2   5   5   36.50   14.70
  -2   5  -5   45.30   17.10
   2   5   5   42.70   19.30
   2  -5  -5   36.20   15.70
  -2  -5   5   45.10   17.50
   2  -5  -5   90.89   20.30
  -2   5  -5   68.19   18.20
   2   5   5   34.10   14.00
   2   6  -5   21.20   20.40
  -2   6   5   13.30   18.70
   2  -6   5    2.60   22.40
  -2  -6  -5   12.50   18.70
   2   6  -5   -5.70   20.80
  -2   6  -5  -13.70   21.80
   2  -6  -5   15.20   19.30
  -2  -6   5    7.50   20.50
   2   6   5   28.20   18.00
   2  -6  -5    4.40   17.60
   2   6   5   21.50   22.00
  -2   6  -5  -22.50   19.30
  -2   7   5   96.89   27.10
   2  -7   5   63.69   29.80
   2   7  -5   62.09   26.40
  -2  -7  -5   44.50   26.00
   2   7  -5   41.30   28.50
   2   7   5   31.80   22.60
   2  -7  -5   56.99   25.30
  -2   7  -5   66.29   27.20
  -2  -7   5   57.79   27.60
   2   7   5   80.89   32.00
   2  -7  -5   31.80   25.30
   2   0  -6   22.10    7.70
  -2   0  -6   16.60    7.90
   2   0   6   42.80   12.90
  -2   0   6   27.50    8.20
   2   0   6    6.40    7.90
   2   0  -6   10.80    8.10
  -2  -1  -6 2507.25   55.69
   2  -1   6 2430.16   67.19
   2   1  -6 2443.36   58.49
   2   1  -6 2397.66   61.99
  -2   1   6 2395.66   61.99
  -2  -1  -6 2317.17   64.89
   2  -1   6 2453.75   62.99
  -2   1   6 2408.46   66.79
   2   1   6 2462.65   60.79
   2  -1  -6 2432.76   60.39
   2   1   6 2380.36   67.39
  -2  -1   6 2463.85   57.99
  -2  -1   6 2471.55   67.79
  -2   1  -6 2436.46   63.79
   2   2  -6   -0.90    8.90
  -2  -2  -6    0.80    8.20
  -2   2   6   14.30    8.60
  -2  -2  -6   20.10    9.90
   2  -2   6   27.30    9.80
  -2   2   6    4.30    8.90
   2   2  -6   22.30   10.30
  -2  -2   6   12.40    9.60
  -2  -2   6   57.59   14.60
   2   2   6   -6.60    8.30
  -2   2  -6   54.89   12.90
  -2  -3  -6 2760.82   72.99
  -2   3   6 2885.31   75.69
   2  -3   6 2854.61   78.69
   2  -3   6 2868.01   75.89
  -2   3   6 2795.82   74.59
   2   3  -6 2881.51   74.29
   2   3  -6 2887.41   69.19
  -2  -3   6 2879.51   76.39
   2   3   6 2923.01   78.09
   2   3   6 2862.01   71.49
   2  -3  -6 2812.12   75.19
  -2   3  -6 2944.51   77.59
   2   3   6 2998.80   74.39
   2  -4   6  -14.40   12.50
  -2  -4  -6   19.30   13.90
   2  -4   6    6.80   16.40
  -2   4   6    6.70   12.60
   2   4  -6   19.00   13.30
   2   4  -6   19.20   13.70
  -2  -4  -6   28.60   12.60
   2   4   6   11.50   12.00
   2  -4  -6   -2.60   13.40
   2   4   6   -0.60   12.00
  -2   4  -6   19.20   14.10
  -2   4  -6   23.50   12.30
   2  -4  -6    2.50   11.20
  -2  -5  -6 1597.34   53.79
   2   5  -6 1542.25   50.79
   2  -5   6 1600.44   51.19
   2  -5   6 1577.64   59.79
  -2   5   6 1549.05   50.49
   2   5  -6 1612.14   55.09
  -2   5   6 1592.74   55.99
  -2   5  -6 1660.23   47.70
   2  -5  -6 1641.74   49.50
  -2  -5   6 1603.24   52.29
   2  -5  -6 1537.95   55.79
  -2   5  -6 1654.13   59.29
   2   5   6 1594.34   51.89
   2   5   6 1479.25   53.29
  -2  -5   6 1546.35   59.59
  -2   6   6   15.70   22.40
   2  -6   6   30.80   24.10
   2   6  -6   16.60   23.50
  -2  -6  -6   63.59   23.40
  -2  -6  -6   43.40   20.60
   2   6  -6   18.30   23.50
   2   6   6   18.20   20.30
  -2   6  -6   15.50   24.10
  -2  -6   6  -40.20   23.60
   2  -6  -6   35.40   22.50
  -2   0   7    8.80    9.30
   2   0   7    1.40    9.70
   2   0  -7   -5.10    9.00
   2   0   7    2.90    9.60
  -2   0  -7    3.80    9.20
   2   0  -7   -4.00   10.40
  -2  -1  -7   -3.70    9.70
   2   1  -7   13.00   11.10
  -2  -1  -7   14.60    9.40
   2   1  -7   18.20   10.20
  -2   1   7    8.30    9.90
   2  -1   7   10.70   10.30
   2   1   7   -4.80   10.00
  -2  -1   7   15.40    9.40
  -2   1  -7    1.10   10.60
   2  -1  -7   12.30    9.20
   2   1   7    4.70    9.50
  -2  -1   7   12.90   10.00
  -2  -2  -7    3.40   11.30
  -2   2   7   21.30   10.40
   2   2  -7    2.30   11.50
  -2   2   7   -1.30   10.20
   2  -2   7   13.70   12.30
   2  -2   7   16.70   11.00
   2   2  -7   31.80   12.80
  -2  -2  -7   12.30    9.90
  -2  -2   7   24.90   13.00
   2  -2  -7    0.70   11.10
   2   2   7   18.00   11.60
   2   2   7   -3.00   11.60
  -2  -2   7   -4.40   10.30
  -2   2  -7   -3.10   10.80
   2  -3   7  -11.90   12.10
   2   3  -7  -10.60   13.10
  -2   3   7   -2.20   11.80
  -2  -3  -7  -15.70   13.20
   2  -3   7   11.00   14.50
  -2   3   7  -19.50   12.10
   2   3  -7   10.70   12.60
   2  -3  -7   10.00   13.30
   2   3   7   -1.90   12.40
  -2   3  -7   11.50   13.90
   2   3   7   -0.30   12.70
  -2  -3   7   18.10   12.90
  -2  -3   7  -25.60   14.40
   2  -4   7  -18.80   14.50
  -2  -4  -7   -8.10   13.90
   2   4  -7   27.20   16.50
  -2  -4  -7    8.70   15.60
   2   4  -7   20.70   15.70
  -2   4   7    9.90   15.40
   2  -4   7    8.60   17.80
  -2   4   7    6.50   13.20
   2   4   7   21.70   14.00
   2  -4  -7   -8.10   15.60
  -2  -4   7  -18.50   14.40
  -2  -4   7  -13.00   17.60
  -2   4  -7    6.70   16.30
   2   4   7   16.90   14.10
   2   5  -7  -25.00   18.80
  -2   5   7   11.50   15.80
   2  -5   7   -2.10   17.50
  -2  -5  -7  -22.30   19.40
  -2  -5  -7  -19.00   17.20
   2   5  -7   -8.50   20.60
  -2   5   7   31.20   19.60
   2  -5   7  -25.80   22.90
  -2   5  -7    3.20   21.10
  -2  -5   7   -4.20   22.90
   2  -5  -7  -19.60   19.50
  -2  -5   7    6.80   17.60
   2   5   7   -0.20   17.30
   2   5   7    2.00   17.20
   2   6  -7  -28.30   26.40
  -2   6   7   -1.90   24.20
   2   6  -7  -23.10   26.50
   2  -6   7  -12.10   28.70
  -2  -6  -7    9.30   23.90
  -2   6  -7    1.70   27.00
   2  -6  -7  -23.00   23.60
  -2  -6   7  -20.90   29.40
   2   6   7  -24.50   22.30
   2   0  -8  379.06   24.80
  -2   0  -8  411.06   25.10
   2   0   8  467.65   29.30
  -2   0   8  396.36   28.90
  -2  -1  -8 1638.54   43.60
  -2  -1  -8 1786.12   54.99
   2   1  -8 1780.72   48.90
   2  -1   8 1775.72   53.69
   2   1  -8 1708.13   54.19
   2  -1   8 1736.43   59.79
  -2   1   8 1796.82   60.59
  -2  -1   8 1751.02   61.19
   2  -1  -8 1703.03   53.79
   2  -1  -8 1771.62   50.49
  -2  -1   8 1660.33   46.50
   2   1   8 1757.52   60.49
  -2   1  -8 1757.72   56.59
  -2   2   8  348.07   24.70
   2  -2   8  376.86   28.50
   2   2  -8  297.17   24.90
  -2  -2  -8  342.87   21.70
   2  -2   8  365.16   25.70
  -2  -2  -8  379.16   24.70
   2   2  -8  388.76   23.20
  -2   2   8  361.06   27.60
  -2  -2   8  333.57   24.00
  -2  -2   8  363.26   29.40
  -2   2  -8  345.77   25.90
   2   2   8  280.47   28.00
   2  -2  -8  386.86   22.10
   2  -3   8 1306.77   50.59
   2   3  -8 1283.17   43.60
   2  -3   8 1269.57   51.19
  -2  -3  -8 1362.36   46.80
  -2   3   8 1327.97   51.59
  -2   3   8 1259.47   48.50
  -2  -3  -8 1295.47   43.80
   2   3  -8 1393.96   49.10
   2   3   8 1289.77   53.49
   2  -3  -8 1322.07   47.00
  -2  -3   8 1368.06   54.19
   2   3   8 1371.46   46.80
  -2   3  -8 1291.07   50.79
  -2  -3   8 1277.87   49.30
  -2   4   8  341.17   29.60
   2   4  -8  348.97   25.20
  -2  -4  -8  323.67   28.20
  -2   4   8  301.37   29.40
   2   4  -8  307.87   29.80
   2  -4   8  332.97   31.10
   2  -4   8  253.47   31.80
  -2  -4  -8  321.17   26.20
  -2  -4   8  229.88   32.00
   2  -4  -8  317.27   27.20
   2   4   8  363.26   32.60
  -2   4  -8  313.77   31.60
   2   4   8  349.87   28.70
  -2  -4   8  339.47   32.30
   2   5  -8 1280.47   53.49
  -2   5   8 1249.68   51.39
  -2  -5  -8 1196.38   51.39
  -2   5   8 1264.77   56.09
  -2  -5  -8 1219.18   50.09
   2  -5   8 1139.09   51.59
   2  -5   8 1091.39   56.49
   2   5   8 1311.17   50.99
   2   5   8 1188.78   53.69
  -2  -5   8 1164.98   58.49
  -2  -5   8 1291.17   53.09
   2  -5  -8 1186.28   51.39
  -2   5  -8 1312.57   55.59
  -2   0  -9   18.80   15.10
   2   0   9   -9.40   14.50
   2   0  -9  -16.20   15.30
  -2   0   9    1.60   14.20
   2   0  -9   16.10   14.60
   2   0   9   10.20   15.00
  -2  -1  -9   21.20   14.30
   2   1  -9  -13.10   15.30
  -2   1   9    0.90   15.80
   2  -1   9   16.50   17.00
   2  -1   9   13.90   15.50
   2   1  -9   14.90   16.00
   2   1   9   16.40   15.00
   2   1   9   16.40   14.50
   2  -1  -9   15.30   15.10
  -2  -1   9   -3.70   15.80
  -2   1  -9   -5.00   16.00
   2  -1  -9   23.40   15.60
  -2  -2  -9   28.80   16.50
   2  -2   9   31.80   17.00
  -2   2   9   85.09   26.90
   2   2  -9   16.30   17.40
  -2  -2  -9   56.29   17.40
   2   2  -9   48.80   17.10
   2  -2   9   24.50   18.80
  -2  -2   9   38.40   17.30
  -2   2  -9   11.10   17.40
   2  -2  -9   57.09   19.10
  -2  -2   9   25.10   16.40
   2   2   9   41.80   18.00
   2   2   9   56.99   17.60
   2  -2  -9   51.09   16.70
  -2  -3  -9   79.79   23.50
  -2   3   9  -18.40   17.30
  -2  -3  -9    3.60   18.40
   2  -3   9  -10.60   21.10
   2   3  -9   29.40   18.80
   2  -3   9  -38.20   17.70
  -2   3   9  -16.50   17.60
   2   3   9   10.80   18.70
  -2  -3   9    9.60   18.40
  -2   3  -9  -28.90   19.30
   2  -3  -9   29.80   18.90
  -2  -3   9   39.10   21.40
  -2  -4  -9  -23.00   19.80
   2   4  -9  -45.30   22.40
  -2   4   9   28.90   20.90
  -2   4   9    9.90   21.60
   2  -4   9  -16.60   21.60
  -2  -4  -9  -37.80   23.30
   2  -4   9   22.10   26.30
  -2  -4   9  -23.10   21.30
  -2  -4   9    0.00   25.90
   2  -4  -9   19.90   22.50
   2   4   9   -5.80   21.10
  -2   4  -9   26.20   23.10
   2   0 -10  785.62   40.10
  -2   0  10  807.12   47.00
   2   0  10  815.92   46.20
   2   0  10  815.72   38.50
   2   0 -10  795.12   34.30
  -2   0 -10  798.72   40.60
   2  -1  10  470.25   38.70
  -2  -1 -10  444.46   32.00
   2  -1  10  470.15   32.90
   2   1 -10  515.05   34.40
  -2   1  10  493.75   40.30
   2  -1 -10  450.75   29.70
   2  -1 -10  517.15   33.40
  -2   1 -10  474.75   33.70
   2   1  10  437.96   39.30
  -2  -1  10  450.55   40.20
   2  -2  10  993.70   54.49
   2  -2  10  926.11   46.50
  -2   2  10  965.90   53.19
  -2  -2 -10 1058.89   48.50
  -2   2 -10 1071.89   48.70
   2  -2 -10 1041.90   46.80
   2   2  10  988.70   54.09
   2  -2 -10 1027.50   41.30
  -2  -3 -10  607.04   37.70
   2   3 -10  586.14   38.30
   2  -3  10  621.64   43.20
   2  -3 -10  564.74   35.10
  -2   3 -10  549.95   42.00
   2  -3 -10  443.06   36.20
  -2  -3  10  534.55   46.90
   2   0  11   -6.00   23.90
   2   0 -11   47.80   23.70
  -2   0 -11  -39.10   22.70
  -2   0  11  -21.90   23.50
   2   1 -11   28.90   24.50
  -2   1  11  -25.20   24.50
   2  -1  11   33.20   24.70
  -2  -1 -11    0.00   23.70
  -2   1 -11   27.80   24.20
  -2  -1  11  -42.00   24.90
   2   1  11   25.60   25.10
   2  -1 -11   19.80   24.10
  -3   0   0   -8.00    3.00
  -3   0   0   -8.00    2.30
   3   0   0   -5.90    2.80
   3   0   0   -6.60    2.60
  -3   0   0   -9.30    3.70
   3   0   0   -7.40    2.50
  -3   0   0   -3.90    3.00
  -3  -1   0 7526.95  146.79
   3  -1   0 7524.45  144.79
  -3   1   0 7341.27  144.79
   3  -1   0 7273.37  139.39
   3   1   0 7310.87  141.39
   3   1   0 7437.86  146.39
  -3   1   0 7452.15  139.79
   3  -1   0 7182.28  144.09
   3  -2   0   -0.70    4.00
  -3  -2   0   -3.40    3.70
  -3  -2   0  -11.70    3.80
  -3   2   0    2.80    5.70
   3  -2   0    5.80    4.80
   3   2   0   -3.70    4.60
   3   2   0   -3.60    4.40
   3  -2   0   -1.80    4.50
   3   2   0   -4.80    2.90
   3   3   0 2649.73   66.59
  -3  -3   0 2837.12   63.59
   3  -3   0 2854.61   67.49
   3  -3   0 2832.62   65.09
   3   3   0 2759.12   59.49
  -3   3   0 2887.71   70.19
  -3  -4   0    1.80    5.90
   3  -4   0   -9.80    8.50
   3   4   0  -10.10    7.20
   3  -4   0    6.30    8.10
   3   5   0 3273.17   86.59
   3  -5   0 3363.96   86.29
  -3   5   0 3330.07   87.99
   3   5   0 3275.57   78.29
   3  -5   0 3349.47   83.59
  -3  -5   0 3256.37   88.19
   3  -6   0  -10.10   16.30
   3  -6   0   24.80   15.30
  -3   6   0   25.40   17.00
   3   6   0    2.70   17.00
   3   6   0   -5.90   13.90
  -3  -6   0   -3.50   15.00
  -3   7   0 1658.03   63.59
  -3  -7   0 1499.05   62.09
   3   7   0 1529.15   54.29
   3  -7   0 1560.84   60.59
   3   7   0 1562.34   59.99
   3  -7   0 1630.04   58.09
  -3  -8   0    4.30   28.40
   3   8   0   37.80   25.60
   3  -8   0   -9.70   27.00
   3  -8   0   39.20   26.90
  -3   8   0  -37.70   28.30
   3   8   0   -6.00   29.30
  -3   0   1   -2.60    2.50
  -3   0   1   -4.70    3.20
   3   0  -1   -4.30    3.40
  -3   0  -1   -1.30    3.40
  -3   0  -1   -1.20    2.80
  -3   0   1   -2.60    2.20
   3   0   1   -4.10    2.70
   3   0   1   -3.30    2.80
   3   0   1   -2.10    3.10
   3   0  -1   -0.70    2.40
  -3   0  -1   -3.00    3.10
   3   0  -1   -4.10    2.40
   3   1  -1   26.90    5.20
   3   1  -1   22.20    3.20
   3  -1   1   19.00    3.70
   3   1  -1   28.70    5.20
  -3   1   1   30.10    5.10
  -3  -1  -1   24.90    6.10
  -3   1   1   22.50    5.70
   3   1  -1   22.00    3.10
   3  -1   1   28.40    5.70
  -3   1   1   17.70    5.10
  -3  -1   1   15.30    6.00
   3  -1  -1   26.60    4.40
   3  -1  -1   16.60    4.70
  -3   1  -1   22.90    4.20
  -3   1  -1   21.30    5.90
   3   1   1   32.70    5.30
   3   1   1   24.30    4.90
  -3   1  -1   22.30    5.90
  -3   2   1   55.99    8.50
  -3   2   1   44.30    6.80
   3   2  -1   45.70    6.90
  -3  -2  -1   55.59    7.80
   3   2  -1   54.29    6.10
   3  -2   1   53.89    7.60
  -3  -2  -1   53.29    6.20
   3  -2   1   50.59    6.40
   3   2   1   59.89    7.50
  -3  -2   1   67.39    7.90
   3   2   1   50.49    6.90
  -3   2  -1   74.49    9.50
  -3  -2   1   58.59    6.40
   3  -2  -1   60.69    7.30
  -3  -2   1   47.80    7.30
   3  -2  -1   54.79    7.10
   3   2   1   57.29    5.00
   3  -2  -1   59.39    7.10
  -3   2  -1   53.79    7.60
  -3  -3  -1    1.40    6.50
   3   3  -1   -4.90    6.50
   3  -3   1   -1.60    5.80
   3   3  -1   -2.80    5.80
  -3   3   1    2.90    4.10
  -3   3   1   -4.60    7.30
   3  -3   1    9.00    6.60
  -3  -3  -1    2.90    5.50
  -3   3  -1    2.90    4.80
   3  -3  -1    3.30    6.70
   3  -3  -1    5.50    5.10
   3   3   1   -6.60    7.10
  -3  -3   1   -6.30    4.90
  -3  -3   1    2.80    5.80
  -3   3  -1    7.70    4.70
   3   3   1   -2.90    4.70
   3  -3  -1    5.50    5.80
  -3   3  -1   -1.70    7.80
  -3  -4  -1   -4.50    6.40
   3   4  -1    8.30    8.30
   3  -4   1   14.90    8.40
   3   4   1    2.30    6.70
   3   4   1   -0.80   10.30
  -3   4  -1    2.90    8.90
  -3  -4   1    6.30    6.20
   3  -4  -1    2.20    8.00
   3  -4  -1    6.60    9.10
  -3   4  -1   20.50   11.20
   3   5  -1    0.10   11.90
  -3   5   1  -11.70   13.20
   3   5  -1   18.70   13.00
   3  -5   1    2.60   11.40
  -3  -5  -1    4.70   11.20
  -3  -5   1   -2.70    7.20
  -3   5  -1    2.30   11.60
   3   5   1  -13.00    9.80
  -3   5  -1  -10.40   13.10
   3  -5  -1   19.80   11.10
  -3  -5   1    6.60   12.10
   3   5   1    5.70   12.80
   3  -5  -1   17.40   11.90
   3  -6   1    0.10   14.60
   3   6  -1   16.80   16.70
  -3  -6  -1   15.70   14.80
  -3   6   1   14.30   18.20
   3   6  -1   12.00   14.70
   3  -6  -1   27.20   15.30
   3   6   1   14.00   16.10
   3   6   1    8.30   13.60
  -3  -6   1    1.60   16.60
  -3   6  -1   16.20   16.20
  -3   6  -1    7.00   16.00
   3  -6  -1   13.90   15.60
   3   7  -1   -3.30   18.90
  -3   7   1  -24.60   23.20
  -3  -7  -1   24.60   20.60
   3  -7   1   19.00   19.80
   3  -7   1   33.40   20.90
   3   7  -1    6.30   21.70
  -3  -7   1    4.60   20.50
   3   7   1   -9.60   18.60
   3   7   1   26.80   22.00
   3  -7  -1   27.20   21.10
   3  -7  -1   29.20   20.50
  -3  -8  -1   76.99   27.70
   3  -8   1   -1.30   28.30
  -3   8   1   43.40   27.80
   3   8  -1   18.30   30.10
   3   8  -1   15.50   26.60
  -3  -8   1  -35.20   29.90
   3   8   1   18.40   28.00
   3   8   1  -25.30   25.40
   3  -8  -1   45.30   26.50
   3  -8  -1  -20.50   29.60
  -3   0  -2  269.37    8.70
  -3   0   2  269.27    8.30
  -3   0  -2  274.87   10.80
   3   0   2  263.27    9.10
  -3   0   2  272.37   13.00
   3   0  -2  264.87   11.70
   3   0   2  288.37   12.50
   3   0   2  270.27   13.40
  -3   0   2  257.67   10.20
   3   1  -2 2384.76   48.90
  -3  -1  -2 2505.65   48.50
   3  -1   2 2458.05   56.39
  -3  -1  -2 2444.86   57.39
  -3   1   2 2392.06   52.69
   3   1  -2 2247.98   48.10
  -3   1   2 2470.05   56.09
   3   1  -2 2375.96   53.99
  -3  -1  -2 2376.36   48.00
   3  -1   2 2446.86   56.09
   3  -1  -2 2355.16   54.19
  -3   1  -2 2294.47   53.09
  -3  -1   2 2416.66   53.39
   3   1   2 2300.47   51.79
  -3  -1   2 2478.65   57.29
   3   1   2 2487.95   55.99
   3   2  -2  876.41   24.00
  -3  -2  -2  855.01   27.70
  -3   2   2  804.12   23.30
  -3   2   2  892.41   26.10
   3  -2   2  931.91   29.50
   3  -2   2  897.11   22.80
   3  -2   2  887.71   23.30
  -3   2   2  924.51   28.60
   3   2  -2  856.21   27.20
  -3  -2   2  906.11   28.30
  -3  -2   2  840.32   27.40
   3  -2  -2  883.81   23.60
   3  -2  -2  903.61   28.50
   3   2   2  883.41   22.50
  -3   2  -2  903.81   29.30
   3   2   2  899.21   28.40
   3   2   2  874.91   27.90
  -3   3   2 3764.52   77.89
   3   3  -2 3689.43   83.99
  -3   3   2 3695.83   84.89
   3  -3   2 3761.82   88.29
   3   3  -2 3613.34   78.29
  -3  -3  -2 3774.82   82.89
   3  -3  -2 3715.43   81.39
  -3   3  -2 3687.53   86.29
   3  -3  -2 3748.53   85.39
   3   3   2 3744.93   87.79
   3   3   2 3650.93   75.69
   3   3   2 3726.43   86.19
  -3   3  -2 3725.63   79.29
  -3  -3   2 3773.82   82.29
  -3  -3   2 3678.73   87.49
  -3  -4  -2  888.91   37.20
   3  -4   2  974.10   37.00
  -3   4   2  966.90   36.10
  -3  -4  -2  956.60   30.40
   3   4  -2  972.60   32.30
  -3  -4   2  964.30   29.90
   3   4   2  958.00   36.80
   3  -4  -2  969.50   32.60
  -3   4  -2  958.90   31.40
  -3   4  -2  968.80   37.60
   3   4   2  949.31   29.90
   3  -4  -2  947.01   34.40
  -3  -4   2  902.01   36.30
  -3   5   2 2009.10   61.79
  -3  -5  -2 1991.30   60.99
   3   5  -2 1917.61   55.49
   3  -5   2 1932.71   61.79
  -3  -5  -2 2089.19   50.69
   3   5  -2 1919.01   59.49
  -3  -5   2 1959.10   48.90
  -3   5  -2 1972.20   62.19
  -3  -5   2 1911.31   63.29
   3   5   2 1986.60   62.09
   3  -5  -2 1955.40   59.89
   3   5   2 2044.10   53.79
   3  -5  -2 1949.60   58.59
   3  -6   2  588.34   34.00
  -3  -6  -2  556.44   34.00
   3   6  -2  580.24   33.30
   3   6  -2  547.55   30.50
  -3   6   2  601.14   34.50
   3  -6  -2  568.34   32.10
  -3   6  -2  606.74   30.70
   3   6   2  539.85   33.30
   3   6   2  572.14   28.80
   3  -6  -2  556.74   31.40
  -3  -6   2  540.35   35.10
  -3   6  -2  559.94   34.10
   3   7  -2 1227.88   48.20
  -3   7   2 1208.58   54.59
   3   7  -2 1179.18   52.09
   3  -7   2 1201.08   54.19
  -3  -7  -2 1300.97   55.19
   3  -7  -2 1254.67   52.49
   3   7   2 1179.98   53.89
   3   7   2 1188.08   47.40
  -3   7  -2 1216.78   55.39
   3  -7  -2 1251.87   51.99
  -3  -7   2 1098.39   57.19
  -3   0   3    0.90    3.80
  -3   0   3   -3.90    4.00
   3   0   3   -5.90    4.30
   3   0  -3    0.40    4.20
  -3   0  -3   -1.80    4.20
   3   0   3    6.00    4.90
   3   1  -3  131.29    8.70
   3  -1   3  137.89   11.00
  -3  -1  -3  119.99    7.90
  -3   1   3  133.29   10.20
  -3   1   3  138.69    9.30
   3  -1   3  140.39   10.00
   3   1  -3  127.89    9.40
   3   1   3  131.99   10.50
   3   1   3  128.39    8.90
  -3   1  -3  144.19   10.50
  -3  -1   3  115.39    8.50
  -3  -1   3  125.69   10.50
   3   1   3  130.09    9.80
   3  -1  -3  130.39    9.40
   3   2  -3   46.50    8.00
  -3   2   3   22.80    5.90
   3  -2   3   41.30    9.00
  -3   2   3   23.30    6.20
   3  -2   3   19.60    5.80
   3   2  -3   35.00    7.60
   3   2   3   38.10    8.70
   3  -2  -3   37.70    7.70
  -3  -2   3   17.20    6.30
  -3  -2   3   29.60    7.10
   3   2   3   26.50    8.00
  -3   2  -3   29.30    7.80
   3   2   3   53.09    9.70
   3   2   3   37.20    6.80
  -3  -3  -3    2.50    6.00
   3  -3   3   -0.60    6.30
   3  -3   3    3.70    7.60
  -3   3   3    4.90    7.60
   3   3  -3   10.80    7.40
  -3   3   3    5.20    5.50
   3   3  -3   16.10    8.90
   3  -3  -3   12.20    6.10
  -3  -3   3   16.70    8.20
   3   3   3   17.50   10.40
   3  -3  -3    9.70    7.90
   3   3   3    4.00    6.10
   3   3   3    8.30    7.10
  -3   3  -3    2.80    8.80
  -3  -3   3    7.80    6.10
  -3   4   3   -5.40    6.10
  -3   4   3    0.60    9.90
  -3  -4  -3   -7.80    9.10
   3  -4   3    6.30   11.00
   3   4  -3    7.90   11.30
  -3  -4  -3   -3.50    7.10
   3   4  -3   -4.10    9.20
  -3   4  -3    8.40    9.50
  -3  -4   3    8.80   10.60
   3   4   3    5.70   11.50
  -3   4  -3    7.90   11.00
   3   4   3    8.30    8.20
  -3  -4   3   -5.20    7.30
   3  -4  -3   -9.00   10.00
   3  -4  -3    1.80    8.30
   3   5  -3   40.70   14.20
   3   5  -3   66.19   15.80
  -3  -5  -3   67.99   16.00
  -3  -5  -3   49.10   13.20
   3  -5   3   49.99   14.80
  -3   5   3   45.30   15.90
  -3  -5   3   81.69   20.80
  -3   5  -3   55.99   15.30
   3   5   3   56.49   16.80
   3  -5  -3   67.69   16.00
  -3   5  -3   26.80   15.70
  -3  -5   3   42.80   10.80
  -3  -6  -3   17.30   16.50
  -3   6   3  -17.90   17.90
   3   6  -3  -12.00   16.40
   3  -6   3   -4.80   17.30
   3   6  -3   12.00   19.10
   3   6   3   -8.60   13.70
  -3   6  -3    5.60   17.10
  -3   6  -3  -12.00   18.50
  -3  -6   3   -4.90   19.50
   3   6   3   27.10   20.70
   3  -6  -3   -2.80   15.20
   3  -6  -3   -8.40   16.70
   3   7  -3   -3.50   24.10
   3   7  -3    9.60   22.20
  -3  -7  -3   31.70   22.80
  -3   7   3   24.40   25.50
   3  -7   3   -0.50   22.80
  -3   7  -3   48.10   24.30
   3  -7  -3   11.90   21.60
   3  -7  -3   51.59   20.40
   3   7   3   28.70   20.20
  -3  -7   3   70.99   24.30
   3   7   3    7.20   24.40
  -3   7  -3   77.69   24.90
   3   0   4 2520.05   64.29
   3   0   4 2631.44   61.59
  -3   0   4 2543.55   63.99
   3   0  -4 2478.55   58.79
  -3   0   4 2470.45   57.29
  -3   0  -4 2551.84   58.29
   3   1  -4  934.81   29.20
  -3   1   4  973.30   32.40
  -3  -1  -4  958.20   27.80
   3  -1   4  979.10   31.50
   3   1  -4  966.40   28.80
  -3   1   4  981.80   29.90
   3  -1  -4  904.01   29.00
  -3  -1   4 1013.20   33.70
  -3  -1   4  972.00   27.10
  -3   1  -4  975.20   30.80
   3   1   4  973.70   27.00
   3   1   4  979.50   30.50
   3   1   4  982.10   33.10
   3   2  -4 2297.07   57.39
   3  -2   4 2327.27   60.09
  -3   2   4 2309.77   59.39
  -3   2   4 2344.57   58.89
   3   2  -4 2288.97   55.69
   3  -2   4 2347.27   61.39
   3  -2  -4 2279.97   59.49
   3   2   4 2330.87   57.89
   3   2   4 2452.95   60.09
  -3   2  -4 2391.26   60.19
   3   2   4 2355.26   53.99
   3   2   4 2350.86   61.89
  -3  -2   4 2420.76   59.59
  -3  -2   4 2362.36   61.29
   3  -3   4  511.45   22.40
   3   3  -4  502.35   22.60
  -3   3   4  535.95   24.20
  -3   3   4  514.65   22.10
   3  -3   4  490.55   25.60
   3   3  -4  496.75   22.50
   3  -3  -4  494.95   18.10
   3   3   4  548.95   21.50
  -3  -3   4  514.65   26.00
   3   3   4  549.95   25.30
   3  -3  -4  470.15   24.00
   3   3   4  532.05   24.60
   3   3   4  497.35   23.90
  -3  -3   4  526.45   24.10
  -3   3  -4  473.75   24.20
  -3   4   4 2116.09   62.89
  -3   4   4 2146.09   54.59
  -3  -4  -4 2170.48   61.39
   3  -4   4 2210.08   56.49
   3   4  -4 2156.18   59.39
  -3  -4  -4 2156.88   58.29
   3   4  -4 2122.39   58.79
   3  -4   4 2123.69   64.29
   3  -4  -4 2188.28   63.29
   3   4   4 2205.68   55.79
  -3   4  -4 2172.98   52.39
  -3  -4   4 2220.38   58.99
   3  -4  -4 2134.29   54.79
   3   4   4 2152.78   63.69
  -3  -4   4 2151.98   65.19
  -3   4  -4 2125.19   63.89
   3   5  -4  816.62   35.80
  -3   5   4  897.51   39.60
   3  -5   4  843.42   40.30
  -3  -5  -4  844.12   33.00
  -3  -5  -4  860.01   37.40
   3   5  -4  838.32   35.70
  -3   5   4  834.92   29.60
  -3  -5   4  851.91   41.30
  -3   5  -4  872.91   32.60
   3  -5  -4  856.21   38.50
   3   5   4  849.81   39.70
  -3  -5   4  836.32   32.80
   3  -5  -4  865.51   34.40
   3   5   4  873.21   32.20
  -3   5  -4  851.01   39.90
  -3   6   4 1232.88   53.09
  -3  -6  -4 1371.96   51.89
   3  -6   4 1296.67   55.09
   3   6  -4 1295.57   49.80
   3   6  -4 1236.88   48.50
   3  -6  -4 1228.78   46.40
  -3   6  -4 1307.27   53.39
   3   6   4 1287.27   45.10
  -3   6  -4 1272.07   44.20
   3   6   4 1322.87   55.29
   3  -6  -4 1257.47   51.29
  -3  -6   4 1250.37   54.79
   3   7  -4  483.85   35.80
   3  -7   4  472.15   43.00
   3   7  -4  493.05   37.50
  -3   7   4  486.25   43.60
  -3  -7  -4  512.15   40.30
   3  -7  -4  527.55   38.20
  -3   7  -4  466.45   39.80
  -3   7  -4  533.75   34.50
   3   7   4  502.65   40.70
   3   7   4  522.55   34.10
   3  -7  -4  503.45   36.60
   3   0  -5    3.90    6.00
  -3   0  -5   -2.00    7.10
   3   0   5   -1.70    6.50
   3   0   5   -5.50    6.40
   3   0  -5    5.30    7.10
  -3   0   5    0.40    6.20
   3   1  -5   17.70    8.40
  -3   1   5   11.90    7.10
   3   1  -5   -5.10    6.30
   3  -1   5   10.20    7.00
  -3  -1  -5   11.90    6.80
  -3   1   5    8.50    6.60
   3  -1   5    7.90    6.50
  -3  -1  -5   31.10    8.90
   3  -1  -5   10.90    7.90
  -3  -1   5   13.30    6.80
  -3  -1   5    6.00    6.40
   3   1   5   12.00    6.80
   3   1   5    8.10    7.10
  -3   1  -5   15.80    7.10
   3   2  -5   27.00    8.40
   3   2  -5   32.80   10.20
  -3  -2  -5   36.20   10.00
   3  -2   5   41.60   12.90
  -3   2   5   25.20    9.10
  -3   2   5   31.10    8.30
  -3  -2   5   23.40    8.50
   3   2   5   36.10   10.70
  -3  -2   5   26.30    9.40
   3   2   5   12.40    7.60
   3   2   5   25.70    8.80
  -3   2  -5   33.40   10.70
   3  -3   5  -11.10    8.60
   3   3  -5    0.30   11.50
  -3   3   5   -4.80    7.80
  -3   3   5   -3.50    9.00
   3  -3   5   10.20   11.50
   3  -3  -5  -17.40    9.90
   3   3   5    1.60   12.10
  -3  -3   5    6.30   11.00
  -3   3  -5   13.60   10.30
   3   3   5    1.90    9.70
   3   3   5   -4.40    7.80
   3   4  -5   60.19   16.40
   3  -4   5  -12.60   14.30
   3   4  -5   26.80   12.40
   3  -4   5   18.40   12.00
  -3  -4  -5   -1.20   11.50
  -3   4   5   13.30   11.10
  -3  -4   5   26.10   10.60
   3   4   5   29.30   11.00
  -3  -4   5    1.70   14.90
  -3   4  -5   23.00   10.80
   3  -4  -5   -6.80   12.20
   3   4   5   18.90   15.10
   3  -4  -5   24.60   10.40
  -3   4  -5   33.90   13.60
  -3   5   5   16.90   15.80
   3  -5   5    2.70   16.90
   3   5  -5    9.30   16.30
  -3  -5  -5   -0.80   14.50
   3   5  -5   25.70   16.90
  -3  -5  -5    4.30   11.90
   3  -5   5   17.80   13.60
  -3  -5   5   -7.50   11.90
  -3   5  -5   27.00   18.00
  -3   5  -5   -3.80   14.90
   3  -5  -5   17.40   15.80
   3   5   5    2.90   13.60
  -3  -5   5    1.80   18.60
   3   5   5    7.50   18.60
   3  -5  -5   11.20   13.50
  -3   6   5   34.90   20.60
   3   6  -5   36.70   20.80
   3   6  -5  -10.50   21.80
  -3  -6  -5    8.30   18.00
   3  -6   5   15.80   21.70
   3  -6  -5    7.20   19.00
  -3   6  -5  -17.00   22.30
   3   6   5   -3.90   22.60
   3  -6  -5   -4.90   17.60
   3   6   5   18.90   17.20
  -3   6  -5    9.80   19.40
  -3  -6   5   -8.60   22.50
  -3   7   5   12.30   25.90
  -3  -7  -5   11.50   25.30
   3  -7   5   54.59   28.50
   3   7  -5   -0.60   28.20
   3   7  -5  -12.10   25.70
   3   7   5  -35.60   29.00
   3   7   5   20.70   24.00
  -3   7  -5    3.10   28.50
   3  -7  -5  -13.10   24.40
  -3  -7   5   -5.40   28.00
   3   0  -6 1981.20   53.29
   3   0   6 2109.69   55.59
  -3   0  -6 1982.00   54.69
   3   0  -6 1977.00   52.79
   3   0   6 1995.20   60.89
  -3   1   6   48.60   10.50
   3   1  -6   37.90   11.50
   3   1  -6   34.80   11.10
  -3  -1  -6   44.80    9.30
   3  -1   6   38.60    9.90
  -3   1   6   63.29   11.60
   3  -1  -6   37.50   11.60
  -3  -1   6   73.59   11.60
  -3  -1   6   56.09   13.30
   3   1   6   47.60   12.40
  -3   1  -6   54.99   12.20
   3   1   6   46.60   11.70
   3  -2   6 2827.02   74.49
  -3   2   6 2809.22   72.69
   3  -2   6 2834.12   76.89
  -3  -2  -6 2757.72   67.49
   3   2  -6 2838.52   68.69
  -3   2   6 2776.52   74.69
  -3  -2  -6 2789.22   66.49
   3   2  -6 2829.42   70.69
  -3  -2   6 2845.02   69.99
   3   2   6 2877.51   71.49
  -3   2  -6 2842.92   74.09
   3  -2  -6 2758.62   71.69
  -3  -2   6 2770.82   75.99
   3   2   6 2808.42   76.99
   3  -3   6    7.20   11.20
  -3   3   6   21.90   10.10
   3   3  -6   11.90   11.30
  -3   3   6   19.20   11.70
   3  -3   6   23.20   13.40
   3   3   6    3.20   11.40
   3   3   6   17.00   11.10
  -3   3  -6   10.70   12.00
   3   3   6    0.20    9.80
  -3  -3   6   16.80   10.50
   3  -3  -6   25.30   11.70
  -3   4   6 2246.68   63.39
   3  -4   6 2221.28   70.19
   3   4  -6 2187.68   61.39
   3   4  -6 2213.18   64.19
   3  -4   6 2263.97   64.59
  -3   4   6 2152.08   66.39
  -3   4  -6 2224.38   68.69
   3   4   6 2290.67   67.39
  -3  -4   6 2166.18   68.99
   3   4   6 2248.48   68.29
   3  -4  -6 2245.38   68.49
   3   4   6 2274.07   67.29
  -3  -4   6 2257.87   65.19
   3   4   6 2245.08   61.49
  -3   5   6   25.50   13.90
  -3  -5  -6  -11.60   16.10
   3   5  -6    7.00   17.00
   3  -5   6   24.60   16.30
  -3  -5  -6   -1.20   13.70
   3   5  -6   31.10   19.70
  -3   5   6   -3.00   17.40
   3  -5   6  -20.40   19.00
   3  -5  -6   -8.60   17.90
  -3  -5   6   24.70   20.90
   3   5   6  -22.00   20.60
  -3   5  -6   24.40   18.40
   3   5   6  -10.30   15.40
  -3  -6  -6 1318.27   53.09
   3   6  -6 1310.77   50.79
   3   6  -6 1273.77   54.09
   3   6   6 1305.77   49.99
   3   6   6 1293.87   58.19
  -3  -6   6 1261.67   59.49
   3   0  -7   10.00    9.70
  -3   0   7   -9.70    9.70
   3   0   7  -12.60    9.60
  -3   0  -7    2.80    9.90
  -3  -1  -7   60.89   13.50
  -3   1   7   90.29   17.90
   3   1  -7   64.59   14.40
   3  -1   7   43.70   12.00
  -3  -1  -7   53.99   11.20
   3   1  -7   63.29   14.50
   3  -1   7   53.39   12.60
   3   1   7   51.39   11.90
  -3   1  -7   65.59   16.10
  -3  -1   7   52.39   12.70
   3  -1  -7   67.39   13.30
   3  -1  -7   58.69   14.00
  -3  -1   7   58.19   13.30
   3  -2   7    2.70   11.40
  -3   2   7   49.90   15.10
   3   2  -7    2.20   11.20
  -3  -2  -7   39.80   12.40
  -3  -2  -7   31.10   11.10
   3  -2   7   19.90   13.30
   3   2   7    6.40   11.60
   3   2   7   66.69   16.10
  -3  -2   7   10.00   12.00
   3  -2  -7   42.70   13.60
  -3  -2   7   16.70   12.20
  -3   2  -7   16.30   13.00
  -3   3   7    7.80   13.70
  -3  -3  -7   36.40   13.60
   3   3  -7   -0.60   13.70
   3  -3   7   24.20   14.70
  -3   3   7  -24.60   12.80
  -3  -3  -7  -16.90   11.60
   3  -3   7  -13.20   12.40
  -3  -3   7   10.20   13.00
  -3  -3   7    4.50   15.00
   3  -3  -7  -15.20   13.80
  -3   3  -7   63.99   19.20
   3   3   7   -2.70   14.30
   3   3   7   17.70   13.20
  -3  -4  -7    0.60   15.90
   3  -4   7   -2.70   17.50
  -3   4   7    4.00   16.50
  -3   4   7   16.70   14.20
   3   4  -7   31.00   17.30
   3   4  -7   -4.80   16.30
   3  -4   7   13.60   15.60
  -3  -4   7    9.40   15.00
  -3  -4   7   14.30   19.20
   3   4   7   20.80   14.10
   3   4   7  -13.70   16.50
  -3   4  -7   29.80   19.60
   3  -4  -7   -1.70   15.90
  -3   5   7   18.30   21.30
   3  -5   7   36.30   19.10
  -3  -5  -7    2.20   18.80
   3  -5   7    7.70   23.00
   3   5  -7   23.30   20.60
   3   5  -7    8.00   20.70
  -3   5   7   25.70   16.20
  -3  -5  -7   75.69   24.60
   3  -5  -7   12.70   19.70
  -3  -5   7   -4.40   18.30
  -3   5  -7   51.39   23.20
  -3  -5   7    3.80   24.10
   3   5   7   60.19   18.30
  -3   6   7   47.50   25.30
   3   6  -7   22.30   27.10
   3   6  -7  -34.90   26.30
  -3  -6  -7   16.30   22.70
   3  -6   7   28.50   27.90
   3  -6  -7  -48.10   24.90
   3   6   7    7.70   22.30
  -3   6  -7   21.10   28.10
   3   0  -8 1304.47   45.60
  -3   0   8 1296.67   50.29
   3   0   8 1332.17   52.89
  -3   0  -8 1293.27   46.20
   3   0  -8 1325.97   43.30
   3   0   8 1346.67   44.40
   3  -1   8  280.67   22.80
  -3  -1  -8  278.17   21.80
   3  -1   8  265.27   26.00
  -3   1   8  290.37   25.40
  -3  -1  -8  258.57   16.30
   3   1  -8  325.87   22.70
   3   1  -8  272.27   19.20
  -3  -1   8  273.17   18.50
   3  -1  -8  326.77   23.20
   3   1   8  289.17   23.10
  -3  -1   8  250.77   25.60
  -3   1  -8  273.67   23.40
   3   1   8  283.77   27.00
   3  -1  -8  258.27   20.20
   3   2  -8 1295.07   47.70
  -3  -2  -8 1313.47   45.90
  -3   2   8 1320.77   52.79
   3  -2   8 1291.97   52.39
  -3   2   8 1318.57   47.70
   3   2  -8 1333.67   42.50
  -3  -2  -8 1326.07   41.50
   3  -2   8 1343.57   48.90
  -3  -2   8 1365.36   52.49
  -3   2  -8 1311.67   48.70
  -3  -2   8 1351.36   44.20
   3   2   8 1333.17   45.90
   3  -2  -8 1279.07   44.80
   3   2   8 1391.36   53.29
  -3   3   8  345.17   30.40
  -3   3   8  371.76   27.00
  -3  -3  -8  394.56   25.20
   3  -3   8  346.57   30.80
  -3  -3  -8  361.86   23.70
   3   3  -8  265.47   23.10
   3  -3   8  348.27   29.80
   3   3  -8  298.57   26.50
  -3  -3   8  423.86   31.90
  -3  -3   8  403.96   30.10
   3   3   8  288.07   28.30
   3  -3  -8  359.16   25.90
   3   3   8  340.07   31.40
  -3   3  -8  325.17   27.60
   3  -4   8 1427.36   56.49
  -3   4   8 1464.15   56.69
   3  -4   8 1456.75   56.49
  -3  -4  -8 1488.95   52.29
  -3   4   8 1387.26   54.99
  -3  -4  -8 1467.05   51.99
   3   4  -8 1463.85   54.89
   3   4  -8 1465.35   47.70
  -3   4  -8 1469.45   57.69
   3  -4  -8 1396.86   53.29
   3   4   8 1444.26   54.59
  -3  -4   8 1416.96   57.69
   3   4   8 1477.25   60.09
  -3  -4   8 1419.96   57.29
  -3   5   8  323.57   36.30
  -3  -5  -8  407.36   32.60
  -3  -5  -8  360.36   36.20
   3   5  -8  369.26   36.30
  -3   5   8  429.96   38.10
   3   5  -8  408.06   32.20
   3  -5   8  359.86   39.80
  -3   5  -8  462.15   40.10
  -3  -5   8  361.36   40.30
   3   5   8  313.57   40.30
  -3  -5   8  289.27   43.60
   3   5   8  470.55   34.80
   3   0  -9    9.50   14.50
   3   0  -9   23.20   16.60
  -3   0   9   -7.50   16.10
   3   0   9   25.40   16.10
  -3   0  -9   -2.40   14.90
   3  -1   9   14.80   15.70
   3   1  -9   14.90   15.90
   3  -1   9   19.60   16.40
  -3   1   9   -5.30   16.10
   3   1  -9   24.30   17.10
  -3  -1  -9   28.70   15.80
  -3   1  -9   20.30   15.90
   3  -1  -9    4.00   14.70
   3   1   9  -11.90   16.00
   3  -1  -9   17.90   17.10
  -3   2   9   36.00   17.80
   3  -2   9   19.90   18.90
   3   2  -9    2.50   18.40
  -3  -2  -9   30.10   16.60
   3   2  -9    7.10   18.00
   3  -2   9   -4.40   16.90
   3  -2  -9   23.00   17.70
   3   2   9  -16.60   17.50
   3  -2  -9   -4.30   16.40
   3   2   9   13.70   17.00
  -3   2  -9   12.50   17.40
   3  -3   9   -9.20   21.50
   3  -3   9  -19.20   18.90
   3   3  -9    9.70   19.70
   3   3  -9   -8.90   19.20
  -3   3   9    3.80   18.50
  -3   3   9   -9.10   18.50
  -3   3  -9  -45.10   19.90
  -3  -3   9  -28.90   19.60
   3   3   9   25.80   18.90
  -3  -3   9  -45.50   22.30
   3   3   9    0.50   21.90
   3   4  -9   -4.60   25.50
   3  -4   9   15.30   22.80
   3  -4   9   18.90   26.10
  -3   4   9  -11.00   20.80
  -3  -4  -9   52.59   23.00
  -3   4   9   27.90   21.70
  -3  -4  -9   26.20   19.90
   3  -4  -9    2.70   22.40
   3   4   9  115.49   38.00
  -3   4  -9   17.50   23.90
  -3  -4   9   -4.00   23.00
   3   0  10  374.26   33.00
   3   0 -10  374.76   31.80
   3   0 -10  428.16   28.90
  -3   0  10  431.26   40.90
  -3   0 -10  421.56   32.10
   3   0  10  415.96   40.60
   3  -1  10  834.52   42.70
  -3   1  10  881.81   52.99
  -3  -1 -10  875.11   43.60
   3   1 -10  871.61   36.80
   3   1 -10  922.91   44.80
   3   1  10  797.12   40.50
  -3   1 -10  828.12   45.80
   3  -1 -10  881.51   38.40
   3  -2  10  538.75   38.70
  -3  -2 -10  541.45   35.80
   3  -2 -10  537.15   34.30
  -3   2 -10  504.45   38.30
   3  -2 -10  521.45   33.70
  -3  -2  10  509.05   46.20
   3  -3  10 1024.90   52.49
  -3  -3 -10  995.50   48.70
   3  -3  10 1005.70   57.29
   3   3 -10 1057.59   49.70
  -3   3 -10 1082.49   53.99
   3   3  10 1038.00   55.89
   3  -3 -10 1071.19   48.10
   3  -3 -10 1058.39   50.29
  -3  -3  10 1132.09   58.49
  -3   0  11  -32.90   25.10
   3   0  11   12.60   24.50
  -3   0 -11   -5.00   25.50
   3   0 -11   18.70   24.40
   4   0   0 1864.51   42.90
   4   0   0 1749.53   37.90
   4   0   0 1821.22   41.80
  -4   0   0 1816.92   47.00
  -4   0   0 1810.22   37.50
   4  -1   0    0.20    4.00
   4  -1   0   -3.00    3.70
   4   1   0   -5.80    4.00
   4   1   0   -1.20    4.60
  -4  -1   0    2.50    4.80
  -4   1   0  -12.30    4.20
  -4   1   0   -7.80    4.60
  -4   2   0 3965.60   87.09
  -4   2   0 3923.11   84.89
   4   2   0 3880.11   85.69
   4  -2   0 4012.10   83.39
  -4  -2   0 3917.81   87.69
   4  -2   0 4176.08   86.89
   4   2   0 3874.01   88.59
  -4  -3   0   -3.10    6.50
   4   3   0   -2.00    4.90
  -4  -3   0   -3.20    6.10
   4  -3   0   -2.20    7.00
  -4   3   0   -6.80    7.80
   4   3   0    4.60    7.00
  -4  -3   0   -2.60    6.60
  -4   3   0   -6.90    5.40
   4  -3   0   -1.60    7.00
   4   4   0 4352.06   91.59
  -4  -4   0 4500.05   97.69
  -4  -4   0 4440.26  107.49
   4  -4   0 4607.64  101.49
  -4   4   0 4343.57  105.19
   4   4   0 4393.36  104.59
   4  -4   0 4774.32  105.79
   4  -5   0   13.10   12.40
   4  -5   0   25.90   12.80
  -4  -5   0   -7.40    8.20
  -4   5   0   -5.40   13.50
   4   5   0    4.00   10.50
   4   5   0   17.80   13.80
  -4  -5   0   -1.30   11.00
   4   6   0 2004.10   56.89
   4  -6   0 2044.00   66.09
  -4   6   0 2041.80   68.79
   4  -6   0 2145.89   64.59
   4   6   0 2128.09   69.09
  -4  -6   0 2035.80   68.19
   4   7   0  -34.10   21.80
  -4   7   0    2.30   22.90
   4   7   0   36.70   18.20
   4  -7   0    1.30   21.10
  -4  -7   0   27.20   21.80
   4  -7   0   21.60   21.00
  -4   0   1   -2.20    2.70
   4   0   1   -1.70    3.60
  -4   0   1   -1.20    4.00
  -4   0  -1    5.00    4.70
   4   0  -1    5.40    3.70
   4   0  -1   -3.10    4.10
  -4   0  -1   -7.80    3.50
   4   0   1   -4.40    3.90
  -4   0   1   -4.00    3.60
   4   0   1   -2.80    3.80
   4   0  -1   -7.00    3.00
   4   1  -1  107.19    8.50
   4  -1   1  114.59    8.80
  -4   1   1  113.79   10.00
  -4   1   1  108.79    8.20
   4   1  -1  117.79    8.60
  -4   1   1  105.69    8.20
  -4  -1  -1  121.49   10.70
   4  -1   1  109.49    7.00
   4  -1  -1  116.89    7.50
   4   1   1  113.69    8.70
   4   1   1  121.59    9.30
  -4   1  -1  120.89   10.20
  -4  -1   1  113.39   10.30
  -4   1  -1  113.19    9.30
   4  -1  -1   98.09    8.00
  -4   2   1   -2.20    6.00
   4  -2   1   -6.80    5.00
  -4   2   1   -2.10    5.30
  -4  -2  -1   -7.40    5.00
   4   2  -1   -7.20    5.60
   4  -2   1    2.00    5.50
  -4   2  -1   -0.30    5.10
   4   2   1    4.00    5.80
   4  -2  -1   -8.80    5.00
  -4  -2   1   -3.40    5.00
   4   2   1    1.20    5.20
  -4   2  -1   -5.60    6.20
  -4  -2   1   -1.50    5.20
   4  -2  -1   -5.10    4.60
   4  -3   1    3.30    6.80
  -4   3   1    2.10    5.40
  -4   3   1   -2.30    8.20
   4   3  -1    1.40    7.30
  -4  -3  -1   -0.50    6.10
   4  -3   1    3.00    6.80
   4   3  -1   -0.50    5.80
  -4  -3   1    1.00    6.60
   4   3   1   -0.10    7.90
   4  -3  -1  -12.10    6.80
  -4   3  -1   14.50    9.70
  -4   3  -1    2.20    5.90
   4   3   1   -6.30    4.70
   4   3   1  -12.20    7.00
  -4  -3   1  -10.20    5.70
   4  -3  -1   -0.30    6.40
  -4   4   1   23.60   11.70
   4   4  -1   34.50   11.10
   4  -4   1   33.20    9.80
   4   4  -1   43.20   11.70
  -4  -4  -1   42.20   12.50
  -4  -4  -1   34.10   11.30
   4   4   1   42.80   12.90
   4   4   1   41.80    9.00
   4  -4  -1   43.50   12.90
  -4   4  -1   46.30   13.00
  -4  -4   1   32.70    7.90
   4  -5   1   13.00   12.50
  -4  -5  -1   17.90    8.60
   4   5  -1    7.70   11.70
   4   5  -1   34.10   14.00
   4  -5   1   44.00   14.80
  -4   5   1   15.00   14.40
  -4  -5  -1   26.80   11.30
  -4  -5   1   28.70    8.40
   4   5   1   17.30   10.40
   4  -5  -1   28.80   13.40
   4   5   1    3.70   13.00
  -4  -5   1   27.10   14.70
   4  -5  -1   24.90   12.30
  -4   5  -1   18.30   13.70
   4   6  -1  -10.00   14.30
   4  -6   1   18.60   17.20
  -4  -6  -1   25.60   15.60
  -4   6   1   -7.80   17.70
   4   6  -1  -26.80   17.20
   4  -6   1    5.60   16.20
   4  -6  -1   23.00   16.10
  -4  -6   1   10.60   15.90
   4   6   1  -21.30   13.30
   4   6   1    2.10   17.20
   4  -6  -1    9.10   15.30
  -4   6  -1   14.30   16.50
   4  -7   1   13.00   21.50
   4  -7   1    2.40   21.70
   4   7  -1  -29.20   19.20
   4   7  -1   16.30   24.40
  -4   7   1  -48.30   23.00
  -4  -7  -1   35.40   22.30
  -4   7  -1  -10.90   22.50
   4   7   1   10.70   18.40
  -4  -7   1    7.60   22.10
   4  -7  -1   -2.50   20.80
   4  -7  -1   -2.80   21.90
   4   7   1   34.20   24.50
  -4   0   2 1957.50   43.80
  -4   0  -2 2076.89   52.89
   4   0  -2 2094.89   44.80
  -4   0   2 2085.29   52.89
  -4   0  -2 2108.69   43.70
   4   0  -2 1989.50   48.60
  -4   0   2 2113.59   44.60
   4   0   2 2063.59   44.00
  -4   0  -2 2105.79   45.60
   4   0   2 2127.79   51.09
   4   1  -2  914.11   22.50
  -4  -1  -2  943.91   22.20
   4   1  -2  872.11   22.10
  -4   1   2  942.61   29.70
  -4   1   2  890.61   26.10
   4  -1   2  935.91   22.00
   4  -1   2  954.50   29.00
   4   1  -2  923.71   28.10
  -4  -1  -2  961.60   22.60
  -4  -1  -2  929.31   30.40
  -4  -1   2  934.01   26.20
  -4  -1   2  918.51   30.40
  -4   1  -2  902.01   27.10
  -4   1  -2  928.51   29.50
   4  -1  -2  903.31   27.60
   4   1   2  921.71   28.50
   4  -1  -2  935.81   22.20
   4   1   2  895.31   25.80
  -4   1  -2  932.81   22.00
   4   2  -2 3544.35   71.49
   4  -2   2 3592.74   83.19
  -4   2   2 3718.23   80.69
  -4   2   2 3639.84   80.09
  -4  -2  -2 3562.84   82.89
   4  -2   2 3603.34   72.49
   4   2  -2 3561.94   80.69
  -4  -2  -2 3564.84   70.19
  -4  -2   2 3651.33   82.89
  -4   2  -2 3595.24   80.69
  -4   2  -2 3628.44   81.29
   4  -2  -2 3581.54   80.59
  -4  -2   2 3515.35   81.49
   4  -2  -2 3754.82   75.79
   4   2   2 3645.84   80.29
   4   2   2 3506.05   69.29
   4   2   2 3617.34   83.59
   4   3  -2  993.30   28.60
  -4   3   2  986.80   34.40
  -4  -3  -2 1020.80   33.80
  -4   3   2 1042.00   30.30
   4  -3   2 1107.59   36.60
   4  -3   2 1026.50   29.00
   4   3  -2 1035.10   34.40
   4  -3  -2 1038.40   34.80
  -4  -3   2  952.50   34.00
   4   3   2 1000.50   35.10
  -4  -3   2 1023.90   33.10
   4   3   2  995.70   26.30
   4  -3  -2 1041.10   30.90
  -4   3  -2 1003.50   30.80
   4   3   2 1019.60   34.90
  -4   3  -2 1045.00   36.70
   4  -4   2 2382.06   59.19
   4   4  -2 2485.85   59.69
  -4  -4  -2 2508.55   62.29
  -4  -4  -2 2479.25   68.69
   4  -4   2 2433.16   68.19
  -4   4   2 2347.27   66.79
   4   4  -2 2368.26   65.59
  -4   4   2 2446.16   55.19
   4  -4  -2 2443.36   65.89
   4  -4  -2 2449.66   61.99
  -4  -4   2 2351.96   68.29
   4   4   2 2408.46   55.49
   4   4   2 2434.66   67.69
  -4   4  -2 2407.66   68.39
  -4  -4   2 2453.25   61.19
  -4   4  -2 2417.56   56.99
  -4  -5  -2  458.05   27.40
   4  -5   2  470.85   29.30
  -4  -5  -2  515.05   23.60
   4   5  -2  491.25   28.80
   4   5  -2  464.75   24.20
  -4   5   2  505.55   29.70
  -4  -5   2  496.25   30.00
  -4  -5   2  466.55   22.90
   4  -5  -2  476.65   25.90
   4   5   2  485.45   22.80
   4  -5  -2  481.95   27.50
  -4   5  -2  525.65   30.10
   4   5   2  439.16   28.40
  -4   6   2 1253.27   50.99
   4  -6   2 1238.98   44.00
   4   6  -2 1219.38   48.90
  -4  -6  -2 1141.19   48.10
   4   6  -2 1204.08   43.00
   4  -6   2 1251.07   51.39
   4   6   2 1243.98   50.39
  -4   6  -2 1231.98   51.59
  -4  -6   2 1162.48   51.99
   4   6   2 1201.28   40.10
   4  -6  -2 1224.98   48.60
   4  -6  -2 1276.07   47.00
   4  -7   2  348.47   30.30
   4   7  -2  245.68   30.30
  -4  -7  -2  372.46   36.30
   4   7  -2  245.98   32.10
  -4   7   2  252.87   36.90
   4  -7   2  269.87   37.00
   4   7   2  281.77   31.80
  -4  -7   2  304.07   35.80
   4   7   2  292.17   28.30
  -4   7  -2  391.86   36.50
   4  -7  -2  277.97   33.60
   4  -7  -2  248.58   30.60
   4   0  -3   -2.20    5.30
   4   0   3   -7.50    5.10
   4   0   3    2.20    4.90
  -4   0   3    8.90    4.70
  -4   0  -3    8.60    5.50
  -4   0  -3   -2.10    4.40
  -4   0   3    0.30    5.30
  -4  -1  -3    4.30    4.60
   4  -1   3   -7.80    5.60
   4   1  -3   -2.00    5.60
   4  -1   3    5.30    5.40
   4   1  -3    5.10    4.50
  -4  -1  -3   -0.60    6.20
  -4   1   3    5.10    5.30
   4  -1  -3    4.40    5.90
  -4   1  -3   -1.60    5.80
   4   1   3   -5.10    5.80
  -4  -1   3    1.40    4.80
  -4  -1   3   -8.60    5.30
   4   1   3   -0.50    5.40
   4  -2   3    6.80    6.60
   4   2  -3   -2.40    5.20
   4   2  -3    1.40    7.00
  -4  -2  -3    1.70    6.10
   4  -2   3   -5.10    6.90
  -4   2   3    4.90    6.60
  -4  -2  -3    2.80    4.60
  -4   2   3   -3.50    5.50
   4  -2  -3    1.30    6.60
  -4  -2   3    5.50    6.40
   4   2   3   -3.80    7.60
  -4  -2   3    0.50    6.50
   4   2   3   12.00    7.30
  -4   2  -3    5.90    7.00
   4   3  -3    6.70    8.40
  -4   3   3  -12.50    6.60
  -4  -3  -3    8.00    7.00
   4   3  -3    6.20    7.40
   4  -3   3   -3.50    6.80
  -4  -3   3   -7.10    6.60
  -4  -3   3    5.90    9.30
   4   3   3    2.30    7.70
   4  -3  -3   12.70    7.00
   4   3   3   12.20    6.50
  -4   3  -3  -13.90    7.10
   4   3   3    3.70    9.90
  -4   4   3  -12.50   10.70
   4  -4   3   11.70   10.60
  -4  -4  -3    1.80    8.50
  -4  -4  -3    1.40   10.00
   4  -4   3    5.50    9.40
  -4   4   3   -3.10    6.80
   4   4  -3   16.50   10.40
   4   4  -3   13.60   10.90
  -4   4  -3   -3.20    8.40
   4   4   3  -14.90   11.80
   4   4   3   12.80    7.90
   4  -4  -3   14.20   11.10
   4  -4  -3    4.70    8.70
  -4  -4   3    5.10   11.20
  -4   4  -3   -0.40   11.40
  -4  -4   3  -13.00    8.30
   4  -5   3    3.70   13.80
  -4  -5  -3   -4.30   10.40
  -4   5   3   -3.70   14.50
   4   5  -3   15.10   14.80
  -4  -5  -3   10.80   12.40
   4  -5   3    9.20   13.00
  -4   5  -3   16.40   15.30
   4   5   3    3.30   10.70
  -4  -5   3    2.90   14.50
   4   5   3   -5.40   15.40
  -4  -5   3   29.60   11.10
   4  -5  -3   -9.30   13.60
   4  -5  -3   15.50   12.90
   4  -6   3    8.70   18.10
   4  -6   3   26.30   17.60
  -4  -6  -3   12.50   16.50
  -4   6   3  -31.60   18.50
   4   6  -3    7.60   15.70
   4   6  -3    1.40   19.40
   4  -6  -3  -11.50   17.20
   4   6   3    9.80   13.50
  -4   6  -3   -0.90   19.10
   4   6   3    7.80   20.80
  -4  -6   3   -3.30   18.40
   4  -6  -3  -27.60   15.60
   4   7  -3   -8.50   24.90
   4   7  -3    4.00   22.40
   4  -7   3   29.40   22.70
  -4  -7  -3   -8.40   22.60
   4   7   3   25.70   18.60
   4  -7  -3  -15.70   22.10
   4   0   4  784.82   27.50
  -4   0   4  763.12   24.80
   4   0   4  752.62   29.50
  -4   0   4  727.33   29.30
  -4   0  -4  799.32   25.90
   4   0  -4  766.02   26.70
   4   1  -4 2405.76   55.59
  -4   1   4 2390.16   58.09
  -4   1   4 2451.55   63.79
  -4  -1  -4 2446.26   55.39
   4   1  -4 2400.76   59.39
   4  -1   4 2385.36   63.39
   4  -1   4 2493.65   62.59
   4   1   4 2513.45   65.29
  -4  -1   4 2405.36   55.49
  -4   1  -4 2490.25   59.89
   4   1   4 2452.05   61.49
   4   1   4 2412.46   54.59
   4  -1  -4 2397.56   59.99
  -4  -1   4 2370.46   64.39
   4   2  -4 1072.09   34.40
   4  -2   4 1124.49   37.10
   4  -2   4 1069.19   36.30
  -4   2   4 1080.19   35.70
   4   2  -4 1091.49   32.20
  -4   2   4 1087.69   35.30
  -4  -2  -4 1062.89   30.20
   4  -2  -4 1081.59   35.90
   4   2   4 1064.69   35.30
  -4   2  -4 1059.59   36.00
  -4  -2   4 1053.49   33.80
  -4  -2   4 1054.69   37.10
   4   2   4 1056.79   33.80
   4   2   4 1106.29   38.20
   4  -3   4 1332.77   45.90
  -4  -3  -4 1373.86   44.10
   4  -3   4 1388.56   42.70
  -4   3   4 1352.66   41.20
  -4   3   4 1291.67   43.00
   4   3  -4 1345.57   39.30
   4   3   4 1367.26   43.90
  -4  -3   4 1335.47   43.80
   4   3   4 1358.56   36.70
  -4  -3   4 1339.27   43.70
   4  -3  -4 1282.67   43.30
  -4   3  -4 1318.07   44.40
   4  -4   4  792.52   37.40
   4  -4   4  792.02   26.10
   4   4  -4  790.22   32.50
  -4   4   4  802.82   30.00
  -4  -4  -4  835.32   32.70
   4   4  -4  813.02   31.20
  -4   4   4  785.12   34.70
   4   4   4  814.92   35.90
  -4  -4   4  794.32   36.10
  -4  -4   4  834.72   33.00
   4   4   4  794.62   28.60
  -4   4  -4  836.12   31.90
   4  -4  -4  814.92   35.70
   4  -4  -4  789.22   27.70
   4   4   4  788.92   35.50
  -4   4  -4  811.22   36.60
  -4   5   4 1983.10   65.39
  -4  -5  -4 2056.09   59.99
  -4  -5  -4 1987.00   64.99
   4   5  -4 2032.00   58.29
   4  -5   4 1964.90   53.39
  -4   5   4 1973.50   52.39
   4  -5   4 1996.80   66.39
   4   5  -4 1976.60   61.19
  -4   5  -4 2031.20   54.49
   4   5   4 2097.19   54.69
   4  -5  -4 2020.70   56.49
  -4  -5   4 2025.80   68.59
   4   5   4 2016.20   66.49
  -4   5  -4 2090.79   67.59
   4  -5  -4 2016.60   64.39
  -4   6   4  289.57   31.40
   4   6  -4  320.17   29.20
  -4  -6  -4  357.06   29.40
   4  -6   4  333.07   31.70
   4   6  -4  319.37   27.90
   4  -6   4  297.97   24.60
   4   6   4  297.17   24.70
  -4   6  -4  293.97   32.70
  -4  -6   4  262.67   33.50
   4   6   4  328.87   29.80
   4  -6  -4  253.77   28.10
   4  -6  -4  323.17   28.30
   4  -7   4 1189.38   57.09
   4   7  -4 1158.98   52.59
   4   7  -4 1152.78   47.60
  -4   7   4 1168.18   57.59
  -4   7  -4 1188.88   54.79
   4  -7  -4 1108.29   52.39
  -4  -7   4 1121.29   57.99
   4   7   4 1108.59   57.39
   4   7   4 1165.88   45.90
   4  -7  -4 1057.69   49.99
   4   0   5    5.50    7.50
  -4   0  -5    3.20    7.50
   4   0  -5    6.70    6.90
   4   0  -5   -1.90    7.50
  -4  -1  -5   52.79   10.10
  -4   1   5   52.79   10.60
   4  -1   5   61.79   11.80
   4   1  -5   53.29   10.90
   4   1  -5   58.19   10.30
   4   1   5   53.69   11.30
  -4   1  -5   40.30   11.20
   4   1   5   41.40    9.80
  -4  -1   5   49.70    9.90
   4  -1  -5   70.09   10.50
   4  -2   5   13.30    9.50
  -4   2   5    6.90    8.20
  -4   2   5   12.00    9.40
   4   2  -5   20.90    7.90
   4   2  -5   28.20   11.50
  -4  -2  -5   12.80    7.60
   4  -2  -5   16.30    9.50
  -4   2  -5   22.80   10.10
   4   2   5    9.20    9.10
  -4  -2   5    4.70    9.30
   4   2   5    1.30    9.80
  -4  -2   5   -0.30    8.10
   4   2   5   11.00    9.40
  -4   3   5   24.40   11.60
   4   3  -5   45.80   13.90
   4  -3   5   18.70   11.00
  -4   3   5   15.20    9.20
   4   3  -5   36.90   13.30
  -4  -3   5   21.30    9.60
   4   3   5   15.50    9.40
   4  -3  -5   10.70   10.60
  -4  -3   5   22.70   12.40
   4   3   5   19.40   10.50
   4   3   5    7.50   10.10
   4   3   5   27.10   13.70
  -4   3  -5   14.80   11.50
   4   4  -5    2.70   12.10
   4   4  -5    8.40   13.10
   4  -4   5    0.10   14.50
  -4   4   5    4.90   12.30
  -4   4   5    9.40   10.20
  -4  -4  -5   23.30   10.50
   4  -4  -5   21.20   14.00
  -4  -4   5    9.50   10.80
   4   4   5   19.50   13.60
  -4   4  -5    4.50   13.90
   4  -4  -5   16.70    9.40
   4   4   5    8.10   15.50
  -4  -4   5   15.90   14.90
   4   4   5    7.10   10.50
   4  -5   5  -10.10   17.70
   4   5  -5    4.00   16.70
  -4  -5  -5   15.80   15.20
  -4   5   5   11.00   12.20
   4   5  -5   18.20   15.50
  -4  -5  -5   24.10   12.50
   4  -5  -5  -13.90   16.80
   4   5   5   19.60   13.50
  -4   5  -5   -1.80   14.40
   4   5   5  -19.40   19.50
  -4  -5   5   30.80   19.10
  -4   5  -5    3.40   18.20
  -4  -5   5   20.40   13.00
   4  -5  -5   13.30   13.30
   4  -6   5   -8.10   23.10
   4   6  -5   -7.20   20.50
  -4   6   5  -10.20   20.70
  -4  -6  -5    0.90   20.30
   4   6  -5  -36.20   21.80
   4  -6  -5  -16.30   20.20
  -4  -6   5   28.30   17.00
   4   6   5   -6.10   17.50
   4   6   5  -16.70   23.00
  -4   6  -5   -6.30   24.00
   4   7  -5    6.40   26.20
  -4   7   5  -53.29   28.30
  -4  -7  -5    8.30   26.60
   4  -7   5    9.70   29.00
  -4  -7   5    3.00   30.40
   4  -7  -5   -1.90   25.50
   4   7   5  -27.00   23.30
   4   7   5    1.00   29.80
  -4   7  -5  -27.00   28.60
   4   0   6    4.90    8.80
  -4   0   6    5.30    9.00
  -4   0  -6    3.80    8.80
   4   0  -6   15.30    8.80
  -4   1   6 1990.50   54.59
  -4  -1  -6 1877.31   55.79
   4   1  -6 1942.31   53.39
   4  -1   6 1982.20   56.79
  -4   1   6 1994.00   60.49
  -4  -1  -6 1916.21   45.00
   4  -1   6 1930.61   59.99
   4   1   6 2021.40   61.39
  -4  -1   6 2004.70   61.59
  -4  -1   6 1939.91   47.10
   4  -1  -6 1960.90   54.79
  -4   1  -6 1937.21   55.49
   4   2  -6    2.10   11.40
   4  -2   6   51.69   16.50
   4  -2   6   12.90   11.40
  -4  -2  -6    8.20    8.80
   4   2  -6   13.40    9.80
  -4   2   6   19.60   10.10
  -4   2   6    9.50   10.30
  -4  -2   6   14.50    9.90
   4   2   6    9.50   10.70
   4   2   6   20.90   12.00
   4  -2  -6   31.30   10.30
  -4   2  -6   13.60   11.80
   4   2   6   34.70   12.30
  -4  -2   6   20.80   10.70
   4   3  -6 2563.84   67.29
   4  -3   6 2526.25   72.99
   4  -3   6 2556.44   72.09
   4   3  -6 2436.46   65.29
  -4  -3  -6 2539.45   63.99
  -4   3   6 2471.95   70.39
  -4   3   6 2465.55   69.29
  -4  -3   6 2563.64   72.99
   4   3   6 2591.34   71.09
  -4   3  -6 2504.25   72.29
   4   3   6 2574.04   74.49
   4  -3  -6 2463.95   70.09
   4   4  -6   -1.50   15.40
   4  -4   6   12.60   13.70
  -4   4   6    3.20   11.90
   4  -4   6   13.20   16.40
  -4   4   6   30.80   14.80
   4   4  -6   14.10   14.40
  -4  -4   6    8.50   17.60
   4   4   6   27.80   13.40
  -4  -4   6   26.40   13.50
   4  -4  -6   13.60   15.60
   4   4   6   18.90   14.80
  -4   4  -6   70.99   21.90
   4   4   6   16.70   18.00
   4  -5   6 1709.93   56.99
  -4   5   6 1775.92   55.39
  -4  -5  -6 1793.02   59.19
   4  -5   6 1783.22   66.19
   4   5  -6 1845.22   58.19
  -4  -5  -6 1752.32   61.79
   4   5  -6 1796.42   58.69
  -4   5   6 1811.62   65.29
  -4   5  -6 1787.42   64.09
   4   5   6 1753.42   64.39
  -4  -5   6 1698.93   65.09
   4   5   6 1842.12   55.19
  -4  -5   6 1766.02   59.09
   4  -5  -6 1797.02   62.09
   4   6  -6   19.40   23.40
   4  -6   6   26.30   25.90
   4   6  -6  -15.70   24.80
  -4  -6  -6    2.50   22.70
  -4   6   6   33.40   23.20
  -4   6  -6  -35.90   25.00
   4   6   6    1.30   20.40
   4  -6  -6  -11.90   23.30
  -4  -6   6   12.70   26.90
   4   6   6    7.40   27.60
   4   0   7    6.90   10.80
   4   0  -7  -18.60   11.50
   4   0  -7    5.30   11.00
  -4   0   7   19.50   11.00
   4   0   7   11.20   12.10
  -4   0  -7   -8.40   11.00
  -4   1   7   -1.40   11.20
   4   1  -7    8.50   10.40
  -4  -1  -7   26.70   10.10
   4  -1   7    1.70   10.30
  -4   1   7   10.70   10.70
  -4  -1  -7   16.10   11.10
   4  -1   7   13.50   12.10
   4   1  -7   23.10   12.60
   4  -1  -7    4.10   11.50
  -4   1  -7   14.40   12.70
  -4  -1   7  -10.30   10.70
   4   1   7    9.10   11.90
  -4  -2  -7   -7.20   11.70
   4  -2   7    6.90   12.90
   4   2  -7   -9.00   12.50
   4  -2   7    6.40   13.20
  -4   2   7   -5.60   11.90
   4   2  -7  -12.10   13.20
  -4  -2  -7  -15.50   11.00
  -4   2   7    8.70   11.20
   4   2   7    1.30   12.20
   4  -2  -7  -15.40   12.50
  -4  -2   7   -6.60   11.90
  -4  -2   7   30.50   13.40
   4   2   7   12.20   13.00
  -4   2  -7  -15.50   13.30
  -4   3   7   20.20   12.60
  -4  -3  -7   53.09   16.00
   4   3  -7   56.59   16.80
   4   3  -7   -6.10   14.00
  -4   3   7   -3.50   13.80
   4  -3   7   22.40   13.90
   4  -3   7   -7.90   14.90
  -4  -3  -7   30.30   15.30
   4   3   7   19.20   14.10
  -4  -3   7   -3.30   13.20
   4   3   7  -12.40   14.60
  -4   3  -7   40.90   15.20
   4  -3  -7   -9.40   13.90
  -4  -3   7  -14.80   16.20
  -4   4   7   -5.90   16.00
   4   4  -7  -18.70   17.00
   4   4  -7   -7.10   18.10
  -4  -4  -7  -14.00   14.50
  -4   4   7    8.50   14.40
   4  -4   7    3.00   17.70
   4  -4  -7   14.90   16.60
  -4  -4   7   -2.00   19.40
  -4  -4   7  -25.80   15.70
  -4   4  -7    1.80   17.50
   4   4   7   13.00   16.00
   4   4   7   17.00   18.20
  -4  -5  -7   40.00   16.90
   4   5  -7   15.20   23.00
   4  -5   7  -32.60   20.50
  -4   5   7  -37.30   17.20
   4   5  -7   36.70   22.50
   4  -5   7   10.50   22.30
  -4   5   7   44.40   21.60
  -4  -5   7   -4.60   19.00
   4  -5  -7    2.30   21.10
   4   5   7   14.60   26.40
  -4   5  -7   -0.80   23.70
   4   5   7   12.30   18.30
  -4  -5   7  -17.10   26.00
  -4   6   7  -12.10   26.10
   4  -6   7  -53.59   30.20
  -4  -6  -7    0.00   25.00
   4   6  -7  -40.50   27.90
   4   6  -7  -25.70   29.50
   4   6   7   56.39   23.40
  -4   6  -7   22.80   29.90
   4  -6  -7    8.50   25.60
   4   0  -8  328.37   23.50
   4   0   8  352.56   28.00
  -4   0  -8  337.67   24.50
  -4   0   8  364.66   28.00
   4   0   8  374.96   25.20
   4   0  -8  316.87   23.60
   4   1  -8 2000.90   56.99
  -4   1   8 1977.50   65.99
   4  -1   8 1897.01   65.89
   4   1  -8 1932.01   59.49
  -4  -1  -8 1990.50   59.29
   4  -1   8 1970.30   61.29
   4   1   8 1937.81   59.69
   4   1   8 2038.10   68.59
   4  -1  -8 1963.60   58.39
  -4  -1   8 1980.50   68.29
  -4   1  -8 2006.30   62.19
   4  -1  -8 1976.50   59.79
   4  -2   8  302.27   27.00
  -4  -2  -8  323.87   24.40
  -4  -2  -8  326.97   20.90
   4   2  -8  277.57   22.60
  -4   2   8  311.37   24.60
  -4   2   8  344.77   29.50
   4   2  -8  272.47   24.30
   4  -2   8  329.27   28.60
  -4  -2   8  280.77   24.00
   4   2   8  345.67   25.10
  -4  -2   8  313.37   28.50
   4   2   8  351.76   31.70
   4  -2  -8  265.97   23.60
  -4   2  -8  282.97   26.90
  -4   3   8  881.31   41.90
   4   3  -8  889.91   37.00
   4   3  -8  841.12   39.30
   4  -3   8  870.81   43.30
   4  -3   8  886.81   43.80
  -4  -3  -8  891.41   37.80
  -4  -3  -8  840.72   35.40
  -4   3   8  844.12   44.10
   4   3   8  896.11   45.60
  -4   3  -8  869.01   42.20
   4  -3  -8  896.11   38.50
  -4  -3   8  910.81   44.80
   4   3   8  920.11   40.80
  -4  -3   8  831.82   39.80
   4  -4   8  284.97   37.10
  -4  -4  -8  324.37   26.70
   4  -4   8  273.77   35.00
   4   4  -8  274.77   31.20
  -4   4   8  284.27   31.80
  -4   4   8  328.57   33.00
   4   4  -8  323.87   27.40
  -4   4  -8  317.47   33.00
   4  -4  -8  328.57   29.70
   4   4   8  336.07   34.30
  -4  -4   8  250.87   36.80
   4   4   8  231.88   35.60
   4   5  -8 1228.28   53.19
  -4  -5  -8 1190.58   50.19
   4  -5   8 1123.49   55.29
  -4  -5  -8 1186.78   50.59
   4  -5   8 1184.88   56.99
  -4   5   8 1232.48   56.99
   4   5  -8 1211.28   48.40
  -4  -5  -8 1204.98   54.39
  -4   5   8 1162.78   52.69
  -4  -5  -8 1162.78   53.69
  -4  -5   8 1102.39   58.49
  -4  -5   8 1171.88   56.29
  -4   5  -8 1289.97   58.39
   4  -5  -8 1222.08   52.59
   4   0   9   25.50   17.10
   4   0   9   20.10   17.60
   4   0  -9  -10.70   16.10
  -4   0  -9  -19.70   16.40
  -4   0   9   88.49   27.90
   4   0  -9   -4.40   17.90
   4  -1   9  -10.40   16.70
   4  -1   9   -7.90   17.70
   4   1  -9   37.80   17.20
  -4   1   9   33.60   16.50
  -4  -1  -9    9.10   17.40
   4   1  -9   -4.50   18.30
   4   1   9  -10.10   16.80
   4  -1  -9   25.10   15.80
  -4   1  -9    3.80   17.60
  -4  -1   9   -0.70   16.80
   4  -1  -9   -4.80   18.00
   4  -2   9  -17.20   21.10
   4  -2   9  -12.80   18.30
   4   2  -9    1.30   18.80
  -4   2   9  -10.20   18.80
   4   2  -9   -6.30   17.90
  -4  -2  -9   18.70   17.90
  -4  -2   9   21.30   18.70
   4  -2  -9   11.70   17.50
   4  -2  -9   38.80   19.50
   4   2   9   17.20   19.00
   4   2   9   17.90   18.80
   4   3  -9   -2.40   21.70
  -4  -3  -9  -22.30   18.00
  -4   3   9   27.40   20.60
   4   3  -9  -11.20   20.20
   4  -3   9   29.30   21.10
   4  -3   9   63.39   24.00
  -4  -3   9   -0.30   20.20
   4   3   9  -12.00   21.20
   4  -3  -9   12.50   22.30
   4   3   9   30.20   22.00
  -4  -4  -9   15.90   22.30
   4   4  -9  -41.00   25.60
   4  -4   9    5.00   25.20
  -4   4   9   36.00   22.20
  -4   4   9    8.90   22.70
   4   4  -9  -18.40   23.90
  -4  -4  -9   15.90   24.20
   4   4   9  -23.30   23.70
  -4  -4   9  -53.09   24.30
   4   4   9   40.20   25.20
  -4   4  -9    7.70   24.40
   4   0 -10  625.04   39.80
   4   0  10  659.23   47.70
   4   0 -10  707.23   34.70
  -4   0 -10  628.14   39.50
   4   0  10  634.14   38.90
  -4  -1 -10  442.86   34.20
   4  -1  10  443.16   36.00
   4  -1  10  476.95   44.00
   4   1 -10  447.36   30.90
   4   1 -10  419.26   34.20
   4  -1 -10  404.56   34.70
  -4  -1  10  441.16   43.60
   4   1  10  381.46   36.00
   4   1  10  461.55   40.00
   4  -1 -10  368.56   31.40
  -4   2  10  851.81   52.49
   4  -2  10  845.92   52.69
   4  -2  10  821.52   46.70
   4   2 -10  712.23   39.30
  -4  -2 -10  846.22   46.10
   4   2  10  804.02   45.40
  -4   2 -10  785.02   46.70
  -4  -2  10  787.82   52.59
   4  -2 -10  816.32   41.40
   4  -2 -10  867.11   42.30
   4   2  10  764.92   51.79
   4   3 -10  458.95   38.10
   4  -3  10  451.85   46.60
  -4  -3 -10  458.55   38.10
  -4   3  10  374.76   44.80
  -4   3 -10  451.85   39.70
  -4  -3  10  391.66   48.30
   4  -3 -10  397.56   37.10
   4   3  10  567.44   49.00
   5   0   0   -0.70    4.60
   5   0   0    4.00    4.70
  -5   0   0   -1.70    5.10
  -5   0   0   -2.80    3.70
   5   0   0   -7.20    4.30
   5   1   0 6251.07  124.69
   5  -1   0 6427.06  127.29
  -5   1   0 6035.90  120.69
   5  -1   0 6120.29  122.29
  -5  -1   0 6038.20  131.69
  -5   1   0 6069.39  130.19
   5   1   0 6328.57  128.79
  -5   2   0  -14.60    5.70
   5   2   0   -3.70    6.50
  -5  -2   0   -6.50    5.60
   5  -2   0   -4.20    5.80
   5  -2   0    2.10    5.60
   5   2   0    3.50    5.50
  -5   2   0   -5.10    6.90
   5   3   0 1659.43   48.90
   5  -3   0 1767.32   46.80
  -5   3   0 1681.23   50.09
   5  -3   0 1782.82   48.50
  -5  -3   0 1696.13   49.80
  -5  -3   0 1681.93   48.80
  -5   3   0 1701.03   45.10
  -5  -4   0   -2.60    9.20
   5   4   0   -6.90    6.60
  -5   4   0    5.60    7.40
  -5   4   0   -0.70   11.10
  -5  -4   0   -4.00    8.20
   5   4   0   12.30   11.00
  -5  -5   0 2481.75   74.29
   5  -5   0 2646.24   70.09
   5  -5   0 2525.25   71.79
  -5   5   0 2556.94   76.29
   5   5   0 2434.96   58.49
   5   5   0 2523.25   73.79
  -5  -5   0 2501.35   64.59
   5  -6   0  -18.20   17.40
   5   6   0   11.70   19.10
   5  -6   0    7.30   17.70
   5   6   0  -18.30   13.40
  -5  -6   0    3.50   16.90
  -5   6   0  -18.20   18.60
  -5  -6   0   10.10   11.50
   5  -7   0 1699.13   61.19
   5  -7   0 1648.54   65.19
  -5   0  -1    0.20    5.60
   5   0  -1   -1.40    4.10
   5   0  -1   -3.00    4.90
   5   0  -1   -4.20    4.80
  -5   0   1   -2.80    3.50
  -5   0  -1   -0.50    4.90
   5   0   1   -3.10    5.00
  -5   0   1   -4.70    5.00
   5   0   1   -7.00    4.70
   5   0   1   -4.40    4.70
  -5   1   1   -5.80    4.90
   5   1  -1   -5.50    5.40
  -5  -1  -1   -2.00    5.60
  -5   1   1  -10.00    5.40
   5   1  -1    7.10    4.80
   5  -1   1   11.60    5.10
   5  -1   1    9.10    5.20
  -5   1  -1    4.10    5.50
  -5  -1   1   -5.40    5.60
   5  -1  -1    8.90    5.30
  -5   1  -1   -4.40    6.10
   5   1   1    8.60    5.50
   5  -1  -1    2.90    4.50
   5   1   1    3.90    5.60
  -5   2   1  188.28   14.30
   5  -2   1  167.78   10.50
   5   2  -1  191.58   13.10
   5   2  -1  182.88   12.70
   5  -2   1  171.38   12.80
  -5  -2  -1  183.48   15.00
  -5   2   1  179.58   13.30
   5   2   1  194.78   12.60
   5  -2  -1  191.88   11.60
   5   2   1  170.88   12.90
  -5  -2   1  172.68   14.10
   5  -2  -1  181.48   12.20
  -5   2  -1  193.28   14.50
  -5   2  -1  149.39   14.00
   5  -3   1   27.60    9.00
  -5   3   1   19.30    9.50
   5   3  -1   27.40    9.00
  -5   3   1   24.90    8.00
  -5  -3  -1   38.50   12.80
   5  -3   1   23.40    9.10
  -5  -3   1   23.80    8.20
   5   3   1   33.80    9.80
   5  -3  -1   37.60   10.10
  -5   3  -1   25.50    9.80
  -5   3  -1   20.50    8.20
   5   3   1   23.20    9.00
   5  -3  -1   39.60   10.80
  -5  -3   1   35.00   11.50
   5  -4   1    0.50   10.00
  -5   4   1   11.40    7.20
  -5  -4  -1    4.40    8.50
  -5   4   1  -19.70   12.20
   5   4  -1    1.50    7.60
   5  -4   1    2.80   10.10
  -5  -4  -1    1.70   10.80
   5   4  -1   -4.40   10.90
  -5  -4   1    6.30    9.40
   5   4   1   -8.40   10.70
  -5   4  -1   -4.60    7.80
  -5   4  -1   19.80   12.50
  -5  -4   1   17.40    8.70
   5  -4  -1    2.20    9.60
   5   4   1    5.20    6.70
   5  -4  -1    4.00   11.00
   5  -5   1   18.30   13.60
   5   5  -1  -11.10   10.90
  -5  -5  -1   20.10   10.50
  -5   5   1    3.60   15.10
   5   5  -1   -9.60   14.70
   5  -5   1    2.40   13.10
  -5  -5  -1   23.30   13.40
  -5  -5   1   11.70   13.30
   5  -5  -1   10.20   13.80
  -5  -5   1    7.30    9.60
   5  -5  -1  -11.90   12.60
   5   5   1   14.70   10.60
   5   5   1    9.80   14.80
  -5   5  -1  -12.40   14.20
  -5   6   1   17.00   19.30
   5   6  -1    9.00   15.40
   5   6  -1   -6.30   17.30
   5  -6   1   11.50   17.40
  -5  -6  -1   -4.20   11.80
  -5  -6  -1    9.40   15.60
   5  -6   1  -23.50   17.00
  -5  -6   1    1.00   11.70
   5  -6  -1  -14.30   15.90
  -5  -6   1   31.80   18.10
   5  -6  -1   10.70   16.90
   5   6   1   14.30   14.10
   5   6   1    0.30   19.80
   5  -7   1  -25.60   22.80
   5  -7   1    1.20   23.10
   5  -7  -1    1.10   22.30
   5  -7  -1   38.90   24.00
   5   0   2  756.92   26.40
   5   0  -2  761.72   21.90
  -5   0  -2  707.43   21.80
   5   0   2  777.72   22.50
  -5   0   2  763.52   28.80
  -5   0   2  792.42   21.70
   5   0  -2  787.32   26.00
  -5   0  -2  748.03   28.10
  -5  -1  -2 2790.92   70.69
   5   1  -2 2814.62   64.29
  -5   1   2 2865.91   69.99
   5  -1   2 2884.11   58.79
  -5  -1  -2 2938.41   55.89
   5   1  -2 2728.63   56.09
   5   1  -2 2780.62   56.09
  -5   1   2 2836.42   62.39
   5  -1   2 2877.91   68.29
  -5  -1  -2 2805.82   56.39
   5   1  -2 2822.32   66.29
  -5   1  -2 2862.51   69.89
   5  -1  -2 2833.52   59.79
   5  -1  -2 2784.12   65.49
   5   1   2 2780.62   62.99
  -5   1  -2 2760.62   63.99
   5   1   2 2857.31   68.19
  -5  -1   2 2906.51   71.69
  -5   2   2  983.10   32.20
   5   2  -2  937.41   23.90
   5   2  -2  899.51   22.80
  -5   2   2  922.21   30.90
   5  -2   2  897.21   25.00
   5  -2   2  936.71   31.90
   5   2  -2  980.30   32.60
  -5  -2  -2  950.00   33.50
   5  -2  -2  990.50   31.70
   5   2   2  938.21   30.90
  -5   2  -2  926.31   31.90
  -5  -2   2  940.81   33.30
   5   2   2  973.30   32.80
  -5  -2   2  909.91   31.00
   5  -2  -2  985.70   26.70
  -5   2  -2  919.51   31.90
   5  -3   2 2498.25   57.19
  -5  -3  -2 2499.25   65.59
  -5   3   2 2517.05   61.19
   5   3  -2 2459.75   54.49
   5   3   2 2557.04   65.89
   5   3   2 2521.65   51.69
  -5  -3   2 2382.96   65.19
   5  -3  -2 2514.25   59.69
  -5  -3   2 2451.65   64.79
  -5   3  -2 2547.65   62.69
  -5   4   2  626.24   30.30
   5   4  -2  628.24   23.90
   5   4  -2  637.04   29.60
  -5  -4  -2  643.04   28.70
  -5  -4  -2  638.04   30.00
   5  -4   2  649.43   25.20
   5  -4   2  620.34   31.00
  -5   4   2  628.34   23.70
   5   4   2  613.64   30.10
  -5  -4   2  600.94   27.10
  -5   4  -2  638.44   31.90
   5   4   2  643.94   21.30
   5  -4  -2  590.94   29.40
  -5  -4   2  604.84   30.70
   5  -4  -2  654.33   26.70
  -5   4  -2  690.13   26.10
   5  -5   2 1565.84   54.09
   5   5  -2 1593.04   45.90
  -5  -5  -2 1589.04   48.40
   5  -5   2 1584.64   47.50
  -5   5   2 1525.25   55.19
  -5  -5  -2 1558.74   55.49
   5   5  -2 1578.04   53.89
  -5  -5   2 1598.64   56.09
   5   5   2 1572.44   55.29
   5   5   2 1560.04   41.80
  -5   5  -2 1613.44   55.89
   5  -5  -2 1569.14   50.39
  -5  -5   2 1572.04   47.70
   5  -5  -2 1586.74   52.89
  -5  -6  -2  387.96   29.90
   5   6  -2  455.95   26.10
   5  -6   2  383.36   27.40
  -5   6   2  392.66   32.70
   5  -6   2  412.26   32.60
   5   6  -2  396.06   30.90
  -5  -6  -2  353.96   27.30
  -5  -6   2  469.75   34.70
  -5   6  -2  378.16   32.70
   5   6   2  353.66   30.60
   5  -6  -2  323.97   29.90
  -5  -6   2  419.96   25.80
   5  -6  -2  367.36   28.40
  -5   7   2 1060.09   54.69
   5  -7   2 1013.30   45.40
   5  -7   2 1017.00   54.59
   5  -7  -2 1064.29   48.50
   5   7   2  854.91   48.80
   5  -7  -2 1008.50   50.29
  -5   7  -2 1064.29   53.49
  -5   0   3   -0.60    4.80
  -5   0  -3    9.90    6.20
   5   0   3    7.10    7.00
   5   0  -3    1.60    6.20
  -5   0   3    8.50    6.50
  -5   0  -3   -0.80    5.90
  -5   0   3    6.60    5.50
   5   0   3    2.90    5.60
  -5   0  -3   -1.20    5.90
   5   1  -3   38.90    7.00
  -5  -1  -3   48.40   11.20
   5  -1   3   52.39   10.00
  -5  -1  -3   45.40    7.30
   5   1  -3   46.80    8.40
  -5   1   3   59.39   10.90
  -5   1   3   50.79    8.50
   5  -1  -3   46.40    8.90
  -5  -1   3   41.70    8.40
  -5   1  -3   47.10    9.70
  -5  -1   3   50.09   11.80
   5   1   3   65.89    9.30
   5   1   3   42.10    8.60
  -5   1  -3   54.19   11.00
   5   2  -3   17.20    6.20
   5   2  -3   11.90    7.70
   5  -2   3   10.80    7.40
  -5  -2  -3    5.00    7.20
  -5   2   3   14.40    7.20
  -5   2   3   11.30    6.80
  -5  -2  -3    9.00    5.30
   5  -2  -3   -0.30    7.40
  -5  -2   3    0.30    7.20
  -5  -2   3    1.30    7.10
   5   2   3   33.70   10.50
   5   2   3   14.50    8.20
  -5   2  -3   -1.50    7.10
  -5   2  -3    3.10    8.50
   5  -3   3   37.80    8.60
  -5   3   3   44.50   12.40
  -5   3   3   66.59   14.30
   5   3  -3   43.50    9.40
  -5  -3  -3   39.70    9.30
   5  -3   3   37.10   10.20
   5   3  -3   46.80   11.60
   5   3   3   53.19   13.80
  -5  -3   3   33.90    9.30
  -5   3  -3   38.50   11.80
  -5   3  -3   40.10    9.90
   5   3   3   33.10    8.20
   5   3   3   43.50   11.80
  -5  -3   3   51.49   13.40
   5  -3  -3   45.60   10.20
   5  -3  -3   39.90   10.60
  -5   4   3   42.30   13.40
   5  -4   3   50.09   14.10
   5   4  -3   55.79   13.60
   5   4  -3   74.59   15.20
  -5  -4   3   61.39   15.80
  -5   4  -3   21.50   14.20
  -5  -4   3   44.90   10.50
   5  -4  -3   54.29   14.30
   5   4   3   64.09   11.80
   5   4   3   77.99   16.30
  -5   4  -3   46.30   10.70
   5   4   3   36.50   12.50
   5  -4  -3   48.70   14.00
  -5   5   3  -15.40   15.50
  -5  -5  -3   -1.90   13.10
   5  -5   3   -0.10   16.00
   5   5  -3   16.80   15.10
  -5  -5  -3   12.50   12.10
   5   5  -3   -7.50   13.10
  -5   5   3   13.00    9.60
   5  -5   3   -5.60   13.90
   5   5   3   12.80   16.70
   5   5   3   -1.30   10.90
  -5   5  -3   -0.40   11.40
   5  -5  -3  -19.10   15.10
  -5   5  -3   12.60   15.60
  -5  -5   3    2.60   16.40
  -5   6   3  -27.90   20.10
   5   6  -3    8.10   19.80
  -5  -6  -3   -1.70   13.90
   5   6  -3    0.50   16.90
   5  -6   3   27.30   18.90
   5  -6   3   -7.30   18.70
  -5  -6  -3    0.60   17.00
   5  -6  -3   15.80   18.00
   5  -6  -3  -21.40   16.70
   5   6   3   25.00   21.10
  -5   6  -3   28.90   20.90
  -5  -6   3   16.30   20.20
   5   6   3  -12.90   14.10
  -5   7   3  -29.20   26.90
   5  -7   3  -19.80   23.80
  -5  -7  -3   18.60   24.00
   5  -7   3    3.60   25.50
   5  -7  -3  -18.30   24.00
   5   7   3   43.80   28.70
   5  -7  -3   53.89   26.40
  -5  -7   3    2.70   26.80
  -5   7  -3  -43.60   26.30
   5   0  -4 1818.62   50.09
   5   0   4 1946.51   55.99
  -5   0  -4 1828.72   47.10
  -5   0   4 1849.71   46.40
   5   0   4 1827.02   51.89
  -5   0   4 1871.81   54.99
  -5  -1  -4 1188.18   33.30
  -5  -1  -4 1264.77   42.30
   5  -1   4 1250.57   39.40
   5  -1   4 1194.08   41.20
  -5   1   4 1196.38   36.20
  -5   1   4 1174.08   40.30
   5   1  -4 1221.58   33.40
   5   1  -4 1172.58   37.50
  -5  -1   4 1203.88   42.20
  -5   1  -4 1213.48   37.40
   5   1   4 1258.17   33.90
  -5  -1   4 1172.58   33.00
   5  -1  -4 1175.98   37.70
   5   1   4 1213.38   38.70
  -5   2   4 2269.57   61.89
   5   2  -4 2302.97   53.89
  -5  -2  -4 2245.28   51.69
   5  -2   4 2213.18   62.19
   5  -2  -4 2132.29   59.19
  -5  -2   4 2184.08   57.59
   5   2   4 2312.37   58.49
   5   3  -4  320.77   20.30
  -5   3   4  360.16   21.00
  -5   3   4  319.97   21.00
   5  -3   4  351.36   22.00
   5   3  -4  321.27   18.40
  -5  -3  -4  349.47   17.00
   5  -3  -4  314.07   20.80
  -5  -3   4  343.07   22.30
   5   3   4  314.07   21.60
   5   3   4  360.26   22.90
  -5  -3   4  360.56   22.40
  -5   3  -4  341.37   23.10
  -5   3  -4  301.27   21.50
   5   4  -4 1830.52   56.19
   5   4  -4 1784.12   49.99
  -5   4   4 1816.12   51.59
   5  -4   4 1781.92   60.19
  -5  -4  -4 1819.02   55.59
   5  -4   4 1903.11   46.10
  -5   4   4 1783.32   57.79
   5   4   4 1797.02   59.09
   5  -4  -4 1795.12   47.30
  -5  -4   4 1801.02   59.39
   5   4   4 1857.61   47.70
  -5   4  -4 1897.11   53.99
  -5  -4   4 1823.22   55.69
  -5   4  -4 1872.61   60.79
   5  -4  -4 1861.31   58.69
   5   4   4 1885.41   58.59
  -5   5   4  620.54   36.60
   5  -5   4  611.84   27.50
   5   5  -4  670.23   34.70
   5  -5   4  592.34   36.30
  -5   5   4  582.34   28.30
  -5  -5  -4  633.24   35.60
   5   5  -4  630.54   30.80
  -5  -5  -4  608.84   32.10
   5  -5  -4  668.13   30.60
  -5   5  -4  648.64   38.80
   5  -5  -4  635.24   34.90
  -5  -5   4  573.34   29.90
  -5  -5   4  624.84   37.30
   5   5   4  678.43   36.30
  -5   5  -4  612.84   30.40
  -5  -6  -4  952.50   46.40
  -5   6   4  886.21   47.20
   5   6  -4  880.91   44.00
   5   6  -4  866.51   39.20
   5  -6   4  794.32   47.60
  -5  -6   4  841.82   49.70
   5   6   4  867.91   35.70
   5  -6  -4  892.51   45.40
  -5   6  -4  929.61   48.10
  -5  -6   4  898.21   37.50
   5  -6  -4  823.32   39.30
   5   6   4  792.92   44.60
  -5   7   4  481.45   46.20
   5   7  -4  435.36   39.40
  -5  -7  -4  543.55   44.00
   5  -7   4  367.66   44.80
  -5  -7   4  429.26   46.30
   5  -7  -4  392.86   37.40
   5   7   4  484.05   42.00
  -5   7  -4  445.86   42.90
   5   0   5    3.40    8.50
  -5   0   5    5.30    8.10
  -5   0  -5    9.40    7.80
  -5   0   5    1.10    7.40
   5   0   5    9.80    9.60
   5  -1   5   29.60   10.10
  -5  -1  -5   25.80    9.60
  -5   1   5    6.30    8.60
   5  -1   5   16.50   10.10
   5   1  -5   18.10    8.70
   5   1   5   -2.20    9.10
  -5  -1   5   11.50    7.80
   5   1   5   27.70    9.20
  -5  -1   5   21.70    8.80
   5   1   5   20.60    9.80
   5  -1  -5   36.00   10.90
   5  -2   5    5.80   10.60
  -5  -2  -5   32.30    9.10
  -5   2   5   32.40    9.70
   5  -2   5    5.90   11.10
  -5   2   5   29.80    9.90
   5   2  -5   28.10    9.50
   5   2  -5   19.20   11.30
  -5  -2   5   47.80   15.10
   5   2   5   18.70   10.30
   5   2   5   18.60   11.60
   5  -2  -5   29.00   10.60
  -5  -2   5   25.30   10.00
  -5   2  -5   61.79   14.20
   5   2   5   11.80   10.00
  -5  -3  -5   15.20    9.80
  -5  -3  -5    5.00   10.10
  -5   3   5   -2.70   11.50
   5   3  -5    8.90   12.60
   5  -3   5    4.20   11.10
   5  -3   5    8.90   12.50
  -5   3   5    7.40    9.60
   5   3  -5    6.50   10.80
   5  -3  -5   -8.80   10.90
  -5   3  -5   17.80   12.20
  -5  -3   5    1.90   12.80
  -5  -3   5    1.70   10.10
   5   3   5    0.50   11.40
  -5   4   5    2.30   13.90
   5   4  -5   22.30   13.20
  -5  -4  -5   -0.10   11.70
   5   4  -5    4.20   14.90
  -5   4  -5   17.50   15.50
  -5   4  -5    3.10   12.60
   5   4   5   35.30   15.40
   5   4   5  -16.30   17.00
   5  -4  -5    5.70   14.00
  -5  -4   5   -0.90   11.60
   5   5  -5    1.80   17.70
  -5   5   5   30.80   17.60
  -5  -5  -5  -10.70   13.90
   5   5  -5  -19.20   16.60
   5  -5   5    1.10   19.90
   5  -5  -5   -2.10   17.10
  -5  -5   5  -17.40   14.10
   5   5   5   16.70   14.60
   5   5   5   15.20   19.70
  -5  -5   5   14.90   19.50
  -5   5  -5   -8.10   18.40
   5   6  -5   20.90   25.10
   5   6  -5  -18.20   21.90
  -5  -6  -5  -26.80   20.40
   5   6   5  -23.90   25.50
   5   6   5  -17.00   18.00
  -5  -6   5   38.70   17.70
  -5  -6   5   35.40   25.60
  -5   0   6 2147.49   66.19
   5   0  -6 2121.59   59.19
  -5   0  -6 2116.59   57.39
   5   0   6 2132.59   65.89
   5   0   6 2126.19   60.99
   5   0  -6 2098.49   56.49
   5   1  -6   18.00   10.20
   5   1  -6   19.20   11.00
   5  -1   6    9.80   11.20
  -5   1   6   22.90   10.60
   5  -1   6    3.00   11.00
  -5  -1  -6   15.50   10.70
  -5   1   6   19.50    9.80
   5   1   6    2.30   11.80
   5   1   6   25.20   10.50
  -5  -1   6   17.80   10.30
  -5   1  -6    3.30   11.10
   5  -1  -6   20.90   10.40
   5  -2   6 2438.16   71.39
  -5  -2  -6 2448.16   62.09
   5   2  -6 2433.56   63.29
  -5   2   6 2344.07   66.39
   5  -2   6 2430.76   69.99
  -5   2   6 2424.96   70.79
   5   2  -6 2417.56   65.89
   5   2   6 2416.16   68.39
  -5   2  -6 2538.95   69.49
  -5  -2   6 2389.66   62.89
  -5  -2   6 2494.15   73.99
   5  -2  -6 2438.46   67.79
   5   2   6 2487.55   73.99
   5   2   6 2518.55   63.09
  -5   3   6   10.30   13.00
   5   3  -6   22.20   11.80
   5  -3   6    0.40   13.10
   5  -3   6   -0.10   13.30
   5   3  -6   13.60   14.30
  -5   3   6   17.40   11.80
  -5  -3  -6    6.30   10.40
   5   3   6    2.90   12.60
   5  -3  -6  -11.10   13.90
   5   3   6   27.00   15.40
  -5   3  -6   36.50   14.20
  -5  -3   6    1.60   11.70
   5  -4   6 1723.43   61.49
   5   4  -6 1728.43   53.99
   5   4  -6 1768.52   56.09
   5  -4   6 1749.82   58.39
  -5  -4  -6 1811.02   59.89
  -5  -4  -6 1777.22   50.79
  -5   4   6 1710.23   54.99
  -5   4   6 1745.03   59.69
  -5   4  -6 1808.12   61.59
  -5  -4   6 1759.92   59.29
   5   4   6 1701.53   59.99
   5  -4  -6 1733.33   59.09
   5   4   6 1798.32   59.79
  -5  -4   6 1726.93   60.49
   5   5  -6   33.40   19.90
   5  -5   6   37.70   20.30
  -5  -5  -6   26.40   16.00
  -5  -5  -6   -5.70   18.00
  -5   5   6    5.00   20.30
  -5   5   6   19.90   16.60
   5   5  -6   39.90   20.00
   5   5   6   86.09   22.30
  -5  -5   6   18.30   16.20
   5   5   6   15.70   26.10
  -5   5  -6    9.60   21.30
  -5  -5   6   24.20   24.30
   5  -5  -6  -20.40   18.70
   5   6  -6 1145.09   52.09
   5  -6   6 1050.19   58.19
  -5  -6  -6 1107.79   54.39
   5   6  -6 1069.39   49.90
  -5   6   6 1054.79   55.49
  -5  -6   6 1123.09   50.59
   5   6   6 1172.78   45.10
  -5  -6   6 1145.19   60.09
   5  -6  -6 1172.98   53.09
   5   6   6 1132.69   56.39
  -5   6  -6 1185.28   57.29
  -5   0  -7  -24.90   11.20
   5   0   7   15.60   12.40
   5   0  -7   20.90   10.60
   5   0  -7   -6.10   13.40
  -5   0   7   -1.70   11.50
   5   0   7   -3.10   12.10
   5  -1   7   17.30   12.60
   5   1  -7   25.60   13.10
   5  -1   7  -10.70   13.20
  -5  -1  -7   17.30   11.30
   5   1  -7  -12.20   11.20
  -5   1   7   -4.90   11.20
  -5   1   7    4.20   11.40
  -5  -1   7   10.30   11.60
   5   1   7   11.50   13.30
   5   1   7   21.90   12.70
  -5   1  -7   24.40   13.50
   5  -1  -7   -9.40   12.40
  -5   2   7   24.10   13.00
  -5  -2  -7   27.20   13.00
   5   2  -7   22.20   15.30
  -5   2   7   13.70   12.80
   5   2  -7   19.10   13.40
   5  -2   7   33.50   14.80
   5  -2   7   40.30   14.40
  -5  -2  -7   37.10   12.20
   5   2   7   34.10   14.30
   5  -2  -7   27.60   14.40
  -5   2  -7   35.30   15.80
  -5  -2   7   60.69   19.40
   5   2   7   24.80   13.70
  -5  -2   7    8.70   13.10
  -5   3   7   81.79   22.30
   5   3  -7   31.80   15.00
  -5   3   7   40.00   16.00
   5  -3   7   22.40   16.00
   5  -3   7   35.30   18.00
   5   3  -7   40.90   16.60
  -5  -3  -7   23.40   13.20
  -5  -3   7    6.10   17.80
   5  -3  -7   44.70   16.00
  -5  -3   7   34.20   14.50
   5   3   7   23.30   15.90
  -5   3  -7   47.30   17.20
   5   3   7   45.40   16.90
   5   3   7   73.49   21.30
  -5   4   7   18.20   16.30
   5   4  -7   -6.90   18.70
  -5   4   7    1.80   18.40
   5  -4   7    7.20   20.60
   5  -4   7   -2.30   18.10
  -5  -4  -7   17.20   14.90
   5   4  -7   17.90   18.90
  -5  -4  -7   16.20   16.20
   5   4   7   -2.00   18.50
   5   4   7    7.10   22.10
  -5  -4   7    9.10   21.00
  -5  -4   7   15.40   16.80
   5  -4  -7    4.90   17.80
  -5   4  -7   27.70   19.20
  -5  -5  -7  -14.10   17.50
  -5  -5  -7  -17.00   17.80
   5   5  -7   16.10   21.80
  -5  -5  -7   -5.60   21.10
  -5   5   7   16.90   19.20
   5   5  -7   87.59   27.50
  -5   5   7   26.80   22.90
  -5  -5   7   41.50   27.50
  -5   5  -7  -10.20   24.50
   5   5   7  -25.70   28.20
  -5  -5   7  -20.00   19.10
   5   0   8 1123.29   50.29
  -5   0  -8 1102.59   42.80
   5   0  -8 1126.59   42.90
   5   0   8 1076.89   43.90
   5   0  -8 1092.79   42.10
  -5   0   8 1141.39   49.10
  -5   1   8  277.67   29.70
   5   1  -8  352.36   25.00
  -5  -1  -8  331.77   25.40
   5  -1   8  330.67   26.50
   5  -1   8  354.76   32.40
   5   1  -8  329.97   24.00
   5   1   8  311.27   26.80
  -5   1  -8  378.96   26.30
   5  -1  -8  330.07   24.80
  -5  -1   8  342.27   29.50
   5  -1  -8  314.87   24.60
   5   1   8  341.67   31.20
   5   2  -8 1447.66   51.29
  -5   2   8 1509.95   57.29
  -5   2   8 1459.15   51.89
   5   2  -8 1429.56   49.10
  -5  -2  -8 1468.35   48.80
   5  -2   8 1380.36   53.89
   5  -2   8 1460.75   57.69
   5   2   8 1437.46   51.39
   5   2   8 1421.36   58.89
   5  -2  -8 1464.45   51.39
  -5   2  -8 1479.65   55.19
  -5  -2   8 1429.16   56.99
   5   3  -8  288.87   24.60
   5  -3   8  304.67   30.90
  -5   3   8  250.67   29.00
   5   3  -8  306.57   28.50
  -5   3   8  343.27   31.80
   5  -3   8  320.17   34.30
  -5  -3  -8  340.07   24.90
  -5  -3  -8  244.78   25.80
  -5  -3   8  266.27   31.50
  -5  -3   8  268.57   32.80
   5   3   8  263.37   29.30
   5   3   8  268.77   34.00
   5  -3  -8  303.37   27.40
  -5   3  -8  344.37   31.50
   5   4  -8 1411.46   54.39
   5  -4   8 1256.07   57.49
  -5  -4  -8 1392.56   49.20
  -5  -4  -8 1285.57   56.79
  -5  -4  -8 1395.96   49.80
   5   4  -8 1339.67   49.90
  -5   4   8 1324.97   56.69
   5  -4   8 1386.16   58.59
   5  -4  -8 1369.56   54.19
  -5  -4   8 1330.67   56.69
   5   4   8 1380.56   57.09
  -5  -4   8 1284.37   56.29
  -5   5   8  279.07   38.70
   5  -5   8  195.48   43.20
  -5  -5  -8  316.67   33.80
  -5  -5  -8  193.88   38.70
  -5  -5  -8  307.07   31.40
   5   5  -8  336.57   36.80
   5  -5   8  185.68   41.70
  -5  -5  -8  267.47   37.10
   5   5  -8  325.37   34.20
  -5  -5   8  295.27   42.40
   5  -5  -8  206.78   31.80
  -5   5  -8  294.07   40.00
  -5  -5   8  228.18   44.30
   5   0   9   -3.10   18.40
  -5   0   9   21.10   17.60
  -5   0  -9   21.30   17.70
   5   0  -9   -1.80   19.30
   5   0  -9    6.60   17.00
   5   0   9  -11.70   18.00
   5   1  -9   17.40   16.90
   5  -1   9  -10.50   18.40
  -5  -1  -9   15.10   18.20
   5  -1   9  -23.60   18.80
   5   1  -9   49.80   20.40
  -5   1   9   26.50   18.00
   5   1   9  -21.50   18.70
   5   1   9   27.80   19.70
  -5  -1   9   50.99   18.50
  -5   1  -9   40.50   17.80
   5  -1  -9   26.00   16.20
   5  -1  -9   38.80   19.40
   5   2  -9   -2.40   20.80
  -5  -2  -9   17.00   18.50
   5  -2   9  -10.80   20.90
   5  -2   9   20.40   21.40
   5   2  -9  -17.90   18.60
  -5   2   9   28.30   18.80
   5  -2  -9    4.20   18.10
   5  -2  -9  -22.80   20.40
  -5  -2   9  112.59   33.40
   5   2   9  -22.20   20.00
   5   2   9   32.50   20.10
  -5   2  -9  -25.20   20.50
   5   3  -9   52.59   23.00
  -5   3   9  -31.70   21.80
  -5  -3  -9  -16.30   19.50
  -5   3   9   18.10   21.40
   5   3  -9  -45.40   21.30
   5  -3   9   18.70   22.90
   5  -3   9  -17.20   24.10
   5   3   9    3.70   22.60
   5   3   9  -17.50   21.90
  -5  -3   9    7.40   22.00
  -5   3  -9   43.90   24.10
   5  -3  -9   -7.60   23.00
  -5   4   9   -1.50   25.50
   5   4  -9  106.69   31.50
   5  -4   9   38.50   28.80
  -5   4   9   19.90   22.90
   5  -4   9  -15.20   26.50
   5   4  -9    4.30   26.90
  -5  -4  -9  -18.20   23.00
   5  -4  -9   47.70   26.30
  -5   4  -9   28.40   25.80
  -5  -4   9   44.10   26.00
   5   4   9   35.80   27.90
   5   0  10  364.46   43.50
  -5   0  10  411.26   41.60
   5   0 -10  442.36   32.20
   5   0  10  400.16   37.20
   5  -1  10  836.72   55.89
  -5   1  10  862.01   53.39
   5   1 -10  828.22   41.20
   5  -1  10  857.41   45.80
  -5  -1 -10  852.21   44.20
  -5  -1  10  947.51   53.19
   5  -1 -10  868.41   44.10
   5  -1 -10  853.51   43.50
  -5   1 -10  929.71   45.70
   5   1  10  881.91   54.19
   5   1  10  803.72   46.70
   5  -2  10  531.25   48.40
   5   2 -10  438.36   37.90
  -5   2  10  383.46   46.70
   5  -2  10  487.35   40.10
   5   2 -10  448.66   35.20
   5  -2 -10  524.55   36.90
   5  -2 -10  525.55   36.90
  -5   2 -10  482.65   39.30
  -5  -2  10  508.75   47.30
   5   2  10  368.16   40.20
   5   2  10  395.96   46.80
   6   0   0 4382.86   91.59
   6   0   0 4041.30   83.59
  -6   0   0 4380.36   83.39
  -6   0   0 4273.97  100.09
   6   0   0 4464.75   94.69
   6   1   0   10.20    6.20
   6  -1   0   -2.00    6.10
  -6   1   0    1.80    6.20
  -6  -1   0   -5.60    6.20
  -6   1   0   -0.90    6.10
   6   1   0   -0.10    6.60
   6  -1   0   -6.80    5.70
   6  -2   0 3917.41   84.89
   6   2   0 3964.20   89.29
   6  -2   0 3974.90   88.49
  -6   2   0 3753.72   90.19
   6   2   0 3910.31   91.59
  -6   2   0 3858.31   87.79
  -6  -2   0 3834.02   93.49
   6  -3   0   -8.30    8.20
  -6  -3   0    0.50    8.40
  -6   3   0   -9.80    8.00
   6   3   0   -1.70    9.00
   6  -3   0   -3.40    8.70
   6   3   0    6.20   10.20
   6  -4   0 2423.16   64.39
  -6  -4   0 2402.56   70.39
  -6  -4   0 2445.26   66.79
  -6   4   0 2401.16   70.49
  -6   4   0 2473.05   60.69
   6   4   0 2441.06   68.99
   6  -4   0 2412.46   66.29
   6  -5   0  -21.50   14.20
   6   5   0   -1.50   15.10
   6  -5   0  -20.00   14.30
  -6  -5   0    8.80   13.40
  -6  -5   0    9.90   11.20
  -6   5   0   11.20   16.20
   6  -6   0 1231.58   47.70
   6  -6   0 1198.28   48.20
  -6   6   0 1124.59   51.89
  -6  -6   0 1173.08   52.79
   6   6   0 1193.98   50.89
  -6  -6   0 1119.49   42.00
   6   7   0   25.10   26.30
  -6   7   0   31.90   26.90
  -6  -7   0   41.00   24.80
   6  -7   0   18.60   23.80
   6  -7   0   -3.40   23.90
  -6   0  -1    6.90    6.40
  -6   0  -1    3.90    5.60
   6   0   1   -3.70    5.60
  -6   0   1   -1.70    6.70
   6   0   1   -9.20    5.80
   6   0  -1   27.10    7.80
  -6   1   1   -1.70    6.00
   6   1  -1   -3.10    6.40
   6   1  -1    0.80    5.90
  -6   1   1   -0.40    6.40
   6  -1   1   -0.90    6.20
   6  -1   1    4.90    5.90
  -6  -1  -1   -2.60    7.10
  -6   1  -1    8.30    7.50
   6  -1  -1    2.90    5.20
   6   1   1   -4.90    6.20
   6   1   1    6.10    6.30
  -6  -1   1    3.30    7.00
   6  -1  -1    0.70    5.90
  -6   1  -1   -1.50    6.70
   6  -2   1   99.59   12.10
  -6   2   1   99.89   13.20
   6   2  -1   92.79   11.50
   6  -2   1   86.89    9.40
  -6  -2  -1  107.79   13.80
   6   2  -1   94.69   10.80
  -6   2  -1   78.29   12.70
  -6  -2   1   69.39   13.50
  -6   2  -1   88.49   14.10
   6   2   1   88.39   11.60
   6   2   1  115.79   11.80
   6  -2  -1  111.09   11.10
  -6   3   1   12.80    8.50
   6  -3   1   13.40    9.40
   6  -3   1   20.40    9.60
  -6  -3  -1    8.40    8.60
   6   3  -1   25.40    9.70
  -6  -3   1    5.30    8.10
  -6   3  -1   23.00    8.70
   6  -3  -1   16.40    8.10
   6  -3  -1   14.30    9.50
   6   3   1    2.30    8.80
  -6   4   1    9.40    9.50
   6   4  -1   15.40   12.40
   6  -4   1   -5.50   11.20
  -6  -4  -1   -5.80    9.80
   6  -4   1   10.70   11.00
  -6  -4  -1   23.70   10.70
  -6   4   1   15.90   13.30
  -6   4  -1    3.60    9.80
   6  -4  -1   46.60   13.50
  -6   4  -1  -16.10   12.70
  -6  -4   1   -2.70   10.50
   6   4   1   26.60   13.30
   6  -4  -1   23.40   11.30
  -6  -4   1   -9.90   10.00
   6   5  -1   -8.60   15.20
  -6   5   1   23.00   16.80
   6  -5   1   -0.80   14.50
  -6  -5  -1    3.00   12.90
   6   5  -1    6.20   10.60
   6  -5   1  -24.90   14.90
  -6  -5  -1  -15.00   13.00
  -6   5  -1   16.90   15.60
   6  -5  -1  -13.30   14.60
   6  -5  -1   -6.90   13.20
   6   5   1   18.10   15.70
   6   5   1   -0.90    9.30
  -6   6   1   -8.20   21.90
   6  -6   1  -11.00   18.80
   6   6  -1   33.90   20.00
  -6  -6  -1   38.80   17.40
   6  -6   1   -7.80   18.40
  -6   6  -1   40.30   21.30
  -6  -6   1  -11.00   17.90
   6  -6  -1    3.70   19.70
   6  -6  -1   74.69   26.00
   6   6   1    7.80   21.00
  -6   7   1   19.20   27.90
  -6  -7  -1   17.20   24.50
   6   7  -1  -20.90   27.50
   6  -7   1    0.90   24.00
   6  -7   1   22.70   24.30
   6   7   1  -12.20   26.40
   6  -7  -1   36.30   25.60
   6  -7  -1   11.40   22.70
  -6  -7   1   17.60   25.30
  -6   7  -1  -26.80   25.30
  -6   0  -2 2572.54   58.19
  -6   0   2 2749.32   71.69
  -6   0   2 2667.13   56.59
   6   0   2 2707.13   59.79
   6   0  -2 2725.43   65.49
   6   0  -2 2671.83   60.39
  -6   0  -2 2699.03   70.79
   6   0   2 2638.84   66.59
   6  -1   2  818.92   29.30
   6   1  -2  743.93   20.60
   6   1  -2  779.52   26.50
   6  -1   2  796.32   23.50
  -6   1   2  788.92   25.30
   6   1  -2  784.92   28.40
  -6   1   2  813.92   31.70
  -6  -1  -2  762.82   19.70
  -6  -1  -2  812.72   31.90
   6   1  -2  789.22   20.20
  -6  -1   2  846.02   33.20
   6  -1  -2  796.32   23.30
   6   1   2  774.52   26.10
  -6   1  -2  798.02   31.30
   6   1   2  768.62   28.30
  -6   1  -2  777.92   27.10
   6  -1  -2  786.82   27.90
  -6  -2  -2 2867.51   74.69
   6   2  -2 2839.72   72.89
   6  -2   2 2887.61   72.09
   6  -2   2 2752.72   61.19
  -6   2   2 2844.32   68.49
  -6   2   2 2808.62   71.69
   6   2   2 2671.03   67.49
   6  -2  -2 2771.72   68.59
  -6  -2   2 2801.62   69.79
   6  -2  -2 2847.02   63.29
   6   2   2 2828.62   74.49
  -6  -2   2 2884.61   75.09
  -6   2  -2 2808.22   72.19
  -6   2  -2 2772.22   69.99
  -6   3   2  615.54   28.60
  -6  -3  -2  638.44   29.70
   6  -3   2  647.54   28.40
   6   3  -2  602.24   27.40
  -6   3   2  623.94   26.50
   6  -3   2  621.84   22.70
  -6   3  -2  589.84   27.00
  -6   3  -2  606.14   29.10
   6  -3  -2  606.34   23.20
  -6  -3   2  585.74   28.90
   6  -3  -2  608.64   26.90
   6   3   2  578.94   28.60
   6   4  -2 1564.24   40.10
  -6   4   2 1583.44   52.99
   6  -4   2 1606.04   45.30
  -6   4   2 1644.74   45.60
   6  -4   2 1574.34   53.19
   6   4  -2 1633.24   52.49
   6  -4  -2 1613.44   47.00
  -6   4  -2 1628.84   47.20
  -6   4  -2 1527.55   53.39
   6   4   2 1590.24   52.79
  -6  -4   2 1553.24   53.19
   6   4   2 1562.54   54.99
   6  -4  -2 1635.44   51.49
  -6   5   2  465.55   21.70
   6   5  -2  443.16   28.00
  -6   5   2  405.36   29.70
   6   5  -2  397.66   22.80
   6  -5   2  411.36   30.10
  -6  -5  -2  424.56   29.20
   6  -5   2  384.36   24.50
   6   5   2  409.86   28.20
  -6  -5   2  415.36   25.60
  -6   5  -2  413.86   30.50
   6  -5  -2  366.66   25.40
  -6   5  -2  366.96   24.30
   6   5   2  389.36   19.60
   6  -5  -2  388.86   26.70
  -6  -5   2  416.86   30.40
  -6  -6  -2  993.40   40.60
   6  -6   2  952.60   47.60
  -6   6   2  998.60   48.20
   6  -6   2  970.50   40.30
  -6  -6  -2  996.90   45.80
   6   6  -2 1003.20   45.80
  -6  -6   2  860.91   47.70
  -6   6  -2  944.01   48.20
   6  -6  -2 1021.40   42.30
   6   6   2  951.90   47.00
   6  -6  -2 1000.90   45.80
  -6  -6   2  948.91   38.00
   6  -7   2  293.57   32.70
  -6  -7  -2  310.27   40.70
   6   7  -2  297.17   36.20
  -6   7   2  331.87   41.60
   6  -7   2  307.17   42.70
   6   7   2  404.26   35.80
   6  -7  -2  393.76   36.90
  -6  -7   2  348.67   43.90
  -6   7  -2  400.56   40.20
   6  -7  -2  255.87   35.10
  -6   0  -3  -13.80    7.00
  -6   0   3   12.90    7.40
   6   0   3    7.80    6.90
  -6   0  -3    1.20    6.40
  -6   0   3   -1.00    5.80
   6   0  -3    6.60    7.90
   6   0  -3    1.80    5.70
   6   0   3    0.20    6.90
   6   1  -3    4.10    5.50
   6   1  -3    2.00    7.70
  -6   1   3   16.50    6.60
   6  -1   3   23.20    8.20
   6  -1   3   26.60    7.60
  -6  -1  -3   -1.10    5.70
  -6  -1  -3    6.40    7.80
  -6   1   3   -7.30    7.10
  -6  -1   3   13.10    7.90
  -6   1  -3    7.10    7.70
   6  -1  -3    6.40    7.20
  -6   1  -3    3.40    7.30
  -6  -1   3    6.80    7.30
   6   1   3    8.80    7.30
   6   1   3    2.50    7.50
   6   2  -3   74.29    9.20
   6  -2   3   78.59   13.40
  -6  -2  -3   73.59    9.10
  -6   2   3   67.19   12.60
   6  -2   3   83.89    8.70
  -6   2   3   71.09   14.30
   6   2  -3   71.19   11.80
   6   2   3   79.79   13.10
  -6   2  -3   91.69   14.20
   6  -2  -3   56.69    8.50
  -6   2  -3   68.89   15.30
   6  -2  -3   87.09   11.80
  -6  -2   3   70.59   12.60
   6   2   3   55.69   13.10
  -6  -3  -3    6.00    9.60
  -6   3   3   15.90    8.70
   6  -3   3   20.90   11.10
  -6  -3  -3    7.20    6.50
  -6   3   3    5.80    9.90
   6  -3   3    6.10    8.10
   6   3  -3    7.90    7.90
   6   3  -3   30.10   11.90
  -6  -3   3    7.70    9.70
  -6   3  -3   19.90    9.90
   6  -3  -3   10.40   10.20
   6   3   3   -7.30    9.30
  -6   3  -3   25.00   12.30
   6  -3  -3    7.40    7.60
   6   4  -3   61.29   12.50
  -6  -4  -3   83.89   17.80
  -6   4   3   60.79   16.10
   6   4  -3   62.09   15.30
  -6   4   3   40.80   14.50
   6  -4   3   95.39   14.10
   6  -4   3  100.29   18.20
   6  -4  -3   51.49   15.30
   6   4   3   99.19   19.00
  -6   4  -3   45.90   11.90
  -6   4  -3   67.39   16.20
   6  -4  -3   87.39   16.00
  -6  -4   3   50.49   17.30
  -6  -4   3   63.49   19.60
   6   4   3   39.30   11.30
   6   4   3   69.49   17.10
  -6   5   3    4.20   11.50
   6   5  -3   13.10   17.10
  -6   5   3   11.70   17.60
  -6  -5  -3    1.40   14.90
   6  -5   3    8.80   15.80
   6   5  -3  -11.30   14.20
  -6  -5  -3  -10.40   12.30
   6   5   3   -0.20   12.00
   6  -5  -3  -16.00   15.40
  -6   5  -3   23.60   13.90
  -6  -5   3   -4.10   17.90
  -6   5  -3    3.10   17.70
   6   5   3   -9.20   18.30
  -6  -6  -3    8.60   18.80
  -6  -6  -3   -6.50   14.30
   6   6  -3  -36.90   21.90
  -6   6   3  -38.60   21.80
   6  -6   3  -19.60   21.20
   6   6   3   42.00   22.60
  -6  -6   3  -19.20   21.90
  -6   6  -3    6.20   22.90
  -6  -6   3   28.80   15.90
   6  -6  -3  -16.70   19.30
   6  -6  -3    7.30   18.00
   6  -7   3  -19.90   27.90
  -6  -7  -3  114.49   34.50
  -6   7   3   -6.80   29.70
   6   7  -3  -13.90   28.50
   6  -7  -3   40.20   23.50
  -6  -7   3   31.40   29.20
   6   7   3   23.70   28.40
  -6   7  -3   36.20   30.20
   6  -7  -3  -38.10   26.90
  -6   0   4  581.74   22.20
   6   0   4  566.44   25.90
  -6   0  -4  568.44   27.80
  -6   0   4  564.14   28.30
  -6   0  -4  599.14   23.70
   6   0   4  569.44   19.20
  -6   1   4 2822.32   67.69
   6   1  -4 2926.61   63.69
   6   1  -4 2871.41   71.79
  -6  -1  -4 2888.41   77.19
   6  -1   4 2868.51   74.49
  -6  -1  -4 2839.72   63.79
  -6   1  -4 2633.04   78.09
  -6  -1   4 2857.21   77.89
   6  -1  -4 2817.32   72.19
   6   1   4 2844.62   73.99
  -6  -1   4 2800.52   65.49
  -6   1  -4 2834.92   69.29
   6   1   4 2914.81   65.79
  -6   2   4  742.23   29.80
   6   2  -4  731.03   30.80
  -6  -2  -4  743.73   24.20
  -6  -2  -4  694.03   31.70
   6   2  -4  751.02   25.30
   6  -2   4  693.03   30.60
   6  -2  -4  729.83   30.10
  -6  -2   4  780.72   34.00
   6   2   4  749.33   29.60
  -6  -2   4  717.13   28.20
   6   2   4  772.32   31.50
  -6   2  -4  740.63   31.30
  -6   3   4 1152.98   42.20
  -6  -3  -4 1159.78   43.50
   6   3  -4 1222.78   35.80
   6   3  -4 1149.78   41.50
  -6  -3  -4 1150.28   32.50
  -6   3  -4 1180.98   43.40
   6   3   4 1203.18   42.50
   6   3   4 1201.48   44.20
   6  -3  -4 1239.28   43.60
  -6  -3   4 1189.68   43.80
  -6   4   4  656.13   33.50
   6   4  -4  631.24   27.80
   6   4  -4  620.34   32.00
  -6  -4  -4  728.73   33.80
   6  -4   4  648.34   24.20
  -6   4   4  661.03   31.20
   6  -4   4  672.33   33.70
   6  -4  -4  689.93   33.50
   6   4   4  638.04   33.70
  -6  -4   4  677.53   35.30
   6   4   4  694.53   35.00
   6  -4  -4  667.13   25.80
  -6  -4   4  697.43   32.50
  -6   4  -4  692.53   36.00
   6  -5   4 1053.89   48.20
  -6  -5  -4 1084.69   47.60
   6  -5   4 1079.29   37.90
   6   5  -4 1091.99   44.40
  -6   5   4 1070.69   48.40
  -6  -5  -4 1074.39   42.60
  -6   5   4 1053.99   38.00
  -6   5  -4 1083.79   48.60
   6  -5  -4 1049.20   38.60
  -6  -5   4 1137.99   50.29
   6  -5  -4 1116.79   46.00
   6   5   4 1040.20   45.50
   6   5   4 1045.50   35.60
  -6   5  -4 1092.09   41.60
  -6  -5   4 1072.19   42.60
   6  -6   4  370.36   36.90
   6   6  -4  351.26   33.70
  -6  -6  -4  368.06   35.80
  -6   6   4  310.67   39.00
  -6  -6  -4  386.26   30.90
  -6  -6   4  305.67   37.60
  -6   6  -4  347.57   37.70
   6  -6  -4  328.77   30.70
  -6  -6   4  330.77   30.50
   6   6   4  357.26   34.70
  -6   0  -5  -18.00    8.90
   6   0  -5    4.50    9.80
   6   0   5    2.50    9.00
  -6   0   5    0.00    9.00
  -6   0  -5   -8.30    8.70
  -6   0   5   12.10    8.40
  -6  -1  -5   10.10    9.30
  -6  -1  -5    6.00    9.80
   6  -1   5    6.80    9.80
   6   1  -5   18.60   10.60
   6   1  -5   -1.00    7.80
  -6   1   5    4.10    9.80
  -6   1   5    9.80    8.90
  -6   1  -5   -2.70   10.60
   6   1   5    6.30    9.30
  -6   1  -5  -17.80    9.40
  -6  -1   5   12.20    9.70
  -6  -1   5    9.90    9.00
   6  -1  -5    6.20    9.10
   6   1   5   -2.30   10.00
  -6   2   5  -17.20    9.90
   6   2  -5   26.50   10.20
   6   2  -5   20.40   12.50
  -6  -2  -5    4.20    9.20
  -6   2   5   26.70   11.80
  -6  -2  -5   25.80   10.70
   6  -2   5   21.30   11.80
  -6   2  -5   -7.00   10.80
   6   2   5   47.40   16.00
   6   2   5    3.50   12.40
   6  -2  -5   11.70   11.10
  -6   2  -5   10.20   11.80
  -6  -2   5   -5.70   10.10
  -6  -2   5    2.00   11.20
  -6  -3  -5   17.90   11.80
  -6   3   5   16.20   12.90
   6  -3   5   -3.20   12.70
  -6   3   5   29.70   12.30
  -6  -3  -5   39.70   10.80
   6   3  -5   39.00   13.40
   6   3  -5   28.00   12.40
  -6   3  -5   72.79   19.00
   6   3   5   42.30   14.80
  -6   3  -5   27.20   14.00
  -6  -3   5   16.50   11.80
   6   3   5   30.40   12.80
   6  -3  -5   34.60   13.20
   6  -4   5   71.09   22.10
  -6  -4  -5   12.10   11.50
   6   4  -5   23.30   16.80
  -6   4   5    4.60   12.70
  -6  -4  -5    9.90   13.50
  -6   4   5   24.30   15.00
   6   4   5   16.70   17.70
   6   4   5   18.40   15.40
  -6   4  -5   39.80   17.30
  -6   4  -5    0.10   14.00
   6  -4  -5  -10.70   14.50
  -6  -4   5    3.20   13.70
  -6  -4   5   41.20   17.80
  -6  -5  -5    1.20   15.50
   6  -5   5    2.50   18.80
   6   5  -5   17.10   20.40
  -6   5   5   31.50   19.90
   6   5  -5    2.60   18.10
  -6  -5  -5  -15.40   18.20
  -6   5  -5   -6.90   16.30
  -6   5  -5   17.20   21.20
   6   5   5  -15.80   22.50
  -6  -5   5  -21.90   23.10
   6  -5  -5   14.10   18.30
  -6  -5   5  -10.80   15.40
   6   5   5    6.40   14.20
  -6   6   5  -35.50   25.00
  -6  -6  -5   39.30   23.90
   6   6  -5   61.19   25.20
  -6  -6  -5  -35.90   19.40
   6  -6   5  -20.10   25.50
  -6  -6   5    1.20   19.20
   6   6   5    6.90   26.30
   6  -6  -5   16.70   24.00
  -6   6  -5   13.00   26.20
  -6  -6   5  -16.20   26.30
   6   0   6    9.10   11.40
  -6   0  -6   12.20   10.30
   6   0  -6  -14.40   11.80
  -6   0   6   -5.50   11.30
   6   0  -6    1.60   10.10
   6   0   6    2.90   11.80
  -6   1   6 2490.75   74.99
   6  -1   6 2498.35   71.49
  -6  -1  -6 2465.35   63.69
  -6   1   6 2487.45   65.99
   6   1  -6 2585.44   64.29
   6   1  -6 2451.55   67.69
   6  -1   6 2449.95   74.69
   6  -1  -6 2463.55   68.79
  -6   1  -6 2458.75   67.79
   6   1   6 2445.96   70.19
   6   1   6 2491.85   76.69
  -6  -1   6 2450.35   75.69
   6   1   6 2564.64   57.69
  -6  -2  -6   -2.30   12.40
   6  -2   6   27.70   13.30
   6   2  -6   17.30   14.00
   6   2  -6   10.40   11.50
  -6   2   6   10.10   12.10
   6  -2   6   57.89   18.70
  -6   2   6   30.40   12.40
  -6  -2  -6   29.90   10.80
  -6  -2   6    6.90   12.70
   6  -2  -6    4.00   13.60
   6   2   6   15.00   13.10
   6   2   6   47.80   15.80
  -6  -2   6   23.90   13.90
  -6   2  -6   27.50   15.70
  -6   3   6 1775.52   58.39
   6   3  -6 1827.82   57.39
   6   3  -6 1786.92   51.99
  -6  -3  -6 1834.12   50.49
  -6  -3  -6 1810.02   61.39
   6  -3   6 1733.23   60.79
  -6   3   6 1795.82   59.19
   6  -3  -6 1846.02   58.59
  -6   3  -6 1783.62   60.39
   6   3   6 1898.31   56.09
  -6   3  -6 1835.22   60.09
   6   3   6 1837.42   61.39
  -6  -3   6 1866.61   57.79
  -6  -3   6 1756.42   61.59
   6   4  -6   72.19   21.30
  -6   4   6    7.10   14.70
  -6   4   6   -8.10   16.90
  -6  -4  -6    1.40   14.20
  -6  -4  -6   11.90   13.30
   6  -4   6    0.60   17.90
  -6   4  -6    0.30   19.40
   6   4   6    3.30   19.90
  -6   4  -6   86.09   26.80
   6  -4  -6   28.40   17.20
  -6  -4   6   16.50   15.70
  -6  -4   6   23.00   20.60
   6   4   6   18.40   17.40
   6   5  -6 1154.18   45.90
  -6  -5  -6 1159.18   52.59
  -6   5   6 1123.99   53.49
  -6   5   6 1136.09   44.30
   6  -5   6 1210.78   53.19
  -6  -5  -6 1142.79   41.20
  -6  -5  -6 1198.58   50.09
   6   5  -6 1131.29   48.40
  -6   5  -6 1139.19   53.89
   6   5   6 1172.68   54.79
   6  -5  -6 1155.18   50.59
  -6   5  -6 1118.69   47.70
  -6  -5   6 1207.78   55.99
  -6  -5   6 1182.48   49.90
   6  -6   6   17.70   26.80
  -6  -6  -6   -8.70   25.50
  -6   6   6   -6.30   28.70
  -6   6  -6  -21.10   29.30
   6  -6  -6  -52.49   24.80
  -6  -6   6   31.00   22.00
   6   0  -7  -14.30   14.10
   6   0  -7   21.50   11.90
  -6   0   7   22.10   13.70
   6   0   7   -1.80   13.60
   6   0   7   -0.20   13.40
  -6   0  -7    0.90   12.70
   6   1  -7   11.50   14.30
  -6   1   7   -7.10   12.90
  -6  -1  -7  -23.70   12.90
   6  -1   7   -7.30   13.80
   6   1  -7    1.50   13.00
   6  -1   7   -0.60   13.80
  -6   1   7   10.40   13.10
  -6  -1   7   -7.40   13.10
   6   1   7   12.00   14.60
   6  -1  -7   -3.40   13.70
  -6   1  -7  -18.40   14.60
   6   1   7   -7.90   14.80
  -6   2   7   31.80   14.60
   6   2  -7   66.49   18.20
  -6   2   7   42.70   14.50
  -6  -2  -7   28.80   13.30
   6  -2   7   42.90   16.30
   6   2  -7   62.99   15.60
   6  -2   7    0.20   16.80
  -6  -2   7   47.40   16.80
   6   2   7   26.10   17.70
   6   2   7   52.69   17.60
  -6   2  -7   46.00   16.50
  -6  -2   7   45.20   16.20
   6  -2  -7   66.39   17.90
   6   2   7   38.90   15.70
   6  -3   7   32.90   17.40
   6  -3   7    2.50   16.80
  -6   3   7    0.70   16.20
  -6   3   7   28.40   15.50
  -6  -3  -7   -0.50   14.40
   6   3  -7   -9.70   15.40
   6   3  -7  -26.70   17.30
  -6  -3  -7    5.20   15.20
  -6   3  -7   34.40   18.10
   6   3   7  -27.70   19.40
   6  -3  -7  -19.80   16.80
   6   3   7  -13.30   17.30
  -6  -3   7    6.90   15.50
  -6  -3   7    5.30   19.40
   6   4  -7   27.50   19.90
  -6   4   7   52.99   21.10
  -6  -4  -7   -8.00   15.60
   6  -4   7   -3.20   21.30
  -6  -4  -7    6.50   16.60
  -6   4   7   29.10   16.70
  -6   4  -7   79.59   22.90
   6  -4  -7   74.69   22.40
  -6  -4   7   61.59   24.00
  -6  -4   7   30.90   18.70
   6   4   7   57.29   25.60
   6   4   7   22.60   21.40
  -6  -5  -7  -17.20   23.30
  -6  -5  -7   13.10   18.90
   6   5  -7  -11.20   23.00
  -6   5   7   12.30   24.80
   6  -5   7  -11.80   25.70
   6   5  -7  -25.80   25.40
  -6  -5  -7   12.90   20.00
  -6  -5   7  103.09   34.70
   6   5   7   23.80   29.40
  -6   5  -7   -2.90   26.90
   6  -5  -7  -26.40   23.50
  -6   5  -7   -1.40   21.40
  -6  -5   7   24.40   29.20
  -6   0   8  408.76   33.30
   6   0   8  365.66   33.40
   6   0  -8  394.16   27.50
  -6   0  -8  410.46   28.50
   6   0   8  450.65   30.80
   6   0  -8  400.36   26.80
  -6   1   8 1541.25   59.79
   6  -1   8 1493.45   55.49
  -6  -1  -8 1587.64   52.69
   6   1  -8 1501.35   52.19
   6   1  -8 1559.84   52.19
   6  -1   8 1568.94   61.19
  -6  -1   8 1558.04   61.19
   6   1   8 1511.15   62.39
   6   1   8 1516.75   55.19
  -6   1  -8 1525.85   55.09
   6  -1  -8 1538.95   53.09
   6  -1  -8 1544.65   53.19
  -6   2   8  326.97   26.80
  -6   2   8  277.27   31.40
   6  -2   8  233.78   29.70
  -6  -2  -8  301.67   26.70
   6   2  -8  311.17   27.00
   6  -2   8  302.87   33.80
   6   2  -8  261.57   26.30
   6   2   8  304.67   35.60
   6   2   8  307.87   29.80
  -6   2  -8  319.37   29.30
   6  -2  -8  285.07   25.90
  -6  -2   8  297.87   33.00
  -6  -3  -8  853.81   38.50
  -6  -3  -8  821.12   46.30
  -6   3   8  829.82   44.30
   6   3  -8  857.31   40.50
   6   3  -8  843.82   38.60
   6  -3   8  873.31   46.10
  -6   3   8  838.22   44.00
   6  -3   8  760.22   47.70
  -6   3  -8  851.01   44.80
   6  -3  -8  848.42   41.80
  -6  -3   8  929.91   47.20
   6   3   8  835.02   44.00
  -6  -4  -8  266.47   29.90
  -6   4   8  209.68   34.70
   6   4  -8  166.28   31.60
   6   4  -8  284.07   30.80
   6  -4   8  253.27   36.30
  -6  -4  -8  177.98   29.10
  -6  -4  -8  247.18   35.30
  -6   4   8  268.47   36.40
  -6   4  -8  269.37   37.50
   6  -4  -8  285.87   30.50
   6   4   8  229.88   35.30
  -6  -4   8  245.18   37.20
   6   0   9   26.00   20.30
   6   0   9  -27.80   19.80
  -6   0  -9   -2.50   19.20
  -6   0   9  -12.70   18.80
   6   0  -9    4.30   18.20
   6   0  -9  -13.80   20.60
   6   1  -9   32.70   18.80
   6  -1   9   17.10   20.30
  -6  -1  -9    8.10   19.40
  -6   1   9   24.60   20.40
   6   1  -9   11.70   21.50
   6   1   9   92.69   28.50
  -6  -1   9  -15.10   19.50
  -6   1  -9    6.00   20.30
   6  -1  -9   24.80   17.70
   6   1   9  -18.50   21.00
   6  -1  -9   -6.00   20.40
  -6   2   9  124.69   33.70
   6   2  -9   14.00   21.00
   6  -2   9   93.99   25.10
   6  -2   9    9.80   22.60
  -6  -2  -9   50.79   20.10
   6   2  -9   80.29   22.50
   6  -2  -9    8.70   21.00
   6   2   9   99.59   29.60
   6  -2  -9   63.79   22.20
  -6   2  -9   66.89   23.10
   6   3  -9  -15.80   23.70
  -6   3   9   21.00   23.00
   6  -3   9  -16.30   27.50
   6   3  -9    3.80   23.60
  -6  -3  -9   47.40   21.40
  -6   3  -9   11.30   24.70
   6  -3  -9   46.50   27.00
  -6  -3   9  -47.10   23.80
   6   3   9  -32.30   24.50
   6   0 -10 1079.09   49.80
   6   0 -10 1007.40   47.40
   6   0  10  978.70   59.59
  -6   0  10 1104.19   58.09
   6   0  10  948.01   50.89
   6   1 -10  354.26   35.20
  -6   1  10  432.86   45.60
   6   1 -10  387.86   35.10
   6  -1  10  346.07   46.80
   6  -1  10  486.65   40.50
   6   1  10  404.36   47.10
   6  -1 -10  354.66   36.60
   6  -1 -10  447.06   35.60
  -6  -1  10  469.35   43.70
   6   1  10  411.26   41.00
  -6   1 -10  370.96   38.80
   7   0   0   -7.90    6.70
   7   0   0    3.00    6.20
  -7   0   0   12.80    7.20
  -7   0   0   -1.00    5.30
   7  -1   0 3544.85   81.69
   7  -1   0 3515.65   79.09
   7   1   0 3575.74   83.29
  -7   1   0 3549.54   76.69
  -7  -1   0 3437.66   89.19
   7   1   0 3510.55   80.99
  -7   1   0 3417.66   87.59
  -7   2   0   -6.00    8.50
   7  -2   0   -8.60    7.70
   7   2   0   10.70    8.20
   7  -2   0    3.40    8.10
  -7   2   0   -6.10    9.30
   7  -3   0 2306.67   59.59
  -7  -3   0 2232.18   67.99
  -7   3   0 2330.57   63.59
  -7   3   0 2190.28   63.69
   7   3   0 2282.57   65.89
   7   3   0 2220.28   63.19
   7  -3   0 2411.86   63.19
  -7  -4   0   -2.40   12.30
  -7   4   0    3.70   14.30
   7  -4   0    7.50   11.50
   7  -4   0   12.70   11.00
   7   4   0   10.80   13.50
  -7  -4   0   21.90   11.30
  -7   4   0  -18.20   10.60
  -7  -5   0 1755.42   61.89
  -7  -5   0 1711.83   55.79
  -7   5   0 1745.13   48.50
   7  -5   0 1735.23   55.19
   7   5   0 1757.62   60.89
   7  -5   0 1699.63   57.79
  -7   5   0 1728.13   61.59
   7  -6   0   11.50   20.10
  -7   6   0   11.40   22.70
   7  -6   0    6.20   19.00
   7   6   0    4.50   22.30
  -7  -6   0   -6.70   15.00
  -7   7   0 1318.17   62.19
   7   7   0 1361.76   61.09
   7  -7   0 1331.67   60.49
   7  -7   0 1348.37   54.59
  -7  -7   0 1251.87   64.59
   7   0   1    0.30    7.20
   7   0   1   -3.50    6.90
   7   0  -1   -1.20    6.70
  -7   0   1    6.10    8.00
   7   0  -1   -8.60    7.00
  -7   0   1    3.30    5.20
  -7   0  -1    1.30    6.90
  -7   0  -1    5.00    8.00
  -7  -1  -1   60.49   14.80
   7   1  -1   87.59   11.40
  -7   1   1   72.59   10.40
   7  -1   1   51.39   10.00
   7   1  -1   55.59   10.20
   7  -1   1   62.19   10.60
  -7   1   1   67.59   14.70
   7   1   1   54.19   10.60
  -7   1  -1   69.99   11.30
  -7   1  -1   50.79   14.20
   7   1   1   42.60    9.30
  -7  -1   1   34.20   11.30
   7   2  -1  118.69   13.90
  -7   2   1  101.09   14.00
   7  -2   1  101.79   13.40
   7   2  -1   86.09   13.10
   7  -2   1  109.99   11.70
  -7   2   1   96.49   16.30
   7  -2  -1  129.29   13.00
   7  -2  -1  118.19   12.70
   7   2   1   86.69   15.30
  -7   2  -1   89.19   14.90
  -7   2  -1   91.59   17.20
   7   2   1   86.29   13.30
   7  -3   1   -8.90   10.40
  -7   3   1   32.50   12.20
  -7  -3  -1    8.10   10.20
   7  -3   1  -15.10    9.50
  -7   3   1   -8.40    9.80
  -7  -3   1    1.30    9.80
  -7  -3   1   50.49   16.80
   7   3   1    5.30    9.40
   7   3   1    5.70   10.90
  -7   3  -1   -2.10    9.80
  -7   3  -1  -18.10   11.30
  -7   4   1   64.19   20.10
   7  -4   1   59.49   13.10
  -7   4   1   27.00   10.50
   7  -4   1   75.59   18.00
   7   4  -1   51.59   15.80
  -7  -4  -1   34.40   13.90
  -7   4  -1   34.30   15.40
   7  -4  -1   37.00   13.90
   7   4   1   62.69   16.80
   7  -4  -1   76.59   16.80
  -7   4  -1   37.80   11.70
  -7  -4   1   51.89   14.20
  -7  -5  -1   25.30   15.20
  -7   5   1   91.59   25.70
   7  -5   1   -1.70   15.80
  -7  -5  -1   21.40   13.30
   7  -5   1   42.70   17.10
  -7   5   1   -6.40   11.40
   7   5  -1   13.30   16.30
  -7   5  -1   30.40   17.50
   7   5   1   24.70   17.20
  -7  -5   1   63.89   21.20
   7  -5  -1   23.80   16.00
  -7  -5   1    7.70   12.60
   7  -5  -1   66.59   19.30
  -7   5  -1   20.30   12.20
   7   6  -1   -7.60   21.80
  -7  -6  -1    9.60   18.80
  -7  -6  -1   17.00   16.00
   7  -6   1  -12.00   19.90
   7  -6   1    5.10   20.30
  -7   6   1  -30.30   23.80
   7  -6  -1   14.00   20.00
  -7  -6   1    9.90   15.30
   7   6   1    7.90   22.10
   7  -6  -1   22.30   19.00
  -7   6  -1  -30.00   22.70
  -7  -6   1  -10.60   21.60
  -7  -7  -1    3.30   26.60
   7   7  -1  -26.70   27.60
   7  -7   1   21.30   24.90
  -7   7   1   45.20   29.80
   7   7   1  -13.10   29.20
   7  -7  -1   25.20   26.90
  -7   7  -1   16.90   29.90
  -7  -7   1   15.50   28.50
   7   0  -2 1167.78   33.30
   7   0   2 1156.28   33.40
   7   0  -2 1168.18   37.60
   7   0   2 1162.78   38.20
  -7   0  -2 1153.18   31.90
  -7   0   2 1102.89   43.00
  -7   0  -2 1075.29   42.70
  -7   0   2 1150.78   30.00
   7   1  -2 2885.31   69.39
   7  -1   2 2831.92   73.89
  -7   1   2 2934.81   77.89
   7   1  -2 2855.61   56.99
   7  -1   2 2807.52   63.69
  -7   1   2 2833.42   64.99
   7   1   2 2943.01   68.49
   7  -1  -2 2855.51   64.79
  -7   1  -2 2865.01   67.99
  -7   1  -2 2760.32   75.79
   7   2  -2  798.82   32.40
  -7   2   2  847.72   31.30
  -7  -2  -2  818.92   35.50
  -7   2   2  847.32   34.30
   7  -2   2  817.22   32.40
   7  -2   2  831.22   26.50
  -7  -2   2  805.22   30.80
  -7   2  -2  839.32   32.70
   7   2   2  834.92   31.40
   7  -2  -2  823.82   26.80
   7   2   2  826.12   34.10
  -7   2  -2  817.82   33.90
   7  -2  -2  837.82   31.70
  -7  -2   2  817.12   36.90
  -7   3   2 1762.22   53.09
   7  -3   2 1747.13   45.60
  -7   3   2 1777.62   52.89
   7  -3   2 1717.53   53.89
  -7  -3  -2 1778.82   56.39
   7   3  -2 1684.13   54.09
  -7   3  -2 1832.32   54.79
   7  -3  -2 1782.42   47.50
  -7   3  -2 1703.73   53.69
   7   3   2 1672.93   52.49
  -7  -3   2 1737.43   54.59
   7  -3  -2 1719.93   51.99
   7   3   2 1707.33   56.29
  -7  -3   2 1693.43   55.69
   7   4  -2  365.66   24.20
   7  -4   2  360.66   21.30
  -7   4   2  370.06   23.70
  -7  -4  -2  312.67   25.40
   7  -4   2  368.06   25.40
  -7   4   2  338.57   26.20
   7  -4  -2  304.77   21.90
  -7  -4   2  374.46   25.60
   7   4   2  332.77   25.90
  -7  -4   2  296.57   23.60
  -7   4  -2  393.26   26.30
  -7   4  -2  386.76   27.00
   7  -4  -2  332.37   23.40
   7   4   2  329.07   25.30
  -7  -5  -2 1035.60   47.00
   7  -5   2  971.60   44.40
  -7   5   2 1024.50   36.60
  -7  -5  -2 1078.29   42.20
   7  -5   2 1062.19   38.20
   7   5  -2 1027.80   45.10
  -7   5   2 1028.70   45.80
   7   5   2 1081.49   46.10
  -7   5  -2 1011.20   47.60
  -7   5  -2 1049.09   37.80
   7  -5  -2  995.10   40.40
  -7  -5   2 1069.49   42.10
  -7  -5   2 1023.20   47.60
   7  -5  -2 1077.79   43.70
   7  -6   2  236.28   25.20
  -7   6   2  213.88   33.80
  -7  -6  -2  183.18   29.50
  -7  -6  -2  158.68   29.80
   7  -6   2  150.28   33.40
   7   6  -2  200.88   30.20
  -7   6  -2  248.18   32.70
   7  -6  -2  217.28   29.00
   7   6   2  210.38   29.50
  -7  -6   2  269.47   34.50
  -7  -6   2  241.58   27.90
   7  -6  -2  242.68   26.80
   7  -7   2  790.42   54.29
  -7  -7  -2  975.60   52.69
   7  -7   2  903.81   44.40
  -7   7   2  884.11   54.49
   7   7  -2  868.01   50.69
   7   7   2  853.71   51.39
  -7   7  -2  897.61   54.49
   7  -7  -2  915.31   48.10
  -7  -7   2  907.41   57.59
   7  -7  -2  809.22   48.30
  -7   0   3   -2.20    8.70
   7   0  -3    4.50    6.80
   7   0  -3   -0.10    8.50
  -7   0  -3    3.90    8.30
  -7   0   3    4.10    7.00
  -7   0  -3    1.10    7.60
   7   0   3   12.10    9.20
   7   0   3  -10.60    8.20
   7   1  -3    9.70    9.50
   7  -1   3   41.30    9.80
  -7   1   3    2.70    8.80
   7   1  -3    5.70    6.60
  -7  -1  -3   24.80    7.90
  -7  -1  -3   20.10    9.20
  -7   1   3    7.10    7.50
  -7   1  -3   26.20    9.90
  -7   1  -3   12.30    9.90
   7  -1  -3   15.70    6.40
   7   1   3   25.60   10.20
   7   1   3   39.90   13.20
  -7  -1   3   19.20    8.90
   7  -1  -3   12.10    8.00
  -7  -1   3   14.90    9.20
   7  -2   3   34.60    8.80
   7  -2   3   12.40   10.50
   7   2  -3   17.30    7.40
   7   2  -3   17.80   10.10
  -7  -2  -3   17.90   10.30
   7   2   3   29.90   11.20
  -7  -2   3   15.50   10.00
   7   2   3   36.90   10.10
   7  -2  -3   15.90    7.30
   7  -2  -3    4.00   10.20
  -7  -2   3   12.50   10.80
   7   3  -3    8.30    8.70
   7   3  -3    5.90   11.90
   7  -3   3    7.30   12.10
  -7  -3  -3   -3.60   10.20
  -7   3   3    4.10   11.60
   7  -3   3   14.30   10.20
   7  -3  -3   15.10   12.10
  -7  -3   3   21.20   11.20
   7  -3  -3    0.60    8.80
  -7  -3   3   20.90   12.10
   7   3   3   -1.40   12.60
  -7   3  -3  -14.50   13.00
   7   3   3   -0.40   11.10
  -7   4   3   25.40   16.20
   7  -4   3   29.10   14.70
  -7  -4  -3   -8.80   12.30
   7   4  -3   12.80   15.00
  -7   4   3   12.90   11.80
   7  -4   3   -1.00   12.10
   7   4  -3   42.40   13.10
  -7   4  -3   16.20   15.90
  -7  -4   3   -5.40   14.60
   7   4   3   21.10   15.50
   7   4   3   13.10   15.90
   7  -4  -3   15.50   11.60
  -7  -4   3   -5.80   11.90
   7  -4  -3    5.70   14.20
  -7   4  -3   11.70   13.10
  -7  -5  -3   -4.10   16.60
  -7   5   3   64.99   20.80
   7   5  -3   38.60   17.90
   7  -5   3   34.30   17.80
  -7   5   3   16.80   18.60
  -7  -5  -3    2.40   15.80
   7   5   3   37.30   19.90
  -7   5  -3   14.50   18.90
  -7  -5   3   21.50   18.50
  -7  -5   3   14.20   14.70
  -7   5  -3    2.40   15.40
   7  -5  -3    0.30   16.40
   7  -5  -3   20.80   15.20
  -7   6   3  -35.00   24.20
  -7  -6  -3   -6.50   20.20
   7   6  -3   -4.70   24.40
   7  -6   3  -38.80   22.60
  -7  -6  -3   42.10   17.70
   7  -6   3   10.30   21.50
  -7  -6   3   26.10   23.10
   7   6   3  -36.00   24.40
   7  -6  -3   -0.20   21.20
  -7   6  -3   -0.30   23.70
  -7  -6   3    7.90   17.10
   7  -6  -3   17.20   19.70
  -7   0   4 2236.38   51.09
   7   0   4 2165.48   50.79
  -7   0  -4 2186.78   55.39
  -7   0   4 2215.78   54.09
   7   0  -4 2202.18   61.79
  -7   0  -4 2127.59   65.19
  -7   0   4 2160.58   66.89
   7   0   4 2128.89   62.39
  -7   1   4  897.31   38.80
   7  -1   4  877.91   35.40
  -7  -1  -4  922.11   29.50
  -7  -1  -4  908.41   38.40
   7   1  -4  898.31   34.70
   7   1  -4  938.81   28.70
  -7   1   4  947.91   33.00
  -7   1  -4  913.51   33.40
  -7  -1   4  906.91   30.00
  -7  -1   4  965.00   40.50
   7   1   4  927.11   31.30
   7   1   4  868.81   35.60
  -7   1  -4  917.31   37.70
   7   2  -4 1703.93   42.70
  -7   2   4 1623.64   48.80
  -7  -2  -4 1679.13   41.70
  -7  -2  -4 1648.83   55.39
   7   2  -4 1669.53   52.29
   7  -2   4 1640.54   53.89
  -7   2   4 1638.64   54.39
   7   2   4 1650.13   49.30
   7   2   4 1625.84   52.89
  -7   2  -4 1624.24   50.79
   7  -2  -4 1619.74   51.69
  -7  -2   4 1635.74   56.09
  -7   2  -4 1669.43   54.19
  -7  -2   4 1634.84   48.50
   7   3  -4  525.95   28.00
  -7  -3  -4  514.35   30.70
   7   3  -4  533.25   22.80
  -7  -3  -4  538.15   20.80
   7  -3   4  501.65   29.60
  -7   3   4  530.05   28.00
  -7   3   4  548.65   28.80
   7   3   4  535.05   30.60
  -7  -3   4  535.65   30.90
  -7   3  -4  548.85   30.40
   7  -3  -4  555.64   28.80
   7   3   4  516.75   28.20
  -7   3  -4  518.05   28.80
  -7  -3   4  556.74   29.50
  -7  -4  -4 1157.78   47.20
  -7   4   4 1123.79   41.70
   7   4  -4 1160.68   37.30
  -7   4   4 1126.49   46.50
   7   4  -4 1185.38   46.20
  -7  -4  -4 1127.79   33.10
   7  -4   4 1130.79   47.00
  -7   4  -4 1162.28   44.00
  -7   4  -4 1188.98   49.50
   7   4   4 1180.28   47.00
  -7  -4   4 1211.78   48.90
   7  -4  -4 1201.38   47.00
   7   4   4 1179.08   48.70
   7  -4  -4 1190.18   36.00
  -7  -4   4 1194.18   46.60
  -7  -5  -4  372.56   31.60
   7   5  -4  366.66   29.60
   7  -5   4  342.07   30.00
  -7   5   4  355.26   32.90
  -7  -5  -4  257.47   30.80
  -7  -5   4  272.17   35.60
   7   5   4  256.97   31.50
  -7  -5   4  354.06   29.40
   7  -5  -4  382.26   27.80
  -7   5  -4  372.26   29.50
  -7   5  -4  345.77   33.10
  -7  -6  -4  879.71   44.70
   7  -6   4  916.91   49.50
  -7   6   4  842.42   51.59
  -7  -6   4  796.22   43.10
   7   6   4  907.31   48.50
  -7   6  -4  968.00   50.09
   7  -6  -4  808.52   45.40
  -7  -6   4  907.11   51.79
   7   0  -5    6.30   11.50
  -7   0   5    5.30   12.00
  -7   0  -5   -1.40   10.10
  -7   0  -5   13.20   11.30
   7   0   5    1.70   11.00
   7   1  -5   25.10    9.60
  -7   1   5   19.30   10.40
   7  -1   5    0.60   11.20
  -7  -1  -5   27.30   10.80
  -7   1   5   15.70   11.30
  -7  -1  -5   -5.10   10.30
   7   1  -5   43.00   13.90
   7   1   5   11.90   12.70
  -7   1  -5   15.00   11.90
  -7  -1   5   19.60   10.70
   7   1   5   34.00   12.30
  -7   1  -5    7.60   10.80
  -7  -1   5    7.60   10.90
   7  -1  -5    2.80   11.40
  -7   2   5    0.00   11.50
  -7   2   5   55.09   15.70
   7  -2   5   24.50   13.70
   7   2  -5   27.30   13.60
   7   2  -5   38.80   11.50
  -7  -2  -5   44.30   13.80
  -7  -2  -5    5.90   11.50
  -7   2  -5   63.19   17.70
  -7  -2   5   36.90   13.30
  -7  -2   5   28.30   12.60
   7   2   5   29.40   12.60
   7   2   5   17.80   15.60
  -7   2  -5   21.40   12.60
   7  -2  -5   41.60   13.10
   7   3  -5   -4.30   14.50
  -7  -3  -5   -3.40   13.30
  -7  -3  -5  -10.00   11.50
  -7   3   5    3.60   14.00
   7  -3   5   11.80   14.50
  -7  -3   5   20.30   15.40
  -7  -3   5  -19.80   13.00
   7  -3  -5   28.80   15.50
   7   3   5   -8.10   17.50
   7   3   5  -16.50   13.60
  -7   3  -5  -19.90   13.30
  -7   3  -5   18.50   15.30
   7   4  -5   84.79   20.40
   7  -4   5   47.70   17.60
  -7  -4  -5   32.80   12.90
  -7   4   5    6.10   14.40
  -7   4   5   10.40   17.10
  -7  -4  -5   18.50   15.40
  -7   4  -5   27.00   20.00
   7   4   5   42.60   18.00
  -7   4  -5   31.40   16.30
   7  -4  -5   66.99   18.80
  -7  -4   5   42.00   19.90
   7   5  -5   18.10   21.50
  -7   5   5   46.00   21.20
  -7  -5  -5   23.80   18.40
  -7  -5  -5    0.20   20.10
  -7   5   5   82.59   28.20
  -7   5  -5    2.20   23.40
  -7   5  -5  -10.30   18.00
  -7  -5   5    5.80   22.90
   7  -5  -5  -23.80   19.40
   7   5   5   17.90   23.70
  -7   6   5  -38.60   27.00
  -7  -6  -5  -25.90   20.40
   7   6  -5    6.30   26.50
  -7  -6  -5    1.30   26.90
   7  -6   5   39.20   25.70
  -7  -6   5  -45.80   21.30
   7  -6  -5   16.70   24.20
  -7   6  -5   23.10   28.70
  -7   0   6 2159.18   71.49
  -7   0  -6 2173.48   60.19
   7   0   6 2122.19   65.89
  -7   0  -6 2179.48   70.19
   7   0  -6 2274.77   59.79
   7   0  -6 2161.68   64.49
  -7  -1  -6    2.40   11.00
   7   1  -6  -17.90   13.00
  -7   1   6   -7.40   12.50
   7  -1   6    6.00   13.00
   7   1  -6  -20.40   10.50
  -7  -1  -6   14.20   11.90
   7   1   6  -23.90   13.50
  -7   1  -6    3.60   14.00
  -7  -1   6  -13.80   12.50
   7   1   6   -1.20   12.90
  -7   1  -6   11.50   12.50
   7  -1  -6   11.80   14.30
  -7   2   6 1932.41   65.49
   7   2  -6 1940.01   61.39
  -7  -2  -6 1915.31   54.59
  -7  -2  -6 1959.00   65.89
   7  -2   6 1943.71   64.19
   7   2  -6 2005.40   54.69
  -7   2   6 1972.10   59.69
  -7   2  -6 1929.11   60.59
   7   2   6 2067.49   56.89
   7   2   6 1919.91   62.69
  -7   2  -6 2031.90   65.59
   7  -2  -6 1961.30   62.09
  -7  -2   6 1981.00   56.49
  -7  -2   6 1947.71   67.39
   7   3  -6   27.50   14.40
   7  -3   6   81.19   23.90
  -7  -3  -6   -7.40   14.10
   7   3  -6  -18.30   16.60
  -7   3   6   26.20   15.70
  -7  -3  -6   29.40   13.10
   7  -3  -6   13.90   15.70
   7   3   6   -0.20   16.10
   7   3   6  -28.70   19.10
  -7   3  -6   33.00   15.10
  -7   3  -6   20.10   18.10
  -7  -4  -6 1373.76   54.69
  -7   4   6 1311.67   53.09
   7   4  -6 1331.37   50.69
  -7  -4  -6 1320.97   42.40
   7  -4   6 1309.27   56.39
  -7   4   6 1335.67   51.49
   7   4  -6 1400.56   46.20
   7   4   6 1383.56   53.09
  -7   4  -6 1374.66   52.59
  -7  -4   6 1300.57   55.29
   7   4   6 1261.57   55.39
  -7  -4   6 1285.07   53.49
  -7   4  -6 1408.26   56.49
   7  -4  -6 1346.97   51.79
   7   5  -6    3.80   24.20
  -7   5   6   24.90   25.30
  -7  -5  -6   46.60   19.80
   7  -5   6  -16.00   24.30
   7   5   6   27.90   27.60
  -7   5  -6   41.40   21.00
   7   5   6   38.80   25.50
  -7   5  -6   20.10   26.20
  -7  -5   6    2.70   19.80
   7  -5  -6   28.60   22.80
  -7  -5   6    5.10   26.20
  -7   0  -7  -17.80   14.40
   7   0  -7    9.80   12.90
  -7   0   7    0.90   14.70
   7   0  -7  -24.00   15.80
   7   0   7   23.40   16.10
  -7   0  -7   -8.30   14.30
  -7  -1  -7    2.50   13.10
   7   1  -7    5.40   15.70
   7   1  -7    7.80   13.90
   7  -1   7   15.00   15.40
  -7   1   7    0.40   13.60
  -7   1   7  -10.90   14.70
  -7  -1  -7  -18.00   13.90
   7   1   7   15.00   16.30
  -7   1  -7   -7.10   15.30
   7  -1  -7    8.20   15.40
  -7   1  -7  -24.10   14.50
  -7  -1   7    7.10   14.90
   7   2  -7  -14.30   15.30
  -7   2   7  -10.00   15.50
   7  -2   7   34.50   17.70
  -7  -2  -7   -9.60   14.70
  -7  -2  -7   18.30   15.20
   7   2  -7    3.40   18.10
  -7   2   7    2.60   16.60
   7  -2  -7   -5.00   16.00
   7   2   7    8.20   18.40
  -7   2  -7  -20.70   15.90
  -7   2  -7   -2.10   17.70
  -7  -2   7    8.50   15.90
  -7   3   7   -1.30   17.70
   7   3  -7   -0.40   17.10
  -7  -3  -7    2.80   15.70
  -7   3   7   -7.90   17.10
   7   3  -7  -27.90   19.00
  -7  -3  -7    6.80   18.40
   7  -3   7    4.30   19.40
   7  -3  -7   -8.90   19.80
   7   3   7   30.90   23.30
  -7  -3   7  -21.90   17.20
  -7  -3   7    1.60   22.00
   7   3   7  -39.30   18.70
  -7   3  -7   30.70   19.70
  -7   3  -7   -1.10   17.30
  -7  -4  -7   45.30   18.40
   7   4  -7   14.30   22.40
  -7   4   7   10.00   22.50
   7   4  -7   29.30   20.30
  -7  -4  -7   33.60   17.90
  -7   4   7  -15.30   19.90
   7   4   7    0.00   23.60
  -7  -4   7  -11.40   19.70
  -7  -4   7   42.50   26.80
  -7   4  -7   15.00   24.80
   7   4   7   42.40   28.70
  -7   4  -7   31.30   21.00
   7  -5   7  -13.30   27.60
  -7   5   7   39.50   27.90
  -7  -5  -7    4.50   22.00
  -7   5  -7   -7.90   29.20
   7   5   7   18.40   33.60
  -7  -5   7   30.50   23.70
  -7  -5   7   17.00   31.90
   7  -5  -7   42.30   24.80
   7   5   7  -21.20   27.90
   7   0   8 1570.34   64.29
  -7   0  -8 1583.44   53.89
   7   0  -8 1591.24   53.29
   7   0   8 1519.75   57.49
  -7   0   8 1659.73   64.99
   7   0  -8 1515.55   55.69
  -7   1   8  439.16   36.70
   7   1  -8  425.36   28.90
  -7  -1  -8  393.86   28.70
  -7  -1  -8  390.76   34.40
   7  -1   8  378.06   32.30
   7   1  -8  389.36   28.80
   7  -1   8  379.56   38.00
   7  -1  -8  367.46   29.00
  -7   1  -8  307.57   30.90
  -7  -1   8  427.36   36.60
   7  -1  -8  400.86   29.80
   7   1   8  423.96   32.60
  -7  -2  -8 1178.38   45.90
   7   2  -8 1243.18   50.09
   7   2  -8 1249.88   47.60
  -7   2   8 1254.27   49.20
   7  -2   8 1257.37   54.49
  -7   2   8 1235.18   55.39
  -7  -2  -8 1229.48   56.99
   7  -2   8 1248.78   57.19
  -7  -2   8 1239.78   56.79
   7   2   8 1254.57   52.29
  -7   2  -8 1338.77   52.79
   7  -2  -8 1284.67   50.39
  -7  -3  -8  240.68   33.80
   7   3  -8  214.68   28.60
  -7   3   8  229.18   33.90
  -7  -3  -8  166.48   27.40
   7   3  -8  193.78   26.90
  -7   3   8  166.98   35.50
  -7   3  -8  233.98   34.50
   7   3   8  192.78   34.80
  -7   3  -8  170.98   35.20
  -7  -3   8  232.88   37.40
   7  -3  -8  201.18   30.50
  -7   4   8  914.71   50.79
   7   4  -8  869.41   44.80
   7  -4   8  867.71   52.79
  -7   4   8  843.72   51.69
   7   4  -8  925.51   44.50
  -7   4  -8  955.60   51.59
  -7  -4   8  941.11   55.39
  -7   4  -8  932.21   53.89
   7  -4  -8  861.91   47.50
   7   0   9   28.00   23.20
   7   0  -9   38.30   20.20
  -7   0   9   13.10   21.40
   7   0  -9   21.30   21.80
  -7   0  -9   16.20   20.40
   7   0   9  -19.10   22.10
   7   1  -9   37.70   20.70
   7  -1   9   35.70   23.30
   7  -1   9   -4.90   23.40
   7   1  -9    6.00   23.60
  -7  -1  -9   -2.30   20.20
  -7   1   9    2.50   22.80
  -7  -1   9   31.80   22.60
   7   1   9   34.40   22.40
   7   1   9  -24.10   23.30
  -7   1  -9  -16.20   23.10
   7  -1  -9  -22.10   23.10
   7  -1  -9   15.90   19.00
   7   2  -9  -23.80   22.90
   7   2  -9   21.00   24.90
   7  -2   9   11.70   25.50
  -7  -2  -9  -15.40   22.80
  -7   2   9  -27.40   23.00
   7   2   9   62.89   24.50
  -7  -2   9   38.60   23.80
  -7   3   9  -10.20   24.70
  -7  -3  -9   58.69   23.80
  -7  -3  -9   39.80   22.50
   7   3  -9   13.10   27.40
  -7   3   9   31.80   24.50
   7  -3   9  -10.70   28.60
   7   3  -9   -3.10   24.70
  -7  -3   9   75.79   26.60
   7  -3  -9   33.30   26.20
  -7   3  -9   49.40   28.30
   8   0   0 4293.97   97.09
  -8   0   0 4147.79   82.49
   8   0   0 4235.98   94.19
  -8   0   0 4021.50  104.09
  -8   1   0   13.10    9.80
  -8   1   0   -2.90    7.90
   8  -1   0    7.40    8.80
  -8  -1   0    5.30    9.40
   8  -1   0    1.90    8.20
   8   1   0    6.30    9.80
   8   2   0 2433.16   67.89
  -8   2   0 2506.35   64.39
  -8  -2   0 2377.86   71.79
   8   2   0 2365.06   65.49
   8  -2   0 2470.75   62.79
   8  -2   0 2517.15   65.19
  -8  -3   0   -0.90   11.10
  -8   3   0   13.50   12.30
   8  -3   0    6.90   12.30
   8   3   0    5.70   11.80
   8   3   0   13.80   13.20
   8  -3   0    3.00   10.60
  -8  -4   0 1561.44   54.49
   8   4   0 1515.05   52.79
  -8  -4   0 1550.24   55.99
   8  -4   0 1560.54   48.80
  -8   4   0 1521.15   54.49
   8  -4   0 1523.05   50.29
  -8   4   0 1569.54   50.49
   8  -5   0  -17.20   16.40
  -8   5   0   12.90   20.40
  -8  -5   0    2.70   17.10
  -8  -5   0  -21.90   15.20
   8   5   0   10.60   18.50
   8  -5   0   25.50   16.20
  -8  -6   0 1372.86   53.49
   8   6   0 1384.46   61.99
   8  -6   0 1361.36   54.99
  -8  -6   0 1324.87   59.49
  -8   6   0 1352.66   61.09
   8  -6   0 1383.56   52.59
  -8   0   1   10.40   10.30
  -8   0  -1   -5.10    9.80
   8   0   1    3.30    9.20
  -8   0  -1    3.70    7.00
   8   1  -1    4.50    9.60
  -8   1   1   10.00   10.40
   8   1  -1   12.90    9.10
   8  -1   1   -5.20    9.10
  -8   1   1   12.40    8.30
  -8  -1  -1    0.00    9.80
  -8  -1   1   21.60   10.30
   8   1   1    5.50    9.30
   8   1   1   13.70   10.30
  -8   1  -1   -0.80   10.00
  -8   1  -1   21.60   10.30
   8  -1  -1   -3.70    7.80
  -8  -2  -1   13.30    9.50
   8   2  -1   17.10    9.90
   8   2  -1   19.90   11.00
   8  -2   1   -3.50    9.80
   8  -2   1   13.50    9.60
   8   2   1   10.00   10.80
  -8   2  -1   16.70   12.30
   8   2   1   43.60   12.90
  -8  -2   1    8.50   11.00
  -8  -3  -1   10.20   10.50
   8  -3   1    3.30   11.30
   8   3  -1    9.20   12.00
   8  -3   1   -1.60   11.00
  -8   3   1  -21.30   12.50
   8   3   1    4.20   13.00
  -8  -3   1   -9.60   12.40
   8   3   1   14.30   11.20
   8  -3  -1   11.00   11.30
  -8   3  -1   -0.10   12.50
   8  -3  -1    5.20   11.90
  -8  -3   1   16.80   11.80
  -8   4   1   77.89   22.80
  -8   4   1   25.90   13.00
  -8  -4  -1   18.00   14.60
   8   4  -1   22.50   15.00
  -8  -4  -1   69.49   20.80
   8  -4   1   69.09   15.90
   8  -4  -1   68.49   16.50
  -8   4  -1   71.79   20.70
   8   4   1   35.00   17.10
   8  -4  -1   25.70   12.90
  -8  -4   1    6.10   12.60
  -8  -4   1   22.20   15.00
  -8  -5  -1   24.90   17.80
  -8   5   1  -10.20   21.50
  -8  -5  -1   -4.50   14.70
   8  -5   1   23.00   17.00
   8   5  -1   17.30   17.40
   8  -5   1  -15.60   17.40
   8   5   1   -2.50   19.60
  -8  -5   1   10.50   17.30
   8  -5  -1   -1.60   17.50
   8  -5  -1   41.30   15.90
  -8  -5   1    2.90   14.50
  -8   5  -1   12.40   21.30
  -8  -6  -1   16.50   17.80
   8  -6   1   37.60   21.00
  -8   6   1   -2.90   25.60
   8  -6   1    6.60   21.60
  -8  -6   1    5.60   24.50
   8   6   1   25.80   25.00
  -8  -6   1  -17.80   17.30
   8  -6  -1  100.89   29.80
  -8   6  -1   36.40   26.70
  -8   0  -2 2194.68   51.79
  -8   0   2 2151.68   67.69
  -8   0  -2 2142.09   66.39
   8   0   2 2197.88   55.49
   8   0  -2 2247.88   55.89
  -8   0   2 2170.38   49.30
   8   0  -2 2133.99   59.29
   8   0   2 2183.88   61.79
   8   1  -2  621.44   27.30
   8  -1   2  617.04   28.10
  -8   1   2  516.75   31.20
   8   1  -2  618.24   26.20
  -8   1   2  609.34   23.90
  -8  -1  -2  579.04   31.70
   8  -1   2  604.24   23.30
  -8   1  -2  584.14   31.20
  -8  -1   2  625.24   33.50
   8  -1  -2  601.34   23.20
   8   1   2  575.44   28.30
  -8   1  -2  593.24   25.70
   8  -1  -2  569.84   25.90
   8   1   2  597.14   26.10
   8   2  -2 1806.42   56.19
   8  -2   2 1854.21   56.29
   8  -2   2 1924.81   48.90
  -8  -2  -2 1799.12   60.59
  -8   2   2 1886.91   59.99
  -8  -2   2 1872.11   62.59
   8  -2  -2 1857.31   48.90
  -8   2  -2 1838.62   54.89
   8   2   2 1875.61   58.59
  -8   2  -2 1825.32   59.29
   8  -2  -2 1850.11   54.79
   8   3  -2  465.85   27.30
  -8   3   2  417.36   26.70
  -8  -3  -2  484.75   29.80
   8  -3   2  473.65   22.80
   8  -3   2  460.75   27.70
  -8   3   2  468.15   27.60
   8   3   2  439.96   27.30
  -8   3  -2  500.85   27.90
   8   3   2  462.55   28.60
  -8  -3   2  433.86   30.10
  -8   3  -2  466.25   28.90
   8  -3  -2  462.45   26.10
   8  -3  -2  478.35   23.60
  -8  -3   2  485.85   27.90
   8   4  -2 1314.57   49.70
   8  -4   2 1311.47   49.30
  -8   4   2 1295.87   49.80
  -8  -4  -2 1376.66   50.49
   8  -4  -2 1365.76   47.50
  -8  -4   2 1318.27   50.69
   8   4   2 1344.37   50.39
   8   4   2 1304.97   51.99
  -8   4  -2 1318.37   50.89
  -8  -4   2 1342.17   50.29
  -8  -5  -2  471.65   31.10
  -8  -5  -2  347.47   32.60
   8  -5   2  359.16   30.90
  -8   5   2  395.36   34.60
   8   5  -2  356.96   28.90
   8  -5   2  371.86   25.90
   8   5   2  342.87   31.10
  -8  -5   2  409.56   31.10
  -8  -5   2  430.26   32.40
  -8   5  -2  439.46   35.00
  -8   5  -2  406.06   32.30
   8  -5  -2  362.36   28.10
   8  -5  -2  399.26   28.30
  -8  -6  -2 1010.80   45.90
   8  -6   2 1024.70   42.60
   8  -6   2  995.10   49.70
   8   6  -2  949.71   53.69
  -8  -6   2  937.81   55.09
   8  -6  -2  958.90   44.00
  -8  -6   2  933.71   44.90
   8  -6  -2 1036.00   46.90
   8   0   3    6.10   10.10
  -8   0  -3    0.70    9.50
  -8   0  -3  -18.70   10.40
   8   0  -3    3.50   10.30
  -8   0   3    6.10   10.30
   8   0   3   -0.50   10.90
  -8   0   3    7.70    8.20
   8   1  -3   31.50    8.00
   8  -1   3   56.69   12.30
   8   1  -3   60.49   13.90
  -8  -1  -3   27.70   11.20
   8  -1   3   35.70   11.00
  -8   1   3   27.10   10.10
  -8   1   3   27.90   12.20
  -8  -1  -3   29.10    9.20
  -8   1  -3    7.20   11.00
  -8   1  -3   17.10   10.80
   8   1   3   62.49   14.80
  -8  -1   3   29.00   12.00
   8  -1  -3   28.70    8.10
   8   1   3   42.30   13.30
   8  -1  -3   57.79   12.40
  -8   2   3   29.80   11.80
   8  -2   3   46.80   11.80
  -8   2   3   36.00   11.60
  -8  -2  -3   57.69   18.70
   8   2  -3   42.80   13.90
   8  -2   3   58.39   14.70
  -8   2  -3   69.99   14.20
   8  -2  -3   36.30   12.60
  -8  -2   3   42.50   14.10
   8  -2  -3   46.00   14.10
  -8  -2   3   52.49   13.90
   8   2   3   46.30   12.60
  -8   2  -3   47.90   13.10
   8  -3   3   -8.10   11.60
  -8   3   3   -3.50   12.40
   8   3  -3   19.00   14.50
   8  -3   3   -7.00   12.90
  -8   3   3   -2.90   13.00
  -8  -3  -3    2.60   11.90
   8   3   3  -18.20   14.90
   8  -3  -3   -6.10   12.80
  -8   3  -3    1.90   14.40
   8   3   3   -3.70   11.80
  -8   3  -3   23.90   12.30
  -8  -3   3  -11.70   13.40
   8  -3  -3    3.20   10.60
  -8  -3   3   -6.30   12.30
  -8  -4  -3    2.80   13.60
   8  -4   3   61.69   17.60
   8   4  -3   37.00   16.50
  -8   4   3   24.50   13.30
   8  -4   3   18.90   16.70
  -8   4   3   14.50   16.60
  -8  -4   3    4.70   14.00
   8  -4  -3   19.20   13.20
   8   4   3   46.30   16.00
  -8   4  -3   15.30   15.70
   8   4   3   37.30   19.70
   8  -4  -3   14.70   14.80
  -8   4  -3   15.10   18.30
   8   5  -3   17.90   19.80
  -8   5   3   32.30   21.30
   8  -5   3   -6.10   19.10
  -8  -5  -3  -10.50   15.30
  -8  -5  -3    2.10   18.50
  -8   5  -3   -4.00   17.30
   8  -5  -3   -2.80   16.20
  -8  -5   3  -14.80   15.90
   8   5   3   11.90   20.80
   8  -5  -3   -6.60   18.50
  -8  -5   3    1.50   20.60
  -8   5  -3   15.10   21.40
  -8  -6  -3   28.70   19.40
  -8  -6  -3   26.00   24.40
  -8   6   3    0.20   27.80
   8   6  -3  -14.70   24.80
  -8  -6   3   -8.90   19.10
  -8   6  -3   -5.90   26.40
   8   0   4  749.73   26.60
  -8   0  -4  773.02   36.80
  -8   0  -4  744.83   28.60
  -8   0   4  734.13   26.90
  -8   0   4  754.32   38.30
   8   0   4  755.32   33.90
   8   0  -4  737.93   33.10
  -8   0   4  795.72   26.10
   8   1  -4 1702.73   43.00
  -8  -1  -4 1679.23   44.10
   8   1  -4 1636.84   52.59
  -8  -1  -4 1667.53   58.19
  -8   1   4 1641.14   58.29
   8  -1   4 1624.84   53.89
   8  -1  -4 1653.23   52.79
   8   1   4 1640.94   46.60
  -8   1  -4 1654.93   51.69
  -8   1  -4 1699.63   57.59
   8   1   4 1652.93   54.69
  -8  -1   4 1694.23   60.59
  -8  -1   4 1646.04   46.90
   8  -2   4  436.26   28.40
  -8   2   4  505.65   30.90
   8   2  -4  474.95   20.70
   8   2  -4  480.25   27.30
  -8   2   4  510.35   25.50
  -8  -2  -4  452.25   30.50
  -8  -2  -4  486.65   20.30
  -8  -2   4  422.26   30.10
  -8   2  -4  460.35   27.30
   8   2   4  488.55   27.20
  -8  -2   4  457.85   25.60
   8   2   4  448.66   27.50
   8  -2  -4  485.55   27.30
  -8   2  -4  480.35   30.70
  -8   3   4 1475.35   53.49
  -8   3   4 1537.65   51.69
  -8  -3  -4 1542.45   56.79
   8   3  -4 1481.05   52.39
   8  -3   4 1529.85   54.29
   8   3  -4 1460.95   40.50
  -8  -3   4 1588.44   57.39
  -8  -3   4 1531.55   52.19
  -8   3  -4 1527.95   54.29
   8  -3  -4 1551.04   53.49
   8   3   4 1496.95   51.29
  -8   3  -4 1549.54   53.99
   8   3   4 1486.05   55.29
   8  -4   4  418.86   32.80
  -8   4   4  413.86   29.60
  -8   4   4  409.16   31.90
  -8  -4  -4  437.36   31.30
   8   4  -4  450.15   30.20
  -8  -4   4  435.96   32.70
  -8   4  -4  491.05   32.30
   8   4   4  417.86   31.60
  -8   4  -4  404.26   32.50
   8   4   4  424.76   31.60
   8  -4  -4  466.05   28.00
  -8  -4   4  394.66   31.60
   8  -5   4  793.52   45.10
   8   5  -4  898.21   44.20
  -8   5   4  902.61   47.10
  -8  -5  -4  884.21   47.00
  -8  -5  -4  879.71   43.70
  -8   5  -4  921.31   47.90
   8   5   4  847.82   45.80
  -8  -5   4  872.41   44.20
   8  -5  -4  880.81   43.50
  -8   5  -4  841.22   45.80
  -8  -5   4  914.11   48.80
   8  -6   4  466.15   43.70
   8   6  -4  499.25   39.10
  -8  -6  -4  452.85   37.30
  -8   6   4  471.35   44.90
  -8  -6  -4  397.66   42.30
   8  -6  -4  448.46   37.60
   8   6   4  502.05   40.40
  -8  -6   4  499.55   38.20
  -8   6  -4  418.36   42.90
   8   0  -5   -8.50   12.80
  -8   0  -5   16.30   11.80
   8   0   5   59.39   18.20
  -8   0   5    4.10    9.70
  -8   0   5    4.40   11.80
   8  -1   5   44.40   12.90
   8   1  -5   21.80   11.10
   8   1  -5   38.40   14.10
  -8  -1  -5   64.99   17.30
  -8   1   5   17.90   12.60
  -8  -1  -5   21.50   12.30
  -8   1   5   18.80   11.70
  -8  -1   5   11.30   12.40
   8   1   5   65.69   17.60
   8   1   5   30.40   14.00
  -8   1  -5   24.80   12.60
   8  -1  -5   35.80   13.70
  -8  -1   5   46.40   12.60
   8   2  -5   -0.60   14.70
  -8   2   5   27.40   13.40
  -8  -2  -5    1.70   13.20
  -8   2   5    4.20   13.90
   8  -2   5  -17.30   14.40
  -8  -2  -5   -0.60   11.70
  -8   2  -5   27.70   15.10
  -8  -2   5   11.90   13.40
  -8  -2   5   37.40   15.40
   8   2   5   21.10   14.60
  -8   2  -5   12.90   13.60
   8  -2  -5  -14.70   12.80
   8   2   5   24.20   17.60
   8  -3   5   17.50   15.90
  -8   3   5   35.40   16.60
  -8  -3  -5   32.90   12.70
   8   3  -5   16.70   15.90
  -8   3   5   40.60   15.70
  -8  -3  -5   32.20   15.40
   8   3  -5   62.19   19.00
  -8   3  -5   22.70   15.00
   8   3   5   30.60   19.80
   8   3   5   32.20   17.60
  -8  -3   5   27.20   14.80
  -8  -3   5   48.40   17.70
   8  -3  -5   51.49   18.00
  -8   3  -5   36.10   17.40
   8   4  -5   94.09   21.90
  -8   4   5   32.90   16.80
   8  -4   5   -7.30   18.60
  -8  -4  -5  -13.30   16.70
  -8   4   5  -24.50   18.30
   8  -4  -5   25.30   18.20
   8   4   5  -11.20   23.40
  -8   4  -5   25.30   20.90
  -8  -4   5   11.80   17.10
  -8   4  -5    3.50   18.10
   8   4   5   40.40   20.80
  -8  -4   5   25.30   22.10
   8  -5   5    6.50   23.30
   8   5  -5   28.50   25.20
  -8  -5  -5   18.30   19.70
  -8  -5   5   -4.50   19.70
   8   5   5  -27.20   27.80
   8  -5  -5    7.70   20.70
  -8  -5   5  -13.40   26.30
   8   0   6   24.50   15.20
  -8   0  -6   10.10   14.90
  -8   0  -6   27.90   14.10
   8   0  -6    8.60   16.40
   8   0  -6   14.10   12.20
  -8   0   6   27.20   16.10
   8   1  -6 2034.80   55.29
   8   1  -6 1960.10   61.89
  -8  -1  -6 1929.81   55.09
   8  -1   6 1903.01   64.39
  -8  -1  -6 1909.71   68.09
  -8   1   6 2031.70   70.39
  -8   1   6 2015.50   57.99
  -8   1  -6 1996.70   59.79
   8  -1  -6 1969.70   62.79
  -8   1  -6 2001.20   67.99
   8   1   6 1943.01   64.09
  -8  -1   6 1970.50   70.59
   8  -2   6   15.30   15.70
  -8   2   6   13.60   14.70
  -8  -2  -6   28.50   14.70
   8   2  -6  -13.90   17.20
   8   2  -6    6.20   14.50
  -8   2   6   10.80   16.70
  -8  -2   6   -0.40   15.70
   8  -2  -6    7.30   15.10
  -8   2  -6    6.70   17.30
   8   2   6   15.20   18.40
  -8   2  -6   29.10   17.50
   8   2   6   33.60   16.20
  -8  -2   6   34.40   17.70
  -8  -3  -6 1514.45   59.19
   8  -3   6 1422.66   57.19
  -8   3   6 1442.06   54.59
   8   3  -6 1492.45   55.09
  -8   3   6 1484.75   58.39
   8   3  -6 1466.75   46.00
   8   3   6 1503.85   52.79
  -8  -3   6 1515.25   60.29
  -8   3  -6 1585.64   58.49
   8  -3  -6 1497.45   55.89
  -8   3  -6 1521.25   57.49
  -8  -3   6 1429.06   54.79
   8   3   6 1499.55   58.99
   8  -4   6   -6.80   21.60
  -8   4   6    0.50   21.20
  -8   4   6   -5.50   18.20
  -8  -4  -6    2.50   18.70
   8  -4  -6    4.90   21.30
  -8   4  -6   -5.20   22.50
   8   4   6  -14.70   21.40
   8   4   6   41.00   26.80
  -8  -4   6    0.60   19.50
  -8  -4   6  -53.99   25.40
  -8   4  -6   -5.40   19.70
  -8  -5  -6 1011.60   53.29
   8   5  -6 1109.59   51.29
   8  -5   6 1102.39   57.19
  -8   5   6 1098.79   56.89
   8  -5  -6 1109.89   49.99
  -8  -5   6 1028.10   52.69
   8   5   6 1037.50   54.29
  -8   5  -6 1024.80   56.99
   8   5   6 1029.40   55.59
  -8  -5   6  960.80   58.59
   8   0   7    5.30   17.50
  -8   0   7  -18.20   16.20
   8   0  -7   -1.50   14.00
   8   0  -7   -5.00   16.90
  -8   0  -7   12.90   15.80
  -8   0  -7  -10.70   17.10
  -8  -1  -7   28.00   15.50
   8   1  -7    4.40   17.90
   8  -1   7   13.60   17.40
  -8  -1  -7    8.30   16.00
  -8   1   7   24.00   15.60
   8   1  -7    3.00   15.70
  -8   1   7   40.10   18.20
  -8  -1   7  -27.10   16.30
  -8   1  -7   38.70   19.60
   8   1   7    5.40   17.40
  -8   1  -7   77.79   23.60
   8  -1  -7   14.10   17.50
   8  -2   7   77.99   21.30
  -8   2   7   50.19   17.70
  -8  -2  -7   37.90   16.20
  -8   2   7    8.30   17.90
  -8  -2  -7   49.70   18.00
   8   2  -7   11.20   20.90
   8   2  -7   54.89   17.50
   8   2   7   81.09   27.10
  -8  -2   7   15.80   17.70
   8  -2  -7   24.50   19.80
  -8   2  -7   48.40   18.20
  -8   2  -7   17.50   19.20
  -8   3   7   15.00   19.30
   8   3  -7   81.59   23.90
  -8  -3  -7  -37.80   17.00
   8   3  -7  -34.60   21.50
   8  -3   7  -36.10   21.70
  -8   3   7   -3.20   20.60
  -8  -3   7  -28.00   19.20
  -8   3  -7   11.30   19.20
   8   3   7    6.30   22.40
  -8   3  -7   10.60   23.90
   8  -3  -7  -12.50   20.30
  -8  -4  -7  -22.20   20.40
   8  -4   7   12.20   26.70
  -8   4   7   33.50   24.90
   8   4   7   -3.80   30.60
  -8   4  -7   52.99   22.30
  -8  -4   7   14.50   22.30
  -8   4  -7   52.99   27.80
   8  -4  -7   -6.30   23.30
  -8   0   8  256.87   36.70
   8   0  -8  331.07   27.90
   8   0  -8  338.57   29.00
  -8   0  -8  313.17   33.20
   8   0   8  287.67   32.80
  -8   0  -8  268.77   30.70
  -8  -1  -8 1027.30   41.80
   8   1  -8 1035.10   42.50
  -8   1   8  983.00   52.89
   8   1  -8  927.21   44.90
   8  -1   8  960.20   47.10
  -8  -1  -8  987.00   51.69
  -8   1  -8 1015.60   50.59
  -8  -1   8  982.40   54.49
   8  -1  -8  922.91   42.30
   8  -1  -8  916.41   45.00
   8   1   8 1036.60   47.10
  -8   1  -8  990.40   45.30
  -8   2   8  342.27   29.70
  -8   2   8  294.07   37.20
   8   2  -8  270.07   30.00
  -8  -2  -8  273.07   27.90
   8   2  -8  236.78   28.20
  -8   2  -8  308.07   33.60
   8   2   8  256.87   33.40
  -8   2  -8  258.17   35.60
   8  -2  -8  297.87   30.60
  -8  -3  -8 1207.68   57.59
   8  -3   8 1167.88   58.09
  -8   3   8 1141.99   53.29
   8   3  -8 1172.58   47.70
  -8   3   8 1195.38   56.19
   8   3  -8 1115.59   51.99
  -8   3  -8 1215.98   59.59
  -8  -3   8 1139.59   59.59
   8  -3  -8 1154.68   52.49
  -8   3  -8 1256.37   57.69
   8   0  -9    7.10   21.70
  -8   0  -9   -2.10   22.30
  -8   0  -9   -2.80   23.60
  -8   0   9    5.60   23.90
  -8   1   9   37.10   24.00
   8  -1   9   27.90   26.30
   8   1  -9   24.10   22.40
  -8  -1  -9  100.59   30.20
  -8  -1  -9   30.80   21.40
   8  -1  -9  -42.40   26.30
  -8   1  -9   34.70   24.60
  -8  -1   9   33.90   26.80
  -8   1  -9    3.70   25.90
   8   2  -9   11.40   27.90
  -8   2   9   10.90   25.10
  -8  -2  -9   10.90   23.40
   8  -2   9  -18.30   26.30
  -8  -2  -9  -20.90   23.70
   8   2  -9   23.60   24.90
   8   2   9   11.10   25.70
  -8   2  -9   22.70   27.30
  -8  -2   9  -17.20   24.70
   8  -2  -9   17.30   25.30
  -8   2  -9  119.99   38.80
  -9   0   0    1.30    7.30
  -9   0   0   16.20   10.60
   9   0   0   10.90   10.20
   9   0   0   -1.00   11.10
  -9   1   0 1715.23   59.19
   9   1   0 1750.02   53.49
   9  -1   0 1753.42   50.99
  -9   1   0 1798.82   46.70
   9   1   0 1723.33   52.19
  -9  -1   0 1728.43   60.19
  -9  -2   0    0.60   11.90
   9  -2   0    1.30   11.00
   9   2   0   10.10   13.20
  -9   2   0    9.90   12.80
   9  -2   0    9.90   11.80
  -9   2   0   11.80   12.60
   9   2   0   -0.90   11.10
  -9   3   0 2745.03   78.29
  -9   3   0 2729.53   75.29
   9  -3   0 2719.53   73.79
  -9  -3   0 2841.32   84.19
   9  -3   0 2759.72   72.19
   9   3   0 2719.23   79.79
   9   3   0 2753.82   76.79
  -9   4   0   -0.70   15.30
   9   4   0   22.70   16.50
  -9  -4   0  -20.60   14.10
   9  -4   0   -8.80   15.60
  -9  -4   0    0.90   16.20
   9  -4   0   14.80   14.80
  -9   4   0  -29.30   17.60
   9  -5   0 1466.25   50.59
  -9  -5   0 1445.36   59.39
   9  -5   0 1386.26   53.29
  -9  -5   0 1426.26   56.79
  -9   5   0 1415.96   57.79
   9   5   0 1483.65   57.99
  -9   6   0    8.30   27.10
   9  -6   0  -22.10   23.40
   9  -6   0   -2.30   23.30
   9   6   0   19.50   26.50
  -9   0   1   -6.50    6.90
  -9   0  -1    8.90    8.30
   9   0   1   13.30    9.70
  -9   0   1   -1.60   11.00
   9   0  -1   -4.00    9.80
  -9   0  -1   11.00   10.50
   9   0  -1    8.40   10.10
   9  -1   1   49.90   15.20
   9   1  -1   25.90   12.40
  -9   1   1    3.60   12.30
  -9  -1  -1   23.80   11.80
   9  -1   1    9.40   11.70
   9   1  -1   16.00   12.60
   9  -1  -1   55.89   14.20
   9  -1  -1   55.19   13.50
  -9   1  -1    9.90   11.40
   9   1   1   11.00   10.90
   9   1   1   33.00   12.90
  -9  -1   1   25.70   12.90
  -9   1  -1   21.30   10.30
  -9  -2  -1   15.60   11.60
  -9   2   1    9.40   12.30
   9  -2   1    0.20   11.20
   9   2  -1    0.00   11.10
   9   2  -1  -12.00   12.10
   9  -2  -1   -8.00   11.00
   9  -2  -1    0.60   11.50
  -9   2  -1   18.80   11.90
  -9  -2   1    9.60   12.40
   9   2   1  -11.90   12.00
   9   2   1   17.20   12.50
  -9  -3  -1   72.69   22.40
   9   3  -1   69.59   16.80
  -9   3   1  117.79   23.70
  -9   3   1   78.19   19.30
   9   3   1   55.49   17.70
   9  -3  -1   64.89   18.40
  -9   4   1   41.70   18.60
  -9  -4  -1   29.60   15.90
   9  -4   1   20.00   16.10
   9  -4   1   40.40   17.10
   9   4  -1   60.09   18.20
  -9   4   1   71.19   23.50
  -9  -4   1   78.39   25.90
   9  -4  -1   62.49   19.50
  -9  -4   1   69.49   18.00
  -9   4  -1   36.60   16.50
   9   4   1   33.90   18.40
  -9   4  -1   25.90   18.00
   9   4   1   59.79   20.00
   9  -4  -1   84.09   21.00
  -9   5   1   31.40   22.30
  -9  -5  -1   41.80   20.40
   9  -5   1  -11.40   19.60
   9   5  -1   -6.30   20.70
  -9  -5  -1   30.60   18.10
   9  -5  -1   84.69   22.70
   9  -5  -1   20.00   18.50
  -9   5  -1    8.10   21.80
  -9  -5   1   10.90   17.30
  -9  -5   1   20.90   20.60
   9   5   1   -4.10   22.80
   9  -6   1   11.50   25.40
  -9   6   1   37.80   27.30
   9  -6   1   29.50   23.20
   9   6  -1  -19.00   26.70
  -9  -6  -1   17.60   25.10
  -9  -6  -1   -8.20   20.70
  -9   6  -1  -41.00   27.00
  -9  -6   1   10.60   20.70
  -9  -6   1   41.40   24.40
   9   6   1   22.80   27.20
   9  -6  -1    1.80   24.30
   9  -6  -1   12.60   24.00
   9   0  -2  483.65   23.30
  -9   0  -2  503.45   21.20
  -9   0   2  470.45   18.60
   9   0   2  489.85   24.40
   9   0  -2  469.25   25.60
  -9   0  -2  454.75   30.00
  -9   0   2  473.95   31.90
   9   0   2  485.45   26.60
   9   1  -2 1704.83   50.39
  -9   1   2 1562.34   58.09
   9  -1   2 1593.84   51.59
  -9   1   2 1648.64   44.50
   9   1  -2 1586.94   51.29
  -9  -1  -2 1615.84   57.99
   9  -1   2 1595.84   46.00
   9  -1  -2 1627.84   51.69
  -9   1  -2 1604.34   56.89
  -9  -1   2 1618.44   59.79
  -9   1  -2 1620.14   46.30
   9   1   2 1601.84   53.39
   9  -1  -2 1592.34   45.20
   9   2  -2  462.75   25.90
   9  -2   2  436.16   22.70
  -9   2   2  431.76   31.20
   9  -2   2  447.46   27.40
   9   2  -2  446.36   27.30
  -9  -2  -2  450.35   30.50
  -9   2   2  432.56   23.80
  -9  -2   2  471.15   31.30
  -9   2  -2  399.16   30.10
  -9   2  -2  478.15   25.90
   9   2   2  441.86   28.60
   9   2   2  445.66   25.60
   9  -2  -2  460.05   23.40
   9  -2  -2  436.16   24.90
  -9   3   2 1523.75   50.99
   9  -3   2 1447.66   51.99
  -9  -3  -2 1501.05   56.49
  -9   3   2 1547.05   54.09
   9  -3   2 1524.65   44.90
   9   3  -2 1460.25   52.69
   9  -3  -2 1520.35   46.30
  -9   3  -2 1456.75   53.09
   9   3   2 1499.25   55.59
   9  -3  -2 1498.15   50.79
  -9  -3   2 1544.95   58.29
  -9  -3   2 1491.55   53.19
   9   3   2 1508.75   51.69
  -9   3  -2 1505.65   52.19
   9  -4   2  426.46   30.70
  -9  -4  -2  413.36   30.80
   9   4  -2  472.15   30.30
   9  -4   2  474.45   25.40
  -9   4   2  455.35   30.90
  -9   4   2  453.75   33.50
  -9  -4   2  430.36   32.90
   9  -4  -2  445.26   27.00
   9   4   2  431.26   31.40
   9   4   2  437.86   32.50
  -9   4  -2  435.36   32.60
  -9   4  -2  482.85   31.80
  -9  -4   2  384.16   31.20
   9  -4  -2  478.85   29.20
   9  -5   2 1099.99   49.80
   9  -5   2 1167.48   42.80
  -9   5   2 1143.89   53.89
  -9  -5  -2 1189.48   49.80
   9   5  -2 1133.99   49.70
  -9  -5  -2 1054.39   52.39
  -9  -5   2 1151.38   51.79
  -9   5  -2 1139.99   51.79
   9   5   2 1157.08   51.59
  -9  -5   2 1102.99   49.40
   9  -5  -2 1150.88   46.80
   9  -5  -2 1104.99   45.20
  -9   6   2  226.18   42.90
   9   6  -2  362.36   36.10
  -9  -6  -2  315.87   37.90
  -9  -6  -2  328.07   38.70
  -9  -6   2  282.67   43.70
   9   6   2  362.66   37.60
   9  -6  -2  244.18   36.00
  -9   6  -2  289.97   42.00
  -9  -6   2  294.87   37.40
  -9   0   3    9.10    9.00
   9   0   3  -12.10   12.10
   9   0  -3   15.00   12.50
  -9   0  -3   16.30   11.90
  -9   0  -3    1.70   11.60
   9   0   3  -13.80   11.80
   9   0  -3   24.60   10.80
  -9   0   3   13.10   12.80
  -9  -1  -3   15.80   12.20
   9  -1   3   19.30   12.30
   9   1  -3   -3.60   12.30
   9   1  -3   -3.50   11.70
   9  -1   3   22.90   11.80
  -9   1   3   -7.30   10.80
  -9   1   3    3.80   12.50
   9   1  -3    4.70    8.60
  -9   1  -3   22.30   12.30
   9  -1  -3    4.00   12.30
  -9  -1   3   18.80   13.70
  -9   1  -3   54.39   17.40
   9  -1  -3   -4.30    9.60
   9   1   3   -3.60   11.90
   9   1   3   -6.60   12.50
   9   2  -3   40.00   14.40
  -9   2   3   25.10   13.40
   9  -2   3   33.30   13.50
   9  -2   3   30.80   15.00
  -9  -2  -3   40.50   13.60
  -9   2   3   26.70   11.70
   9   2   3   10.10   13.40
   9   2   3   49.80   14.50
  -9   2  -3   38.50   14.80
  -9   2  -3   41.10   13.70
  -9  -2   3   23.10   13.30
   9  -2  -3   29.20   10.20
  -9  -2   3   23.70   14.00
  -9   3   3   35.30   15.80
  -9  -3  -3   30.90   14.20
   9  -3   3   76.19   17.10
   9   3  -3   53.19   16.50
  -9   3   3   49.10   15.40
   9  -3   3   31.00   15.30
   9   3   3   39.30   17.10
  -9  -3   3   30.40   15.00
   9  -3  -3   38.30   15.30
   9   3   3   35.90   15.00
  -9  -3   3   22.00   15.20
  -9   3  -3   12.90   14.80
  -9   3  -3   38.20   16.70
   9  -3  -3   29.80   12.90
   9   4  -3   23.20   19.10
  -9   4   3    8.50   15.20
  -9  -4  -3   -9.60   15.80
   9  -4   3   -4.50   17.20
   9  -4   3    0.80   16.30
  -9   4   3  -13.20   18.60
   9  -4  -3   40.30   16.10
  -9   4  -3   -4.40   16.90
   9   4   3    8.20   20.30
   9   4   3  -19.80   18.00
  -9  -4   3  -12.30   15.90
   9  -4  -3   -1.40   17.40
  -9   4  -3   -0.90   19.50
  -9  -4   3   14.60   17.60
  -9   5   3   -5.20   23.30
   9   5  -3  -23.00   22.00
  -9  -5  -3   16.30   18.10
   9  -5   3  -11.00   21.90
  -9  -5  -3   14.30   21.80
   9  -5  -3   60.09   22.60
   9   5   3   -1.90   24.40
  -9  -5   3  -24.60   18.80
  -9   5  -3  -18.30   22.80
  -9  -5   3  -14.80   22.20
  -9  -6  -3   20.50   21.60
   9  -6   3   -6.60   27.00
   9   6  -3   -6.30   27.30
  -9  -6  -3  -13.10   27.40
  -9   6   3   26.70   30.30
   9  -6  -3   20.80   25.80
   9   6   3  -21.70   29.50
  -9  -6   3  -19.00   22.00
  -9   6  -3   -1.40   29.50
  -9  -6   3    7.10   31.40
  -9   0  -4 1566.04   58.39
  -9   0   4 1558.24   60.69
   9   0   4 1574.44   55.09
  -9   0  -4 1653.33   46.80
  -9   0   4 1572.14   43.80
   9   0   4 1574.04   44.30
   9   0  -4 1582.44   53.19
  -9   1   4  381.86   21.60
   9   1  -4  388.06   25.70
   9  -1   4  395.76   26.80
   9   1  -4  405.56   19.70
   9  -1   4  395.56   21.70
  -9  -1  -4  364.06   21.00
  -9   1   4  407.86   32.00
  -9  -1  -4  326.77   29.50
  -9   1  -4  414.46   26.10
   9   1   4  411.36   26.70
   9  -1  -4  358.56   25.30
  -9  -1   4  402.46   31.50
  -9  -1   4  384.36   24.20
   9   1   4  397.16   24.40
  -9   1  -4  360.66   29.10
  -9   2   4 1122.09   41.50
  -9   2   4 1163.78   50.89
  -9  -2  -4 1178.18   49.99
   9  -2   4 1134.69   46.30
   9   2  -4 1218.38   45.90
   9   2  -4 1181.68   33.60
   9   2   4 1173.58   47.20
  -9  -2   4 1147.69   51.79
   9  -2  -4 1206.18   44.90
  -9   2  -4 1132.59   43.50
   9   2   4 1196.68   42.70
  -9   2  -4 1129.79   48.40
  -9  -3  -4  715.63   38.80
   9  -3   4  680.63   37.00
   9   3  -4  733.13   36.20
  -9   3   4  685.93   37.40
  -9   3   4  710.83   34.70
  -9  -3   4  607.64   39.40
  -9  -3   4  804.52   36.70
   9   3   4  681.13   38.30
  -9   3  -4  713.43   38.70
   9  -3  -4  687.73   35.20
   9   3   4  727.33   36.20
  -9   3  -4  707.93   37.80
   9   4  -4 1050.19   46.00
  -9   4   4 1017.70   46.70
  -9  -4  -4  956.00   48.30
  -9   4   4  990.40   45.60
   9  -4   4  986.60   45.90
  -9  -4   4  996.70   49.00
  -9   4  -4  980.10   47.10
   9   4   4  982.10   46.80
   9  -4  -4 1055.19   46.00
   9   4   4  999.80   49.60
  -9   4  -4  965.00   46.90
  -9  -4   4 1006.30   48.00
   9   5  -4  344.57   34.60
  -9  -5  -4  326.67   36.30
  -9   5   4  350.06   44.40
   9   5   4  316.37   37.50
  -9   5  -4  398.86   39.60
  -9  -5   4  361.86   43.50
  -9  -5   4  337.07   36.60
  -9   0   5  -17.80   14.80
   9   0  -5   -6.30   14.20
  -9   0  -5   16.40   14.40
   9   0   5  -12.50   14.20
  -9   0   5  -13.80   11.30
  -9   1   5    0.20   15.20
  -9   1   5   -0.90   12.60
   9   1  -5   -0.40   11.90
   9   1  -5    2.80   15.70
  -9  -1  -5   13.30   14.00
  -9  -1  -5   23.10   13.90
  -9   1  -5   41.60   15.50
  -9  -1   5   10.40   14.40
   9  -1  -5  -22.40   14.30
  -9   1  -5   67.99   20.30
  -9  -1   5   17.10   15.20
  -9  -2  -5    6.40   13.80
   9   2  -5   12.40   13.30
   9  -2   5   -7.20   15.00
  -9   2   5   16.30   14.50
   9   2  -5    1.10   17.00
  -9   2   5   25.00   16.60
   9  -2  -5   15.70   16.00
  -9   2  -5    3.10   17.10
  -9   2  -5   12.80   16.20
   9   2   5  -15.00   18.80
   9   2   5   -5.80   15.60
  -9  -2   5   11.70   16.10
  -9  -2   5   10.40   18.20
  -9   3   5  -13.40   17.40
   9   3  -5   -2.80   18.20
  -9   3   5   11.00   17.60
   9  -3   5   14.40   18.90
  -9   3  -5   27.80   20.80
  -9   3  -5  -22.40   17.80
   9   3   5   20.50   19.20
   9  -3  -5   79.39   22.00
  -9  -3   5   -8.00   16.40
  -9  -3   5   -4.80   21.00
   9   3   5    1.10   22.00
   9   4  -5   18.30   21.30
  -9   4   5  -32.60   17.80
  -9  -4  -5   35.60   17.90
   9  -4   5   13.20   22.30
  -9   4   5    1.30   20.70
  -9  -4   5   17.60   19.00
   9   4   5   -3.10   21.80
  -9   4  -5    2.00   20.00
  -9  -4   5   21.40   24.00
   9  -4  -5   15.10   21.30
  -9   4  -5  -36.50   23.50
   9   4   5  -15.50   24.70
   9   5  -5    7.00   26.80
  -9  -5  -5   -3.50   22.20
  -9   5   5   44.10   26.40
   9  -5   5    9.90   26.10
   9  -5  -5  -13.90   24.40
   9   5   5    1.50   25.60
  -9  -5   5    4.30   22.00
  -9   5  -5   -4.30   28.60
  -9  -5   5   -6.40   29.20
  -9   0  -6 1573.24   61.19
   9   0  -6 1680.53   49.80
  -9   0   6 1545.25   63.49
  -9   0  -6 1562.04   50.79
   9   0  -6 1577.84   56.19
   9   0   6 1593.94   58.79
  -9   1   6   -3.30   17.30
   9   1  -6   11.40   17.60
   9   1  -6    0.40   15.70
  -9  -1  -6   17.90   16.10
  -9  -1  -6    6.30   15.70
   9  -1   6   -5.40   16.80
  -9   1  -6   -2.60   16.70
   9  -1  -6  -30.90   17.30
  -9   1  -6   35.70   17.30
  -9  -1   6  -32.30   15.80
   9   1   6   31.40   17.00
  -9   2   6 1518.85   60.99
  -9   2   6 1375.56   50.09
  -9  -2  -6 1473.95   59.69
   9   2  -6 1452.55   45.70
   9  -2   6 1407.66   55.99
   9   2  -6 1498.35   55.59
  -9   2  -6 1476.15   54.09
  -9  -2   6 1554.84   63.09
  -9   2  -6 1458.45   58.69
   9  -2  -6 1418.56   54.49
   9   2   6 1413.36   56.09
   9   3  -6   -0.10   21.40
   9  -3   6  -21.10   22.00
  -9   3   6    4.90   20.20
  -9  -3  -6   -2.70   17.70
  -9   3   6   -8.50   19.10
   9  -3  -6   15.70   21.60
  -9   3  -6    3.00   19.60
  -9  -3   6    0.60   19.70
  -9   3  -6   -2.10   21.80
   9   3   6   16.70   21.20
   9   3   6   16.40   24.80
  -9  -3   6    4.00   23.60
  -9   4   6 1261.67   56.79
   9  -4   6 1206.98   57.69
  -9  -4  -6 1342.97   59.69
  -9  -4   6 1303.37   59.59
   9   4   6 1240.18   59.69
  -9  -4   6 1360.96   60.09
  -9   4  -6 1276.87   61.39
   9   4   6 1351.86   54.99
   9  -4  -6 1266.47   55.69
  -9   4  -6 1322.27   58.09
   9   0  -7   19.10   19.80
   9   0   7  -17.50   20.10
  -9   0  -7    0.90   17.90
  -9   0  -7   14.30   18.20
  -9   0   7  -11.80   19.20
  -9  -1  -7   15.90   19.20
  -9   1   7   11.20   17.40
   9   1  -7   30.70   16.90
   9   1  -7   32.50   21.00
   9  -1   7   20.50   20.90
  -9   1   7  -13.00   18.90
   9   1   7   24.40   19.60
  -9   1  -7    3.90   18.90
  -9  -1   7    4.30   19.70
   9  -1  -7   -5.80   21.00
  -9   1  -7   21.10   19.70
   9  -2   7   13.30   22.00
   9   2  -7  -17.90   21.80
  -9   2   7   19.60   19.60
  -9   2   7   10.80   20.80
  -9  -2  -7    3.80   19.20
   9   2   7  -19.20   20.40
  -9  -2   7  -15.50   20.30
   9  -2  -7   17.20   20.90
  -9   2  -7  106.99   33.00
  -9   2  -7   25.10   21.90
  -9   3   7    7.90   22.50
   9  -3   7    0.10   24.50
  -9   3   7   24.70   22.60
  -9   3  -7  -21.10   21.90
  -9   3  -7   20.70   25.70
   9  -3  -7    8.30   22.90
  -9  -4  -7  -29.80   23.10
  -9   4   7    4.00   23.10
  -9   4  -7    9.20   25.90
  -9  -4   7  -25.20   24.30
  -9   0  -8 1288.87   50.89
  -9   0  -8 1198.78   60.79
  -9   0   8 1235.18   64.09
   9   0  -8 1306.07   48.60
  -9  -1  -8  112.39   37.90
  -9  -1  -8  180.48   31.80
  -9   1   8  115.49   39.00
   9   1  -8  198.58   28.10
   9  -1   8  214.18   35.00
   9  -1  -8  159.48   27.60
  -9  -1   8  197.38   40.20
  -9   1  -8  251.57   33.90
  -9   1  -8  239.48   39.40
   9  -1  -8  148.49   29.40
   9  -2   8  823.82   49.99
  -9   2   8  869.01   54.19
  -9  -2  -8  914.11   51.49
   9   2  -8  900.11   46.70
   9   2  -8  853.11   41.90
  -9   2   8  879.71   46.70
  -9  -2   8  852.21   56.09
  -9   2  -8  953.60   50.29
   9  -2  -8  903.71   46.20
  -9   2  -8  803.52   52.79
   9   2   8  879.11   48.50
  10   0   0 1846.72   55.49
 -10   0   0 1949.80   67.29
  10   0   0 1942.21   58.29
 -10   1   0  -20.80   10.10
 -10   1   0    3.90   13.90
  10  -1   0    7.20   12.70
 -10  -1   0   23.60   13.80
  10   1   0  -22.80   12.60
  10  -1   0   -7.60   12.20
  10  -2   0 1621.74   51.19
 -10   2   0 1585.04   48.80
 -10  -2   0 1572.24   60.89
  10   2   0 1578.64   53.49
 -10   2   0 1596.94   59.29
  10   2   0 1624.24   55.49
  10  -2   0 1585.04   50.69
  10   3   0    4.00   16.60
 -10   3   0  -17.20   15.60
  10   3   0    1.30   14.90
  10  -3   0   -5.90   14.40
 -10  -3   0   -0.80   14.90
  10  -3   0   -1.20   14.70
 -10   3   0   -1.20   16.10
 -10  -4   0 1604.84   60.59
 -10  -4   0 1679.83   62.69
  10  -4   0 1620.64   55.39
 -10   4   0 1555.84   58.39
  10   4   0 1651.53   59.19
 -10   4   0 1570.34   57.89
  10  -4   0 1592.24   53.69
  10   5   0    0.10   23.90
  10  -5   0   19.20   20.70
  10  -5   0   -4.60   21.20
 -10   5   0  -10.20   23.70
 -10  -5   0   14.70   22.60
 -10  -5   0  -11.70   19.90
  10  -6   0 1439.86   63.19
  10  -6   0 1577.44   57.89
 -10  -6   0 1479.05   64.39
 -10  -6   0 1626.44   69.19
 -10   6   0 1620.54   71.09
  10   6   0 1550.94   66.79
  10   0   1   -2.30   11.60
 -10   0   1   12.40    8.50
  10   0   1   -2.00   13.00
  10   0  -1   12.50   11.60
 -10   0  -1   27.40   12.90
 -10   0   1    2.50   13.70
 -10   1   1   59.09   15.00
 -10   1   1   34.80   13.70
  10  -1   1   56.29   18.80
  10   1  -1   43.90   17.70
  10  -1   1   52.39   13.70
  10   1  -1   26.50   13.20
 -10  -1  -1   63.69   21.20
  10  -1  -1   58.89   17.10
  10   1   1   18.50   13.70
  10  -1  -1   33.40   15.30
 -10  -1   1   25.80   13.80
  10   1   1   44.80   14.70
 -10   1  -1   55.39   13.30
 -10   1  -1   30.40   13.30
  10   2  -1   55.79   18.80
  10  -2   1   27.80   14.00
  10  -2   1    5.40   13.40
  10   2  -1   16.50   13.60
 -10  -2  -1   37.70   15.30
 -10   2   1   13.50   13.70
 -10   2   1   17.70   15.60
  10   2   1   27.70   15.00
 -10   2  -1    5.50   13.10
 -10  -2   1   14.90   14.80
  10   2   1   -7.20   13.20
  10  -2  -1   50.09   16.10
 -10   3   1    7.80   16.30
 -10  -3  -1   34.80   15.30
  10  -3   1    1.30   15.80
 -10   3   1   31.00   16.70
  10   3  -1   21.80   15.70
  10   3  -1    7.80   16.60
  10  -3   1    5.90   14.90
 -10   3  -1    4.10   16.00
 -10  -3   1   12.50   15.90
  10  -3  -1   18.50   15.40
  10  -3  -1   -3.00   14.40
  10   3   1   -5.00   15.50
 -10   3  -1   -6.80   16.00
  10   3   1   11.20   16.30
 -10  -4  -1   21.00   18.00
  10   4  -1   29.30   20.20
  10  -4   1    9.10   18.40
 -10   4   1   40.80   18.20
  10  -4   1   13.00   17.60
 -10  -4   1   28.00   18.30
  10   4   1    0.00   19.30
  10  -4  -1   94.79   26.20
  10   4   1   32.90   20.70
 -10   4  -1   -1.80   20.40
 -10  -4   1   12.30   20.10
 -10   4  -1   -6.30   17.60
  10  -5   1  -23.00   21.30
 -10   5   1   61.79   24.10
 -10  -5  -1   15.70   20.70
  10  -5   1   -2.90   22.70
 -10   5  -1   -9.90   24.60
 -10  -5   1  -18.40   19.40
 -10  -5   1   -5.60   23.10
  10   5   1   44.30   25.20
  10  -5  -1  -13.20   21.60
  10  -5  -1   91.09   29.60
 -10   0  -2 1470.25   58.09
 -10   0   2 1497.05   59.79
  10   0  -2 1533.45   50.69
  10   0   2 1531.65   52.19
 -10   0  -2 1496.45   39.90
 -10   0   2 1526.95   38.80
  10   0   2 1522.15   48.40
 -10  -1  -2  449.56   34.00
  10   1  -2  463.75   26.90
 -10   1   2  471.95   22.80
 -10   1   2  429.16   34.40
  10  -1   2  448.06   28.20
  10   1  -2  476.55   27.20
 -10   1  -2  439.46   34.00
  10  -1  -2  485.15   24.90
  10  -1  -2  500.55   27.80
 -10  -1   2  494.65   36.40
  10   1   2  470.75   29.00
  10   1   2  427.26   25.90
 -10   1  -2  482.85   26.30
  10   2  -2 1201.38   47.20
  10  -2   2 1221.78   46.20
 -10   2   2 1232.48   52.99
  10   2  -2 1201.08   45.10
 -10  -2  -2 1151.78   52.09
 -10   2   2 1292.67   42.20
  10   2   2 1174.58   48.40
  10  -2  -2 1281.77   42.30
 -10   2  -2 1221.78   43.80
 -10  -2   2 1271.77   55.79
  10   2   2 1227.98   45.00
  10  -2  -2 1246.98   45.30
 -10   2  -2 1235.78   51.49
 -10   3   2  388.76   29.60
  10   3  -2  423.96   29.20
  10  -3   2  356.86   24.40
 -10   3   2  426.66   32.70
 -10  -3  -2  394.16   31.90
  10  -3   2  378.66   30.20
 -10  -3   2  346.57   35.00
 -10   3  -2  422.56   32.00
  10   3   2  406.56   28.40
 -10   3  -2  387.56   30.20
  10   3   2  353.56   31.00
  10  -3  -2  376.16   27.20
  10  -3  -2  406.86   26.30
 -10  -3   2  334.97   30.90
  10  -4   2 1221.48   51.09
  10   4  -2 1237.68   51.09
 -10   4   2 1150.18   51.89
  10  -4   2 1211.88   42.50
 -10  -4  -2 1215.38   53.59
 -10   4   2 1176.98   50.19
  10   4   2 1259.67   50.99
 -10   4  -2 1231.28   49.90
 -10   4  -2 1232.38   50.99
  10  -4  -2 1145.79   43.70
 -10  -4   2 1245.78   54.99
  10  -4  -2 1211.28   48.20
 -10  -4   2 1202.58   52.89
  10   4   2 1208.48   54.49
 -10  -5  -2  344.37   37.10
 -10  -5  -2  287.17   36.90
  10  -5   2  333.47   36.30
 -10   5   2  259.37   38.00
  10  -5   2  338.47   29.40
  10   5  -2  317.97   32.00
  10  -5  -2  338.77   31.40
 -10   5  -2  359.46   37.90
  10   5   2  351.96   34.90
 -10  -5   2  365.66   36.40
 -10  -5   2  261.37   36.80
  10  -5  -2  265.07   32.10
 -10   0   3   17.30   14.70
 -10   0   3    8.00   10.60
  10   0   3   -5.30   15.50
  10   0   3   -0.70   13.80
  10   0  -3   20.70   14.20
 -10   0  -3  -10.40   12.70
  10   0  -3   16.00   12.80
 -10  -1  -3  -15.00   14.10
 -10   1   3    0.10   14.80
  10  -1   3   27.10   15.00
  10  -1   3   16.00   14.90
  10   1  -3  -18.70   13.90
 -10   1  -3  -20.20   14.90
 -10   1  -3   28.70   15.00
  10   1   3   -6.00   13.90
  10   1   3   30.90   15.10
  10  -1  -3   23.90   14.40
  10  -1  -3   13.20   11.90
 -10  -1   3   15.40   15.10
 -10   2   3   15.80   13.00
 -10   2   3  -12.60   16.20
  10   2  -3    2.50   15.70
  10  -2   3    5.40   14.80
  10  -2   3    7.10   15.30
 -10  -2  -3   -8.60   14.50
  10   2   3    5.90   16.80
  10  -2  -3   -8.70   12.80
 -10   2  -3   -1.80   15.80
  10   2   3  -26.80   15.00
 -10  -2   3   28.40   16.30
  10  -2  -3   30.80   15.60
 -10   2  -3    3.80   15.20
  10  -3   3   -1.80   17.30
  10  -3   3  -29.90   17.90
 -10   3   3    0.10   16.60
 -10   3   3    9.80   16.20
  10   3  -3   15.10   17.30
 -10  -3  -3   -4.00   16.10
  10  -3  -3  -19.00   17.60
 -10  -3   3   -7.40   16.70
 -10   3  -3    0.40   17.50
 -10   3  -3   -5.90   17.60
 -10  -3   3  -19.80   18.30
  10   3   3    6.10   19.70
  10  -3  -3   -2.10   14.40
  10   3   3    5.70   16.30
 -10   4   3    2.80   17.70
 -10   4   3   -9.10   20.30
 -10  -4  -3  -10.20   17.20
  10  -4   3   -8.00   20.30
  10   4  -3    1.50   21.40
 -10   4  -3  -30.80   22.20
  10  -4  -3  -31.10   19.90
 -10   4  -3    3.20   18.40
  10   4   3   -6.50   20.30
  10   4   3  -18.90   21.70
 -10  -4   3   50.09   19.60
 -10  -4   3    7.20   20.30
 -10  -5  -3  -27.10   23.80
 -10  -5  -3    0.10   20.40
  10   5  -3  -24.60   24.90
 -10  -5   3  -34.30   26.30
 -10  -5   3   12.60   21.90
  10  -5  -3   38.90   25.90
  10   5   3   18.70   27.50
  10   0   4  670.63   30.00
  10   0   4  684.83   37.40
 -10   0   4  671.73   42.60
  10   0  -4  708.23   35.50
 -10   0  -4  698.43   40.30
 -10   0   4  647.04   27.10
 -10   0  -4  667.43   30.60
 -10  -1  -4  854.31   43.50
  10   1  -4  858.61   29.20
 -10   1   4  860.01   46.30
 -10   1   4  801.82   30.90
  10   1  -4  837.12   38.90
  10  -1   4  859.31   34.70
  10  -1   4  827.02   39.80
 -10   1  -4  796.62   35.20
  10   1   4  794.52   41.10
 -10  -1   4  818.02   46.20
 -10  -1   4  845.42   35.30
 -10   1  -4  815.52   43.50
  10  -1  -4  851.11   39.90
 -10  -2  -4  478.95   35.20
 -10   2   4  379.26   26.00
  10   2  -4  423.86   28.50
 -10   2   4  393.76   34.80
  10  -2   4  394.56   30.70
 -10   2  -4  457.05   34.00
 -10  -2   4  370.86   35.20
  10   2   4  481.65   29.90
  10  -2  -4  442.46   28.40
 -10  -2   4  440.76   30.30
  10   2   4  400.26   31.50
 -10   2  -4  400.76   31.00
 -10  -3  -4 1381.96   59.79
 -10   3   4 1494.45   52.59
 -10   3   4 1438.46   59.09
  10   3  -4 1449.35   55.39
  10  -3   4 1393.36   57.29
 -10   3  -4 1373.16   58.09
  10  -3  -4 1502.65   56.39
 -10  -3   4 1431.86   61.39
 -10  -3   4 1507.55   54.89
  10   3   4 1483.05   54.09
  10   3   4 1468.35   58.69
 -10   3  -4 1544.55   56.09
 -10  -4  -4  303.87   34.20
 -10   4   4  301.77   35.30
  10   4  -4  326.67   33.80
  10  -4   4  304.77   36.60
 -10   4   4  286.67   33.40
 -10   4  -4  324.97   35.80
 -10  -4   4  340.17   38.10
 -10   4  -4  311.07   36.70
  10   4   4  291.37   33.80
  10  -4  -4  319.97   30.50
 -10  -4   4  213.38   36.60
 -10   5   4  990.20   55.89
 -10  -5  -4  875.91   50.49
  10  -5   4 1004.00   54.09
  10   5  -4  974.20   51.39
 -10  -5   4 1040.70   58.49
  10   5   4  935.11   58.09
  10   5   4  964.20   52.49
 -10  -5   4  900.81   51.39
  10  -5  -4  964.30   49.99
 -10   5  -4  918.51   55.19
  10   0  -5  -17.60   16.80
 -10   0  -5   11.80   16.40
 -10   0  -5  -11.50   16.20
 -10   0   5   -4.40   17.20
  10   0   5   17.30   16.90
 -10   1   5    0.70   14.80
  10   1  -5   14.90   14.50
 -10   1   5  -18.40   17.20
 -10  -1  -5   -9.40   16.10
  10   1  -5   11.80   17.90
  10   1   5   30.90   17.80
 -10   1  -5  -18.50   16.80
 -10  -1   5   -0.10   17.50
  10  -1  -5   11.20   17.80
 -10   1  -5  -10.20   17.60
 -10   2   5    1.10   16.20
  10   2  -5   15.60   19.00
 -10   2   5   15.90   18.30
  10  -2   5   16.90   18.80
 -10  -2  -5  -11.20   17.40
  10   2   5   -6.40   21.00
  10   2   5   29.60   18.20
 -10  -2   5   -8.20   19.80
 -10   2  -5   30.60   19.50
  10  -2  -5   -6.80   17.40
 -10  -2   5   -9.80   18.90
 -10   3   5   -0.10   19.70
 -10   3   5    9.60   19.50
  10  -3   5  -15.00   20.10
  10   3  -5   28.00   20.70
  10   3   5   -9.90   20.30
 -10   3  -5    9.00   20.00
  10  -3  -5   20.90   20.30
 -10   3  -5  -46.30   22.40
 -10  -3   5   25.90   23.10
  10   3   5   -6.20   23.60
 -10  -3   5   -4.40   20.10
  10  -4   5  -11.30   24.00
 -10  -4  -5  -17.00   21.50
 -10   4   5  -29.30   21.00
 -10   4   5   36.50   23.70
 -10  -4   5  -13.50   21.50
 -10   4  -5   -4.90   25.50
  10   4   5  -16.80   24.40
 -10  -4   5   45.30   27.80
  10  -4  -5   35.10   23.00
 -10   4  -5   -1.40   23.10
  10   4   5  -12.40   28.10
  10   0  -6   16.50   19.90
 -10   0  -6   30.30   18.80
 -10   0  -6   26.80   19.30
 -10   0   6   29.20   19.60
  10   0   6    0.40   19.00
  10   0  -6   18.70   16.60
  10   1  -6 1220.68   51.49
 -10  -1  -6 1254.97   58.19
 -10   1   6 1311.47   60.69
  10   1  -6 1277.37   43.30
 -10   1   6 1240.08   43.80
  10  -1   6 1180.58   53.39
  10  -1  -6 1251.87   52.49
 -10  -1   6 1240.78   58.99
  10   1   6 1268.67   55.29
 -10   1  -6 1297.37   48.40
 -10   1  -6 1236.68   56.99
  10  -2   6   13.50   20.70
  10   2  -6   27.60   22.20
 -10   2   6   -5.40   20.50
 -10   2   6   40.30   18.70
 -10  -2  -6   14.30   19.00
  10   2   6    2.90   20.70
 -10   2  -6    4.40   23.50
 -10   2  -6   -4.80   20.30
 -10  -2   6   11.80   20.40
  10  -2  -6   46.10   21.60
 -10   3   6 1220.18   58.89
  10   3  -6 1196.28   53.79
  10  -3   6 1147.29   55.89
 -10   3   6 1233.18   52.29
  10   3   6 1241.78   59.19
 -10   3  -6 1282.57   59.29
 -10   3  -6 1269.47   55.69
  10  -3  -6 1287.27   53.89
  10  -4   6    7.20   27.40
 -10   4   6   35.60   27.20
  10   4  -6   73.89   29.40
 -10   4   6  -26.90   24.30
 -10   4  -6  -57.79   30.10
  10  -4  -6   36.10   26.80
 -10   4  -6   14.70   24.40
  10   4   6   19.70   32.10
 -10  -4   6  -44.00   24.80
  10   4   6   -3.60   27.60
 -10   0  -7   23.70   20.90
  10   0  -7   77.79   24.30
  10  -1   7    1.70   22.70
 -10  -1  -7   17.60   20.50
  10   1  -7   34.60   20.50
 -10   1   7  -26.60   19.00
 -10   1  -7    9.90   22.90
 -10  -1   7   39.70   23.00
  10  -1  -7   18.60   23.80
 -10  -2  -7    2.90   22.20
  10  -2   7   30.50   24.60
  10   2  -7   32.30   24.10
 -10   2   7   24.70   21.20
  10  -2  -7  -18.80   23.80
  10   2   7   67.29   23.90
 -10   2  -7    3.50   27.60
 -10  -2   7   -9.00   24.80
 -10   3   7   26.50   25.80
  10  -3   7   10.20   27.00
 -10  -3  -7   17.50   24.30
  10  -3  -7   13.60   25.70
  10   3   7  -32.30   28.20
 -10  -3   7    1.60   25.80
 -10   3  -7   -6.00   29.60
 -10   0  -8  131.59   41.80
  10   0  -8  144.19   31.80
 -10   0   8  135.59   45.60
  10   0   8  166.68   37.90
 -10   0  -8  181.28   35.90
  10   0  -8  149.49   29.70
  10   1  -8  823.52   45.70
  10  -1   8  751.42   49.80
 -10  -1  -8  829.52   53.79
 -10   1   8  725.83   57.49
  10  -1  -8  813.82   41.00
 -10   1  -8  824.62   54.49
  10  -1  -8  818.52   46.60
 -10   1  -8  822.82   47.20
 -10  -1   8  779.42   56.99
  10   1   8  740.53   51.49
  11   0   0   59.99   18.00
  11   0   0   -1.10   15.10
 -11   0   0   12.70   16.20
 -11   1   0 1477.85   60.99
 -11   1   0 1591.84   44.90
  11   1   0 1573.24   54.29
  11   1   0 1554.94   54.89
 -11  -1   0 1499.65   62.59
  11  -1   0 1560.34   51.99
  11  -1   0 1586.24   50.79
  11  -2   0   -1.30   16.20
  11  -2   0   30.10   16.40
 -11  -2   0    8.60   15.90
  11   2   0   11.90   17.20
  11   2   0  -30.10   16.00
 -11   2   0    3.60   17.20
 -11   3   0 1900.91   68.39
 -11   3   0 1899.61   62.69
  11  -3   0 1982.40   62.49
  11   3   0 1993.40   68.59
 -11  -3   0 1959.50   72.99
  11  -3   0 2017.80   61.29
  11   3   0 2044.70   65.99
 -11   4   0  -14.60   23.60
  11   4   0    2.30   21.90
 -11  -4   0   10.00   23.40
  11  -4   0    6.00   20.00
  11  -4   0   -3.40   20.00
 -11  -4   0   25.50   20.30
 -11   4   0    4.20   19.90
  11  -5   0 1171.48   50.29
  11   5   0 1228.58   55.39
 -11  -5   0 1074.19   57.59
 -11  -5   0 1080.89   58.29
  11  -5   0 1165.58   52.09
 -11   0   1   30.40   15.50
  11   0  -1  -11.20   13.60
  11   0   1   18.30   15.80
  11   0  -1    7.10   15.50
 -11   0  -1   25.40   15.00
  11   0   1   17.50   14.60
  11  -1   1    1.00   16.30
 -11  -1  -1   31.00   14.80
 -11   1   1   29.20   16.80
  11  -1   1   21.70   15.30
  11   1  -1   15.90   15.00
 -11   1   1   17.40   12.90
  11   1  -1   14.80   14.70
 -11  -1   1   94.69   26.90
 -11   1  -1   18.40   15.50
 -11   1  -1   17.60   13.20
  11  -1  -1   29.00   15.40
  11   1   1   13.50   14.40
  11   1   1    8.60   14.70
  11   2  -1    7.00   15.90
 -11  -2  -1   14.10   15.40
 -11   2   1  -19.30   14.60
  11  -2   1    3.40   16.40
  11  -2   1   14.00   15.90
 -11   2   1   12.10   17.40
  11   2  -1    5.90   15.90
  11  -2  -1    8.40   15.20
 -11   2  -1   -8.20   16.50
  11   2   1    1.80   17.20
  11   2   1  -15.00   15.80
 -11  -2   1    8.20   16.00
  11  -2  -1   -8.40   17.10
 -11   2  -1    1.20   16.00
 -11   3   1   -0.70   19.20
  11  -3   1  -13.20   17.20
  11  -3   1   -8.40   18.20
  11   3  -1  -10.20   19.10
 -11  -3  -1   12.60   18.30
  11   3  -1   71.19   21.80
 -11   3   1   28.70   19.80
  11   3   1   12.20   18.00
 -11  -3   1   -0.60   19.00
 -11   3  -1   22.80   19.20
 -11   3  -1   -6.90   19.70
  11   3   1   14.40   19.20
 -11  -4  -1    2.90   20.30
 -11   4   1    1.80   22.80
  11   4  -1   20.10   22.20
 -11   4   1   18.30   19.70
  11  -4   1   14.30   20.50
 -11  -4   1   -6.70   22.00
  11  -4  -1  -30.80   20.10
 -11  -4   1    6.50   21.10
 -11   4  -1   -2.40   20.70
  11   4   1   18.40   23.60
 -11   4  -1   -9.20   23.00
  11   4   1    1.80   22.00
  11  -5   1   38.90   27.10
  11   5  -1   21.80   28.80
 -11  -5  -1   16.60   22.60
  11  -5   1   16.50   26.20
 -11  -5  -1  -11.50   25.90
 -11  -5   1  -26.80   23.70
  11  -5  -1   73.99   24.90
  11   5   1   13.50   27.60
 -11  -5   1   -9.50   26.10
  11  -5  -1   24.50   25.20
 -11   0   2  331.47   18.20
  11   0  -2  333.37   24.30
 -11   0  -2  283.97   30.30
  11   0   2  309.07   25.10
  11   0  -2  334.97   25.20
  11   0   2  283.07   26.70
 -11   0   2  351.96   35.60
  11  -1   2 1166.38   41.20
  11   1  -2 1202.68   44.80
 -11   1   2 1154.88   54.89
 -11  -1  -2 1117.69   51.29
  11   1  -2 1162.58   46.70
 -11   1   2 1132.99   37.70
  11  -1   2 1184.08   48.10
  11  -1  -2 1200.38   41.40
 -11  -1   2 1188.78   55.69
  11   1   2 1134.09   43.40
 -11   1  -2 1173.58   39.70
  11   1   2 1182.98   48.40
  11  -1  -2 1157.68   45.10
 -11   1  -2 1167.08   51.29
 -11   2   2  310.37   23.70
 -11   2   2  278.57   34.40
  11  -2   2  326.77   23.70
  11  -2   2  328.07   28.60
  11   2  -2  279.57   25.90
 -11  -2  -2  323.47   31.10
  11   2  -2  339.87   27.90
 -11   2  -2  297.37   31.70
  11   2   2  302.97   28.90
  11  -2  -2  359.16   25.20
  11  -2  -2  244.28   25.70
  11   2   2  322.47   26.50
 -11  -2   2  249.58   34.90
 -11   2  -2  353.96   25.90
  11  -3   2 1104.29   48.00
  11  -3   2 1107.39   41.80
 -11   3   2 1098.19   44.70
  11   3  -2 1118.49   48.90
 -11  -3  -2 1119.79   51.49
 -11   3   2 1109.49   51.99
  11   3   2 1126.09   51.89
 -11   3  -2 1124.49   45.90
 -11  -3   2 1107.09   55.59
  11  -3  -2 1128.89   46.10
  11  -3  -2 1158.08   42.70
 -11  -3   2 1017.50   49.99
 -11   3  -2 1081.79   51.89
  11   3   2 1184.58   48.20
 -11   4   2  360.86   35.50
  11  -4   2  270.27   38.10
 -11   4   2  321.47   37.30
  11  -4   2  440.66   29.60
 -11  -4  -2  421.76   38.50
 -11   4  -2  326.67   39.40
  11  -4  -2  368.96   32.10
  11   4   2  386.76   34.80
  11  -4  -2  382.76   31.60
 -11  -4   2  336.77   39.30
 -11   4  -2  321.47   34.90
 -11  -4   2  392.76   37.00
 -11  -5  -2 1036.70   56.99
  11  -5   2  938.11   58.99
 -11   5   2  902.51   53.49
 -11  -5  -2 1027.60   57.99
  11   5  -2 1099.39   51.79
 -11   5  -2 1005.20   56.19
 -11  -5   2  924.61   56.19
  11  -5  -2 1040.40   49.30
  11   5   2 1013.40   52.69
 -11  -5   2  993.50   53.19
 -11   0   3   18.30   16.90
  11   0  -3   16.50   15.90
  11   0   3   13.60   17.60
  11   0   3   -2.10   16.10
 -11   0  -3   12.90   16.30
  11   1  -3   60.29   19.20
 -11  -1  -3   52.19   16.70
 -11   1   3   56.99   17.80
  11   1  -3   62.09   16.60
  11  -1   3   37.00   17.10
 -11   1   3   36.10   17.70
  11   1   3   47.70   18.30
 -11  -1   3  105.79   29.00
  11   1   3   54.79   18.50
  11  -1  -3   61.99   16.60
  11  -1  -3   48.20   17.70
 -11   1  -3   33.30   17.00
 -11  -2  -3  -22.40   16.80
  11  -2   3   20.60   19.70
  11   2  -3    1.00   18.90
 -11   2   3    8.70   15.20
 -11   2   3    5.10   18.50
 -11  -2   3    5.50   18.10
  11  -2  -3    3.20   16.00
  11   2   3   11.90   18.90
 -11   2  -3   37.40   18.90
 -11   2  -3   13.10   18.30
  11  -2  -3   -0.60   17.80
  11   2   3   13.80   18.60
 -11  -2   3  -27.60   18.50
 -11  -3  -3  -17.60   18.40
 -11   3   3  -12.70   18.90
  11  -3   3   42.70   21.30
  11   3  -3   34.40   21.70
 -11   3   3   -3.10   20.50
 -11   3  -3    1.20   19.00
  11   3   3    1.10   21.00
 -11  -3   3   22.20   21.50
  11   3   3   27.50   20.00
 -11  -3   3   34.00   21.80
 -11   3  -3   -6.00   21.80
  11  -3  -3   16.70   19.00
  11   4  -3   50.09   25.30
  11  -4   3  -25.30   24.80
 -11   4   3   28.90   23.50
 -11   4   3    1.40   20.40
 -11  -4  -3  -11.30   19.80
 -11   4  -3    5.30   25.80
 -11  -4   3   15.30   23.40
 -11  -4   3   78.79   26.30
  11   4   3   -5.20   23.50
 -11   4  -3   15.10   21.40
  11   4   3   -4.50   26.90
  11  -4  -3   18.20   24.20
  11   0   4 1033.20   41.70
  11   0  -4 1052.49   45.00
 -11   0   4 1106.79   54.29
 -11   0   4  990.20   36.40
  11   0   4 1045.90   46.70
 -11   0  -4 1099.19   53.59
  11   1  -4  312.37   27.40
 -11  -1  -4  240.18   34.60
 -11   1   4  295.87   22.60
  11  -1   4  278.57   29.70
 -11   1   4  252.87   35.60
 -11   1  -4  284.77   27.00
 -11   1  -4  278.27   34.00
  11   1   4  327.67   26.70
 -11  -1   4  272.97   27.90
 -11  -1   4  315.67   35.10
  11  -1  -4  287.87   26.60
  11   1   4  304.27   31.00
 -11   2   4 1043.10   52.89
 -11  -2  -4 1036.10   52.39
  11   2  -4 1093.29   48.60
 -11   2   4 1037.50   40.90
  11  -2   4 1095.49   49.40
 -11   2  -4 1033.50   44.40
 -11  -2   4 1087.89   46.20
  11  -2  -4 1088.09   47.80
 -11   2  -4 1020.50   52.59
  11   2   4  953.20   49.30
  11   2   4 1041.90   44.40
 -11  -2   4 1018.70   54.09
 -11   3   4  484.45   34.10
 -11   3   4  458.35   42.00
  11  -3   4  453.05   37.80
 -11  -3  -4  508.65   41.60
  11   3  -4  515.65   40.10
 -11   3  -4  489.65   42.10
 -11  -3   4  452.25   44.30
  11  -3  -4  464.95   34.40
  11   3   4  453.75   36.70
 -11   3  -4  521.75   36.90
  11   3   4  476.85   43.90
 -11  -3   4  486.95   38.40
 -11   4   4  919.21   46.20
  11  -4   4  762.22   51.59
 -11   4   4  811.72   49.99
  11   4  -4  905.61   46.90
 -11   4  -4  814.62   50.69
  11  -4  -4  888.41   46.10
  11   4   4  877.91   48.80
  11   4   4  857.71   52.09
 -11  -4   4  902.71   52.59
 -11   4  -4  854.41   52.09
 -11   0   5   -4.90   20.70
 -11   0  -5   20.60   19.00
  11   0  -5  -15.60   16.50
  11   0   5   29.50   19.30
  11   0  -5    6.10   19.40
  11   1  -5  -27.40   19.60
 -11   1   5    1.80   16.40
 -11  -1  -5   26.60   19.00
 -11   1   5   15.40   21.50
  11  -1   5   39.70   20.20
 -11   1  -5   -6.20   18.70
 -11   1  -5    3.30   20.70
  11  -1  -5  -16.60   19.70
  11   1   5    3.70   19.90
 -11  -1   5   -8.00   22.30
  11  -2   5    6.00   22.10
 -11   2   5    3.80   21.50
 -11  -2  -5   29.20   20.10
 -11   2   5  -20.40   18.10
  11   2  -5   -9.10   23.20
  11  -2  -5  -35.20   22.40
  11   2   5   -2.00   24.10
 -11   2  -5   35.40   21.60
 -11  -2   5  -22.50   21.20
 -11   2  -5  -50.79   22.60
 -11   3   5   25.90   22.90
  11   3  -5   18.60   23.20
 -11   3   5  -15.10   21.90
  11  -3   5  -30.10   23.60
  11   3   5   40.50   27.70
 -11   3  -5   23.50   24.10
  11  -3  -5  -17.70   22.40
  11   3   5  -28.30   23.70
 -11   3  -5   -1.40   23.40
 -11  -3   5   10.10   24.60
 -11  -4  -5    9.90   23.60
 -11   4  -5   -8.70   26.60
  11   0   6 1369.26   64.19
  11   0  -6 1418.46   62.99
  11  -1   6   14.00   23.90
  11   1  -6   -3.70   22.60
 -11   1   6   23.00   18.90
 -11  -1  -6  -13.50   20.70
  11  -1  -6  -32.70   23.40
  11   1   6    2.80   23.20
 -11   1  -6   -4.40   24.40
 -11  -1   6   20.00   23.80
 -11  -2  -6 1120.29   60.19
  11  -2   6 1146.49   55.29
  11   2  -6 1144.89   52.19
 -11   2   6 1105.39   47.30
 -11   2  -6 1216.48   52.59
  11   2   6 1151.28   57.79
  11  -2  -6 1102.79   52.59
 -11  -2   6 1131.59   62.49
 -11  -3  -6   42.20   23.10
  11  -3   6    3.10   26.80
  11   3  -6  -13.30   26.20
 -11   3   6   26.90   25.60
  11  -3  -6    6.50   26.10
 -11   3  -6  -11.80   28.90
  11   3   6   -9.70   27.20
 -11  -3   6   -4.30   25.70
 -11   0  -7   -9.20   23.60
 -11   0   7   -3.80   27.20
  11   0   7   37.30   26.50
  11   0  -7    1.00   25.20
  11  -1   7   50.59   27.30
 -11   1   7   10.30   27.60
 -11  -1  -7   18.70   24.10
  11   1  -7   23.70   26.80
 -11   1  -7  -16.40   23.90
 -11   1  -7   -5.60   27.50
 -11  -1   7   34.10   26.90
  11  -1  -7   55.19   27.00
  12   0   0 1288.07   49.10
  12   0   0 1315.77   49.80
 -12   0   0 1321.87   59.59
  12  -1   0   17.80   17.40
 -12   1   0    0.00   19.20
  12  -1   0  -19.40   16.90
  12   1   0   -3.40   17.30
  12   1   0  -19.20   18.90
 -12  -1   0  -12.80   17.60
  12  -2   0 1598.04   56.79
  12  -2   0 1594.34   53.99
 -12   2   0 1529.65   49.20
 -12  -2   0 1554.54   66.89
  12   2   0 1595.14   57.49
 -12   2   0 1539.55   65.09
  12   2   0 1500.85   58.89
 -12  -3   0   -9.40   21.10
 -12   3   0   45.00   20.40
 -12   3   0   19.50   21.90
  12   3   0   -2.30   22.30
  12   3   0   21.60   21.80
  12  -3   0   17.70   20.80
  12  -4   0 1184.48   52.99
  12   4   0 1289.57   56.59
  12  -4   0 1265.97   50.79
 -12   4   0 1374.16   56.59
 -12  -4   0 1297.47   70.09
 -12   4   0 1314.47   58.89
 -12   0  -1  -12.60   17.00
  12   0  -1   25.60   17.40
  12   0   1   32.20   18.90
  12   0   1   -6.90   17.50
 -12   0   1   -9.50   18.30
  12   0  -1   -3.80   18.00
 -12   1   1   42.90   21.60
 -12  -1  -1   41.20   17.60
  12   1  -1   29.80   18.50
  12  -1   1   36.40   17.50
  12   1  -1   20.00   17.90
  12  -1   1   18.00   18.20
  12   1   1   50.09   20.30
 -12  -1   1   53.49   19.80
  12  -1  -1   15.10   17.10
 -12   1  -1   25.60   19.20
  12  -1  -1   32.60   17.20
 -12   2   1   -1.10   21.20
  12  -2   1   32.50   19.80
 -12   2   1    1.40   17.10
 -12  -2  -1    5.10   18.90
  12   2  -1   78.99   26.90
  12   2  -1   71.59   22.60
  12  -2   1   34.60   20.00
  12   2   1   20.40   19.50
 -12  -2   1    9.10   21.00
 -12   2  -1   10.30   20.10
 -12   2  -1  -14.40   17.80
  12   2   1  -10.50   19.70
  12  -2  -1  -18.50   19.20
 -12   3   1  -31.00   22.30
  12   3  -1  -11.70   22.50
  12  -3   1   31.20   22.20
  12   3  -1   35.00   22.00
 -12   3   1  -25.80   21.60
  12  -3   1  -14.60   21.30
 -12  -3  -1  -18.60   21.30
 -12  -3   1   -7.30   22.20
 -12   3  -1    0.20   22.20
 -12   3  -1   -3.60   20.70
  12  -3  -1   -5.90   20.50
  12   3   1   11.90   22.00
  12  -3  -1  -37.80   20.80
  12   3   1   -4.30   22.10
  12  -4   1   56.69   25.20
 -12   4   1   55.19   23.90
  12   4  -1   40.90   26.60
  12  -4   1    6.90   24.20
 -12   4   1   -8.90   26.60
  12  -4  -1   35.60   24.40
  12   4   1   41.30   25.50
 -12   4  -1   30.80   23.80
 -12   4  -1   88.39   28.90
 -12  -4   1    9.30   27.60
  12  -4  -1   49.30   25.10
  12   0   2 1378.36   49.40
  12   0  -2 1415.26   53.09
 -12   0   2 1333.67   63.39
 -12   0  -2 1339.27   58.99
  12   0  -2 1363.56   50.09
  12   0   2 1355.66   53.49
  12   1  -2  406.56   30.40
  12  -1   2  359.36   29.30
  12  -1   2  389.46   34.00
 -12  -1  -2  396.76   35.80
 -12   1   2  375.86   39.70
  12   1  -2  376.56   31.20
  12   1   2  332.97   29.30
  12  -1  -2  355.46   29.00
 -12   1  -2  432.66   35.70
  12   1   2  383.76   32.40
 -12  -1   2  318.57   39.90
  12  -1  -2  411.56   29.80
 -12   2   2  955.80   53.39
 -12  -2  -2 1002.00   51.69
  12  -2   2  963.10   47.80
 -12   2   2  971.00   39.30
  12   2  -2  998.60   45.40
  12  -2   2 1039.20   41.50
  12   2  -2 1032.70   47.40
  12   2   2  995.30   44.50
 -12   2  -2 1054.49   52.79
  12   2   2  963.20   49.10
 -12   2  -2  989.60   40.70
 -12  -2   2 1036.20   58.09
  12  -2  -2 1063.89   41.40
  12  -2  -2 1056.39   45.20
 -12   3   2  301.97   39.80
 -12  -3  -2  334.87   37.10
  12  -3   2  310.87   35.80
  12  -3   2  332.07   27.40
 -12   3   2  239.38   30.80
  12  -3  -2  263.57   31.90
 -12   3  -2  361.16   41.50
 -12  -3   2  233.18   39.80
  12  -3  -2  234.98   29.90
  12   3   2  227.28   35.10
 -12   3  -2  317.37   32.30
 -12  -3   2  200.08   37.00
  12   3   2  286.57   32.10
 -12   4   2  768.42   46.50
 -12   4   2  778.12   50.09
  12   4  -2  839.52   47.40
 -12  -4   2  747.43   49.00
 -12  -4   2  826.12   54.99
 -12   4  -2  753.62   53.09
  12   4   2  810.22   50.39
 -12   4  -2  861.31   48.70
  12   0  -3    1.00   19.50
  12   0   3   29.90   20.10
  12   0   3  -41.10   21.10
 -12   0  -3  -30.80   20.20
 -12   0   3   11.00   20.40
 -12  -1  -3   15.90   19.90
  12   1  -3  -13.40   20.50
 -12   1   3   -1.10   15.30
 -12   1   3  -10.40   20.50
  12   1  -3   33.90   18.70
  12  -1   3    4.40   20.20
  12  -1  -3    5.80   19.80
  12   1   3   30.00   21.60
 -12   1  -3   -0.80   19.80
  12   1   3  -24.70   20.00
 -12   2   3   -6.40   22.30
  12   2  -3  -13.60   21.00
 -12  -2  -3    6.70   20.10
 -12   2   3   10.80   19.00
  12  -2  -3   18.70   22.70
 -12   2  -3    3.80   21.00
 -12   2  -3    8.30   20.30
 -12  -2   3  -10.10   21.20
  12   2   3  -12.60   21.50
  12   2   3   35.80   23.30
 -12  -2   3    1.40   22.60
 -12   3   3   47.20   20.60
  12   3  -3    8.20   24.80
  12  -3   3   17.30   24.60
 -12   3   3    7.70   24.70
 -12  -3   3   25.00   24.10
  12   3   3  -26.90   23.50
 -12   3  -3  -20.30   21.60
  12   3   3    5.40   25.80
 -12   3  -3   43.90   23.90
  12   4  -3   44.60   28.10
 -12  -4  -3   19.70   23.10
  12  -4   3  -32.70   27.60
 -12   4   3  -13.20   27.40
 -12   4   3  -10.20   24.10
 -12   4  -3   33.80   27.90
  12   4   3   21.20   31.80
  12  -4  -3   33.60   26.30
 -12  -4   3    0.60   27.20
  12   4   3  -16.20   27.20
 -12  -4   3  -15.50   26.10
 -12   0   4  362.96   41.50
  12   0  -4  392.56   30.30
 -12   0  -4  392.66   40.50
  12   0   4  300.27   34.60
  12   1  -4  974.00   45.20
 -12   1   4  921.31   55.49
  12  -1   4  936.21   49.00
 -12   1   4  874.51   36.30
 -12  -1  -4  922.21   56.89
 -12  -1   4  954.60   59.89
  12   1   4  907.31   48.00
  12   1   4  929.41   43.40
  12  -1  -4  988.30   46.10
 -12   1  -4  960.30   52.89
 -12   2   4  430.56   29.00
 -12   2   4  463.95   45.50
  12   2  -4  342.07   34.00
  12   2   4  465.45   36.10
  12   2   4  360.36   39.30
 -12   2  -4  379.16   35.50
 -12  -2   4  429.96   48.30
 -12  -2   4  428.66   38.90
 -12   2  -4  419.16   42.60
  12   3  -4  985.90   48.20
 -12  -3  -4  877.41   55.99
 -12   3   4  862.81   55.39
 -12   3   4  799.32   43.80
  12  -3   4  872.41   50.59
 -12   3  -4  858.51   49.00
 -12   3  -4  861.21   55.89
 -12  -3   4  819.52   58.39
 -12  -3   4  880.51   48.40
  12   3   4  873.31   49.90
  12  -3  -4  949.51   46.90
  12   3   4  936.41   51.09
 -12   0   5   -4.50   25.10
  12   0  -5   10.20   23.30
 -12   0  -5  -15.00   21.80
  12   0   5   11.40   23.60
 -12   1   5   26.00   26.40
 -12  -1  -5    0.40   23.00
 -12   1   5  103.69   25.50
  12  -1   5   36.40   25.40
 -12   1  -5   -7.40   22.90
 -12  -1   5   47.90   25.80
  12   1   5  103.69   35.80
  12  -1  -5   56.59   23.70
  12   2  -5   -7.80   25.70
 -12   2   5   11.40   20.30
 -12   2  -5  -53.49   25.30
 -12   2  -5   25.90   25.80
  12  -2  -5   -2.60   26.00
 -12  -2   5    2.80   25.90
 -12   0  -6   28.90   24.20
 -12   0   6   -0.60   27.70
  12   0   6   -5.40   25.80
  12   0  -6   11.60   25.70
  12   1  -6 1245.78   55.39
 -12  -1  -6 1150.98   60.69
  12  -1   6 1082.59   58.89
 -12   1   6 1241.88   67.89
  12  -1  -6 1159.08   54.49
 -12  -1   6 1184.68   66.39
  12   1   6 1155.98   59.59
 -12   1  -6 1268.27   62.69
 -13   0   0   14.70   23.30
  13   0   0    5.30   19.70
  13   0   0   19.30   21.90
  13   1   0 1428.86   58.69
  13  -1   0 1499.15   56.79
  13  -1   0 1429.46   54.69
 -13  -1   0 1529.35   69.89
  13   1   0 1513.55   57.59
 -13   1   0 1460.85   67.89
  13   2   0  -15.20   23.20
  13  -2   0   12.50   22.90
  13  -2   0   10.00   22.30
 -13   2   0   13.30   21.90
  13   2   0  -30.50   23.80
 -13   3   0  959.30   47.00
  13  -3   0  958.10   48.20
  13  -3   0 1098.09   49.99
 -13   3   0 1055.19   61.49
  13   3   0 1066.49   55.49
 -13  -3   0 1144.99   61.89
 -13   0  -1   30.40   22.10
  13   0  -1  -14.90   20.70
 -13   0   1    6.10   22.50
  13   0   1  -31.70   20.90
  13   0  -1  -12.10   20.30
  13   0   1   41.20   21.50
  13  -1   1   28.00   22.60
 -13  -1  -1    7.90   22.30
  13   1  -1   17.50   23.10
 -13   1   1  -17.10   22.90
  13  -1   1   -7.30   20.70
  13   1  -1    9.40   22.00
  13  -1  -1   24.40   21.10
 -13   1  -1   32.80   22.30
  13   1   1   13.90   22.10
  13   1   1   58.79   22.60
  13  -1  -1   34.70   20.70
 -13  -1   1   18.30   25.10
  13  -2   1  -35.20   23.50
  13   2  -1    9.00   23.30
 -13  -2  -1   17.30   28.00
  13   2  -1   18.00   22.10
  13  -2   1   45.50   22.50
 -13   2   1   22.60   24.30
  13  -2  -1   28.40   23.10
  13   2   1   91.89   28.90
  13  -2  -1  -25.20   21.40
  13   2   1    0.40   23.10
 -13   2  -1  -12.00   25.00
 -13   3   1  -36.50   25.20
 -13  -3  -1  -36.70   24.10
 -13   3   1    0.90   23.50
  13  -3   1   25.70   24.60
 -13  -3   1   35.40   26.20
 -13   3  -1   -1.10   25.60
  13   3   1   19.60   25.50
  13  -3  -1    8.50   24.90
  13  -3  -1   10.50   27.20
  13   0   2  495.15   32.90
  13   0  -2  432.76   33.70
  13   0   2  425.86   37.60
  13   0  -2  459.45   35.20
 -13   0   2  351.26   49.50
 -13   0  -2  469.15   45.30
  13  -1   2 1156.78   48.10
 -13   1   2 1233.68   63.99
  13   1  -2 1174.98   51.59
  13  -1   2 1133.29   53.09
  13   1  -2 1181.88   49.99
  13  -1  -2 1224.28   50.29
 -13   1  -2 1176.78   57.79
  13  -1  -2 1045.90   47.70
  13   1   2 1216.28   55.39
  13   1   2 1247.68   49.80
  13  -2   2  325.27   30.40
 -13   2   2  374.36   43.50
  13  -2   2  334.37   39.70
  13   2  -2  286.77   30.80
  13   2  -2  276.67   36.60
 -13  -2  -2  354.36   40.50
  13   2   2  306.67   34.80
 -13  -2   2  258.37   45.60
  13  -2  -2  258.67   31.30
 -13  -3  -2  752.32   53.39
  13   3  -2  711.83   44.80
 -13   3   2  638.54   41.90
 -13   3   2  711.53   50.69
 -13   3  -2  676.33   43.00
 -13   3  -2  740.83   54.39
  13   3   2  752.72   44.50
 -13  -3   2  805.02   56.49
  13  -3  -2  623.74   45.80
  13   3   2  612.04   48.70
 -13  -3   2  638.64   49.80
  13   0   3   42.30   28.70
 -13   0  -3   12.50   22.70
  13   0   3  -29.40   25.30
 -13   0   3    4.30   25.30
 -13  -1  -3   69.59   22.30
  13   1  -3   15.50   23.60
  13   1  -3   -0.20   23.20
  13   1   3  -17.30   25.20
  13   1   3   14.90   27.00
 -13  -1   3   39.10   25.20
  13  -2   3   24.00   27.20
  13   2  -3   -4.60   25.30
 -13  -2  -3    6.40   21.80
  13  -2  -3  -14.40   25.20
  13   2   3   31.20   25.60
 -13  -2   3   -7.60   25.60
  13   2   3   40.90   26.00
 -13  -3  -3   26.60   24.70
 -13  -3   3   10.30   28.50
  13   0   4  778.72   48.20
  13   0  -4  813.82   45.30
 -13   0   4  716.33   57.19
 -13   0  -4  772.92   52.99
 -13  -1  -4  369.26   46.20
  13   1  -4  389.86   36.40
 -13   1   4  351.96   48.40
  13  -1   4  354.86   41.30
 -13   1  -4  329.77   47.00
  13   1   4  368.36   40.90
 -13  -1   4  399.46   48.40
  13  -1  -4  450.55   37.10
  13  -2   4  894.11   52.49
  13   2  -4  883.11   50.39
 -13   2   4  906.41   61.19
 -13  -2  -4  887.11   58.09
 -13   2  -4  936.21   57.89
  13  -2  -4  946.31   50.09
 -13  -2   4  959.70   63.39
  13   2   4  909.91   54.09
 -13   0  -5    7.10   26.20
 -13   0   5  -26.10   28.70
  13   0  -5   11.70   26.60
  14   0   0  969.40   51.99
 -14   0   0 1054.49   63.19
  14   0   0 1082.59   50.59
  14   1   0  -20.70   24.90
  14  -1   0  -27.40   26.00
  14   1   0   21.50   24.70
  14  -1   0  125.09   30.20
 -14  -1   0   46.10   27.90
 -14   1   0  132.89   43.90
  14   2   0 1302.67   68.49
  14   2   0 1414.96   59.59
 -14  -2   0 1425.26   70.89
  14  -2   0 1416.06   55.59
  14  -2   0 1368.86   59.19
 -14   2   0 1427.06   71.39
  14   0   1   24.80   24.40
 -14   0  -1   10.70   26.60
  14   0  -1   28.50   24.80
  14   0   1  -41.20   28.00
 -14   0   1  -30.20   26.60
  14  -1   1   -1.30   26.90
  14  -1   1  -42.70   27.30
  14   1  -1  -29.10   26.00
 -14   1   1   27.40   27.70
 -14  -1  -1    8.90   27.90
 -14   1  -1   19.60   26.50
  14   1   1   27.30   27.00
  14  -1  -1   -9.80   27.00
  14  -1  -1  -18.50   24.00
 -14  -1   1    5.10   29.30
  14   2  -1   32.60   29.50
 -14   2   1  -13.20   29.50
 -14  -2  -1  -23.50   26.10
  14   2  -1   15.10   27.40
  14  -2   1   33.60   30.20
  14  -2   1   43.20   27.10
 -14  -2   1   12.20   28.50
 -14   2  -1   26.20   30.50
  14   2   1  -37.20   27.70
  14  -2  -1   15.70   26.60
  14   0   2 1111.89   48.90
  14   0   2 1043.30   54.59
  14   0  -2  984.40   49.99
 -14   0   2  986.70   65.29
  14   0  -2 1055.19   51.19
 -14   0  -2 1056.29   60.09
 -14   1   2  268.37   49.10
  14  -1   2  372.06   41.20
 -14  -1  -2  304.77   46.20
  14   1  -2  213.88   34.50
  14   1  -2  319.97   38.80
 -14   1  -2  290.37   49.20
  14   1   2  355.76   35.80
 -14  -1   2  333.97   51.39
  14  -1  -2  257.77   34.50
 -14   0  -3   -8.20   24.80
 -14   0   3  -33.20   28.20
  14   0   3   12.20   29.60
;
_shelx_hkl_checksum              78871
_shelx_title                     ' UO2(FHA)2 in Pccn'
_shelx_refln_list_code           6
_shelx_f_calc_maximum            359.10
loop_
_space_group_symop_operation_xyz
'x, y, z'
'-x+1/2, -y+1/2, z'
'-x, y+1/2, -z+1/2'
'x+1/2, -y, -z+1/2'
'-x, -y, -z'
'x-1/2, y-1/2, -z'
'x, -y-1/2, z-1/2'
'-x-1/2, y, z-1/2'
loop_
_atom_site_label
_atom_site_type_symbol
_atom_site_fract_x
_atom_site_fract_y
_atom_site_fract_z
_atom_site_U_iso_or_equiv
_atom_site_adp_type
_atom_site_occupancy
_atom_site_site_symmetry_order
_atom_site_calc_flag
_atom_site_refinement_flags_posn
_atom_site_refinement_flags_adp
_atom_site_refinement_flags_occupancy
U1 U 0.7500 0.7500 0.95982(5) 0.00691(15) Uani 1 2 d S TU P
O1 O 0.6451(5) 1.0872(10) 0.9730(7) 0.0093(12) Uani 1 1 d . U .
O2 O 0.7812(5) 0.9276(10) 1.2136(7) 0.0091(13) Uani 1 1 d . U .
O3 O 0.6018(5) 0.6489(10) 0.9481(7) 0.0081(12) Uani 1 1 d . U .
N1 N 0.8584(7) 1.0977(13) 1.2151(9) 0.0136(16) Uani 1 1 d . U .
C1 C 0.6092(8) 1.1698(15) 0.8475(11) 0.0113(18) Uani 1 1 d . U .
H1 H 0.559(9) 1.292(15) 0.855(13) 0.014 Uiso 1 1 d . U .
H2 H 0.874(9) 1.191(15) 1.101(12) 0.014 Uiso 1 1 d . U .
loop_
_atom_site_aniso_label
_atom_site_aniso_U_11
_atom_site_aniso_U_22
_atom_site_aniso_U_33
_atom_site_aniso_U_23
_atom_site_aniso_U_13
_atom_site_aniso_U_12
U1 0.0088(2) 0.0063(2) 0.0057(2) 0.000 0.000 -0.0008(3)
O1 0.010(3) 0.010(3) 0.008(3) -0.002(3) -0.002(2) 0.001(3)
O2 0.011(3) 0.007(3) 0.010(2) -0.005(2) -0.001(2) -0.005(2)
O3 0.005(3) 0.010(3) 0.009(3) 0.002(3) -0.002(2) -0.003(2)
N1 0.021(4) 0.009(4) 0.011(4) 0.001(3) 0.002(3) -0.007(3)
C1 0.014(4) 0.008(4) 0.012(4) -0.005(4) -0.004(4) 0.000(4)
loop_
_atom_type_symbol
_atom_type_description
_atom_type_scat_dispersion_real
_atom_type_scat_dispersion_imag
_atom_type_scat_source
C C 0.0033 0.0016 'International Tables Vol C Tables 4.2.6.8 and 6.1.1.4'
H H 0.0000 0.0000 'International Tables Vol C Tables 4.2.6.8 and 6.1.1.4'
N N 0.0061 0.0033 'International Tables Vol C Tables 4.2.6.8 and 6.1.1.4'
O O 0.0106 0.0060 'International Tables Vol C Tables 4.2.6.8 and 6.1.1.4'
U U -9.6767 9.6646 'International Tables Vol C Tables 4.2.6.8 and 6.1.1.4'
loop_
_geom_angle_atom_site_label_1
_geom_angle_atom_site_label_2
_geom_angle_atom_site_label_3
_geom_angle
_geom_angle_site_symmetry_1
_geom_angle_site_symmetry_3
O3 U1 O3 173.4(4) 2_665 .
O3 U1 O2 89.1(2) 2_665 7_575
O3 U1 O2 85.1(2) . 7_575
O3 U1 O2 85.1(2) 2_665 8_755
O3 U1 O2 89.1(2) . 8_755
O2 U1 O2 57.9(3) 7_575 8_755
O3 U1 O1 97.5(3) 2_665 .
O3 U1 O1 82.8(3) . .
O2 U1 O1 120.98(19) 7_575 .
O2 U1 O1 64.4(2) 8_755 .
O3 U1 O1 82.8(3) 2_665 2_665
O3 U1 O1 97.5(3) . 2_665
O2 U1 O1 64.4(2) 7_575 2_665
O2 U1 O1 120.98(19) 8_755 2_665
O1 U1 O1 174.6(3) . 2_665
O3 U1 O2 110.1(2) 2_665 2_665
O3 U1 O2 76.0(2) . 2_665
O2 U1 O2 125.6(3) 7_575 2_665
O2 U1 O2 163.8(3) 8_755 2_665
O1 U1 O2 106.8(2) . 2_665
O1 U1 O2 68.2(2) 2_665 2_665
O3 U1 O2 76.0(2) 2_665 .
O3 U1 O2 110.1(2) . .
O2 U1 O2 163.8(3) 7_575 .
O2 U1 O2 125.6(3) 8_755 .
O1 U1 O2 68.2(2) . .
O1 U1 O2 106.8(2) 2_665 .
O2 U1 O2 56.5(3) 2_665 .
C1 O1 U1 118.2(6) . .
N1 O2 U1 116.2(5) . 7_576
N1 O2 U1 116.7(5) . .
U1 O2 U1 122.8(2) 7_576 .
C1 N1 O2 117.5(8) 8_756 .
O1 C1 N1 121.8(9) . 8_755
loop_
_geom_bond_atom_site_label_1
_geom_bond_atom_site_label_2
_geom_bond_distance
_geom_bond_site_symmetry_2
U1 O3 1.779(6) 2_665
U1 O3 1.779(6) .
U1 O2 2.446(6) 7_575
U1 O2 2.446(6) 8_755
U1 O1 2.450(6) .
U1 O1 2.450(6) 2_665
U1 O2 2.503(6) 2_665
U1 O2 2.503(6) .
O1 C1 1.277(11) .
O2 N1 1.385(10) .
O2 U1 2.446(6) 7_576
N1 C1 1.291(12) 8_756
C1 N1 1.291(12) 8_755
loop_
_refln_index_h
_refln_index_k
_refln_index_l
_refln_F_squared_meas
_refln_F_squared_sigma
_refln_F_calc
_refln_phase_calc
2 0 0 135632.75 1291.34 357.04 180.0
4 0 0 24387.73 261.14 157.80 0.0
6 0 0 60023.92 864.64 248.84 180.0
8 0 0 58328.48 741.56 245.28 0.0
10 0 0 26072.29 491.53 162.73 180.0
12 0 0 17559.87 429.58 128.82 0.0
1 1 0 94087.48 779.98 284.42 180.0
3 1 0 103637.78 721.98 315.39 0.0
5 1 0 86710.95 769.87 295.72 180.0
7 1 0 48769.71 443.35 224.25 0.0
9 1 0 23728.77 309.30 153.33 180.0
11 1 0 21086.28 287.86 142.56 0.0
13 1 0 20063.61 349.85 140.26 180.0
0 2 0 78532.52 1122.84 254.99 180.0
2 2 0 55406.95 434.71 227.12 0.0
4 2 0 55087.24 464.50 232.23 180.0
6 2 0 54142.25 480.70 236.79 0.0
8 2 0 33696.43 384.26 185.53 180.0
10 2 0 21602.14 289.62 145.62 0.0
12 2 0 21226.00 309.63 144.34 180.0
1 3 0 74111.44 1262.64 253.72 0.0
3 3 0 38555.19 421.78 196.48 180.0
5 3 0 23090.76 259.51 152.93 0.0
7 3 0 31325.53 343.19 176.80 180.0
9 3 0 38096.10 414.20 199.01 0.0
11 3 0 27103.23 353.88 165.19 180.0
0 4 0 23954.79 534.16 147.90 0.0
2 4 0 45629.37 464.67 208.28 180.0
4 4 0 62593.16 697.89 247.56 0.0
6 4 0 33414.33 358.65 184.09 180.0
8 4 0 20868.71 281.60 145.19 0.0
10 4 0 21894.60 312.59 147.22 180.0
12 4 0 17354.09 330.28 127.77 0.0
1 5 0 40579.83 500.12 196.58 180.0
3 5 0 45863.79 493.96 213.63 0.0
5 5 0 34712.51 372.02 187.59 180.0
7 5 0 23575.16 305.90 153.64 0.0
9 5 0 19467.70 323.99 140.26 180.0
0 6 0 37616.86 645.08 188.96 180.0
2 6 0 38043.16 459.03 194.13 0.0
4 6 0 28250.72 378.90 167.00 180.0
6 6 0 15611.10 281.92 123.93 0.0
8 6 0 18443.17 330.97 136.48 180.0
1 7 0 19977.21 332.54 137.92 0.0
3 7 0 21330.84 346.25 145.95 180.0
5 7 0 22807.34 635.55 148.93 0.0
1 1 1 0.00 5.88 2.43 180.0
2 1 1 3991.16 30.88 64.60 0.0
3 1 1 340.82 15.63 19.93 0.0
4 1 1 1605.42 32.02 41.62 180.0
5 1 1 25.50 24.19 6.65 180.0
6 1 1 11.72 23.83 4.05 0.0
7 1 1 877.33 47.92 28.16 180.0
8 1 1 104.70 38.71 7.86 180.0
9 1 1 376.47 56.79 15.98 0.0
10 1 1 613.15 56.62 22.23 0.0
11 1 1 313.89 60.10 12.65 0.0
12 1 1 465.67 79.40 16.72 180.0
13 1 1 262.26 91.32 7.95 180.0
1 2 1 2192.06 29.98 47.33 180.0
2 2 1 7333.71 51.30 83.41 180.0
3 2 1 794.27 22.74 29.42 0.0
4 2 1 0.00 20.07 4.69 180.0
5 2 1 2572.34 49.29 51.86 0.0
6 2 1 1371.15 48.94 34.73 0.0
7 2 1 1490.96 56.90 40.08 180.0
8 2 1 213.90 50.28 12.52 0.0
9 2 1 48.68 50.46 3.41 0.0
10 2 1 294.84 62.35 9.09 180.0
11 2 1 24.42 61.07 4.61 180.0
12 2 1 210.66 95.25 7.35 180.0
13 2 1 192.11 111.88 6.57 0.0
1 3 1 430.82 29.70 18.41 180.0
2 3 1 197.61 23.02 13.34 180.0
3 3 1 12.88 18.82 2.98 0.0
4 3 1 0.00 22.85 1.17 0.0
5 3 1 403.04 35.79 19.43 0.0
6 3 1 198.73 39.84 13.94 0.0
7 3 1 35.12 63.83 3.17 0.0
8 3 1 53.41 48.19 5.53 180.0
9 3 1 1094.37 112.11 4.94 180.0
10 3 1 142.66 59.90 2.20 180.0
11 3 1 137.04 78.00 10.64 180.0
12 3 1 0.00 82.48 2.20 180.0
1 4 1 56.94 34.32 7.57 0.0
2 4 1 0.00 30.45 1.09 180.0
3 4 1 74.78 35.71 7.82 180.0
4 4 1 539.38 46.54 23.39 0.0
5 4 1 41.50 32.56 6.90 0.0
6 4 1 128.75 53.62 7.66 180.0
7 4 1 728.03 60.60 26.60 180.0
8 4 1 590.99 101.78 17.19 180.0
9 4 1 715.51 72.65 24.75 0.0
10 4 1 308.87 79.56 5.35 180.0
11 4 1 39.40 87.99 1.14 0.0
12 4 1 522.36 109.45 22.66 0.0
1 5 1 28.23 63.30 5.93 0.0
2 5 1 397.61 51.11 17.56 180.0
3 5 1 38.90 43.87 8.34 180.0
4 5 1 310.26 44.82 18.14 0.0
5 5 1 78.95 47.54 1.90 180.0
6 5 1 0.00 54.58 3.87 180.0
7 5 1 378.97 77.13 14.42 0.0
8 5 1 120.53 71.10 4.83 180.0
9 5 1 303.49 87.83 11.97 180.0
10 5 1 157.26 146.24 7.65 180.0
1 6 1 78.16 66.95 7.63 0.0
2 6 1 252.72 63.75 10.40 0.0
3 6 1 173.46 64.04 10.14 180.0
4 6 1 45.98 65.32 3.71 0.0
5 6 1 55.77 61.48 2.41 0.0
6 6 1 204.79 115.47 5.07 180.0
7 6 1 14.60 80.61 0.55 180.0
8 6 1 291.63 119.39 6.65 180.0
9 6 1 139.95 100.13 4.17 0.0
1 7 1 224.31 101.29 12.67 0.0
2 7 1 28.62 82.90 12.27 180.0
3 7 1 172.11 88.45 10.49 180.0
4 7 1 24.20 89.00 10.32 0.0
5 7 1 49.08 164.00 10.38 180.0
6 7 1 96.96 113.59 6.26 180.0
0 0 2 66244.80 614.58 252.82 0.0
1 0 2 26331.42 227.90 158.36 180.0
2 0 2 42020.23 531.45 202.86 180.0
3 0 2 3534.63 49.39 62.77 0.0
4 0 2 28469.20 210.84 170.36 0.0
5 0 2 10557.15 121.82 105.41 180.0
6 0 2 37101.79 317.40 194.24 180.0
7 0 2 16047.50 178.43 127.03 0.0
8 0 2 30152.61 289.53 176.10 0.0
9 0 2 6568.47 121.84 80.41 180.0
10 0 2 20717.55 257.87 145.33 180.0
11 0 2 4315.48 134.87 63.82 0.0
12 0 2 18718.24 314.71 136.60 0.0
13 0 2 6193.28 227.08 78.05 180.0
0 1 2 16651.93 111.09 127.56 180.0
1 1 2 67325.16 277.62 253.26 180.0
2 1 2 16274.66 97.62 127.92 0.0
3 1 2 33125.17 225.63 184.18 0.0
4 1 2 12839.79 83.07 114.52 180.0
5 1 2 39284.21 211.69 201.90 180.0
6 1 2 10906.97 88.87 107.45 0.0
7 1 2 39737.32 304.49 201.22 0.0
8 1 2 8221.18 102.87 92.52 180.0
9 1 2 22103.36 201.65 147.76 180.0
10 1 2 6385.79 111.66 78.61 0.0
11 1 2 15790.49 173.21 124.12 0.0
12 1 2 5191.42 133.42 72.40 180.0
13 1 2 16057.12 235.13 125.14 180.0
0 2 2 68372.84 521.82 254.61 180.0
1 2 2 23771.57 131.12 151.38 0.0
2 2 2 61312.22 302.74 243.17 0.0
3 2 2 12249.41 89.90 111.86 180.0
4 2 2 50275.10 270.29 223.86 180.0
5 2 2 13093.17 105.06 115.69 0.0
6 2 2 39066.19 265.66 199.82 0.0
7 2 2 11481.64 121.05 107.90 180.0
8 2 2 25534.28 240.27 160.83 180.0
9 2 2 6095.84 101.30 78.21 0.0
10 2 2 16708.75 185.74 129.62 0.0
11 2 2 4225.16 110.36 62.38 180.0
12 2 2 13625.40 175.71 114.86 180.0
13 2 2 4172.30 173.67 61.74 0.0
0 3 2 15166.23 136.98 122.58 0.0
1 3 2 60512.19 306.90 241.34 0.0
2 3 2 17608.65 121.42 130.43 180.0
3 3 2 51876.04 305.03 226.42 180.0
4 3 2 14212.42 115.02 118.98 0.0
5 3 2 34587.25 271.38 187.87 0.0
6 3 2 8418.69 110.88 93.02 180.0
7 3 2 23869.01 200.99 157.23 180.0
8 3 2 6371.85 103.05 81.61 0.0
9 3 2 20569.78 197.78 144.71 0.0
10 3 2 5288.36 112.54 74.51 180.0
11 3 2 15129.83 182.95 122.96 180.0
12 3 2 3858.58 177.38 59.81 0.0
0 4 2 32037.38 430.59 177.51 0.0
1 4 2 8958.81 121.23 93.60 180.0
2 4 2 37568.83 329.91 192.33 180.0
3 4 2 13285.81 132.82 116.00 0.0
4 4 2 33632.63 223.22 186.02 0.0
5 4 2 8746.88 97.28 94.04 180.0
6 4 2 21828.72 195.03 149.62 180.0
7 4 2 4689.97 105.02 68.04 0.0
8 4 2 18109.56 225.53 136.12 0.0
9 4 2 6111.40 116.01 76.39 180.0
10 4 2 16454.99 190.59 128.12 180.0
11 4 2 5062.64 165.05 70.52 0.0
0 5 2 6267.76 149.36 79.18 180.0
1 5 2 17327.94 184.64 132.69 180.0
2 5 2 6945.22 132.67 83.51 0.0
3 5 2 27230.20 228.38 166.11 0.0
4 5 2 6604.39 104.91 82.00 180.0
5 5 2 21570.54 193.63 148.57 180.0
6 5 2 5539.92 94.78 74.67 0.0
7 5 2 13984.75 162.60 119.45 0.0
8 5 2 5342.85 132.22 72.15 180.0
9 5 2 15379.86 202.62 123.10 180.0
10 5 2 4369.22 142.16 64.31 0.0
0 6 2 16720.88 278.39 129.36 180.0
1 6 2 3601.54 105.78 62.67 0.0
2 6 2 17770.29 204.66 134.51 0.0
3 6 2 7839.04 133.58 88.77 180.0
4 6 2 16531.84 195.52 128.91 180.0
5 6 2 5370.59 126.45 72.36 0.0
6 6 2 13037.95 182.42 113.79 0.0
7 6 2 2874.37 123.41 50.88 180.0
8 6 2 13282.46 238.28 116.14 180.0
0 7 2 5989.75 248.76 78.93 0.0
1 7 2 15305.07 206.28 123.65 0.0
2 7 2 4721.03 136.13 68.96 180.0
3 7 2 16448.53 226.45 127.85 180.0
4 7 2 3990.67 178.66 59.85 0.0
5 7 2 13656.12 271.89 116.74 0.0
6 7 2 4592.86 204.73 65.37 180.0
1 1 3 327.37 20.35 16.42 180.0
2 1 3 970.24 26.01 30.82 180.0
3 1 3 1860.64 36.14 43.54 0.0
4 1 3 1.95 21.05 7.80 0.0
5 1 3 698.56 34.40 26.84 180.0
6 1 3 110.20 26.08 7.77 180.0
7 1 3 255.68 34.23 13.83 180.0
8 1 3 522.07 51.27 22.97 0.0
9 1 3 110.99 49.05 5.95 0.0
10 1 3 109.74 71.44 12.34 180.0
11 1 3 767.91 73.98 25.87 0.0
12 1 3 3.06 87.32 0.03 180.0
13 1 3 304.41 147.09 17.77 180.0
1 2 3 900.35 25.26 30.24 180.0
2 2 3 1515.51 30.70 39.08 180.0
3 2 3 472.12 34.03 20.97 0.0
4 2 3 26.45 23.77 1.26 0.0
5 2 3 127.75 27.36 11.00 0.0
6 2 3 1061.08 43.10 32.87 0.0
7 2 3 288.55 40.42 18.14 0.0
8 2 3 679.18 52.70 26.56 180.0
9 2 3 449.56 52.50 23.93 180.0
10 2 3 42.35 59.32 5.06 0.0
11 2 3 71.73 70.63 5.04 180.0
12 2 3 52.82 91.30 8.77 0.0
1 3 3 512.88 31.01 22.66 180.0
2 3 3 366.72 27.62 18.23 0.0
3 3 3 108.31 25.79 9.62 0.0
4 3 3 20.48 31.84 11.20 0.0
5 3 3 607.81 37.39 24.06 0.0
6 3 3 153.18 34.52 12.05 180.0
7 3 3 86.09 43.22 6.28 0.0
8 3 3 0.00 48.03 5.24 180.0
9 3 3 541.56 58.34 20.64 180.0
10 3 3 0.00 64.65 3.45 180.0
11 3 3 156.60 83.45 9.17 180.0
12 3 3 173.12 111.91 9.42 0.0
1 4 3 94.08 29.33 9.01 0.0
2 4 3 567.17 38.22 22.80 180.0
3 4 3 10.25 32.61 4.71 0.0
4 4 3 32.61 33.49 1.45 0.0
5 4 3 761.21 52.21 27.68 180.0
6 4 3 992.92 62.50 29.40 0.0
7 4 3 169.89 49.94 11.65 0.0
8 4 3 334.19 61.24 18.52 180.0
9 4 3 29.00 65.64 1.62 180.0
10 4 3 0.00 81.31 4.09 180.0
11 4 3 184.79 96.46 14.17 0.0
1 5 3 521.65 59.30 21.44 0.0
2 5 3 151.07 45.50 10.88 0.0
3 5 3 772.76 61.42 28.06 180.0
4 5 3 94.46 51.09 8.29 180.0
5 5 3 23.24 50.72 5.32 180.0
6 5 3 14.48 58.19 3.94 0.0
7 5 3 272.11 67.72 14.33 0.0
8 5 3 26.01 75.53 9.11 180.0
9 5 3 0.00 97.00 3.27 0.0
10 5 3 0.00 131.77 10.87 0.0
1 6 3 146.87 68.21 3.85 0.0
2 6 3 393.98 70.89 13.16 0.0
3 6 3 0.00 70.23 1.72 0.0
4 6 3 0.35 70.72 4.28 180.0
5 6 3 40.56 69.92 8.41 180.0
6 6 3 0.00 93.07 2.31 180.0
7 6 3 3.66 87.17 2.53 180.0
8 6 3 69.40 133.23 5.93 180.0
1 7 3 279.58 90.10 17.56 0.0
2 7 3 99.29 90.27 5.65 180.0
3 7 3 423.29 94.32 19.07 180.0
4 7 3 74.91 127.71 8.53 180.0
5 7 3 9.98 130.27 4.10 180.0
0 0 4 39953.29 515.77 195.05 0.0
1 0 4 89877.02 565.22 291.51 180.0
2 0 4 26984.17 277.94 165.48 180.0
3 0 4 35088.09 351.96 188.96 0.0
4 0 4 10584.17 157.74 107.33 0.0
5 0 4 25502.92 294.81 163.52 180.0
6 0 4 7866.46 138.65 92.20 180.0
7 0 4 30238.61 289.81 177.06 0.0
8 0 4 10458.47 152.82 105.42 0.0
9 0 4 21795.66 272.38 149.16 180.0
10 0 4 9316.60 180.68 98.28 180.0
11 0 4 14160.38 261.41 119.20 0.0
12 0 4 4919.54 255.24 66.35 0.0
0 1 4 59583.08 435.98 242.70 180.0
1 1 4 18378.93 135.27 137.77 180.0
2 1 4 38821.26 243.91 198.32 0.0
3 1 4 13417.25 117.91 119.21 0.0
4 1 4 33634.77 227.05 183.99 180.0
5 1 4 16840.98 141.63 133.26 180.0
6 1 4 39645.98 277.86 203.59 0.0
7 1 4 12717.51 133.52 115.78 0.0
8 1 4 22854.13 203.36 153.68 180.0
9 1 4 5214.03 91.66 72.87 180.0
10 1 4 11049.76 148.80 101.68 0.0
11 1 4 3866.94 119.39 61.40 0.0
12 1 4 12575.34 215.48 108.29 180.0
0 2 4 7160.07 101.94 86.29 180.0
1 2 4 27981.85 170.86 168.17 0.0
2 2 4 11549.30 108.38 109.49 0.0
3 2 4 32466.98 224.51 180.68 180.0
4 2 4 14957.80 132.89 124.37 180.0
5 2 4 31009.35 309.57 178.16 0.0
6 2 4 10176.31 120.79 104.03 0.0
7 2 4 22664.23 191.53 152.56 180.0
8 2 4 6430.33 100.60 81.88 180.0
9 2 4 15838.53 183.67 126.30 0.0
10 2 4 5744.57 138.14 75.76 0.0
11 2 4 14207.46 197.77 118.39 180.0
12 2 4 5633.45 178.26 73.60 180.0
0 3 4 34995.86 312.96 187.76 0.0
1 3 4 15266.41 126.53 124.46 0.0
2 3 4 28021.14 204.08 168.40 180.0
3 3 4 6913.35 85.08 83.29 180.0
4 3 4 18206.16 174.53 135.72 0.0
5 3 4 4446.97 82.46 68.23 0.0
6 3 4 16033.31 183.27 129.01 180.0
7 3 4 7282.95 105.57 87.51 180.0
8 3 4 20813.87 206.54 146.05 0.0
9 3 4 9792.71 152.64 100.13 0.0
10 3 4 20070.38 233.67 142.28 180.0
11 3 4 6589.94 160.08 81.45 180.0
0 4 4 6873.37 122.38 80.75 0.0
1 4 4 18847.75 153.28 137.36 180.0
2 4 4 8939.47 114.11 94.41 180.0
3 4 4 29913.16 210.98 175.87 0.0
4 4 4 11135.11 115.06 107.65 0.0
5 4 4 25295.05 193.20 162.39 180.0
6 4 4 9188.98 119.28 97.10 180.0
7 4 4 15810.63 159.86 126.38 0.0
8 4 4 5852.24 128.49 75.77 0.0
9 4 4 13508.18 193.73 116.28 180.0
10 4 4 4070.30 149.46 62.82 180.0
0 5 4 16866.09 214.17 131.53 180.0
1 5 4 7636.47 106.89 87.72 180.0
2 5 4 25647.96 198.09 161.30 0.0
3 5 4 11815.25 131.16 110.14 0.0
4 5 4 27927.48 221.52 169.34 180.0
5 5 4 8596.01 120.60 95.82 180.0
6 5 4 14521.34 158.19 121.35 0.0
7 5 4 4593.50 159.79 68.31 0.0
8 5 4 11720.74 196.04 106.05 180.0
9 5 4 4673.60 207.23 67.68 180.0
0 6 4 12822.38 247.18 114.95 180.0
1 6 4 23013.41 240.06 153.05 0.0
2 6 4 8348.60 143.92 92.66 0.0
3 6 4 17434.80 206.84 132.81 180.0
4 6 4 4092.39 118.78 64.01 180.0
5 6 4 11653.50 176.82 108.85 0.0
6 6 4 4672.86 154.72 68.50 0.0
7 6 4 11788.69 254.02 109.14 180.0
0 7 4 8819.10 295.44 94.16 0.0
1 7 4 3520.33 193.08 59.56 0.0
2 7 4 12596.81 214.74 113.42 180.0
3 7 4 6879.85 164.04 83.51 180.0
4 7 4 15580.30 237.93 127.16 0.0
1 1 5 0.00 22.28 3.03 0.0
2 1 5 7.76 24.09 5.89 0.0
3 1 5 157.56 26.74 10.39 180.0
4 1 5 776.22 47.69 28.41 180.0
5 1 5 267.98 39.62 16.32 0.0
6 1 5 66.13 35.88 6.76 0.0
7 1 5 222.81 42.50 16.53 180.0
8 1 5 478.17 57.81 19.59 0.0
9 1 5 176.02 76.07 12.65 0.0
10 1 5 18.06 75.05 6.12 0.0
11 1 5 45.00 88.33 7.99 180.0
12 1 5 644.25 172.61 24.94 180.0
1 2 5 643.55 36.04 26.12 180.0
2 2 5 43.65 31.17 6.13 180.0
3 2 5 409.26 38.18 19.67 0.0
4 2 5 169.63 35.65 12.58 0.0
5 2 5 375.19 43.99 21.06 0.0
6 2 5 154.56 53.56 13.77 180.0
7 2 5 434.77 52.58 19.53 180.0
8 2 5 137.44 57.02 9.96 0.0
9 2 5 98.81 62.38 6.11 0.0
10 2 5 85.80 79.30 7.52 180.0
11 2 5 0.00 99.90 1.37 180.0
1 3 5 22.17 31.57 1.53 0.0
2 3 5 894.11 54.02 29.84 0.0
3 3 5 0.00 41.26 1.25 180.0
4 3 5 294.73 43.41 17.72 0.0
5 3 5 72.40 43.60 0.95 0.0
6 3 5 422.05 50.97 19.68 180.0
7 3 5 0.00 58.50 4.84 180.0
8 3 5 487.80 61.79 22.48 180.0
9 3 5 128.12 86.98 6.35 0.0
10 3 5 17.63 89.20 4.82 0.0
11 3 5 25.92 106.41 2.29 180.0
1 4 5 71.31 39.03 8.09 180.0
2 4 5 84.18 40.86 6.37 180.0
3 4 5 264.40 54.43 12.88 0.0
4 4 5 156.77 45.97 13.51 0.0
5 4 5 101.28 61.65 6.88 0.0
6 4 5 245.19 63.08 14.32 180.0
7 4 5 531.96 79.95 19.04 180.0
8 4 5 257.50 101.75 10.08 0.0
9 4 5 48.15 85.76 2.90 0.0
10 4 5 0.87 101.61 8.35 180.0
1 5 5 48.22 52.86 4.77 180.0
2 5 5 611.76 56.22 23.44 180.0
3 5 5 117.35 54.90 8.19 0.0
4 5 5 132.45 57.12 7.55 0.0
5 5 5 18.90 72.09 5.59 180.0
6 5 5 23.67 71.23 12.36 0.0
7 5 5 198.74 101.75 6.02 0.0
8 5 5 45.63 121.96 4.46 180.0
1 6 5 210.57 80.31 10.39 0.0
2 6 5 103.97 81.35 8.10 180.0
3 6 5 108.61 82.30 9.40 180.0
4 6 5 0.00 92.10 4.14 0.0
5 6 5 16.42 151.25 6.66 180.0
6 6 5 29.72 115.67 0.67 0.0
1 7 5 0.00 112.57 0.59 180.0
1 0 6 37826.55 352.03 196.47 180.0
2 0 6 268.91 62.22 8.57 180.0
3 0 6 27359.02 351.91 167.67 0.0
4 0 6 36.37 63.03 1.46 180.0
5 0 6 29001.90 352.86 171.40 180.0
6 0 6 14.63 64.28 4.10 180.0
7 0 6 29940.81 377.34 173.95 0.0
8 0 6 261.34 84.89 13.96 0.0
9 0 6 21664.90 325.77 147.89 180.0
10 0 6 282.40 109.12 12.19 180.0
11 0 6 18872.71 640.45 134.74 0.0
0 1 6 47911.22 453.32 221.61 180.0
1 1 6 176.97 77.38 5.52 0.0
2 1 6 33372.46 237.55 185.33 0.0
3 1 6 714.23 46.22 26.51 0.0
4 1 6 26638.75 225.23 167.44 180.0
5 1 6 210.46 43.92 14.62 180.0
6 1 6 34307.33 270.86 188.84 0.0
7 1 6 0.00 51.36 3.53 180.0
8 1 6 27010.82 257.20 164.61 180.0
9 1 6 33.12 73.39 9.15 180.0
10 1 6 16795.66 223.52 125.84 0.0
11 1 6 14.61 112.72 15.22 0.0
0 2 6 1263.49 120.91 13.17 180.0
1 2 6 43384.43 292.38 210.60 0.0
2 2 6 240.89 71.84 10.40 0.0
3 2 6 38811.60 274.45 199.34 180.0
4 2 6 246.07 41.22 11.90 180.0
5 2 6 33637.88 256.93 186.81 0.0
6 2 6 289.75 51.84 14.83 0.0
7 2 6 26925.39 231.60 167.44 180.0
8 2 6 195.81 63.68 9.71 180.0
9 2 6 19678.62 237.17 139.29 0.0
10 2 6 159.39 92.95 2.94 0.0
11 2 6 15248.44 274.36 119.38 180.0
0 3 6 40430.37 370.69 201.95 0.0
1 3 6 1447.02 70.55 21.09 0.0
2 3 6 39726.34 295.63 202.93 180.0
3 3 6 191.37 48.01 9.66 180.0
4 3 6 34743.01 287.76 190.11 0.0
5 3 6 127.28 52.42 4.95 0.0
6 3 6 24762.06 220.62 160.35 180.0
7 3 6 214.43 99.32 10.07 180.0
8 3 6 20152.93 220.03 141.76 0.0
9 3 6 26.94 85.58 11.26 0.0
10 3 6 16666.33 281.74 130.62 180.0
0 4 6 1021.45 103.46 11.81 0.0
1 4 6 28192.27 219.68 170.21 180.0
2 4 6 143.58 51.03 9.93 180.0
3 4 6 30626.63 251.16 176.46 0.0
4 4 6 257.26 59.23 10.88 0.0
5 4 6 23866.84 220.81 156.02 180.0
6 4 6 247.26 78.58 12.04 180.0
7 4 6 18069.74 197.55 135.99 0.0
8 4 6 0.00 90.53 6.67 0.0
9 4 6 17466.74 262.49 131.37 180.0
0 5 6 15293.16 222.23 122.58 180.0
1 5 6 477.95 75.91 12.30 180.0
2 5 6 21500.49 196.42 146.92 0.0
3 5 6 38.42 69.31 2.16 180.0
4 5 6 24293.97 230.35 156.84 180.0
5 5 6 306.76 76.64 7.86 180.0
6 5 6 15458.89 188.82 124.39 0.0
7 5 6 293.07 100.68 17.58 0.0
0 6 6 674.75 152.01 4.62 180.0
1 6 6 16512.46 211.82 127.68 0.0
2 6 6 293.32 102.17 6.88 0.0
3 6 6 17406.25 313.69 131.28 180.0
4 6 6 51.54 108.36 6.29 180.0
1 1 7 743.45 47.70 26.90 180.0
2 1 7 122.26 40.71 9.01 0.0
3 1 7 851.84 52.75 31.61 0.0
4 1 7 135.66 45.98 12.15 180.0
5 1 7 107.67 52.32 3.38 0.0
6 1 7 0.00 56.20 4.64 180.0
7 1 7 0.00 60.20 0.59 180.0
8 1 7 252.23 79.57 13.36 0.0
9 1 7 189.71 82.66 17.82 180.0
10 1 7 183.03 116.19 3.61 0.0
1 2 7 519.70 44.93 22.86 180.0
2 2 7 129.20 42.50 11.72 180.0
3 2 7 356.16 73.73 19.12 0.0
4 2 7 0.00 47.01 0.74 0.0
5 2 7 404.12 53.31 17.14 0.0
6 2 7 619.04 61.21 24.05 0.0
7 2 7 9.92 66.98 10.29 180.0
8 2 7 560.06 88.43 23.01 180.0
9 2 7 160.47 104.56 5.80 180.0
10 2 7 240.23 120.04 0.61 0.0
1 3 7 310.28 47.19 17.88 0.0
2 3 7 0.00 51.06 6.79 0.0
3 3 7 78.44 74.18 10.20 180.0
4 3 7 186.07 84.69 5.69 0.0
5 3 7 547.79 62.72 20.90 180.0
6 3 7 21.70 63.12 2.75 180.0
7 3 7 0.00 70.28 4.47 0.0
8 3 7 0.00 112.14 6.92 180.0
9 3 7 91.33 135.18 10.50 0.0
1 4 7 0.00 61.74 1.49 0.0
2 4 7 60.07 57.71 3.53 180.0
3 4 7 126.57 64.04 6.32 0.0
4 4 7 0.00 68.13 5.17 180.0
5 4 7 137.79 68.90 8.65 180.0
6 4 7 481.30 103.20 16.84 0.0
7 4 7 275.15 88.57 9.37 180.0
8 4 7 228.17 121.95 19.26 180.0
1 5 7 62.70 71.19 8.53 0.0
2 5 7 0.00 71.46 6.69 180.0
3 5 7 349.51 79.70 16.55 180.0
4 5 7 87.88 82.28 4.45 0.0
5 5 7 92.31 117.93 7.70 0.0
6 5 7 65.47 95.48 6.11 0.0
1 6 7 0.00 130.51 4.27 0.0
0 0 8 9085.74 238.26 91.35 180.0
1 0 8 43906.73 392.97 210.76 180.0
2 0 8 5651.71 219.80 75.24 0.0
3 0 8 17795.55 272.00 133.85 0.0
4 0 8 4671.51 146.94 65.19 180.0
5 0 8 14865.64 260.84 121.79 180.0
6 0 8 5585.38 172.77 75.30 0.0
7 0 8 21535.60 335.75 148.73 0.0
8 0 8 4159.82 182.18 62.72 180.0
9 0 8 17240.78 391.56 130.36 180.0
0 1 8 20255.49 233.09 141.92 180.0
1 1 8 7640.55 115.03 84.80 0.0
2 1 8 23756.17 210.78 156.02 0.0
3 1 8 3760.27 83.22 60.39 180.0
4 1 8 27180.61 254.20 167.92 180.0
5 1 8 4553.11 110.27 67.87 0.0
6 1 8 21021.51 229.40 146.56 0.0
7 1 8 5421.18 130.56 73.42 180.0
8 1 8 13141.96 191.69 112.44 180.0
9 1 8 2538.31 182.75 51.05 0.0
0 2 8 5621.98 136.80 73.25 0.0
1 2 8 18401.82 201.23 137.56 0.0
2 2 8 4827.26 100.55 67.94 180.0
3 2 8 17948.97 180.18 134.50 180.0
4 2 8 4173.89 97.88 62.81 0.0
5 2 8 19735.64 219.35 140.57 0.0
6 2 8 4018.33 119.86 64.11 180.0
7 2 8 16974.71 213.97 130.86 180.0
8 2 8 3849.69 148.93 59.37 0.0
0 3 8 22923.12 294.92 151.45 0.0
1 3 8 3856.21 99.71 61.26 180.0
2 3 8 17835.06 185.61 134.78 180.0
3 3 8 4774.51 129.39 68.89 0.0
4 3 8 11563.32 154.86 106.63 0.0
5 3 8 4028.52 116.04 63.24 180.0
6 3 8 11203.30 178.15 105.41 180.0
7 3 8 2740.96 137.47 53.03 0.0
0 4 8 3456.72 197.47 56.55 180.0
1 4 8 12641.88 171.42 110.91 180.0
2 4 8 4385.15 111.99 65.85 0.0
3 4 8 19734.34 208.99 140.98 0.0
4 4 8 4146.39 132.03 67.54 180.0
5 4 8 18407.42 223.98 136.89 180.0
6 4 8 3295.18 136.99 52.49 0.0
0 5 8 16370.76 307.41 127.49 180.0
1 5 8 3684.40 169.96 55.76 0.0
2 5 8 16626.07 237.55 128.69 0.0
3 5 8 5364.02 208.76 70.91 180.0
1 1 9 16.70 56.31 3.05 0.0
2 1 9 140.82 63.51 8.04 0.0
3 1 9 179.05 72.20 11.76 180.0
4 1 9 94.10 73.54 0.30 0.0
5 1 9 279.77 87.41 11.47 0.0
6 1 9 211.14 90.30 11.94 180.0
7 1 9 117.18 91.04 0.82 180.0
1 2 9 217.69 66.23 12.78 180.0
2 2 9 569.74 67.62 23.23 0.0
3 2 9 153.28 75.01 13.24 0.0
4 2 9 105.63 80.28 11.47 0.0
5 2 9 95.63 115.01 5.75 0.0
6 2 9 848.00 155.22 26.41 180.0
1 3 9 0.00 88.30 2.56 0.0
2 3 9 88.72 110.06 4.99 180.0
3 3 9 0.00 84.95 2.15 0.0
4 3 9 140.75 100.19 0.86 0.0
5 3 9 0.15 100.25 4.39 180.0
1 4 9 0.00 110.58 0.23 180.0
2 4 9 0.00 92.56 10.93 180.0
3 4 9 285.23 101.35 7.35 0.0
0 0 10 16622.13 519.76 126.65 180.0
1 0 10 6074.45 246.03 75.56 180.0
2 0 10 10679.00 235.01 101.95 0.0
3 0 10 5455.89 196.05 74.42 0.0
4 0 10 8621.01 251.70 92.22 180.0
5 0 10 5472.91 269.53 68.86 180.0
0 1 10 6228.66 245.30 76.71 180.0
1 1 10 13767.79 207.48 115.85 0.0
2 1 10 6361.91 157.26 77.14 0.0
3 1 10 11560.03 213.98 106.94 180.0
4 1 10 5739.41 161.16 76.35 180.0
5 1 10 11598.03 203.03 104.65 0.0
0 2 10 16666.11 354.89 128.74 0.0
1 2 10 6934.78 201.18 81.65 0.0
2 2 10 13694.90 244.88 114.64 180.0
3 2 10 7152.29 216.52 84.21 180.0
4 2 10 10825.25 199.08 102.81 0.0
0 3 10 8359.29 251.95 91.39 0.0
1 3 10 12390.53 229.08 109.41 180.0
