#------------------------------------------------------------------------------
#$Date: 2016-03-24 00:14:39 +0200 (Thu, 24 Mar 2016) $
#$Revision: 179528 $
#$URL: svn://www.crystallography.net/cod/cif/4/34/25/4342573.cif $
#------------------------------------------------------------------------------
#
# This file is available in the Crystallography Open Database (COD),
# http://www.crystallography.net/
#
# All data on this site have been placed in the public domain by the
# contributors.
#
data_4342573
loop_
_publ_author_name
'Oliynyk, Anton O.'
'Stoyko, Stanislav S.'
'Mar, Arthur'
_publ_section_title
;
 Many Metals Make the Cut: Quaternary Rare-Earth Germanides RE4M2InGe4 (M
 = Fe, Co, Ni, Ru, Rh, Ir) and RE4RhInGe4 Derived from Excision of Slabs
 in RE2InGe2.
;
_journal_issue                   6
_journal_name_full               'Inorganic chemistry'
_journal_page_first              2780
_journal_page_last               2792
_journal_paper_doi               10.1021/ic502955h
_journal_volume                  54
_journal_year                    2015
_chemical_formula_structural     'Nd4 Ru2 In Ge4'
_chemical_formula_sum            'Ge4 In Nd4 Ru2'
_chemical_formula_weight         1184.28
_chemical_name_common
'neodymium ruthenium indium germanide (4/2/1/4)'
_chemical_name_systematic
'neodymium ruthenium indium germanide (4/2/1/4)'
_space_group_crystal_system      monoclinic
_space_group_IT_number           12
_space_group_name_Hall           '-C 2y'
_space_group_name_H-M_alt        'C 1 2/m 1'
_symmetry_space_group_name_Hall  '-C 2y'
_symmetry_space_group_name_H-M   'C 1 2/m 1'
_atom_sites_solution_primary     direct
_atom_sites_solution_secondary   difmap
_audit_creation_method           SHELXL-2013
_cell_angle_alpha                90
_cell_angle_beta                 106.353(5)
_cell_angle_gamma                90
_cell_formula_units_Z            2
_cell_length_a                   16.014(6)
_cell_length_b                   4.3463(16)
_cell_length_c                   7.160(3)
_cell_measurement_reflns_used    1854
_cell_measurement_temperature    173(2)
_cell_measurement_theta_max      32.17
_cell_measurement_theta_min      2.96
_cell_volume                     478.2(3)
_computing_cell_refinement       'Bruker SAINT 8.27B (Bruker, 2011)'
_computing_data_collection       'Bruker APEX 2 (Bruker, 2008)'
_computing_data_reduction        'Bruker SAINT 8.27B'
_computing_molecular_graphics    'ATOMS 5.1 (Dowty, 1999)'
_computing_publication_material  'Bruker SHELXTL'
_computing_structure_refinement  'Bruker SHELXTL'
_computing_structure_solution    'Bruker SHELXTL'
_diffrn_ambient_temperature      173(2)
_diffrn_measured_fraction_theta_full 1.000
_diffrn_measured_fraction_theta_max 0.975
_diffrn_measurement_device_type  'Bruker PLATFORM/SMART APEX II CCD'
_diffrn_measurement_method       '\w and \f scans'
_diffrn_radiation_type           MoK\a
_diffrn_radiation_wavelength     0.71073
_diffrn_reflns_av_R_equivalents  0.0384
_diffrn_reflns_av_unetI/netI     0.0338
_diffrn_reflns_Laue_measured_fraction_full 1.000
_diffrn_reflns_Laue_measured_fraction_max 0.975
_diffrn_reflns_limit_h_max       24
_diffrn_reflns_limit_h_min       -24
_diffrn_reflns_limit_k_max       6
_diffrn_reflns_limit_k_min       -6
_diffrn_reflns_limit_l_max       10
_diffrn_reflns_limit_l_min       -10
_diffrn_reflns_number            3457
_diffrn_reflns_point_group_measured_fraction_full 1.000
_diffrn_reflns_point_group_measured_fraction_max 0.975
_diffrn_reflns_theta_full        25.242
_diffrn_reflns_theta_max         33.226
_diffrn_reflns_theta_min         2.651
_diffrn_source                   'fine-focus sealed tube'
_exptl_absorpt_coefficient_mu    38.991
_exptl_absorpt_correction_T_max  0.5830
_exptl_absorpt_correction_T_min  0.1094
_exptl_absorpt_correction_type   numerical
_exptl_absorpt_process_details   'Bruker SHELXTL (Sheldrick, 2013)'
_exptl_crystal_colour            grey
_exptl_crystal_density_diffrn    8.225
_exptl_crystal_density_method    'not measured'
_exptl_crystal_description       irregular
_exptl_crystal_F_000             1010
_exptl_crystal_size_max          0.092
_exptl_crystal_size_mid          0.021
_exptl_crystal_size_min          0.021
_refine_diff_density_max         2.299
_refine_diff_density_min         -2.258
_refine_diff_density_rms         0.432
_refine_ls_extinction_coef       0.00086(8)
_refine_ls_extinction_expression Fc^*^=kFc[1+0.001xFc^2^\l^3^/sin(2\q)]^-1/4^
_refine_ls_extinction_method     SHELXL
_refine_ls_goodness_of_fit_ref   1.035
_refine_ls_hydrogen_treatment    undef
_refine_ls_matrix_type           full
_refine_ls_number_parameters     37
_refine_ls_number_reflns         994
_refine_ls_number_restraints     0
_refine_ls_restrained_S_all      1.035
_refine_ls_R_factor_all          0.0350
_refine_ls_R_factor_gt           0.0244
_refine_ls_shift/su_max          0.001
_refine_ls_shift/su_mean         0.000
_refine_ls_structure_factor_coef Fsqd
_refine_ls_weighting_details
'w=1/[\s^2^(Fo^2^)+(0.0247P)^2^] where P=(Fo^2^+2Fc^2^)/3'
_refine_ls_weighting_scheme      calc
_refine_ls_wR_factor_gt          0.0498
_refine_ls_wR_factor_ref         0.0529
_reflns_Friedel_coverage         0.000
_reflns_number_gt                833
_reflns_number_total             994
_reflns_threshold_expression     'I > 2\s(I)'
_cod_data_source_file            ic502955h_si_004.cif
_cod_data_source_block           Nd4Ru2InGe4
_cod_depositor_comments
'Adding full bibliography for 4342570--4342590.cif.'
_cod_database_code               4342573
#BEGIN Tags that were not found in dictionaries:
_shelx_space_group_comment
;
The symmetry employed for this shelxl refinement is uniquely defined
by the following loop, which should always be used as a source of
symmetry information in preference to the above space-group names.
They are only intended as comments.
;
_shelx_estimated_absorpt_t_min   0.124
_shelx_estimated_absorpt_t_max   0.495
_shelxl_version_number           2013-4
_shelx_res_file
;
TITL Nd4Ru2InGe4 C2/m lsf final refinement
CELL 0.71073  16.01420   4.34630   7.16020  90.0000 106.3528  90.0000
ZERR    2.00   0.00570   0.00160   0.00250   0.0000   0.0050   0.0000
LATT  7
SYMM -X, Y, -Z
SFAC GE RU IN ND
UNIT 8 4 2 8
TEMP -100
SIZE 0.021 0.021 0.092

L.S. 4
ACTA

WGHT    0.024700
EXTI    0.000857
FVAR       0.04678
ND1   4    0.349587    0.000000    0.063483    10.50000    0.00735    0.00795 =
         0.00785    0.00000    0.00256    0.00000
ND2   4    0.588176    0.000000    0.380762    10.50000    0.00682    0.00683 =
         0.00878    0.00000    0.00360    0.00000
RU    2    0.218476    0.000000    0.627775    10.50000    0.00605    0.00604 =
         0.00838    0.00000    0.00293    0.00000
IN    3    0.000000    0.000000    0.000000     0.23841    0.00965    0.00873 =
         0.00918    0.00000    0.00475    0.00000
GE1   1    0.065047    0.000000    0.654806    10.50000    0.00650    0.00773 =
         0.00800    0.00000    0.00291    0.00000
GE2   1    0.208956    0.000000    0.272641    10.50000    0.00993    0.00552 =
         0.00912    0.00000    0.00436    0.00000
HKLF 4

REM  Nd4Ru2InGe4 C2/m lsf final refinement
REM R1 =  0.0244 for     833 Fo > 4sig(Fo)  and  0.0350 for all     994 data
REM     37 parameters refined using      0 restraints

END

WGHT      0.0247      0.0000

REM Highest difference peak  2.299,  deepest hole -2.258,  1-sigma level  0.432
Q1    1   0.2011  0.0000  0.0805  10.50000  0.05    2.30
Q2    1   0.3157  0.0000 -0.0425  10.50000  0.05    1.85
Q3    1   0.1814  0.0000  0.4715  10.50000  0.05    1.79
Q4    1   0.2033  0.0000  0.7919  10.50000  0.05    1.73
Q5    1   0.6105  0.0000  0.4819  10.50000  0.05    1.71
Q6    1   0.2044  0.1784  0.5847  11.00000  0.05    1.57
Q7    1   0.6595  0.0000  0.3996  10.50000  0.05    1.53
Q8    1   0.4170  0.0815 -0.0159  11.00000  0.05    1.51
Q9    1   0.4040  0.0000  0.2722  10.50000  0.05    1.45
Q10   1   0.2637  0.1732  0.4335  11.00000  0.05    1.41
Q11   1   0.1126  0.0000  0.7877  10.50000  0.05    1.40
Q12   1   0.1280  0.0000  0.4568  10.50000  0.05    1.39
Q13   1  -0.0238  0.0000  0.5945  10.50000  0.05    1.38
Q14   1   0.5997 -0.1681  0.3847  11.00000  0.05    1.38
Q15   1   0.0713  0.0000  0.3821  10.50000  0.05    1.36
Q16   1   0.1089  0.0000  0.3077  10.50000  0.05    1.36
Q17   1   0.3211  0.0000  0.8034  10.50000  0.05    1.36
Q18   1   0.0000  0.0000  0.5000  10.25000  0.05    1.34
Q19   1   0.2474  0.0000  0.3975  10.50000  0.05    1.33
Q20   1   0.0073  0.0000  0.0988  10.50000  0.05    1.32
;
_shelx_res_checksum              79632
_shelx_hkl_file
;
   2  -2 -10    1.80    1.67
   4  -2 -10    8.62    2.56
   6  -2 -10    1.86    1.41
   8  -2 -10   47.08    4.79
  10  -2 -10   75.55    5.42
  -1  -1 -10    0.31    1.40
   1  -1 -10    0.13    1.24
   3  -1 -10    0.61    1.35
   5  -1 -10   52.46    4.27
   7  -1 -10    7.56    2.22
   9  -1 -10   17.11    2.97
  11  -1 -10    1.76    1.56
  13  -1 -10   20.70    3.26
  -2   0 -10    4.61    3.02
   0   0 -10    2.75    2.66
   2   0 -10   -0.03    2.07
   4   0 -10    3.72    1.39
   6   0 -10    0.10    1.05
   8   0 -10   43.53    4.35
  10   0 -10   89.28    5.42
  12   0 -10    6.53    1.67
  14   0 -10    1.99    1.37
  -1   1 -10   -2.30    2.50
   1   1 -10    0.99    2.88
   3   1 -10   -0.58    2.47
   7   1 -10    3.99    3.05
   9   1 -10    6.28    3.29
  11   1 -10    1.16    2.71
  13   1 -10   22.54    2.69
  15   1 -10    0.61    1.69
   4   2 -10    4.18    3.52
   6   2 -10   -0.58    2.98
   8   2 -10   37.92    6.15
  12   2 -10    8.27    4.01
  -1  -3  -9   83.43    5.76
   1  -3  -9    5.14    1.49
   3  -3  -9    2.57    1.21
   5  -3  -9   37.15    3.10
   7  -3  -9   23.97    2.49
   9  -3  -9    4.64    1.37
  11  -3  -9   33.16    2.96
  -4  -2  -9    9.15    2.44
  -2  -2  -9    9.20    2.45
   0  -2  -9   52.68    4.34
   2  -2  -9   43.42    4.64
   4  -2  -9   20.83    3.20
   6  -2  -9    3.54    1.52
   8  -2  -9    4.27    1.67
  10  -2  -9    5.25    1.92
  12  -2  -9    1.31    1.29
  14  -2  -9    1.18    1.42
  -5  -1  -9   14.25    2.79
  -3  -1  -9    4.50    1.94
  -1  -1  -9  116.42    6.22
   1  -1  -9    4.34    1.65
   3  -1  -9    3.05    1.40
   5  -1  -9   51.07    3.84
   7  -1  -9   22.86    3.15
   9  -1  -9    5.77    1.77
  11  -1  -9   47.15    3.85
  13  -1  -9   64.79    4.76
  15  -1  -9   20.60    3.29
  17  -1  -9    0.36    1.47
  -4   0  -9   10.06    3.09
  -2   0  -9    5.45    2.68
   0   0  -9   63.16    4.13
   2   0  -9   45.14    3.58
   4   0  -9   16.07    2.47
   6   0  -9    4.88    1.26
   8   0  -9    5.78    1.45
  10   0  -9    5.69    1.51
  12   0  -9    2.12    1.26
  14   0  -9   -0.41    1.03
  16   0  -9  153.48    7.73
  18   0  -9    0.25    1.38
  -7   1  -9    9.66    3.20
  -5   1  -9   12.25    2.33
  -3   1  -9    4.04    1.70
  -1   1  -9  127.24    7.66
   1   1  -9    5.03    2.77
   3   1  -9    2.05    2.54
   5   1  -9   38.02    5.79
   7   1  -9   19.05    4.30
   9   1  -9    5.93    1.41
  11   1  -9   42.88    3.03
  13   1  -9   67.14    3.80
  15   1  -9   18.29    2.93
  17   1  -9    0.34    1.42
  -4   2  -9   10.57    2.39
  -2   2  -9    5.97    2.14
   0   2  -9   39.56    4.11
   2   2  -9   40.02    4.05
   4   2  -9   17.39    2.81
   6   2  -9    4.31    3.30
   8   2  -9    5.63    3.94
  10   2  -9    3.38    3.22
  12   2  -9    1.47    3.14
  14   2  -9   -1.59    2.70
  -1   3  -9   83.69   10.82
   1   3  -9    2.32    1.85
   3   3  -9    1.55    1.63
   5   3  -9   30.96    3.85
   7   3  -9   15.44    2.89
   9   3  -9    0.55    4.35
  11   3  -9   49.23    8.52
  13   3  -9   52.36    8.10
   0  -4  -8   17.27    2.32
   2  -4  -8   14.29    2.06
   4  -4  -8   22.65    2.51
   6  -4  -8   12.02    1.87
   8  -4  -8   16.94    2.15
  10  -4  -8   53.18    3.73
  12  -4  -8    0.63    1.70
  -5  -3  -8   23.06    2.63
  -3  -3  -8    5.90    1.48
  -1  -3  -8    0.67    0.92
   1  -3  -8    8.91    1.61
   3  -3  -8   23.71    2.40
   5  -3  -8  100.61    4.02
   7  -3  -8   37.22    2.85
   9  -3  -8   -0.68    0.74
  11  -3  -8   37.92    3.01
  13  -3  -8    0.44    0.94
  15  -3  -8   10.13    1.84
  17  -3  -8    0.82    1.83
  -8  -2  -8    1.82    1.29
  -6  -2  -8   80.99    3.92
  -4  -2  -8   11.69    1.79
  -2  -2  -8    4.55    1.19
   0  -2  -8   20.85    2.12
   2  -2  -8   29.62    2.47
   4  -2  -8   40.46    2.86
   6  -2  -8   17.33    1.86
   8  -2  -8   23.25    2.10
  10  -2  -8   88.59    3.50
  12  -2  -8    0.40    0.77
  14  -2  -8    2.99    1.14
  16  -2  -8   -0.30    1.26
  18  -2  -8   -1.14    1.30
  -9  -1  -8    0.10    1.74
  -7  -1  -8    6.86    2.02
  -5  -1  -8   28.02    3.59
  -3  -1  -8    7.99    1.93
  -1  -1  -8    0.16    0.97
   1  -1  -8   13.46    1.89
   3  -1  -8   36.31    3.58
   5  -1  -8  134.99    6.12
   7  -1  -8   50.46    3.05
   9  -1  -8    0.45    0.89
  11  -1  -8   52.56    3.91
  13  -1  -8   -0.08    1.00
  15  -1  -8   10.23    2.28
  17  -1  -8    1.37    1.42
  -6   0  -8   84.50    6.27
  -4   0  -8    9.17    2.69
  -2   0  -8    4.57    1.26
   0   0  -8   27.97    3.06
   2   0  -8   34.68    3.41
   4   0  -8   45.09    2.71
   6   0  -8   19.71    1.99
   8   0  -8   21.76    2.23
  10   0  -8   98.56    5.15
  12   0  -8   -0.95    0.79
  14   0  -8    2.78    1.21
  16   0  -8    0.26    1.21
  18   0  -8    1.26    1.42
  20   0  -8    4.21    2.07
  -9   1  -8    0.68    1.69
  -7   1  -8    4.94    2.13
  -5   1  -8   30.21    4.34
  -3   1  -8   13.79    2.24
  -1   1  -8    1.86    1.24
   1   1  -8   10.64    2.07
   3   1  -8   26.30    4.75
   5   1  -8  136.54    4.71
   7   1  -8   51.04    2.95
   9   1  -8    0.13    0.75
  11   1  -8   50.58    3.13
  13   1  -8    0.54    0.94
  15   1  -8    8.80    2.14
  17   1  -8   -0.29    1.37
  19   1  -8   98.63    6.13
  -8   2  -8    1.45    1.49
  -6   2  -8   72.21    4.63
  -4   2  -8   12.73    2.45
  -2   2  -8    2.74    1.46
   0   2  -8   28.53    3.40
   2   2  -8   28.47    3.34
   4   2  -8   36.53    3.85
   6   2  -8   17.17    2.67
   8   2  -8   16.77    4.56
  10   2  -8   72.48    8.54
  12   2  -8    0.82    0.94
  14   2  -8    1.44    1.17
  16   2  -8    1.28    1.45
  18   2  -8    0.13    1.40
  -5   3  -8   18.45    3.18
  -3   3  -8    8.07    2.33
  -1   3  -8   -0.03    1.28
   1   3  -8    9.53    2.32
   3   3  -8   22.57    3.01
   5   3  -8   92.01    5.23
   7   3  -8   36.34    3.86
   9   3  -8    4.55    3.88
  11   3  -8   30.85    6.50
  13   3  -8   -0.27    3.91
   0   4  -8   11.41    2.53
   2   4  -8   13.49    2.72
   4   4  -8   26.83    3.55
   6   4  -8   12.47    2.56
   8   4  -8   11.63    2.53
  10   4  -8   50.56    7.87
  12   4  -8   -2.32    4.18
   3  -5  -7    0.99    1.65
   5  -5  -7    1.06    1.56
   7  -5  -7    5.46    2.21
   9  -5  -7    4.45    2.20
  -4  -4  -7   52.35    3.88
  -2  -4  -7   26.37    2.67
   0  -4  -7   36.85    3.04
   2  -4  -7   10.50    1.68
   4  -4  -7    4.11    1.27
   6  -4  -7   12.82    1.86
   8  -4  -7   10.14    1.72
  10  -4  -7   77.30    3.75
  12  -4  -7    5.20    1.46
  14  -4  -7   39.93    3.38
  16  -4  -7    1.45    1.90
  -9  -3  -7    0.76    1.22
  -7  -3  -7   56.94    3.67
  -5  -3  -7    0.48    0.92
  -3  -3  -7   28.72    2.62
  -1  -3  -7    0.29    0.78
   1  -3  -7   50.87    2.81
   3  -3  -7   -0.10    0.66
   5  -3  -7   -0.37    0.59
   7  -3  -7   11.10    1.62
   9  -3  -7    1.83    0.91
  11  -3  -7    4.88    1.22
  13  -3  -7   48.84    2.85
  15  -3  -7   33.76    2.96
  17  -3  -7   70.13    3.66
 -12  -2  -7    0.71    3.06
 -10  -2  -7    0.18    1.55
  -8  -2  -7    0.47    0.94
  -6  -2  -7   -0.80    0.74
  -4  -2  -7   78.79    3.46
  -2  -2  -7   46.47    2.58
   0  -2  -7   62.04    2.88
   2  -2  -7   19.33    1.88
   4  -2  -7    6.24    1.11
   6  -2  -7   20.29    1.89
   8  -2  -7   17.14    1.64
  10  -2  -7  113.15    3.93
  12  -2  -7    6.14    1.20
  14  -2  -7   47.98    2.66
  16  -2  -7    5.49    1.30
  18  -2  -7   19.64    2.25
  20  -2  -7    6.22    1.65
 -13  -1  -7    2.31    2.93
 -11  -1  -7    7.57    1.99
  -9  -1  -7    2.40    1.06
  -7  -1  -7   74.42    3.48
  -5  -1  -7    1.04    0.85
  -3  -1  -7   41.68    2.30
  -1  -1  -7    0.21    0.57
   1  -1  -7   81.31    2.71
   3  -1  -7    0.31    0.53
   5  -1  -7    0.38    0.50
   7  -1  -7   14.14    1.36
   9  -1  -7    1.25    0.64
  11  -1  -7    9.57    1.31
  13  -1  -7   61.46    2.73
  15  -1  -7   34.19    2.48
  17  -1  -7   83.77    5.40
  19  -1  -7    0.91    1.31
  21  -1  -7    3.60    1.95
 -12   0  -7   -1.55    2.87
 -10   0  -7    0.98    2.75
  -6   0  -7    0.51    0.65
  -4   0  -7   90.90    3.56
  -2   0  -7   49.27    2.23
   0   0  -7   71.06    3.19
   2   0  -7   29.98    2.18
   4   0  -7    6.45    1.25
   6   0  -7   21.96    2.11
   8   0  -7   19.06    2.03
  10   0  -7  148.80    4.94
  12   0  -7    5.58    1.30
  14   0  -7   54.54    2.98
  16   0  -7    5.19    1.80
  18   0  -7   21.05    3.18
  20   0  -7    6.34    2.13
 -13   1  -7    1.05    1.46
 -11   1  -7   10.85    1.97
  -9   1  -7    2.53    1.26
  -7   1  -7   72.37    3.15
  -5   1  -7   -0.01    0.75
  -3   1  -7   34.88    3.15
  -1   1  -7    0.55    0.99
   1   1  -7   75.11    2.78
   3   1  -7    0.24    0.59
   5   1  -7    0.15    0.63
   7   1  -7   14.11    1.76
   9   1  -7    0.04    0.66
  11   1  -7    6.54    1.39
  13   1  -7   63.04    3.35
  15   1  -7   29.24    3.44
  17   1  -7   79.49    5.19
  19   1  -7   -0.65    1.16
  21   1  -7    1.59    1.71
 -10   2  -7    1.33    1.29
  -8   2  -7   -1.51    0.95
  -6   2  -7    0.58    0.92
  -4   2  -7   73.61    3.38
  -2   2  -7   45.33    3.89
   0   2  -7   64.43    4.09
   2   2  -7   20.40    2.65
   4   2  -7    9.29    1.79
   6   2  -7   21.76    2.68
   8   2  -7   13.50    1.77
  10   2  -7  116.23    4.56
  12   2  -7    3.58    1.15
  14   2  -7   55.27    3.96
  16   2  -7    1.06    1.35
  18   2  -7   11.40    2.41
  20   2  -7    5.80    2.12
  -9   3  -7    1.35    1.31
  -7   3  -7   52.27    3.66
  -5   3  -7    0.58    0.96
  -3   3  -7   29.69    3.44
  -1   3  -7    1.12    1.17
   1   3  -7   51.10    4.09
   3   3  -7   -0.12    1.11
   5   3  -7    0.93    1.00
   7   3  -7    9.20    1.94
   9   3  -7    1.15    1.26
  11   3  -7    3.22    2.96
  13   3  -7   41.87    6.92
  19   3  -7   -0.92    1.58
  -6   4  -7    1.36    3.91
  -4   4  -7   47.85    4.46
  -2   4  -7   29.96    3.54
   0   4  -7   32.03    3.45
   2   4  -7   13.51    2.35
   4   4  -7    3.26    1.56
   6   4  -7   14.13    2.33
   8   4  -7   12.29    2.36
  10   4  -7   69.46    7.77
  12   4  -7    5.16    3.31
   3   5  -7    1.74    2.03
   5   5  -7    2.30    1.97
  -5  -5  -6   19.07    4.34
  -3  -5  -6    0.85    1.69
  -1  -5  -6   57.83    3.70
   1  -5  -6    0.31    0.94
   3  -5  -6    0.15    0.96
   5  -5  -6   42.04    3.19
   7  -5  -6   31.36    2.93
   9  -5  -6   24.90    3.73
  -8  -4  -6    2.37    1.19
  -6  -4  -6    2.19    1.03
  -4  -4  -6    9.64    1.40
  -2  -4  -6   28.12    2.15
   0  -4  -6    2.55    1.02
   2  -4  -6    4.97    1.18
   4  -4  -6  124.12    4.52
   6  -4  -6   28.66    2.42
   8  -4  -6    6.77    1.33
  10  -4  -6   12.24    1.82
  12  -4  -6   53.80    3.30
  14  -4  -6    4.12    1.38
  16  -4  -6   33.81    4.34
 -11  -3  -6    9.52    2.38
  -9  -3  -6   85.23    3.86
  -7  -3  -6    0.36    0.76
  -5  -3  -6   32.98    2.38
  -3  -3  -6    0.16    0.60
  -1  -3  -6  120.81    3.49
   1  -3  -6    0.45    0.62
   3  -3  -6    0.45    0.61
   5  -3  -6   88.42    3.36
   7  -3  -6   54.55    2.63
   9  -3  -6   45.77    2.67
  11  -3  -6   13.14    1.63
  13  -3  -6   48.45    2.75
  15  -3  -6    9.91    1.73
  17  -3  -6    2.33    1.21
  19  -3  -6    1.10    1.25
 -14  -2  -6    3.46    1.90
 -12  -2  -6   24.20    3.11
 -10  -2  -6   38.47    3.75
  -8  -2  -6    4.38    1.16
  -6  -2  -6    3.82    1.05
  -4  -2  -6   15.52    1.57
  -2  -2  -6   51.99    2.20
   0  -2  -6    3.81    0.88
   2  -2  -6   13.53    1.50
   4  -2  -6  207.87    5.28
   6  -2  -6   50.98    2.29
   8  -2  -6   11.98    1.43
  10  -2  -6   22.47    1.94
  12  -2  -6   88.92    3.46
  14  -2  -6    7.39    1.36
  16  -2  -6   43.66    3.05
  18  -2  -6   38.24    3.06
  20  -2  -6  104.58    4.60
 -15  -1  -6    3.43    3.14
 -13  -1  -6   26.50    4.16
 -11  -1  -6    9.37    2.06
  -9  -1  -6  118.76    4.51
  -7  -1  -6    0.06    0.59
  -5  -1  -6   46.27    2.21
  -3  -1  -6    0.21    0.50
  -1  -1  -6  185.24    3.82
   1  -1  -6    1.30    0.59
   3  -1  -6    0.83    0.49
   5  -1  -6  133.33    3.37
   7  -1  -6   80.63    2.50
   9  -1  -6   65.70    2.53
  11  -1  -6   23.28    1.84
  13  -1  -6   70.33    2.89
  15  -1  -6   12.20    1.58
  17  -1  -6    3.92    1.11
  19  -1  -6    1.00    0.97
  21  -1  -6   62.57    3.43
  23  -1  -6    0.52    1.73
 -16   0  -6   30.14    4.40
 -14   0  -6    1.99    1.62
 -12   0  -6   22.12    3.31
 -10   0  -6   57.02    2.94
  -8   0  -6    5.29    0.68
  -6   0  -6    4.77    0.61
  -4   0  -6   19.46    0.97
  -2   0  -6   62.42    1.77
   0   0  -6    4.51    0.67
   2   0  -6   15.74    1.21
   4   0  -6  260.80    4.87
   6   0  -6   63.61    2.04
   8   0  -6   16.03    1.20
  10   0  -6   27.26    1.48
  12   0  -6  110.08    2.93
  14   0  -6    9.12    1.91
  16   0  -6   45.19    3.75
  18   0  -6   45.05    4.42
  20   0  -6  127.55    6.99
  22   0  -6   -0.94    1.29
 -15   1  -6   19.44    2.65
 -13   1  -6   27.30    2.67
 -11   1  -6   13.05    1.93
  -9   1  -6  121.16    3.67
  -7   1  -6    1.23    0.63
  -5   1  -6   46.29    2.33
  -3   1  -6   -0.50    0.58
  -1   1  -6  176.53    4.23
   1   1  -6    1.15    0.60
   3   1  -6    1.39    0.59
   5   1  -6  141.19    3.62
   7   1  -6   82.92    3.31
   9   1  -6   66.80    3.18
  11   1  -6   17.70    1.96
  13   1  -6   74.31    3.38
  15   1  -6   10.11    1.97
  17   1  -6    2.75    1.30
  19   1  -6    0.23    1.36
  21   1  -6   51.08    5.07
 -14   2  -6    3.34    1.59
 -12   2  -6   30.56    2.45
 -10   2  -6   48.87    3.30
  -8   2  -6    2.62    1.06
  -6   2  -6    3.88    1.17
  -4   2  -6   18.49    1.89
  -2   2  -6   45.79    2.39
   0   2  -6    4.16    1.36
   2   2  -6   11.75    1.86
   4   2  -6  220.80    6.62
   6   2  -6   47.45    2.03
   8   2  -6   10.65    1.19
  10   2  -6   19.25    2.04
  12   2  -6   98.38    4.03
  14   2  -6    5.12    1.55
  16   2  -6   43.32    4.15
 -11   3  -6   11.92    2.12
  -9   3  -6   92.10    4.43
  -7   3  -6    0.39    0.89
  -5   3  -6   33.26    2.55
  -3   3  -6    1.03    0.85
  -1   3  -6  117.24    4.84
   1   3  -6    0.67    0.95
   3   3  -6    0.06    0.82
   5   3  -6   87.37    3.99
   7   3  -6   51.35    3.25
   9   3  -6   43.57    3.03
  11   3  -6   12.98    3.31
  13   3  -6   49.39    3.16
  15   3  -6    5.30    1.80
  17   3  -6    0.35    1.52
  19   3  -6    1.03    1.80
  -8   4  -6    2.62    1.43
  -6   4  -6    2.25    1.11
  -4   4  -6    9.95    1.56
  -2   4  -6   24.38    2.80
   0   4  -6    3.31    1.33
   2   4  -6    4.80    1.50
   4   4  -6  115.87    4.89
   6   4  -6   37.18    3.28
   8   4  -6    6.35    2.77
  10   4  -6    8.51    2.94
  12   4  -6   59.40    6.60
  -3   5  -6    0.58    1.37
  -1   5  -6   65.44    4.35
   1   5  -6    0.09    1.22
   3   5  -6   -0.88    1.17
   5   5  -6   47.85    6.02
   7   5  -6   32.85    5.25
   9   5  -6   15.44    3.85
  11   5  -6    5.62    3.12
  -7  -5  -5   16.13    3.85
  -5  -5  -5   14.29    1.80
  -3  -5  -5    4.12    1.13
  -1  -5  -5   65.41    2.92
   1  -5  -5   54.45    2.68
   3  -5  -5    5.82    1.14
   5  -5  -5   23.08    2.46
   7  -5  -5   22.66    3.55
   9  -5  -5    1.35    1.55
  11  -5  -5   27.20    3.88
 -10  -4  -5    5.00    1.88
  -8  -4  -5   25.62    2.35
  -6  -4  -5  113.02    3.86
  -4  -4  -5    2.99    0.91
  -2  -4  -5   32.94    2.20
   0  -4  -5   12.05    1.32
   2  -4  -5   -0.39    0.50
   4  -4  -5    0.48    0.57
   6  -4  -5   17.91    1.54
   8  -4  -5   23.13    2.21
  10  -4  -5   70.45    3.26
  12  -4  -5    7.48    1.44
  14  -4  -5   25.34    3.60
  16  -4  -5    8.42    2.39
 -13  -3  -5   18.56    3.11
 -11  -3  -5    2.85    1.60
  -9  -3  -5    3.55    1.11
  -7  -3  -5   27.28    2.18
  -5  -3  -5   25.36    1.95
  -3  -3  -5    9.86    1.16
  -1  -3  -5  129.44    3.44
   1  -3  -5  101.96    2.90
   3  -3  -5   11.18    1.13
   5  -3  -5   54.13    1.96
   7  -3  -5   50.19    2.41
   9  -3  -5    2.86    0.91
  11  -3  -5   55.98    2.74
  13  -3  -5    5.76    1.23
  15  -3  -5  105.76    4.20
  17  -3  -5    1.87    1.13
  19  -3  -5    4.95    1.49
 -16  -2  -5    1.39    3.30
 -14  -2  -5   26.77    3.24
 -12  -2  -5   14.20    2.54
 -10  -2  -5    7.14    1.78
  -8  -2  -5   44.65    2.58
  -6  -2  -5  175.81    4.51
  -4  -2  -5    5.50    0.95
  -2  -2  -5   52.54    2.02
   0  -2  -5   21.53    1.45
   2  -2  -5    1.02    0.48
   4  -2  -5    1.47    0.49
   6  -2  -5   31.92    1.74
   8  -2  -5   32.39    1.83
  10  -2  -5  118.68    3.79
  12  -2  -5   17.04    1.75
  14  -2  -5   35.50    2.62
  16  -2  -5   12.27    1.67
  18  -2  -5   24.49    2.37
  20  -2  -5   22.92    2.49
  22  -2  -5    3.51    1.45
 -15  -1  -5   33.18    3.17
 -13  -1  -5   28.40    2.21
 -11  -1  -5    0.85    0.86
  -9  -1  -5    7.25    1.00
  -7  -1  -5   41.75    1.71
  -5  -1  -5   36.76    1.29
  -3  -1  -5   12.38    0.94
  -1  -1  -5  207.70    3.21
   1  -1  -5  163.06    3.23
   3  -1  -5   18.55    1.08
   5  -1  -5   76.00    2.27
   7  -1  -5   78.98    2.33
   9  -1  -5    4.63    0.84
  11  -1  -5   90.43    3.07
  13  -1  -5    6.03    1.06
  15  -1  -5  156.65    4.73
  17  -1  -5    2.64    0.95
  19  -1  -5    5.51    1.29
  21  -1  -5    3.86    1.32
  23  -1  -5    1.89    1.27
 -16   0  -5    1.72    1.54
 -12   0  -5   21.60    2.18
 -10   0  -5    9.47    1.09
  -8   0  -5   57.75    1.56
  -6   0  -5  223.44    3.51
  -4   0  -5    6.21    0.58
  -2   0  -5   70.76    1.41
   0   0  -5   27.13    1.05
   2   0  -5    1.38    0.42
   4   0  -5    2.68    0.52
   6   0  -5   44.15    1.56
   8   0  -5   43.82    1.63
  10   0  -5  154.30    3.41
  12   0  -5   24.86    1.44
  14   0  -5   41.45    2.12
  16   0  -5   13.09    1.51
  18   0  -5   25.31    2.23
  20   0  -5   25.29    2.30
  22   0  -5    4.74    1.34
 -17   1  -5   24.25    4.04
 -15   1  -5   32.34    3.07
 -13   1  -5   30.36    2.77
 -11   1  -5    0.91    0.72
  -9   1  -5    8.45    1.19
  -7   1  -5   43.11    1.79
  -5   1  -5   35.35    1.28
  -3   1  -5   13.50    1.01
  -1   1  -5  206.97    3.33
   1   1  -5  158.07    3.62
   3   1  -5   16.96    1.23
   5   1  -5   77.31    2.39
   7   1  -5   79.39    3.16
   9   1  -5    3.79    0.97
  11   1  -5   96.47    3.69
  13   1  -5   10.40    1.55
  15   1  -5  160.63    7.00
  17   1  -5    2.33    1.39
  19   1  -5    6.04    1.97
  21   1  -5    5.16    2.00
  23   1  -5    3.09    1.95
 -16   2  -5   -0.26    1.64
 -14   2  -5   27.10    4.23
 -12   2  -5   19.37    1.88
 -10   2  -5    7.19    1.16
  -8   2  -5   45.24    2.11
  -6   2  -5  173.65    4.63
  -4   2  -5    5.42    1.02
  -2   2  -5   53.36    2.37
   0   2  -5   19.12    1.56
   2   2  -5    0.07    0.65
   4   2  -5    1.46    0.46
   6   2  -5   29.58    1.57
   8   2  -5   33.00    1.71
  10   2  -5  122.46    4.12
  12   2  -5   15.37    1.87
  14   2  -5   28.44    3.17
  16   2  -5    7.96    2.02
  18   2  -5   13.21    2.59
  22   2  -5    2.48    1.91
 -15   3  -5   36.02    4.79
 -13   3  -5   22.45    2.70
 -11   3  -5    0.97    1.02
  -9   3  -5    6.60    1.45
  -7   3  -5   30.38    2.29
  -5   3  -5   25.23    2.07
  -3   3  -5    8.03    1.16
  -1   3  -5  128.48    3.74
   1   3  -5   96.24    3.86
   3   3  -5   11.24    1.60
   5   3  -5   47.58    2.83
   7   3  -5   51.00    2.73
   9   3  -5    3.49    1.12
  11   3  -5   58.51    2.90
  13   3  -5    5.23    1.33
  17   3  -5    1.07    1.47
  19   3  -5    3.18    1.85
 -10   4  -5    4.18    1.50
  -8   4  -5   28.65    2.48
  -6   4  -5  113.55    3.94
  -4   4  -5    2.51    0.98
  -2   4  -5   29.65    2.26
   0   4  -5   10.95    1.73
   2   4  -5    0.46    0.85
   4   4  -5    0.03    0.88
   6   4  -5   15.67    2.01
   8   4  -5   14.28    3.03
  10   4  -5   69.01    5.27
  12   4  -5    8.67    2.84
  -7   5  -5   15.29    2.57
  -5   5  -5   15.37    1.97
  -3   5  -5    4.37    1.57
  -1   5  -5   73.65    4.31
   1   5  -5   53.05    3.92
   3   5  -5    3.58    1.43
   5   5  -5   22.32    4.05
   7   5  -5   26.32    4.28
   9   5  -5    1.39    1.96
  11   5  -5   24.70    4.46
   0  -6  -4   18.86    2.49
   2  -6  -4   19.77    2.60
   4  -6  -4    4.50    1.64
   6  -6  -4   80.52    6.24
   8  -6  -4    0.22    2.09
  -9  -5  -4    0.16    1.20
  -7  -5  -4   -0.58    1.01
  -5  -5  -4    4.25    1.10
  -3  -5  -4    1.02    0.78
  -1  -5  -4   -0.30    0.69
   1  -5  -4   52.92    2.44
   3  -5  -4    1.17    0.97
   5  -5  -4   51.48    3.03
   7  -5  -4    3.97    1.26
   9  -5  -4   20.17    2.17
  11  -5  -4   39.15    3.27
  13  -5  -4    1.47    1.61
 -12  -4  -4   39.24    3.93
 -10  -4  -4    4.51    1.57
  -8  -4  -4   49.25    3.00
  -6  -4  -4   27.98    2.12
  -4  -4  -4   10.69    1.26
  -2  -4  -4   26.89    1.87
   0  -4  -4   34.10    2.05
   2  -4  -4   40.16    1.95
   4  -4  -4   10.64    1.13
   6  -4  -4  137.38    3.59
   8  -4  -4   -0.24    0.51
  10  -4  -4    3.84    0.91
  12  -4  -4    7.64    1.43
  14  -4  -4   19.99    3.35
  16  -4  -4   15.08    3.00
  18  -4  -4   10.45    2.67
 -15  -3  -4   28.73    3.71
 -13  -3  -4    1.30    1.46
 -11  -3  -4   75.19    4.46
  -9  -3  -4   -0.33    0.61
  -7  -3  -4    0.93    0.63
  -5  -3  -4   10.65    1.23
  -3  -3  -4    1.14    0.54
  -1  -3  -4    0.76    0.50
   1  -3  -4  107.84    2.84
   3  -3  -4    0.75    0.46
   5  -3  -4   99.36    2.64
   7  -3  -4    6.15    0.83
   9  -3  -4   44.85    1.81
  11  -3  -4   64.78    2.25
  13  -3  -4    2.37    0.70
  15  -3  -4   30.62    2.61
  17  -3  -4   56.59    3.39
  19  -3  -4   31.75    4.15
 -18  -2  -4    1.10    2.06
 -16  -2  -4   37.91    2.91
 -14  -2  -4    0.25    0.87
 -12  -2  -4   65.72    3.05
 -10  -2  -4    7.97    1.24
  -8  -2  -4   84.06    2.45
  -6  -2  -4   46.73    1.64
  -4  -2  -4   26.00    1.25
  -2  -2  -4   48.38    1.38
   0  -2  -4   64.72    1.94
   2  -2  -4   72.77    1.99
   4  -2  -4   18.99    1.09
   6  -2  -4  246.88    4.43
   8  -2  -4    0.86    0.40
  10  -2  -4    9.78    0.94
  12  -2  -4   16.17    1.28
  14  -2  -4   30.60    2.33
  16  -2  -4   17.00    1.90
  18  -2  -4   19.55    2.13
  20  -2  -4   14.06    1.94
  22  -2  -4   43.82    3.40
 -17  -1  -4    0.90    1.51
 -15  -1  -4   23.47    2.59
 -13  -1  -4    1.62    0.96
 -11  -1  -4  106.59    3.57
  -9  -1  -4    0.11    0.48
  -7  -1  -4    0.61    0.40
  -5  -1  -4   22.86    1.04
  -3  -1  -4    3.33    0.45
  -1  -1  -4    0.66    0.31
   1  -1  -4  169.50    2.98
   3  -1  -4    1.06    0.33
   5  -1  -4  151.69    2.75
   7  -1  -4   12.41    0.77
   9  -1  -4   72.67    1.82
  11  -1  -4   98.56    2.43
  13  -1  -4   -0.01    0.52
  15  -1  -4   45.48    2.37
  17  -1  -4   74.92    3.26
  19  -1  -4   41.80    2.98
  21  -1  -4   77.00    3.72
  23  -1  -4   12.93    1.95
 -18   0  -4    0.06    1.53
 -16   0  -4   52.32    4.41
 -14   0  -4    0.57    0.86
 -12   0  -4   77.09    3.34
 -10   0  -4    6.78    0.83
  -8   0  -4  103.94    2.12
  -6   0  -4   60.08    1.36
  -4   0  -4   31.22    0.96
  -2   0  -4   66.99    1.26
   0   0  -4   86.32    1.69
   2   0  -4   97.56    1.99
   4   0  -4   27.19    1.09
   6   0  -4  335.35    5.47
   8   0  -4    1.05    0.39
  10   0  -4   12.37    0.79
  12   0  -4   16.89    1.23
  14   0  -4   36.13    2.02
  16   0  -4   20.57    1.94
  18   0  -4   20.23    2.01
  20   0  -4   14.55    1.84
  22   0  -4   47.04    3.13
  24   0  -4    5.75    2.14
 -19   1  -4   10.89    3.14
 -17   1  -4    3.09    1.41
 -15   1  -4   28.79    2.71
 -13   1  -4    2.52    1.04
 -11   1  -4  106.05    3.01
  -9   1  -4    0.39    0.49
  -7   1  -4    0.35    0.44
  -5   1  -4   20.45    1.01
  -3   1  -4    3.05    0.44
  -1   1  -4    0.50    0.27
   1   1  -4  171.69    2.82
   3   1  -4    1.81    0.44
   5   1  -4  144.23    3.22
   7   1  -4    8.28    0.63
   9   1  -4   76.42    2.05
  11   1  -4  101.38    2.70
  13   1  -4    1.16    0.63
  15   1  -4   46.39    2.31
  17   1  -4   74.83    3.16
  19   1  -4   34.28    2.60
 -16   2  -4   40.12    4.99
 -14   2  -4    1.64    0.90
 -12   2  -4   60.21    2.72
 -10   2  -4    5.29    1.03
  -8   2  -4   85.84    2.49
  -6   2  -4   44.87    1.75
  -4   2  -4   24.73    1.70
  -2   2  -4   47.80    1.91
   0   2  -4   62.99    2.15
   2   2  -4   74.97    2.84
   4   2  -4   18.70    1.10
   6   2  -4  248.53    4.60
   8   2  -4    1.80    0.57
  10   2  -4    7.53    1.20
  12   2  -4   11.74    1.51
  14   2  -4   32.31    3.30
  16   2  -4   10.76    2.16
  18   2  -4   12.47    2.50
 -15   3  -4   23.69    2.25
 -13   3  -4    1.56    0.95
 -11   3  -4   79.16    3.84
  -9   3  -4    1.04    0.75
  -7   3  -4    0.77    0.62
  -5   3  -4   12.01    1.32
  -3   3  -4    1.24    0.63
  -1   3  -4    1.44    0.57
   1   3  -4  112.26    3.80
   3   3  -4    0.55    0.66
   5   3  -4   98.05    3.51
   7   3  -4    5.74    0.67
   9   3  -4   46.41    1.63
  11   3  -4   60.97    2.22
  13   3  -4    0.60    0.75
  15   3  -4   39.54    2.76
  17   3  -4   55.01    2.95
  19   3  -4   24.88    3.51
  21   3  -4   55.89    5.38
 -12   4  -4   40.47    3.64
 -10   4  -4    4.70    1.48
  -8   4  -4   50.84    2.83
  -6   4  -4   30.65    2.24
  -4   4  -4   11.78    1.44
  -2   4  -4   28.18    2.05
   0   4  -4   34.99    2.72
   2   4  -4   43.16    2.74
   4   4  -4   10.98    1.53
   6   4  -4  137.04    3.56
   8   4  -4    0.35    0.74
  10   4  -4    1.84    1.03
  12   4  -4    7.87    1.51
  14   4  -4   21.66    3.11
  16   4  -4   12.22    1.85
  18   4  -4    7.06    1.60
  -9   5  -4    1.10    1.38
  -7   5  -4   -0.05    0.92
  -5   5  -4    4.56    1.24
  -3   5  -4    1.18    0.91
  -1   5  -4    0.68    1.01
   1   5  -4   57.73    3.48
   3   5  -4    0.18    0.94
   5   5  -4   55.45    5.69
   7   5  -4    3.92    1.22
   9   5  -4   14.02    1.93
  11   5  -4   36.44    3.13
  13   5  -4    2.14    1.72
  -2   6  -4   10.79    2.85
   2   6  -4   12.77    3.22
   4   6  -4    0.87    2.33
  -4  -6  -3   31.39    3.17
  -2  -6  -3    5.23    1.62
   0  -6  -3   79.60    4.20
   2  -6  -3    1.68    1.25
   4  -6  -3   46.16    3.68
   6  -6  -3   14.86    2.20
   8  -6  -3   12.19    2.13
 -11  -5  -3    3.46    1.62
  -9  -5  -3   23.57    2.86
  -7  -5  -3   28.86    2.89
  -5  -5  -3  137.69    4.21
  -3  -5  -3    2.70    0.95
  -1  -5  -3   11.68    1.39
   1  -5  -3    3.51    1.12
   3  -5  -3    2.02    1.02
   5  -5  -3    1.71    1.00
   7  -5  -3    0.63    0.95
   9  -5  -3  115.39    4.60
  11  -5  -3   55.89    3.34
  13  -5  -3   -1.14    0.97
  15  -5  -3    4.22    1.59
 -14  -4  -3   17.85    2.80
 -12  -4  -3   14.33    2.36
 -10  -4  -3   39.16    3.45
  -8  -4  -3    6.96    1.45
  -6  -4  -3    0.11    0.60
  -4  -4  -3   62.83    2.43
  -2  -4  -3   16.76    1.41
   0  -4  -3  167.01    3.94
   2  -4  -3    5.65    0.85
   4  -4  -3   92.98    2.76
   6  -4  -3   32.57    1.91
   8  -4  -3   30.03    2.38
  10  -4  -3    5.75    1.25
  12  -4  -3   88.76    3.77
  14  -4  -3   68.03    3.45
  16  -4  -3   15.70    2.20
  18  -4  -3   24.25    3.98
 -17  -3  -3   12.29    1.97
 -15  -3  -3   34.50    2.87
 -13  -3  -3    0.84    0.87
 -11  -3  -3    6.97    1.22
  -9  -3  -3   39.76    2.24
  -7  -3  -3   56.67    1.92
  -5  -3  -3  267.87    4.46
  -3  -3  -3    5.69    0.68
  -1  -3  -3   24.02    1.49
   1  -3  -3    5.35    0.75
   3  -3  -3   14.11    1.09
   5  -3  -3    3.83    0.66
   7  -3  -3    1.07    0.47
   9  -3  -3  211.85    4.31
  11  -3  -3   91.73    2.73
  13  -3  -3    1.04    0.61
  15  -3  -3    5.32    1.21
  17  -3  -3   45.19    3.26
  19  -3  -3    2.37    1.81
  21  -3  -3    0.58    1.91
 -18  -2  -3    5.50    1.86
 -16  -2  -3   -0.51    0.94
 -14  -2  -3   36.47    2.71
 -12  -2  -3   23.32    2.05
 -10  -2  -3   70.57    2.86
  -8  -2  -3    5.70    0.80
  -6  -2  -3    0.05    0.38
  -4  -2  -3  113.36    2.34
  -2  -2  -3   37.85    1.18
   0  -2  -3  335.07    4.47
   2  -2  -3   11.69    0.86
   4  -2  -3  181.25    3.40
   6  -2  -3   60.84    1.30
   8  -2  -3   50.30    1.64
  10  -2  -3   11.76    1.00
  12  -2  -3  155.19    3.60
  14  -2  -3  118.39    3.22
  16  -2  -3   32.32    2.07
  18  -2  -3   32.54    2.24
  20  -2  -3   25.95    2.55
  22  -2  -3    0.77    1.59
 -19  -1  -3   18.97    3.61
 -17  -1  -3   17.43    2.47
 -15  -1  -3   40.84    3.46
 -13  -1  -3   -0.22    0.53
 -11  -1  -3    7.58    0.96
  -9  -1  -3   60.86    2.00
  -7  -1  -3   92.84    1.78
  -5  -1  -3  431.63    5.33
  -3  -1  -3    9.85    0.58
  -1  -1  -3   47.75    1.13
   1  -1  -3    8.70    0.64
   3  -1  -3   26.37    0.90
   5  -1  -3    7.96    0.58
   7  -1  -3    0.63    0.28
   9  -1  -3  332.83    5.39
  11  -1  -3  144.49    3.15
  13  -1  -3    1.73    0.55
  15  -1  -3   12.39    1.23
  17  -1  -3   61.91    2.46
  19  -1  -3    4.92    1.00
  21  -1  -3   -0.53    0.93
  23  -1  -3    2.37    1.35
 -20   0  -3   28.40    5.48
 -18   0  -3    2.60    1.12
 -16   0  -3    0.39    0.85
 -14   0  -3   44.20    2.45
 -12   0  -3   29.12    2.04
 -10   0  -3   82.33    2.06
  -8   0  -3    7.58    0.66
  -6   0  -3   -0.03    0.25
  -4   0  -3  147.86    2.03
  -2   0  -3   57.76    1.06
   0   0  -3  465.11    6.01
   2   0  -3   15.27    0.54
   4   0  -3  268.93    4.42
   6   0  -3   87.03    1.98
   8   0  -3   66.12    1.84
  10   0  -3   14.38    1.04
  12   0  -3  206.66    5.01
  14   0  -3  155.66    4.49
  16   0  -3   37.61    2.39
  18   0  -3   38.71    2.75
  20   0  -3   28.03    3.48
  22   0  -3   -0.64    0.94
  24   0  -3   10.89    1.94
 -19   1  -3   20.80    3.85
 -17   1  -3   14.92    2.20
 -15   1  -3   41.72    2.64
 -13   1  -3   -0.15    0.54
 -11   1  -3    8.45    0.97
  -9   1  -3   60.11    1.86
  -7   1  -3   93.58    2.16
  -5   1  -3  424.68    6.03
  -3   1  -3    9.68    0.58
  -1   1  -3   47.01    1.18
   1   1  -3    8.12    0.54
   3   1  -3   26.48    1.06
   5   1  -3    7.35    0.46
   7   1  -3    0.03    0.29
   9   1  -3  330.58    5.45
  11   1  -3  150.32    3.32
  13   1  -3    1.87    0.70
  15   1  -3   11.54    1.41
  17   1  -3   67.33    2.98
  19   1  -3    7.66    1.38
  21   1  -3   -0.94    0.84
  23   1  -3    1.26    1.19
 -18   2  -3    1.23    1.36
 -16   2  -3    0.31    1.12
 -14   2  -3   37.35    2.47
 -12   2  -3   22.78    1.83
 -10   2  -3   69.66    2.53
  -8   2  -3    5.79    0.73
  -6   2  -3    0.54    0.39
  -4   2  -3  109.85    2.84
  -2   2  -3   37.95    1.53
   0   2  -3  326.93    5.68
   2   2  -3    9.08    0.66
   4   2  -3  182.21    3.46
   6   2  -3   59.50    1.22
   8   2  -3   48.31    1.19
  10   2  -3   13.96    0.93
  12   2  -3  157.52    3.00
  14   2  -3  122.54    3.08
  16   2  -3   31.54    1.79
  18   2  -3   40.55    2.23
  20   2  -3   20.98    3.19
  22   2  -3    0.99    1.48
 -17   3  -3   14.06    1.81
 -15   3  -3   37.32    2.67
 -13   3  -3   -0.06    0.72
 -11   3  -3    4.78    0.98
  -9   3  -3   41.83    2.14
  -7   3  -3   58.19    2.28
  -5   3  -3  264.60    5.40
  -3   3  -3    5.82    0.87
  -1   3  -3   26.45    1.64
   1   3  -3    4.81    0.76
   3   3  -3   15.43    1.14
   5   3  -3    4.12    0.55
   7   3  -3    0.55    0.39
   9   3  -3  205.40    4.17
  11   3  -3   93.34    2.67
  13   3  -3   -0.30    0.61
  15   3  -3    7.74    1.35
  17   3  -3   47.53    3.09
  19   3  -3    4.88    1.30
  21   3  -3    1.43    1.18
 -14   4  -3   21.61    2.69
 -12   4  -3   15.39    2.23
 -10   4  -3   41.48    3.35
  -8   4  -3    3.24    0.92
  -6   4  -3    0.35    0.61
  -4   4  -3   65.52    2.50
  -2   4  -3   19.02    1.59
   0   4  -3  167.46    4.09
   2   4  -3    4.04    0.78
   4   4  -3   90.04    2.69
   6   4  -3   27.35    2.14
   8   4  -3   24.52    2.14
  10   4  -3    7.94    1.36
  12   4  -3   97.48    3.63
  14   4  -3   75.83    3.37
  16   4  -3   16.79    2.04
  18   4  -3   24.00    2.53
 -11   5  -3    3.35    1.60
  -9   5  -3   24.54    2.17
  -7   5  -3   32.22    2.43
  -5   5  -3  143.25    4.25
  -3   5  -3    2.84    0.96
  -1   5  -3    9.53    1.72
   1   5  -3    2.60    1.10
   3   5  -3    5.90    1.21
   5   5  -3    3.18    1.08
   7   5  -3   -0.14    0.92
   9   5  -3  113.91    4.43
  11   5  -3   52.08    3.55
  13   5  -3    2.34    1.69
  -4   6  -3   32.84    3.35
  -2   6  -3    9.67    2.06
   0   6  -3   70.01    5.91
   2   6  -3    2.43    2.11
   4   6  -3   50.70    5.86
   6   6  -3   14.83    2.22
   8   6  -3   11.17    2.11
  10   6  -3    2.06    2.49
  -6  -6  -2    2.15    1.43
  -4  -6  -2    1.11    1.21
  -2  -6  -2   28.28    2.86
   0  -6  -2    2.03    1.35
   2  -6  -2    2.84    1.35
   4  -6  -2    6.42    1.59
   6  -6  -2   72.51    3.94
   8  -6  -2    5.73    1.56
  10  -6  -2    0.85    1.80
 -13  -5  -2    1.58    1.93
 -11  -5  -2   36.01    3.53
  -9  -5  -2   22.01    2.58
  -7  -5  -2    7.89    1.63
  -5  -5  -2    1.54    1.06
  -3  -5  -2   -0.34    0.75
  -1  -5  -2   91.60    3.86
   1  -5  -2   37.76    2.88
   3  -5  -2  115.95    4.40
   5  -5  -2    2.97    1.02
   7  -5  -2   -0.35    0.85
   9  -5  -2    0.59    0.90
  11  -5  -2   -0.16    0.85
  13  -5  -2    2.89    1.34
  15  -5  -2   51.64    4.03
 -16  -4  -2    3.15    1.38
 -14  -4  -2   37.80    2.86
 -12  -4  -2   42.80    2.81
 -10  -4  -2   36.96    2.48
  -8  -4  -2   33.29    2.10
  -6  -4  -2    2.65    0.76
  -4  -4  -2    1.40    0.53
  -2  -4  -2   63.21    2.22
   0  -4  -2    4.82    0.81
   2  -4  -2    8.34    0.93
   4  -4  -2   17.67    1.36
   6  -4  -2  147.28    4.68
   8  -4  -2    8.32    1.39
  10  -4  -2    2.41    0.92
  12  -4  -2    6.02    1.34
  14  -4  -2   19.75    2.30
  16  -4  -2   17.27    2.28
  18  -4  -2   21.07    2.68
 -19  -3  -2   -0.80    1.87
 -17  -3  -2   52.18    3.58
 -15  -3  -2   82.56    3.63
 -13  -3  -2   -0.21    0.73
 -11  -3  -2   71.78    2.83
  -9  -3  -2   39.02    2.10
  -7  -3  -2   24.78    1.44
  -5  -3  -2    5.79    0.68
  -3  -3  -2    0.01    0.34
  -1  -3  -2  192.68    3.21
   1  -3  -2   81.07    1.77
   3  -3  -2  266.09    3.87
   5  -3  -2    7.34    0.64
   7  -3  -2    0.66    0.34
   9  -3  -2    0.68    0.38
  11  -3  -2    0.28    0.47
  13  -3  -2    9.87    1.48
  15  -3  -2   78.03    3.63
  17  -3  -2   10.65    1.80
  19  -3  -2   12.20    2.03
  21  -3  -2   -0.08    1.26
 -20  -2  -2    4.44    1.92
 -18  -2  -2   34.10    3.57
 -16  -2  -2    9.21    1.58
 -14  -2  -2   65.01    3.06
 -12  -2  -2   77.26    3.04
 -10  -2  -2   64.39    2.48
  -8  -2  -2   65.10    2.29
  -6  -2  -2    6.30    0.50
  -4  -2  -2    3.31    0.48
  -2  -2  -2  129.16    2.25
   0  -2  -2   10.75    0.61
   2  -2  -2   13.90    0.62
   4  -2  -2   29.38    0.84
   6  -2  -2  299.71    4.95
   8  -2  -2   22.35    1.18
  10  -2  -2    3.07    0.60
  12  -2  -2    9.00    1.01
  14  -2  -2   33.57    1.99
  16  -2  -2   30.29    2.03
  18  -2  -2   36.54    2.32
  20  -2  -2  104.84    4.68
  22  -2  -2    0.68    1.24
 -21  -1  -2    3.67    2.27
 -19  -1  -2   -0.19    1.34
 -17  -1  -2   74.57    5.19
 -15  -1  -2  104.03    3.52
 -13  -1  -2    0.08    0.53
 -11  -1  -2  119.25    2.96
  -9  -1  -2   65.25    1.99
  -7  -1  -2   43.09    1.11
  -5  -1  -2    9.81    0.61
  -3  -1  -2    1.37    0.25
  -1  -1  -2  360.76    4.51
   1  -1  -2  159.62    2.69
   3  -1  -2  477.09    6.62
   5  -1  -2   16.01    0.75
   7  -1  -2   -0.29    0.23
   9  -1  -2    1.38    0.43
  11  -1  -2    0.40    0.43
  13  -1  -2   14.61    1.27
  15  -1  -2  128.58    3.48
  17  -1  -2   16.66    1.56
  19  -1  -2   19.33    1.70
  21  -1  -2   -0.02    0.80
  23  -1  -2   26.43    2.24
 -20   0  -2    7.71    1.59
 -18   0  -2   39.25    3.22
 -16   0  -2   10.34    1.45
 -14   0  -2   74.01    2.95
 -12   0  -2   94.10    3.14
 -10   0  -2   84.83    2.20
  -8   0  -2   83.54    1.61
  -6   0  -2    7.53    0.56
  -4   0  -2    5.35    0.39
  -2   0  -2  184.65    2.10
   0   0  -2   16.37    0.46
   2   0  -2   21.71    0.75
   4   0  -2   47.44    1.25
   6   0  -2  451.68    6.57
   8   0  -2   28.37    1.09
  10   0  -2    4.48    0.78
  12   0  -2   13.36    1.36
  14   0  -2   41.14    2.16
  16   0  -2   35.76    2.32
  18   0  -2   48.14    2.68
  20   0  -2  138.89    4.90
  22   0  -2    0.15    0.87
  24   0  -2   -1.01    1.58
 -21   1  -2    2.89    2.21
 -19   1  -2   -0.35    1.11
 -17   1  -2   50.78    3.42
 -15   1  -2   92.71    4.12
 -13   1  -2   -0.16    0.51
 -11   1  -2  124.91    3.25
  -9   1  -2   64.15    1.80
  -7   1  -2   42.72    1.31
  -5   1  -2    8.97    0.67
  -3   1  -2    1.76    0.27
  -1   1  -2  349.14    4.55
   1   1  -2  159.52    2.91
   3   1  -2  461.38    5.61
   5   1  -2   14.85    0.59
   7   1  -2    0.35    0.27
   9   1  -2    1.46    0.35
  11   1  -2    0.41    0.38
  13   1  -2   14.35    1.13
  15   1  -2  124.47    3.08
  17   1  -2   13.35    1.25
  19   1  -2   13.96    1.75
  21   1  -2    0.36    0.88
  23   1  -2   30.96    2.85
 -20   2  -2    8.53    2.06
 -18   2  -2   25.64    2.84
 -16   2  -2    5.97    1.19
 -14   2  -2   58.86    2.69
 -12   2  -2   80.60    2.82
 -10   2  -2   66.08    1.95
  -8   2  -2   64.46    1.83
  -6   2  -2    6.05    0.66
  -4   2  -2    2.53    0.53
  -2   2  -2  126.90    2.79
   0   2  -2   10.79    0.66
   2   2  -2   14.46    0.65
   4   2  -2   30.15    0.92
   6   2  -2  295.91    4.09
   8   2  -2   21.79    1.14
  10   2  -2    3.36    0.52
  12   2  -2    9.76    0.96
  14   2  -2   37.23    1.65
  16   2  -2   28.30    1.80
  18   2  -2   38.10    2.20
  20   2  -2  110.92    4.47
  22   2  -2    0.59    1.09
 -17   3  -2   52.75    3.91
 -15   3  -2   70.02    3.78
 -13   3  -2    0.79    0.76
 -11   3  -2   76.43    2.80
  -9   3  -2   39.17    1.70
  -7   3  -2   23.94    1.59
  -5   3  -2    5.12    0.78
  -3   3  -2    0.53    0.44
  -1   3  -2  197.05    3.26
   1   3  -2   82.00    1.88
   3   3  -2  264.11    3.83
   5   3  -2    7.77    0.67
   7   3  -2   -0.39    0.31
   9   3  -2    1.43    0.55
  11   3  -2    1.23    0.56
  13   3  -2    9.19    1.06
  15   3  -2   92.82    2.82
  17   3  -2    8.47    1.45
  19   3  -2   14.48    1.81
  21   3  -2   -1.23    1.50
 -16   4  -2    6.93    1.68
 -14   4  -2   32.25    3.19
 -12   4  -2   37.85    3.27
 -10   4  -2   44.16    2.41
  -8   4  -2   32.62    2.16
  -6   4  -2    3.10    0.81
  -4   4  -2    2.38    0.71
  -2   4  -2   62.28    2.30
   0   4  -2    5.47    0.70
   2   4  -2    8.99    0.97
   4   4  -2   18.09    1.34
   6   4  -2  161.00    4.54
   8   4  -2   10.03    1.08
  10   4  -2    1.50    0.68
  12   4  -2    4.93    1.14
  14   4  -2   17.71    1.91
  16   4  -2   15.71    1.98
  18   4  -2   23.58    2.45
 -13   5  -2    0.54    2.19
 -11   5  -2   42.61    3.80
  -9   5  -2   20.51    2.03
  -7   5  -2   14.09    1.60
  -5   5  -2    1.23    0.78
  -3   5  -2   -0.14    0.80
  -1   5  -2   94.62    3.95
   1   5  -2   40.43    2.14
   3   5  -2  124.59    4.25
   5   5  -2    3.30    1.08
   7   5  -2    0.44    0.89
   9   5  -2   -0.48    0.92
  11   5  -2    1.68    1.07
  13   5  -2    4.93    1.82
  15   5  -2   48.77    4.82
  -8   6  -2   21.80    3.91
  -6   6  -2    1.46    1.39
  -4   6  -2    0.93    1.26
  -2   6  -2   35.25    3.21
   0   6  -2    5.55    2.36
   2   6  -2    6.17    2.29
   4   6  -2    7.84    1.68
   6   6  -2   68.06    6.66
   8   6  -2    3.64    1.48
  10   6  -2    1.64    2.37
  -6  -6  -1   70.05    7.14
  -4  -6  -1    4.18    2.31
  -2  -6  -1   -0.30    1.55
   0  -6  -1    1.12    1.84
   2  -6  -1    1.73    1.81
   4  -6  -1   -0.65    1.54
   6  -6  -1   64.54    6.57
   8  -6  -1   -1.44    1.57
 -13  -5  -1    0.38    1.37
 -11  -5  -1   40.82    3.58
  -9  -5  -1    1.30    1.15
  -7  -5  -1   15.18    2.03
  -5  -5  -1    1.25    0.94
  -3  -5  -1  102.05    4.04
  -1  -5  -1    2.52    0.93
   1  -5  -1   -0.14    0.78
   3  -5  -1    2.13    0.97
   5  -5  -1   60.67    3.11
   7  -5  -1    2.35    0.99
   9  -5  -1   49.99    3.00
  11  -5  -1   81.18    4.04
  13  -5  -1    8.89    1.91
  15  -5  -1    3.37    1.63
 -18  -4  -1    2.59    1.65
 -16  -4  -1    0.46    1.01
 -14  -4  -1   -0.25    0.92
 -12  -4  -1   15.59    1.69
 -10  -4  -1   15.19    1.55
  -8  -4  -1   96.76    3.03
  -6  -4  -1  145.29    3.61
  -4  -4  -1    8.33    1.01
  -2  -4  -1    0.26    0.41
   0  -4  -1    2.54    0.50
   2  -4  -1   -0.44    0.42
   4  -4  -1   -0.45    0.46
   6  -4  -1  124.44    3.14
   8  -4  -1    0.76    0.57
  10  -4  -1   52.90    2.19
  12  -4  -1   51.54    2.29
  14  -4  -1    5.04    1.38
  16  -4  -1   10.37    1.91
  18  -4  -1    1.52    1.47
 -19  -3  -1    1.82    1.89
 -17  -3  -1    1.38    1.13
 -15  -3  -1   -0.51    0.82
 -13  -3  -1    0.96    0.79
 -11  -3  -1   68.35    2.62
  -9  -3  -1    0.22    0.57
  -7  -3  -1   28.31    1.56
  -5  -3  -1    7.04    0.71
  -3  -3  -1  218.84    3.55
  -1  -3  -1    2.41    0.34
   1  -3  -1    0.83    0.33
   3  -3  -1    8.88    0.67
   5  -3  -1  128.97    2.35
   7  -3  -1    7.28    0.64
   9  -3  -1  106.56    2.80
  11  -3  -1  180.38    5.25
  13  -3  -1   16.25    1.88
  15  -3  -1    3.79    1.21
  17  -3  -1    1.80    1.22
  19  -3  -1   28.25    3.02
  21  -3  -1   51.79    6.45
 -20  -2  -1  108.87    6.74
 -18  -2  -1    5.88    1.87
 -16  -2  -1    0.10    0.84
 -14  -2  -1    0.07    0.69
 -12  -2  -1   30.56    2.13
 -10  -2  -1   29.23    1.43
  -8  -2  -1  191.32    3.34
  -6  -2  -1  266.97    3.92
  -4  -2  -1   15.33    0.84
  -2  -2  -1    0.67    0.24
   0  -2  -1    4.36    0.39
   2  -2  -1    0.34    0.20
   4  -2  -1   -0.16    0.18
   6  -2  -1  243.02    4.12
   8  -2  -1    3.44    0.55
  10  -2  -1   78.22    2.23
  12  -2  -1   90.69    2.66
  14  -2  -1    8.24    1.12
  16  -2  -1   20.31    1.74
  18  -2  -1    3.24    1.29
  20  -2  -1    4.88    1.58
  22  -2  -1   14.27    2.30
 -21  -1  -1    0.70    1.55
 -19  -1  -1    2.02    1.43
 -17  -1  -1    5.32    1.15
 -15  -1  -1    0.51    0.70
 -13  -1  -1    0.84    0.56
 -11  -1  -1  102.46    2.68
  -9  -1  -1   -0.41    0.33
  -7  -1  -1   46.68    1.40
  -5  -1  -1   17.16    0.70
  -3  -1  -1  415.82    4.60
  -1  -1  -1    7.18    0.42
   1  -1  -1    2.13    0.22
   3  -1  -1   20.84    0.72
   5  -1  -1  243.53    3.83
   7  -1  -1   17.34    0.93
   9  -1  -1  185.78    3.58
  11  -1  -1  289.96    5.29
  13  -1  -1   28.42    1.80
  15  -1  -1    6.23    0.99
  17  -1  -1    3.06    0.82
  19  -1  -1   37.95    2.45
  21  -1  -1   61.31    3.90
  23  -1  -1   17.87    2.44
 -22   0  -1   -0.48    1.08
 -20   0  -1  104.88    4.69
 -18   0  -1    9.79    1.51
 -16   0  -1    0.30    0.71
 -14   0  -1   -0.18    0.65
 -12   0  -1   38.40    1.58
 -10   0  -1   38.09    1.38
  -8   0  -1  254.05    4.05
  -6   0  -1  372.18    4.98
  -4   0  -1   23.72    0.68
  -2   0  -1    1.34    0.18
   0   0  -1   10.93    0.27
   2   0  -1    0.93    0.19
   4   0  -1    0.14    0.26
   6   0  -1  361.92    5.12
   8   0  -1    4.75    0.51
  10   0  -1  108.68    2.32
  12   0  -1  122.54    2.67
  14   0  -1    9.50    1.27
  16   0  -1   19.73    1.89
  18   0  -1    4.38    1.09
  20   0  -1    5.44    1.25
  22   0  -1   16.02    1.76
  24   0  -1    0.64    2.09
 -21   1  -1    0.59    1.28
 -19   1  -1    0.31    1.13
 -17   1  -1    2.98    1.12
 -15   1  -1    0.40    0.56
 -13   1  -1    0.37    0.50
 -11   1  -1  104.86    2.70
  -9   1  -1    0.22    0.31
  -7   1  -1   45.60    1.18
  -5   1  -1   17.84    0.73
  -3   1  -1  408.71    5.16
  -1   1  -1    7.21    0.40
   1   1  -1    1.68    0.21
   3   1  -1   21.04    0.62
   5   1  -1  242.32    3.62
   7   1  -1   15.58    0.77
   9   1  -1  179.71    2.73
  11   1  -1  284.02    4.82
  13   1  -1   28.03    1.47
  15   1  -1    6.24    0.84
  17   1  -1    2.44    0.94
  19   1  -1   43.22    3.06
  21   1  -1   62.61    3.41
  23   1  -1   13.63    1.94
 -20   2  -1   86.23    6.60
 -18   2  -1    7.92    1.88
 -16   2  -1   -0.14    0.69
 -14   2  -1    0.26    0.66
 -12   2  -1   32.52    2.05
 -10   2  -1   29.07    1.32
  -8   2  -1  191.17    3.31
  -6   2  -1  257.42    3.98
  -4   2  -1   15.32    1.00
  -2   2  -1    0.49    0.22
   0   2  -1    6.06    0.36
   2   2  -1    0.54    0.23
   4   2  -1    0.24    0.24
   6   2  -1  243.23    3.37
   8   2  -1    2.82    0.49
  10   2  -1   83.93    2.09
  12   2  -1   94.75    2.57
  14   2  -1    7.30    0.93
  16   2  -1   16.58    1.39
  18   2  -1    4.04    0.88
  20   2  -1    4.35    1.25
  22   2  -1   11.06    1.85
 -19   3  -1    0.40    1.00
 -17   3  -1    3.26    1.15
 -15   3  -1    1.73    0.88
 -13   3  -1   -0.05    0.66
 -11   3  -1   68.19    2.63
  -9   3  -1    0.47    0.44
  -7   3  -1   29.34    1.62
  -5   3  -1    8.65    0.93
  -3   3  -1  216.27    3.40
  -1   3  -1    3.47    0.35
   1   3  -1    0.57    0.25
   3   3  -1    8.03    0.63
   5   3  -1  132.20    2.37
   7   3  -1    8.98    0.90
   9   3  -1  105.35    2.67
  11   3  -1  181.47    3.84
  13   3  -1   19.31    1.78
  15   3  -1    4.90    0.94
  17   3  -1    1.84    0.84
  19   3  -1   27.91    1.99
  21   3  -1   43.26    4.89
 -16   4  -1    0.48    1.17
 -14   4  -1    0.21    1.05
 -12   4  -1   16.41    2.17
 -10   4  -1   17.03    1.59
  -8   4  -1   98.27    3.10
  -6   4  -1  137.04    3.65
  -4   4  -1    8.21    1.06
  -2   4  -1    0.00    0.37
   0   4  -1    2.16    0.48
   2   4  -1    0.23    0.46
   4   4  -1    0.07    0.62
   6   4  -1  121.31    3.05
   8   4  -1    0.75    0.57
  10   4  -1   51.29    2.07
  12   4  -1   50.03    2.65
  14   4  -1    2.37    1.05
  16   4  -1   11.17    1.68
  18   4  -1    1.19    1.18
 -13   5  -1    1.05    1.30
 -11   5  -1   42.97    3.65
  -9   5  -1    0.23    0.76
  -7   5  -1   14.04    2.00
  -5   5  -1    0.84    0.93
  -3   5  -1   98.03    4.04
  -1   5  -1    0.45    0.84
   1   5  -1    0.82    0.63
   3   5  -1    4.79    1.18
   5   5  -1   66.31    3.11
   7   5  -1    2.17    1.09
   9   5  -1   54.53    3.14
  11   5  -1   88.63    5.29
  13   5  -1   11.85    2.56
  15   5  -1    1.38    1.19
  -8   6  -1   41.40    3.61
  -6   6  -1   67.27    3.94
  -4   6  -1    3.72    1.55
  -2   6  -1   -0.12    1.73
   0   6  -1    3.64    2.08
   2   6  -1   -0.04    1.82
   4   6  -1    0.03    1.07
   6   6  -1   53.02    3.71
   8   6  -1    0.86    1.23
  -8  -6   0    0.75    2.09
  -6  -6   0    2.34    2.20
  -4  -6   0    1.19    2.00
  -2  -6   0   -1.32    1.46
   0  -6   0  220.41   10.54
   2  -6   0    0.73    1.54
   4  -6   0    1.56    1.77
   6  -6   0    5.26    2.36
   8  -6   0    0.59    1.75
 -15  -5   0   23.66    4.10
 -13  -5   0    6.50    1.82
 -11  -5   0   12.99    2.19
  -9  -5   0   27.02    2.67
  -7  -5   0   42.54    3.16
  -5  -5   0   85.04    3.66
  -3  -5   0   14.16    1.40
  -1  -5   0    2.80    0.81
   1  -5   0    2.75    0.79
   3  -5   0   11.92    1.26
   5  -5   0   90.51    2.93
   7  -5   0   43.57    2.33
   9  -5   0   24.88    2.53
  11  -5   0   17.67    2.25
  13  -5   0    7.39    1.82
  15  -5   0   31.83    4.87
 -18  -4   0    0.46    1.55
 -16  -4   0   42.89    2.97
 -14  -4   0  116.96    3.97
 -12  -4   0   10.17    1.41
 -10  -4   0    4.72    0.97
  -8  -4   0    2.62    0.77
  -6  -4   0    7.03    0.96
  -4  -4   0    2.88    0.69
  -2  -4   0    2.11    0.62
   0  -4   0  508.20   10.15
   2  -4   0    1.32    0.55
   4  -4   0    2.65    0.64
   6  -4   0    5.88    0.89
   8  -4   0    3.04    0.77
  10  -4   0    5.76    1.01
  12  -4   0   11.58    1.40
  14  -4   0  116.75    3.93
  16  -4   0   47.26    3.19
  18  -4   0    0.96    1.35
 -19  -3   0    8.85    2.35
 -17  -3   0   68.65    3.36
 -15  -3   0   41.90    2.78
 -13  -3   0   10.86    1.36
 -11  -3   0   22.23    1.73
  -9  -3   0   55.31    2.10
  -7  -3   0   82.97    2.40
  -5  -3   0  181.12    3.07
  -3  -3   0   30.73    1.06
  -1  -3   0    4.36    0.43
   1  -3   0    4.52    0.48
   3  -3   0   31.17    1.00
   5  -3   0  180.53    3.64
   7  -3   0   81.53    2.30
   9  -3   0   52.76    2.01
  11  -3   0   23.19    2.15
  13  -3   0    8.94    1.57
  15  -3   0   42.73    3.43
  17  -3   0   69.10    4.05
  19  -3   0   10.23    2.16
 -22  -2   0    1.27    3.31
 -20  -2   0   14.27    2.59
 -18  -2   0   -0.26    1.30
 -16  -2   0   69.78    4.20
 -14  -2   0  191.95    4.13
 -12  -2   0   17.36    1.27
 -10  -2   0   10.59    0.92
  -8  -2   0    9.02    0.77
  -6  -2   0   13.35    0.80
  -4  -2   0    6.47    0.50
  -2  -2   0    3.52    0.32
   0  -2   0  985.58   11.28
   2  -2   0    4.29    0.36
   4  -2   0    5.95    0.44
   6  -2   0   12.74    0.78
   8  -2   0    7.91    0.72
  10  -2   0    9.74    0.97
  12  -2   0   19.37    1.47
  14  -2   0  190.72    6.06
  16  -2   0   67.24    3.68
  18  -2   0   -0.70    1.01
  20  -2   0   14.65    2.32
  22  -2   0   -0.85    2.01
 -23  -1   0    5.19    3.15
 -21  -1   0   68.03    3.76
 -19  -1   0   23.50    2.17
 -17  -1   0   97.98    3.57
 -15  -1   0   72.79    2.90
 -13  -1   0   15.70    1.55
 -11  -1   0   34.83    1.56
  -9  -1   0   90.63    2.17
  -7  -1   0  149.33    2.65
  -5  -1   0  340.84    4.52
  -3  -1   0   62.09    1.17
  -1  -1   0    7.71    0.32
   1  -1   0    7.48    0.34
   3  -1   0   63.90    1.27
   5  -1   0  349.52    5.07
   7  -1   0  146.29    2.90
   9  -1   0   90.27    2.38
  11  -1   0   33.54    1.65
  13  -1   0   17.57    1.46
  15  -1   0   70.44    2.62
  17  -1   0  103.61    3.38
  19  -1   0   19.30    1.84
  21  -1   0   48.73    3.85
 -22   0   0    2.11    1.29
 -20   0   0   15.37    1.88
 -18   0   0    0.22    0.78
 -16   0   0   85.71    3.23
 -14   0   0  245.41    6.52
 -12   0   0   23.64    1.26
 -10   0   0   13.81    0.97
  -8   0   0   12.29    0.74
  -6   0   0   19.09    0.80
  -4   0   0    8.31    0.51
  -2   0   0    7.39    0.32
   2   0   0    7.92    0.43
   4   0   0    8.91    0.48
   6   0   0   18.85    0.74
   8   0   0   11.89    0.73
  10   0   0   14.93    0.91
  12   0   0   25.58    1.24
  14   0   0  252.10    6.18
  16   0   0   81.15    3.32
  18   0   0    0.52    0.82
  20   0   0   12.58    1.80
  22   0   0    1.00    1.07
 -21   1   0   63.28    4.09
 -19   1   0   20.91    2.55
 -17   1   0   92.47    4.18
 -15   1   0   64.23    2.31
 -13   1   0   15.04    1.25
 -11   1   0   30.82    1.47
  -9   1   0   90.27    1.72
  -7   1   0  144.48    2.38
  -5   1   0  329.87    4.34
  -3   1   0   61.36    1.15
  -1   1   0    8.28    0.38
   1   1   0    7.75    0.43
   3   1   0   61.71    1.26
   5   1   0  328.20    4.70
   7   1   0  147.33    2.50
   9   1   0   88.44    2.45
  11   1   0   33.70    1.36
  13   1   0   15.47    1.16
  15   1   0   68.29    2.22
  17   1   0   93.43    3.84
  19   1   0   15.39    1.86
  21   1   0   64.44    3.52
 -22   2   0    0.01    2.34
 -20   2   0    8.46    1.90
 -18   2   0   -0.05    0.75
 -16   2   0   72.52    2.87
 -14   2   0  196.36    5.70
 -12   2   0   17.99    1.50
 -10   2   0   11.51    0.89
  -8   2   0    8.89    0.73
  -6   2   0   12.18    0.78
  -4   2   0    6.69    0.46
  -2   2   0    3.78    0.38
   0   2   0  984.23   11.22
   2   2   0    2.77    0.39
   4   2   0    6.33    0.46
   6   2   0   12.27    0.82
   8   2   0    8.07    0.74
  10   2   0   11.07    0.88
  12   2   0   16.71    1.47
  14   2   0  195.56    4.20
  16   2   0   68.16    2.48
  18   2   0   -0.42    0.81
  20   2   0   13.74    1.97
  22   2   0    0.10    1.83
 -19   3   0   12.85    1.86
 -17   3   0   71.75    3.80
 -15   3   0   43.93    2.78
 -13   3   0   12.09    1.46
 -11   3   0   23.63    1.43
  -9   3   0   51.27    1.68
  -7   3   0   80.04    2.40
  -5   3   0  182.58    2.97
  -3   3   0   29.48    1.05
  -1   3   0    3.88    0.47
   1   3   0    4.95    0.62
   3   3   0   30.16    1.04
   5   3   0  185.40    2.96
   7   3   0   82.08    2.24
   9   3   0   52.99    1.83
  11   3   0   21.24    1.77
  13   3   0   11.00    1.45
  15   3   0   44.86    2.68
  17   3   0   70.24    2.75
  19   3   0   13.97    1.56
 -18   4   0    0.47    1.34
 -16   4   0   46.03    3.83
 -14   4   0  103.12    4.70
 -12   4   0    9.11    1.66
 -10   4   0    5.41    0.92
  -8   4   0    3.47    0.81
  -6   4   0    7.77    1.00
  -4   4   0    3.52    0.73
  -2   4   0    2.18    0.60
   0   4   0  512.55    8.02
   2   4   0    1.60    0.45
   4   4   0    3.39    0.71
   6   4   0    6.84    0.93
   8   4   0    4.06    0.80
  10   4   0    6.34    0.98
  12   4   0   12.49    1.64
  14   4   0  115.47    4.23
  16   4   0   40.92    3.01
  18   4   0    0.53    0.96
 -15   5   0   24.90    4.44
 -13   5   0    6.12    2.20
 -11   5   0   12.82    3.05
  -9   5   0   26.62    2.67
  -7   5   0   40.82    3.24
  -5   5   0   82.65    3.79
  -3   5   0   13.14    1.83
  -1   5   0    3.84    0.83
   1   5   0    2.93    1.05
   3   5   0   12.26    1.61
   5   5   0   92.64    3.68
   7   5   0   36.37    2.82
   9   5   0   28.68    2.52
  11   5   0   11.09    1.71
  13   5   0    5.09    1.41
  15   5   0   19.61    3.49
 -10   6   0    3.13    2.24
  -8   6   0    1.76    1.39
  -6   6   0    2.69    1.41
  -4   6   0    1.64    1.29
  -2   6   0   -0.18    1.58
   0   6   0  229.20   10.45
   2   6   0    0.22    1.58
   4   6   0    2.34    1.31
   6   6   0    3.74    1.47
   8   6   0    2.77    1.37
 -10  -6   1   27.81    4.30
  -8  -6   1    0.17    1.26
  -6  -6   1   56.22    4.06
  -4  -6   1    0.83    1.19
  -2  -6   1    0.23    1.16
   0  -6   1    1.56    1.25
   2  -6   1    0.72    1.62
   4  -6   1    7.47    2.50
   6  -6   1   61.65    6.44
 -15  -5   1    0.79    1.54
 -13  -5   1    8.03    1.97
 -11  -5   1   87.20    4.18
  -9  -5   1   49.13    3.57
  -7  -5   1    4.73    1.24
  -5  -5   1   67.65    3.25
  -3  -5   1    4.08    1.21
  -1  -5   1   -0.52    0.75
   1  -5   1    1.81    0.94
   3  -5   1  103.76    3.98
   5  -5   1    2.28    1.01
   7  -5   1   13.87    1.87
   9  -5   1    0.51    1.01
  11  -5   1   40.53    3.46
  13  -5   1    1.53    1.40
  15  -5   1   -0.71    2.46
 -18  -4   1    2.13    1.65
 -16  -4   1    8.99    2.04
 -14  -4   1    2.59    1.27
 -12  -4   1   49.58    3.54
 -10  -4   1   47.61    2.71
  -8  -4   1    0.47    0.58
  -6  -4   1  122.43    3.18
  -4  -4   1   -0.18    0.46
  -2  -4   1    0.75    0.47
   0  -4   1    2.10    0.51
   2  -4   1    0.04    0.47
   4  -4   1    9.55    1.02
   6  -4   1  134.66    3.45
   8  -4   1   94.35    2.97
  10  -4   1   16.05    1.56
  12  -4   1   17.36    1.76
  14  -4   1    0.23    0.98
  16  -4   1    0.70    1.22
  18  -4   1    3.28    2.01
 -21  -3   1   40.13    7.42
 -19  -3   1   28.32    3.40
 -17  -3   1    1.01    1.33
 -15  -3   1    3.02    1.06
 -13  -3   1   18.52    1.67
 -11  -3   1  180.71    4.27
  -9  -3   1  108.40    2.47
  -7  -3   1    8.94    0.79
  -5  -3   1  130.04    2.47
  -3  -3   1    8.88    0.70
  -1  -3   1    0.64    0.33
   1  -3   1    2.16    0.50
   3  -3   1  226.59    4.11
   5  -3   1   10.19    0.93
   7  -3   1   28.91    1.58
   9  -3   1    0.23    0.52
  11  -3   1   65.30    3.20
  13  -3   1    1.36    0.96
  15  -3   1   -0.41    0.98
  17  -3   1    2.06    1.40
  19  -3   1    1.89    1.61
 -22  -2   1   18.91    2.95
 -20  -2   1    4.86    1.77
 -18  -2   1    2.16    0.98
 -16  -2   1   16.91    1.75
 -14  -2   1   10.03    1.29
 -12  -2   1   91.91    2.43
 -10  -2   1   82.27    2.09
  -8  -2   1    2.94    0.36
  -6  -2   1  244.52    3.67
  -4  -2   1   -0.13    0.21
  -2  -2   1    0.37    0.22
   0  -2   1    5.38    0.51
   2  -2   1    0.46    0.28
   4  -2   1   16.10    0.97
   6  -2   1  264.18    4.30
   8  -2   1  186.58    3.72
  10  -2   1   32.64    2.47
  12  -2   1   29.06    2.57
  14  -2   1    0.91    1.06
  16  -2   1    0.80    1.09
  18  -2   1    8.66    1.94
  20  -2   1   95.70    4.99
 -23  -1   1   16.60    2.06
 -21  -1   1   60.37    3.29
 -19  -1   1   39.31    2.79
 -17  -1   1    3.88    1.02
 -15  -1   1    8.07    1.23
 -13  -1   1   25.20    1.91
 -11  -1   1  286.55    4.47
  -9  -1   1  180.66    2.96
  -7  -1   1   15.00    0.64
  -5  -1   1  242.88    2.96
  -3  -1   1   20.64    0.64
  -1  -1   1    1.88    0.22
   1  -1   1    7.24    0.46
   3  -1   1  421.06    5.83
   5  -1   1   19.50    0.86
   7  -1   1   45.53    1.52
   9  -1   1    0.52    0.46
  11  -1   1  102.18    2.96
  13  -1   1    0.87    0.56
  15  -1   1    0.59    0.61
  17  -1   1    4.01    1.02
  19  -1   1    1.12    1.10
  21  -1   1   -0.80    1.11
 -24   0   1   -0.64    3.19
 -22   0   1   21.31    2.31
 -20   0   1    3.81    1.21
 -18   0   1    2.36    0.94
 -16   0   1   19.53    1.84
 -14   0   1   10.19    0.97
 -12   0   1  125.09    2.74
 -10   0   1  109.92    2.36
  -8   0   1    3.96    0.50
  -6   0   1  367.95    5.00
  -4   0   1    0.45    0.27
  -2   0   1    0.79    0.19
   4   0   1   23.89    0.86
   6   0   1  378.75    5.33
   8   0   1  247.14    3.97
  10   0   1   38.34    1.27
  12   0   1   41.06    1.48
  14   0   1   -0.33    0.60
  16   0   1    0.21    0.73
  18   0   1   10.03    1.53
  20   0   1   98.38    4.27
  22   0   1    0.36    0.92
 -23   1   1   13.79    2.45
 -21   1   1   57.18    3.92
 -19   1   1   37.37    3.30
 -17   1   1    2.22    0.82
 -15   1   1    6.75    0.99
 -13   1   1   26.97    1.62
 -11   1   1  278.07    5.29
  -9   1   1  172.04    2.86
  -7   1   1   14.08    0.71
  -5   1   1  241.98    3.33
  -3   1   1   20.69    0.63
  -1   1   1    1.34    0.27
   1   1   1    7.10    0.48
   3   1   1  416.53    5.55
   5   1   1   18.58    0.74
   7   1   1   47.25    1.24
   9   1   1    0.09    0.29
  11   1   1  102.91    2.89
  13   1   1    0.88    0.48
  15   1   1    0.04    0.62
  17   1   1    3.80    1.05
  19   1   1    0.86    0.99
  21   1   1    0.44    1.03
 -22   2   1   10.65    2.32
 -20   2   1    3.10    1.52
 -18   2   1    2.69    0.94
 -16   2   1   17.16    1.67
 -14   2   1    8.23    1.12
 -12   2   1   95.29    2.92
 -10   2   1   80.00    1.95
  -8   2   1    2.53    0.44
  -6   2   1  241.57    3.04
  -4   2   1   -0.04    0.20
  -2   2   1    0.28    0.21
   0   2   1    5.63    0.40
   2   2   1    0.36    0.26
   4   2   1   14.86    0.73
   6   2   1  257.78    4.28
   8   2   1  188.71    3.50
  10   2   1   28.42    1.33
  12   2   1   30.89    2.03
  14   2   1    0.06    0.62
  16   2   1   -0.67    0.56
  18   2   1    6.52    1.40
  20   2   1   85.78    4.21
 -21   3   1   44.80    5.02
 -19   3   1   27.53    2.88
 -17   3   1    1.29    0.95
 -15   3   1    5.45    1.13
 -13   3   1   17.73    1.67
 -11   3   1  182.33    4.13
  -9   3   1  108.39    2.43
  -7   3   1    7.72    0.90
  -5   3   1  127.62    2.39
  -3   3   1    8.70    0.67
  -1   3   1    0.78    0.30
   1   3   1    1.55    0.45
   3   3   1  222.26    3.93
   5   3   1   10.56    0.95
   7   3   1   27.53    1.46
   9   3   1   -0.07    0.43
  11   3   1   65.32    2.78
  13   3   1    0.14    0.64
  15   3   1   -0.72    0.68
  17   3   1    2.39    0.93
  19   3   1    0.31    1.08
 -18   4   1    2.41    1.43
 -16   4   1   11.79    2.07
 -14   4   1    3.71    1.37
 -12   4   1   53.42    3.42
 -10   4   1   49.87    2.23
  -8   4   1    0.98    0.61
  -6   4   1  121.31    3.27
  -4   4   1   -0.07    0.47
  -2   4   1    1.54    0.58
   0   4   1    2.12    0.61
   2   4   1    0.10    0.46
   4   4   1    8.71    0.97
   6   4   1  142.31    3.42
   8   4   1   95.86    2.84
  10   4   1   14.81    1.38
  12   4   1   15.06    1.72
  14   4   1    1.66    0.99
  16   4   1   -0.03    1.00
  18   4   1    6.40    2.62
 -15   5   1    4.03    2.18
 -13   5   1    3.01    2.13
 -11   5   1   87.42    4.07
  -9   5   1   50.44    3.23
  -7   5   1    2.22    1.10
  -5   5   1   64.85    3.35
  -3   5   1    3.79    1.20
  -1   5   1    1.45    0.68
   1   5   1    2.43    0.99
   3   5   1  111.38    6.01
   5   5   1    2.17    1.03
   7   5   1   15.21    1.53
   9   5   1    1.72    0.88
  11   5   1   43.46    3.15
  13   5   1   -0.40    1.07
 -10   6   1   32.53    4.51
  -8   6   1   -0.31    1.22
  -6   6   1   57.50    4.21
  -4   6   1   -0.72    1.08
  -2   6   1    1.56    1.77
   0   6   1    2.55    2.00
   2   6   1    1.38    1.19
   4   6   1    3.90    1.42
   6   6   1   70.18    3.79
   8   6   1   44.61    3.55
 -10  -6   2    1.24    1.55
  -8  -6   2    4.66    1.64
  -6  -6   2   69.36    3.90
  -4  -6   2   11.88    2.10
  -2  -6   2    4.07    1.50
   0  -6   2    1.80    1.33
   2  -6   2   31.85    3.06
   4  -6   2   -0.11    1.20
   6  -6   2    0.71    1.30
   8  -6   2    8.97    2.78
 -15  -5   2   58.47    4.47
 -13  -5   2    6.12    1.74
 -11  -5   2    0.66    1.13
  -9  -5   2    1.12    1.10
  -7  -5   2    0.76    0.95
  -5  -5   2    1.73    1.05
  -3  -5   2  121.95    4.50
  -1  -5   2   37.60    2.88
   1  -5   2   89.57    3.77
   3  -5   2    0.39    0.87
   5  -5   2    1.50    1.01
   7  -5   2   10.55    1.78
   9  -5   2   23.74    2.67
  11  -5   2   42.47    3.76
  13  -5   2    2.13    2.14
 -18  -4   2   24.21    3.21
 -16  -4   2   18.29    2.53
 -14  -4   2   16.89    2.24
 -12  -4   2    5.36    1.32
 -10  -4   2    3.18    1.09
  -8  -4   2    9.93    1.48
  -6  -4   2  155.87    4.71
  -4  -4   2   19.58    1.48
  -2  -4   2    7.83    0.99
   0  -4   2    4.74    0.83
   2  -4   2   68.74    2.84
   4  -4   2    0.99    0.73
   6  -4   2    3.71    1.06
   8  -4   2   32.49    2.69
  10  -4   2   45.02    3.36
  12  -4   2   42.90    3.57
  14  -4   2   42.91    3.97
  16  -4   2    8.86    2.37
 -21  -3   2    0.27    1.80
 -19  -3   2   11.71    2.40
 -17  -3   2   10.87    2.10
 -15  -3   2   87.71    4.05
 -13  -3   2    7.02    0.92
 -11  -3   2    0.91    0.50
  -9  -3   2    0.96    0.45
  -7  -3   2   -0.17    0.37
  -5  -3   2    7.22    0.68
  -3  -3   2  259.90    3.97
  -1  -3   2   84.76    1.83
   1  -3   2  198.17    3.70
   3  -3   2    0.19    0.40
   5  -3   2    4.52    0.70
   7  -3   2   24.64    1.61
   9  -3   2   40.46    2.01
  11  -3   2   76.83    2.92
  13  -3   2   -0.91    0.98
  15  -3   2   73.46    4.83
  17  -3   2   50.00    4.61
  19  -3   2    0.16    2.20
 -22  -2   2    0.00    1.85
 -20  -2   2  113.55    4.19
 -18  -2   2   34.67    2.64
 -16  -2   2   28.74    2.23
 -14  -2   2   31.84    2.16
 -12  -2   2    8.20    1.02
 -10  -2   2    2.22    0.54
  -8  -2   2   20.85    0.86
  -6  -2   2  306.79    4.31
  -4  -2   2   29.29    0.90
  -2  -2   2   14.52    0.63
   0  -2   2   10.78    0.66
   2  -2   2  132.16    2.52
   4  -2   2    3.91    0.56
   6  -2   2    6.08    0.98
   8  -2   2   68.16    2.90
  10  -2   2   65.97    3.26
  12  -2   2   78.60    4.00
  14  -2   2   64.29    4.17
  16  -2   2    7.96    1.93
  18  -2   2   31.14    3.30
  20  -2   2    6.02    1.92
 -23  -1   2   32.50    3.31
 -21  -1   2    0.38    1.02
 -19  -1   2   17.82    1.88
 -17  -1   2   16.47    1.68
 -15  -1   2  127.07    3.83
 -13  -1   2   13.28    1.43
 -11  -1   2    0.63    0.38
  -9  -1   2    0.79    0.35
  -7  -1   2   -0.21    0.25
  -5  -1   2   15.47    0.83
  -3  -1   2  473.01    6.71
  -1  -1   2  161.30    2.74
   1  -1   2  361.87    5.14
   3  -1   2    2.19    0.32
   5  -1   2    9.27    0.73
   7  -1   2   44.53    1.13
   9  -1   2   58.29    2.15
  11  -1   2  120.92    3.39
  13  -1   2    0.40    0.63
  15  -1   2  107.84    4.70
  17  -1   2   66.79    3.72
  19  -1   2    1.24    1.19
  21  -1   2    4.31    2.20
 -24   0   2    0.32    1.31
 -22   0   2    0.05    0.98
 -20   0   2  137.05    4.53
 -18   0   2   44.39    2.79
 -16   0   2   35.58    2.40
 -14   0   2   46.54    1.75
 -12   0   2   11.28    0.94
 -10   0   2    4.47    0.47
  -8   0   2   30.19    1.11
  -6   0   2  442.20    5.77
  -4   0   2   46.12    1.20
  -2   0   2   21.33    0.74
   0   0   2   17.43    0.77
   6   0   2    8.42    0.72
   8   0   2   82.38    1.93
  10   0   2   84.74    2.09
  12   0   2   96.68    3.34
  14   0   2   79.43    3.22
  16   0   2    8.78    1.45
  18   0   2   38.62    2.94
  20   0   2    9.21    1.65
 -23   1   2   27.73    3.17
 -21   1   2    1.44    1.32
 -19   1   2   20.64    2.51
 -17   1   2   18.35    1.62
 -15   1   2  117.43    3.38
 -13   1   2   15.68    1.37
 -11   1   2    0.67    0.34
  -9   1   2    1.32    0.36
  -7   1   2    0.54    0.29
  -5   1   2   17.13    0.78
  -3   1   2  473.91    6.96
  -1   1   2  168.41    2.87
   1   1   2  368.34    5.33
   3   1   2    1.38    0.37
   5   1   2   10.04    0.71
   7   1   2   44.05    1.32
   9   1   2   62.48    1.65
  11   1   2  123.86    3.37
  13   1   2    0.28    0.45
  15   1   2  105.72    3.95
  17   1   2   69.23    3.33
  19   1   2    1.65    1.10
  21   1   2    3.65    1.92
 -22   2   2   -0.13    1.28
 -20   2   2  116.90    4.78
 -18   2   2   41.19    2.67
 -16   2   2   25.83    2.05
 -14   2   2   35.50    2.08
 -12   2   2   10.66    0.89
 -10   2   2    2.68    0.52
  -8   2   2   22.88    1.07
  -6   2   2  296.23    5.17
  -4   2   2   32.13    1.23
  -2   2   2   14.43    0.70
   0   2   2    9.67    0.76
   2   2   2  131.65    2.57
   4   2   2    3.16    0.46
   6   2   2    4.72    0.75
   8   2   2   64.33    1.87
  10   2   2   64.63    2.48
  12   2   2   76.54    2.88
  14   2   2   67.25    2.76
  16   2   2    7.97    1.10
  18   2   2   28.93    2.64
  20   2   2    7.32    1.60
 -21   3   2    0.87    1.29
 -19   3   2   17.17    2.35
 -17   3   2    8.75    1.83
 -15   3   2   85.37    3.97
 -13   3   2    7.85    1.17
 -11   3   2    0.78    0.45
  -9   3   2    0.95    0.53
  -7   3   2   -0.12    0.33
  -5   3   2    8.12    0.71
  -3   3   2  259.51    3.95
  -1   3   2   79.38    2.20
   1   3   2  196.18    3.75
   3   3   2    0.40    0.43
   5   3   2    6.86    1.04
   7   3   2   27.08    1.57
   9   3   2   38.16    1.67
  11   3   2   80.58    3.10
  13   3   2   -0.01    0.65
  15   3   2   71.05    3.22
  17   3   2   51.36    2.72
 -18   4   2   30.70    3.37
 -16   4   2   13.59    2.21
 -14   4   2   21.04    2.60
 -12   4   2    5.44    0.99
 -10   4   2    1.91    0.77
  -8   4   2   10.91    1.54
  -6   4   2  162.95    5.01
  -4   4   2   18.45    1.38
  -2   4   2    7.75    0.93
   0   4   2    3.70    0.72
   2   4   2   65.09    2.70
   4   4   2    1.77    0.81
   6   4   2    3.60    0.80
   8   4   2   34.63    2.01
  10   4   2   41.53    2.55
  12   4   2   52.17    2.99
  14   4   2   40.66    2.95
  16   4   2    4.15    1.34
 -15   5   2   53.33    5.96
 -13   5   2    2.91    2.00
 -11   5   2    0.02    0.99
  -9   5   2    0.15    0.99
  -7   5   2    2.44    1.10
  -5   5   2    2.45    1.03
  -3   5   2  128.08    4.69
  -1   5   2   40.32    2.81
   1   5   2  101.90    3.86
   3   5   2   -0.18    0.68
   5   5   2    0.86    0.79
   7   5   2   11.94    1.42
   9   5   2   20.71    1.81
  11   5   2   39.66    3.06
  13   5   2    1.75    1.90
 -10   6   2   -0.82    1.73
  -8   6   2    2.62    1.41
  -6   6   2   69.82    4.08
  -4   6   2   10.57    3.09
  -2   6   2    2.86    2.06
   0   6   2    2.88    1.94
   2   6   2   27.07    2.75
   4   6   2    0.82    1.21
   6   6   2    2.64    1.42
   8   6   2   16.02    3.59
 -10  -6   3    4.11    2.67
  -8  -6   3    9.59    2.03
  -6  -6   3   16.85    2.45
  -4  -6   3   42.10    3.62
  -2  -6   3    1.15    1.38
   0  -6   3   77.17    4.03
   2  -6   3    9.04    1.79
   4  -6   3   31.20    3.19
 -15  -5   3    1.40    2.02
 -13  -5   3    2.00    1.41
 -11  -5   3   48.66    3.74
  -9  -5   3  113.94    4.68
  -7  -5   3    0.85    1.03
  -5  -5   3    3.06    1.19
  -3  -5   3    5.09    1.30
  -1  -5   3    3.83    1.25
   1  -5   3   10.80    1.42
   3  -5   3    1.68    0.88
   5  -5   3  131.26    5.00
   7  -5   3   30.47    2.89
   9  -5   3   19.84    2.62
  11  -5   3    2.69    1.67
 -18  -4   3   23.69    3.98
 -16  -4   3   21.76    3.69
 -14  -4   3   65.36    3.60
 -12  -4   3   87.09    3.84
 -10  -4   3    4.17    1.21
  -8  -4   3   29.33    1.95
  -6  -4   3   32.79    1.89
  -4  -4   3   99.91    2.92
  -2  -4   3    6.21    0.95
   0  -4   3  166.80    4.02
   2  -4   3   17.25    1.79
   4  -4   3   57.49    2.88
   6  -4   3    0.35    0.76
   8  -4   3    3.96    1.22
  10  -4   3   39.09    3.31
  12  -4   3   17.73    2.54
  14  -4   3   20.05    2.96
 -21  -3   3    1.45    2.00
 -19  -3   3    3.36    2.05
 -17  -3   3   47.45    5.00
 -15  -3   3    6.92    1.23
 -13  -3   3    0.30    0.66
 -11  -3   3   99.34    2.99
  -9  -3   3  205.20    4.48
  -7  -3   3   -0.16    0.49
  -5  -3   3    4.30    0.74
  -3  -3   3   15.86    1.23
  -1  -3   3    5.24    0.77
   1  -3   3   28.68    2.02
   3  -3   3    4.90    0.93
   5  -3   3  263.42    6.44
   7  -3   3   56.04    2.15
   9  -3   3   41.25    2.27
  11  -3   3    4.67    1.13
  13  -3   3   -0.02    1.00
  15  -3   3   32.65    3.86
  17  -3   3    8.66    3.90
 -22  -2   3    1.06    1.34
 -20  -2   3   22.00    2.50
 -18  -2   3   37.49    3.07
 -16  -2   3   28.31    2.22
 -14  -2   3  119.05    3.61
 -12  -2   3  159.69    3.93
 -10  -2   3   12.63    0.96
  -8  -2   3   51.52    1.50
  -6  -2   3   61.43    1.83
  -4  -2   3  184.09    3.49
  -2  -2   3   10.54    0.86
   0  -2   3  337.73    5.03
   2  -2   3   40.76    1.29
   4  -2   3  113.63    2.61
   6  -2   3   -0.15    0.45
   8  -2   3    5.08    1.22
  10  -2   3   66.78    3.57
  12  -2   3   21.58    2.69
  14  -2   3   43.36    3.89
  16  -2   3   -0.85    1.18
  18  -2   3    2.93    1.64
 -23  -1   3    2.63    1.49
 -21  -1   3    1.72    1.22
 -19  -1   3    4.26    1.30
 -17  -1   3   70.16    2.96
 -15  -1   3   13.17    1.48
 -13  -1   3    1.29    0.51
 -11  -1   3  145.98    2.98
  -9  -1   3  329.90    4.89
  -7  -1   3    0.48    0.31
  -5  -1   3    8.77    0.67
  -3  -1   3   27.88    0.93
  -1  -1   3    9.21    0.67
   1  -1   3   47.61    1.31
   3  -1   3   11.57    1.11
   5  -1   3  429.54    6.80
   7  -1   3   92.47    2.52
   9  -1   3   59.01    2.16
  11  -1   3    9.45    1.13
  13  -1   3    0.32    0.95
  15  -1   3   53.04    3.60
  17  -1   3   20.64    2.55
  19  -1   3   20.53    2.64
 -24   0   3   14.63    2.47
 -22   0   3   -1.21    1.02
 -20   0   3   31.83    3.06
 -18   0   3   42.19    2.73
 -16   0   3   36.50    1.76
 -14   0   3  159.31    3.33
 -12   0   3  200.21    3.16
 -10   0   3   15.64    1.02
  -8   0   3   66.90    1.58
  -6   0   3   82.04    1.96
  -4   0   3  271.84    4.32
  -2   0   3   16.12    0.74
   0   0   3  466.99    8.01
   8   0   3    8.09    0.84
  10   0   3   81.30    2.17
  12   0   3   24.10    1.99
  14   0   3   43.33    2.59
  16   0   3    0.57    0.83
  18   0   3    6.06    2.24
  20   0   3   36.59    4.48
 -23   1   3    5.30    1.81
 -21   1   3    0.11    1.08
 -19   1   3    3.36    1.29
 -17   1   3   61.86    2.54
 -15   1   3   13.18    1.39
 -13   1   3    1.57    0.63
 -11   1   3  141.66    2.84
  -9   1   3  326.40    4.92
  -7   1   3    0.77    0.35
  -5   1   3    7.93    0.59
  -3   1   3   26.17    1.21
  -1   1   3    9.06    0.77
   1   1   3   48.67    1.47
   3   1   3   10.60    1.17
   5   1   3  427.07    6.53
   7   1   3   89.12    2.21
   9   1   3   63.14    1.80
  11   1   3    9.20    1.09
  13   1   3    0.37    0.51
  15   1   3   47.98    2.74
  17   1   3   15.50    1.93
  19   1   3   19.33    2.26
 -22   2   3   -0.67    1.43
 -20   2   3   33.95    3.11
 -18   2   3   40.09    3.23
 -16   2   3   29.14    2.25
 -14   2   3  122.02    3.63
 -12   2   3  162.11    3.23
 -10   2   3   12.01    0.92
  -8   2   3   48.92    1.85
  -6   2   3   64.49    2.01
  -4   2   3  187.05    3.72
  -2   2   3    8.54    0.77
   0   2   3  324.15    5.44
   2   2   3   37.13    1.44
   4   2   3  111.89    2.54
   6   2   3    0.75    0.51
   8   2   3    7.39    0.85
  10   2   3   69.76    2.70
  12   2   3   25.65    1.99
  14   2   3   43.34    2.55
  16   2   3    1.15    0.91
  18   2   3    5.64    1.47
 -21   3   3    2.73    1.51
 -19   3   3    3.68    1.42
 -17   3   3   53.73    3.94
 -15   3   3    8.82    1.64
 -13   3   3    0.81    0.84
 -11   3   3   92.07    2.94
  -9   3   3  205.30    4.57
  -7   3   3    0.85    0.43
  -5   3   3    3.65    0.68
  -3   3   3   12.96    1.12
  -1   3   3    5.40    0.77
   1   3   3   25.03    1.48
   3   3   3    5.51    0.99
   5   3   3  257.09    5.96
   7   3   3   56.95    2.04
   9   3   3   40.46    1.84
  11   3   3    6.11    1.17
  13   3   3    0.55    0.77
  15   3   3   39.19    2.88
  17   3   3   18.70    3.24
 -18   4   3   23.61    3.04
 -16   4   3   19.62    2.60
 -14   4   3   70.56    3.89
 -12   4   3   91.07    3.81
 -10   4   3    6.63    1.39
  -8   4   3   30.98    2.60
  -6   4   3   33.79    1.96
  -4   4   3   97.08    2.87
  -2   4   3    6.49    0.95
   0   4   3  165.44    3.88
   2   4   3   19.54    1.84
   4   4   3   60.37    2.80
   6   4   3   -0.06    0.55
   8   4   3    4.36    0.91
  10   4   3   43.15    2.96
  12   4   3   14.32    1.83
  14   4   3   19.06    2.18
 -15   5   3    3.20    2.22
 -13   5   3    0.35    1.68
 -11   5   3   54.31    3.96
  -9   5   3  114.16    4.80
  -7   5   3    1.12    0.98
  -5   5   3    1.31    1.08
  -3   5   3    3.34    1.00
  -1   5   3    2.74    1.10
   1   5   3    9.18    1.58
   3   5   3    1.63    1.07
   5   5   3  142.21    3.99
   7   5   3   31.49    2.28
   9   5   3   20.52    2.30
  11   5   3    5.39    1.50
  -8   6   3   11.50    2.22
  -6   6   3   12.07    2.11
  -4   6   3   51.73    5.77
  -2   6   3    1.64    2.15
   0   6   3   77.34    3.97
   2   6   3   10.64    2.00
   4   6   3   34.36    3.18
  -6  -6   4   71.84    5.89
  -4  -6   4    3.91    1.71
  -2  -6   4   15.74    2.42
   0  -6   4   21.79    2.72
   2  -6   4   13.04    3.52
 -13  -5   4    0.42    1.78
 -11  -5   4   32.55    4.25
  -9  -5   4   14.89    2.87
  -7  -5   4    3.25    1.22
  -5  -5   4   56.97    3.22
  -3  -5   4    0.99    0.86
  -1  -5   4   58.81    2.75
   1  -5   4    1.30    0.88
   3  -5   4   -0.10    0.83
   5  -5   4    2.96    1.37
   7  -5   4    0.43    1.18
   9  -5   4    0.24    1.30
 -18  -4   4   12.66    3.12
 -16  -4   4    8.80    2.53
 -14  -4   4   20.80    3.37
 -12  -4   4    9.40    2.36
 -10  -4   4    5.75    1.04
  -8  -4   4   -0.21    0.63
  -6  -4   4  136.41    3.73
  -4  -4   4   13.08    1.37
  -2  -4   4   40.64    2.15
   0  -4   4   35.39    2.00
   2  -4   4   24.75    2.22
   4  -4   4   14.64    1.82
   6  -4   4   26.16    2.48
   8  -4   4   44.45    3.42
  10  -4   4    4.07    1.46
  12  -4   4   35.77    3.54
 -21  -3   4   62.22    6.35
 -19  -3   4   29.55    4.42
 -17  -3   4   56.29    5.45
 -15  -3   4   28.50    3.69
 -13  -3   4    0.93    0.93
 -11  -3   4   65.54    2.46
  -9  -3   4   43.80    2.05
  -7  -3   4    7.65    0.98
  -5  -3   4   99.39    2.76
  -3  -3   4    0.32    0.50
  -1  -3   4  103.43    2.83
   1  -3   4   -0.13    0.54
   3  -3   4    1.17    0.69
   5  -3   4   11.66    1.54
   7  -3   4   -0.19    0.75
   9  -3   4    1.02    0.94
  11  -3   4   75.92    4.14
  13  -3   4    2.78    1.48
  15  -3   4   17.95    2.74
 -22  -2   4   41.51    3.57
 -20  -2   4   13.76    2.13
 -18  -2   4   16.79    2.17
 -16  -2   4   14.79    1.92
 -14  -2   4   26.09    2.27
 -12  -2   4   12.84    1.18
 -10  -2   4    9.92    0.90
  -8  -2   4    0.59    0.42
  -6  -2   4  251.61    4.58
  -4  -2   4   21.30    1.19
  -2  -2   4   72.53    2.00
   0  -2   4   63.28    1.93
   2  -2   4   51.03    2.12
   4  -2   4   23.89    1.45
   6  -2   4   45.35    1.94
   8  -2   4   87.26    2.95
  10  -2   4    7.75    1.69
  12  -2   4   66.25    4.26
  14  -2   4    1.50    1.39
  16  -2   4   38.39    3.76
  18  -2   4    2.28    2.32
 -23  -1   4   17.07    2.55
 -21  -1   4   69.22    3.95
 -19  -1   4   36.89    3.09
 -17  -1   4   80.03    3.72
 -15  -1   4   42.62    2.81
 -13  -1   4    1.62    0.63
 -11  -1   4   96.08    2.69
  -9  -1   4   71.59    1.89
  -7  -1   4   12.20    0.79
  -5  -1   4  154.33    2.81
  -3  -1   4    0.76    0.31
  -1  -1   4  172.66    3.18
   1  -1   4    1.11    0.39
   3  -1   4    2.91    0.61
   5  -1   4   21.41    1.90
   7  -1   4   -0.08    0.41
   9  -1   4    0.39    0.90
  11  -1   4  104.41    4.47
  13  -1   4    2.21    1.23
  15  -1   4   30.80    3.01
  17  -1   4    3.69    1.51
 -24   0   4    9.85    3.07
 -22   0   4   49.34    3.92
 -20   0   4   14.03    2.20
 -18   0   4   18.98    2.29
 -16   0   4   20.22    1.65
 -14   0   4   34.80    1.91
 -12   0   4   15.38    1.30
 -10   0   4   13.83    1.17
  -8   0   4    1.02    0.44
  -6   0   4  325.97    5.42
  -4   0   4   27.09    1.06
  -2   0   4  101.08    2.17
   0   0   4   87.50    2.31
   8   0   4  107.82    2.99
  10   0   4    8.56    1.27
  12   0   4   72.25    3.15
  14   0   4    1.48    0.88
  16   0   4   40.16    4.60
  18   0   4   -0.17    1.63
 -23   1   4   18.89    3.96
 -21   1   4   73.83    5.91
 -19   1   4   39.39    3.05
 -17   1   4   72.02    2.86
 -15   1   4   44.83    2.25
 -13   1   4    2.52    0.60
 -11   1   4  100.18    2.46
  -9   1   4   69.20    1.97
  -7   1   4   12.07    0.90
  -5   1   4  152.47    3.55
  -3   1   4    0.77    0.47
  -1   1   4  177.28    3.76
   1   1   4    0.00    0.40
   3   1   4    1.97    0.56
   5   1   4   19.18    1.33
   7   1   4    0.65    0.48
   9   1   4    0.49    0.51
  11   1   4  107.15    3.39
  13   1   4    3.97    1.18
  15   1   4   28.09    2.52
  17   1   4    2.76    1.20
  19   1   4   11.01    2.73
 -22   2   4   47.16    5.75
 -20   2   4   14.63    2.21
 -18   2   4   20.63    2.43
 -16   2   4   17.48    2.16
 -14   2   4   33.92    2.80
 -12   2   4   13.91    1.34
 -10   2   4    7.43    1.02
  -8   2   4    0.63    0.57
  -6   2   4  249.69    5.02
  -4   2   4   19.67    1.40
  -2   2   4   70.04    2.20
   0   2   4   64.92    2.81
   2   2   4   47.37    1.84
   4   2   4   24.43    1.53
   6   2   4   46.95    2.15
   8   2   4   81.72    2.85
  10   2   4    4.54    0.99
  12   2   4   64.32    2.83
  14   2   4    1.64    0.94
  16   2   4   46.73    3.52
 -21   3   4   59.09    4.59
 -19   3   4   37.88    3.56
 -17   3   4   61.44    4.37
 -15   3   4   33.67    3.14
 -13   3   4    1.51    0.76
 -11   3   4   58.63    2.44
  -9   3   4   50.29    2.17
  -7   3   4    6.48    1.25
  -5   3   4  100.80    2.91
  -3   3   4   -0.24    0.59
  -1   3   4  105.85    2.96
   1   3   4    0.09    0.50
   3   3   4    1.38    0.75
   5   3   4    8.55    1.23
   7   3   4    0.87    0.74
   9   3   4   -0.04    0.66
  11   3   4   73.73    3.21
  13   3   4    1.83    0.99
  15   3   4   20.04    2.19
 -18   4   4   14.72    3.32
 -16   4   4    8.81    2.54
 -14   4   4   24.07    3.95
 -12   4   4   10.05    1.69
 -10   4   4    2.90    1.13
  -8   4   4    1.35    0.95
  -6   4   4  142.82    3.81
  -4   4   4   10.44    1.25
  -2   4   4   42.81    2.24
   0   4   4   37.41    2.65
   2   4   4   29.53    2.39
   4   4   4   10.97    1.59
   6   4   4   23.27    2.18
   8   4   4   49.91    2.35
  10   4   4    5.30    1.29
  12   4   4   32.72    2.75
 -13   5   4   -0.58    1.86
 -11   5   4   36.64    3.48
  -9   5   4   17.93    2.48
  -7   5   4    1.56    1.21
  -5   5   4   60.36    3.84
  -3   5   4    0.56    1.03
  -1   5   4   52.05    3.46
   1   5   4    0.59    0.98
   3   5   4    0.08    1.00
   5   5   4    3.39    1.06
   7   5   4    0.24    0.87
   9   5   4   -0.39    1.02
  -8   6   4    0.47    2.37
  -4   6   4    6.83    2.91
   0   6   4   14.09    2.96
   2   6   4   16.64    3.26
 -11  -5   5   33.92    4.49
  -9  -5   5    2.21    1.73
  -7  -5   5   19.27    3.28
  -5  -5   5   24.95    2.62
  -3  -5   5    5.34    1.47
  -1  -5   5   55.43    2.78
   1  -5   5   76.25    3.18
   3  -5   5    5.29    1.27
   5  -5   5   15.52    1.89
   7  -5   5   12.38    3.27
 -16  -4   5    8.48    2.59
 -14  -4   5   18.08    2.29
 -12  -4   5   10.35    1.79
 -10  -4   5   71.83    3.56
  -8  -4   5   22.67    2.09
  -6  -4   5   16.20    2.00
  -4  -4   5    0.14    0.81
  -2  -4   5    0.15    0.63
   0  -4   5   10.04    1.28
   2  -4   5   33.38    2.23
   4  -4   5    3.42    1.16
   6  -4   5  116.12    4.62
   8  -4   5   27.17    2.82
  10  -4   5    3.22    1.43
 -19  -3   5    4.41    1.55
 -17  -3   5    1.92    1.28
 -15  -3   5  120.74    4.78
 -13  -3   5    4.51    1.25
 -11  -3   5   58.65    3.04
  -9  -3   5    1.27    0.86
  -7  -3   5   54.80    2.70
  -5  -3   5   48.44    2.52
  -3  -3   5   11.94    1.18
  -1  -3   5  103.22    2.91
   1  -3   5  131.03    3.50
   3  -3   5   10.43    1.44
   5  -3   5   22.43    2.17
   7  -3   5   27.80    2.55
   9  -3   5    3.90    1.24
  11  -3   5    1.06    1.19
  13  -3   5   21.85    2.85
 -22  -2   5    4.32    1.71
 -20  -2   5   20.69    2.56
 -18  -2   5   18.46    2.26
 -16  -2   5   10.23    1.71
 -14  -2   5   37.57    2.87
 -12  -2   5   17.64    1.46
 -10  -2   5  127.87    3.33
  -8  -2   5   33.60    1.70
  -6  -2   5   33.13    2.05
  -4  -2   5    2.10    0.71
  -2  -2   5    0.26    0.43
   0  -2   5   20.55    1.27
   2  -2   5   54.67    2.32
   4  -2   5    5.45    1.03
   6  -2   5  164.26    5.04
   8  -2   5   47.75    2.92
  10  -2   5    7.03    1.53
  12  -2   5   16.13    3.84
  14  -2   5   25.00    4.79
  16  -2   5   -0.57    2.01
 -23  -1   5   -0.15    1.35
 -21  -1   5    3.14    1.38
 -19  -1   5    4.60    1.42
 -17  -1   5    2.02    1.08
 -15  -1   5  162.76    4.08
 -13  -1   5    7.86    1.06
 -11  -1   5   85.48    2.63
  -9  -1   5    5.26    0.81
  -7  -1   5   79.23    2.33
  -5  -1   5   77.92    2.25
  -3  -1   5   16.90    1.39
  -1  -1   5  161.91    3.22
   1  -1   5  201.51    3.99
   3  -1   5   15.81    1.20
   5  -1   5   33.22    1.93
   7  -1   5   44.30    2.81
   9  -1   5    8.57    1.59
  11  -1   5    0.59    1.12
  13  -1   5   31.50    2.97
  15  -1   5   38.22    3.43
  17  -1   5   19.96    2.66
 -22   0   5    3.53    2.27
 -20   0   5   19.36    3.43
 -18   0   5   33.46    2.94
 -16   0   5   14.09    1.46
 -14   0   5   42.64    2.07
 -12   0   5   19.90    1.53
 -10   0   5  148.65    3.54
  -8   0   5   43.09    1.67
  -6   0   5   43.36    1.58
  -4   0   5    2.13    0.50
  -2   0   5    0.81    0.31
   0   0   5   26.90    1.26
   2   0   5   71.80    2.37
   8   0   5   57.93    2.30
  10   0   5   11.40    1.48
  12   0   5   19.34    1.93
  14   0   5   33.76    3.96
  16   0   5   -1.05    1.64
 -23   1   5   -0.33    1.62
 -21   1   5    5.75    2.55
 -19   1   5    4.25    1.31
 -17   1   5    1.19    0.93
 -15   1   5  159.40    5.27
 -13   1   5   10.77    1.21
 -11   1   5   91.90    2.90
  -9   1   5    4.01    0.84
  -7   1   5   80.75    2.74
  -5   1   5   80.51    2.72
  -3   1   5   18.76    1.52
  -1   1   5  167.45    4.01
   1   1   5  207.53    4.58
   3   1   5   13.52    1.22
   5   1   5   35.90    2.61
   7   1   5   42.37    2.27
   9   1   5    7.41    1.02
  11   1   5    1.87    0.81
  13   1   5   31.98    2.71
  15   1   5   35.31    2.91
  17   1   5   18.31    2.29
 -22   2   5    5.12    1.62
 -20   2   5   27.92    3.10
 -18   2   5   25.12    2.73
 -16   2   5   14.16    2.04
 -14   2   5   39.16    3.11
 -12   2   5   17.48    1.57
 -10   2   5  118.81    3.50
  -8   2   5   34.85    2.15
  -6   2   5   36.94    2.07
  -4   2   5    2.42    0.74
  -2   2   5   -0.09    0.81
   0   2   5   21.34    2.26
   2   2   5   56.84    3.05
   4   2   5    6.50    1.15
   6   2   5  180.99    4.76
   8   2   5   44.69    2.29
  10   2   5    5.88    1.17
  12   2   5   18.24    1.93
  14   2   5   27.04    3.67
  16   2   5    0.59    1.67
 -21   3   5    2.22    1.66
 -19   3   5    6.18    1.76
 -17   3   5    1.51    1.27
 -15   3   5  113.27    4.91
 -13   3   5    2.52    0.91
 -11   3   5   57.48    3.01
  -9   3   5    1.80    0.93
  -7   3   5   49.93    3.08
  -5   3   5   52.29    3.16
  -3   3   5    9.29    1.18
  -1   3   5   99.20    3.14
   1   3   5  134.38    3.61
   3   3   5   13.27    1.64
   5   3   5   23.41    2.11
   7   3   5   25.18    2.16
   9   3   5    3.52    1.07
  11   3   5    2.19    1.03
  13   3   5   25.40    2.38
 -16   4   5    7.58    2.80
 -14   4   5   24.92    3.96
 -12   4   5   13.36    2.03
 -10   4   5   71.25    3.71
  -8   4   5   21.86    2.47
  -6   4   5   16.62    1.72
  -4   4   5    0.05    0.75
  -2   4   5   -0.34    0.72
   0   4   5   17.43    1.99
   2   4   5   36.59    2.83
   4   4   5    3.14    1.02
   6   4   5  109.38    4.23
   8   4   5   28.53    2.54
  10   4   5    3.43    1.26
 -13   5   5    3.07    2.43
 -11   5   5   35.32    3.52
  -9   5   5    1.28    1.42
  -7   5   5   26.47    3.04
  -5   5   5   24.19    2.96
  -3   5   5    4.05    1.41
  -1   5   5   59.99    4.01
   1   5   5   77.37    3.88
   3   5   5    6.17    1.59
   5   5   5   14.58    2.07
   7   5   5   17.26    2.38
  -9  -5   6   22.42    3.71
  -7  -5   6   30.21    2.93
  -5  -5   6   47.07    3.67
  -3  -5   6    0.42    1.14
  -1  -5   6   -0.02    1.17
   1  -5   6   63.30    3.75
   3  -5   6    0.37    1.80
 -16  -4   6   23.57    2.79
 -14  -4   6    3.04    1.39
 -12  -4   6   50.57    3.66
 -10  -4   6   12.35    1.94
  -8  -4   6    5.73    1.28
  -6  -4   6   26.07    2.56
  -4  -4   6  125.85    4.72
  -2  -4   6    4.88    1.31
   0  -4   6    2.96    1.25
   2  -4   6   29.39    2.71
   4  -4   6   11.21    1.81
   6  -4   6    2.00    1.27
   8  -4   6    2.64    1.44
  10  -4   6   33.83    5.27
 -19  -3   6    1.88    1.49
 -17  -3   6    3.03    1.50
 -15  -3   6    4.57    1.49
 -13  -3   6   52.10    3.20
 -11  -3   6   13.63    1.40
  -9  -3   6   44.87    2.21
  -7  -3   6   55.90    2.88
  -5  -3   6   86.41    3.54
  -3  -3   6    1.07    0.80
  -1  -3   6    0.13    0.77
   1  -3   6  113.73    4.25
   3  -3   6    0.02    0.61
   5  -3   6   31.82    2.62
   7  -3   6    0.20    0.91
   9  -3   6   90.43    4.31
  11  -3   6   11.11    2.05
 -22  -2   6   -0.59    2.02
 -20  -2   6  114.39    6.99
 -18  -2   6   42.27    4.72
 -16  -2   6   42.16    4.42
 -14  -2   6    6.09    1.39
 -12  -2   6   92.40    3.03
 -10  -2   6   19.59    1.61
  -8  -2   6   13.29    1.28
  -6  -2   6   51.60    2.48
  -4  -2   6  210.46    5.52
  -2  -2   6   12.66    1.46
   0  -2   6    4.29    0.99
   2  -2   6   44.81    2.40
   4  -2   6   16.89    1.80
   6  -2   6    4.93    1.17
   8  -2   6    4.67    1.29
  10  -2   6   43.52    3.42
  12  -2   6   26.04    2.80
  14  -2   6    5.87    1.82
 -21  -1   6   49.05    5.59
 -19  -1   6   -0.24    1.07
 -17  -1   6    5.31    1.44
 -15  -1   6   11.62    1.31
 -13  -1   6   76.57    2.69
 -11  -1   6   17.01    1.45
  -9  -1   6   65.90    2.30
  -7  -1   6   82.25    2.51
  -5  -1   6  135.97    3.30
  -3  -1   6    0.71    0.56
  -1  -1   6    1.76    0.69
   1  -1   6  178.80    4.75
   3  -1   6   -0.05    0.44
   5  -1   6   45.26    2.36
   7  -1   6    0.36    0.84
   9  -1   6  113.99    7.00
  11  -1   6   13.93    3.38
  13  -1   6   21.56    4.01
  15  -1   6   16.99    3.80
 -22   0   6    2.42    2.20
 -20   0   6  128.17    8.18
 -18   0   6   46.13    3.35
 -16   0   6   44.52    2.96
 -14   0   6    5.22    1.22
 -12   0   6  105.03    4.11
 -10   0   6   22.56    2.10
  -8   0   6   13.45    1.62
  -6   0   6   63.51    2.93
  -4   0   6  247.47    6.48
  -2   0   6   17.44    1.16
   0   0   6    6.06    0.77
   2   0   6   62.73    2.07
   4   0   6   20.18    1.68
   8   0   6    2.23    1.20
  10   0   6   40.85    4.27
  12   0   6   23.58    3.36
  14   0   6    2.32    1.32
 -21   1   6   64.12    6.77
 -19   1   6   -0.08    0.94
 -17   1   6    5.21    1.32
 -15   1   6   11.69    1.76
 -13   1   6   70.36    2.77
 -11   1   6   18.26    1.68
  -9   1   6   59.85    2.68
  -7   1   6   77.45    3.03
  -5   1   6  133.23    3.89
  -3   1   6    0.71    0.67
  -1   1   6    2.57    0.80
   1   1   6  183.21    4.51
   3   1   6   -1.14    0.79
   5   1   6   49.59    2.86
   7   1   6    0.17    0.80
   9   1   6  125.59    4.00
  11   1   6   10.96    2.44
  13   1   6   28.20    2.73
  15   1   6   21.72    3.72
 -22   2   6    2.22    2.00
 -20   2   6  107.26    4.99
 -18   2   6   43.94    3.72
 -16   2   6   44.28    3.62
 -14   2   6    7.84    1.25
 -12   2   6   89.91    3.24
 -10   2   6   21.67    1.83
  -8   2   6   10.31    1.39
  -6   2   6   49.91    3.62
  -4   2   6  206.65    6.66
  -2   2   6   11.46    1.99
   0   2   6    3.51    1.43
   2   2   6   45.72    3.69
   4   2   6   13.69    1.69
   6   2   6    4.15    1.04
   8   2   6    3.24    1.45
  10   2   6   44.05    2.92
  12   2   6   27.67    2.48
  14   2   6    4.95    2.09
 -19   3   6    0.45    1.33
 -17   3   6    2.90    1.44
 -15   3   6    8.73    2.67
 -13   3   6   47.02    3.46
 -11   3   6   13.24    1.99
  -9   3   6   43.91    3.38
  -7   3   6   52.42    3.41
  -5   3   6   89.61    4.30
  -3   3   6    0.78    1.09
  -1   3   6    0.74    0.84
   1   3   6  116.80    4.37
   3   3   6   -0.22    0.74
   5   3   6   32.03    2.64
   7   3   6    0.00    0.89
   9   3   6   94.89    3.85
  11   3   6   12.70    1.82
 -16   4   6   25.60    4.19
 -14   4   6    3.22    2.05
 -12   4   6   53.63    3.99
 -10   4   6   14.53    2.15
  -8   4   6    7.80    1.41
  -6   4   6   31.37    2.48
  -4   4   6  124.32    4.09
  -2   4   6    6.02    1.50
   0   4   6    2.34    1.22
   2   4   6   26.02    2.53
   4   4   6    9.79    1.73
   6   4   6    1.39    1.21
   8   4   6    4.69    1.43
 -11   5   6    7.74    2.15
  -9   5   6   26.92    3.18
  -7   5   6   34.85    3.71
  -5   5   6   66.07    4.52
  -3   5   6    0.67    1.35
  -1   5   6    1.35    1.42
   1   5   6   68.63    4.15
   3   5   6   -0.48    1.23
  -9  -5   7    2.46    2.39
  -7  -5   7    4.22    2.28
  -5  -5   7    0.03    2.14
  -3  -5   7   -0.68    1.86
 -14  -4   7   27.66    2.98
 -12  -4   7    3.15    1.46
 -10  -4   7   66.63    5.06
  -8  -4   7    8.05    1.66
  -6  -4   7    9.34    1.78
  -4  -4   7    3.45    1.29
  -2  -4   7   12.26    1.96
   0  -4   7   36.77    3.15
   2  -4   7   29.00    2.90
   4  -4   7   53.68    3.96
 -17  -3   7   55.28    4.08
 -15  -3   7   25.69    2.68
 -13  -3   7   48.40    3.49
 -11  -3   7    4.01    1.04
  -9  -3   7    1.92    0.82
  -7  -3   7    9.55    1.58
  -5  -3   7   -0.24    0.81
  -3  -3   7    0.37    0.85
  -1  -3   7   49.20    2.83
   1  -3   7   -0.23    0.85
   3  -3   7   22.79    2.41
   5  -3   7   -0.05    1.04
   7  -3   7   50.72    4.95
   9  -3   7   -0.17    1.57
 -20  -2   7    4.01    2.33
 -18  -2   7    8.39    1.88
 -16  -2   7    3.79    1.40
 -14  -2   7   44.10    2.44
 -12  -2   7    5.36    1.07
 -10  -2   7  116.40    3.54
  -8  -2   7   15.52    1.41
  -6  -2   7   18.04    1.60
  -4  -2   7    5.51    1.15
  -2  -2   7   22.16    2.05
   0  -2   7   59.53    2.93
   2  -2   7   47.51    2.63
   4  -2   7   76.97    3.46
   6  -2   7    0.49    1.31
   8  -2   7    1.23    1.36
  10  -2   7    0.40    1.54
  12  -2   7    1.13    1.86
 -21  -1   7    5.79    2.70
 -19  -1   7    0.22    1.70
 -15  -1   7   38.35    3.03
 -13  -1   7   57.17    3.16
 -11  -1   7    7.03    1.39
  -9  -1   7    2.01    0.70
  -7  -1   7   13.88    1.27
  -5  -1   7   -0.06    0.51
  -3  -1   7    0.85    0.57
  -1  -1   7   78.08    3.01
   1  -1   7    1.11    0.70
   3  -1   7   38.65    2.31
   5  -1   7   -0.30    0.69
   7  -1   7   84.00    4.70
   9  -1   7    1.92    1.42
  11  -1   7   11.11    2.48
  13  -1   7    3.71    1.89
 -20   0   7    3.84    2.18
 -18   0   7   20.52    2.43
 -16   0   7    5.50    1.33
 -14   0   7   50.42    3.05
 -12   0   7    7.19    1.42
 -10   0   7  142.77    5.01
  -8   0   7   23.46    2.22
  -6   0   7   21.30    2.09
  -4   0   7    6.78    1.28
  -2   0   7   31.41    2.53
   0   0   7   66.90    3.13
   2   0   7   55.39    2.79
   4   0   7   94.15    3.81
   6   0   7    1.32    0.96
 -21   1   7    5.57    1.75
 -19   1   7   -1.74    0.96
 -17   1   7   79.67    4.13
 -15   1   7   36.24    3.05
 -13   1   7   58.72    2.71
 -11   1   7    6.65    1.18
  -9   1   7    1.54    0.84
  -7   1   7   16.01    1.69
  -5   1   7   -0.23    0.64
  -3   1   7    0.46    0.70
  -1   1   7   80.50    4.04
   1   1   7   -0.07    1.12
   3   1   7   37.46    3.12
   5   1   7    0.42    1.48
   7   1   7   74.47    3.26
   9   1   7    2.53    1.01
  11   1   7   13.93    2.90
  13   1   7    1.29    2.09
 -20   2   7    7.68    1.98
 -18   2   7   18.00    2.52
 -16   2   7    7.53    1.75
 -14   2   7   47.91    2.96
 -12   2   7    6.78    1.25
 -10   2   7  118.57    4.02
  -8   2   7   16.46    2.29
  -6   2   7   18.22    2.50
  -4   2   7    7.06    1.95
  -2   2   7   24.67    2.99
   0   2   7   60.47    4.61
   2   2   7   48.88    5.65
   4   2   7   76.45    3.41
   6   2   7    1.04    0.96
   8   2   7   -0.49    1.13
  10   2   7    0.30    0.98
  12   2   7    2.19    1.82
 -17   3   7   62.51    6.59
 -15   3   7   29.19    4.39
 -13   3   7   45.38    3.65
 -11   3   7    3.96    1.39
  -9   3   7    0.74    1.09
  -7   3   7    9.57    1.84
  -5   3   7   -0.33    1.16
  -3   3   7    3.02    1.52
  -1   3   7   53.32    3.17
   1   3   7    2.32    1.15
   3   3   7   30.10    2.65
   5   3   7   -0.19    0.92
   7   3   7   50.02    4.51
   9   3   7    1.64    1.18
 -14   4   7   31.16    4.83
 -12   4   7    4.18    1.75
 -10   4   7   79.86    4.59
  -8   4   7    6.89    1.58
  -6   4   7    9.41    1.69
  -4   4   7    2.28    1.25
  -2   4   7   12.76    2.19
   0   4   7   36.20    3.27
   2   4   7   30.07    2.92
   4   4   7   47.91    3.55
   6   4   7    1.89    2.30
  -5   5   7   -0.28    2.16
  -3   5   7    1.53    2.16
 -12  -4   8   -0.43    1.90
 -10  -4   8   53.14    3.92
  -8  -4   8   11.83    1.65
  -6  -4   8   10.25    1.97
  -4  -4   8   22.08    2.62
  -2  -4   8   13.70    2.12
   0  -4   8   19.64    2.53
 -17  -3   8   -1.08    1.97
 -15  -3   8    6.74    1.85
 -13  -3   8    0.56    1.27
 -11  -3   8   37.62    3.03
  -9  -3   8    0.21    0.86
  -7  -3   8   34.77    2.48
  -5  -3   8   95.02    4.18
  -3  -3   8   23.78    2.46
  -1  -3   8   13.24    1.96
   1  -3   8    1.76    1.13
   3  -3   8    7.41    1.63
   5  -3   8   20.95    2.65
 -18  -2   8    0.92    2.02
 -16  -2   8    0.92    1.87
 -14  -2   8    3.55    1.36
 -12  -2   8    2.15    1.11
 -10  -2   8   82.51    4.12
  -8  -2   8   18.04    1.67
  -6  -2   8   14.83    1.50
  -4  -2   8   35.58    2.26
  -2  -2   8   27.87    2.45
   0  -2   8   24.65    2.31
   2  -2   8    4.84    1.34
   4  -2   8    9.09    1.66
   6  -2   8   72.10    3.73
   8  -2   8    1.54    1.26
 -17  -1   8    1.12    1.17
 -15  -1   8   12.06    1.97
 -13  -1   8    0.91    0.99
 -11  -1   8   51.60    3.14
  -9  -1   8    0.61    0.90
  -7  -1   8   46.19    3.09
  -5  -1   8  130.33    4.90
  -3  -1   8   27.16    2.55
  -1  -1   8   16.66    2.06
   1  -1   8   -1.14    0.95
   3  -1   8    7.93    2.12
   5  -1   8   34.89    4.23
   7  -1   8    9.18    2.44
 -20   0   8    0.66    1.98
 -18   0   8    0.37    1.14
 -16   0   8    0.15    1.03
 -14   0   8    1.48    1.03
 -12   0   8    1.09    1.02
 -10   0   8   97.52    4.27
  -8   0   8   24.71    2.43
  -6   0   8   17.16    2.07
  -4   0   8   40.97    2.75
  -2   0   8   36.00    2.62
   0   0   8   29.37    2.62
   2   0   8    4.66    1.22
   4   0   8   12.24    2.64
   6   0   8   92.75    5.85
 -19   1   8   95.76    4.84
 -17   1   8    0.02    1.10
 -15   1   8    8.28    1.71
 -13   1   8   -0.29    0.77
 -11   1   8   48.86    2.87
  -9   1   8   -0.17    0.77
  -7   1   8   46.80    2.76
  -5   1   8  134.10    5.56
  -3   1   8   35.02    3.36
  -1   1   8   14.92    2.22
   1   1   8    0.98    1.10
   3   1   8    9.94    1.89
   5   1   8   36.13    4.52
   7   1   8   13.06    2.47
 -18   2   8    0.45    1.40
 -16   2   8    0.54    1.24
 -14   2   8    5.22    1.59
 -12   2   8    1.91    1.30
 -10   2   8   81.49    4.73
  -8   2   8   17.01    2.51
  -6   2   8   15.49    2.50
  -4   2   8   33.24    3.71
  -2   2   8   20.80    2.95
   0   2   8   21.49    3.00
   2   2   8    8.46    2.90
   4   2   8   12.99    1.91
   6   2   8   77.33    3.62
   8   2   8    1.79    1.68
 -15   3   8    7.58    2.89
 -13   3   8    0.00    1.27
 -11   3   8   36.66    3.59
  -9   3   8   -0.92    1.23
  -7   3   8   34.32    3.79
  -5   3   8   84.74    5.70
  -3   3   8   30.03    3.93
  -1   3   8   14.32    2.15
   1   3   8   -0.35    1.13
   3   3   8    6.47    1.53
   5   3   8   21.25    2.42
 -12   4   8    3.78    2.67
 -10   4   8   58.63    4.91
  -8   4   8   10.92    1.97
  -6   4   8    9.05    1.93
  -4   4   8   22.13    3.00
  -2   4   8   17.22    2.60
   0   4   8   13.01    2.30
 -11  -3   9   29.12    4.21
  -9  -3   9    3.75    1.53
  -7  -3   9   18.40    1.93
  -5  -3   9   33.49    2.49
  -3  -3   9    2.11    1.36
  -1  -3   9    6.25    1.75
   1  -3   9   93.17    5.97
 -14  -2   9    1.08    1.24
 -12  -2   9    4.14    1.46
 -10  -2   9    5.28    1.60
  -8  -2   9    7.13    1.72
  -6  -2   9    6.16    1.46
  -4  -2   9   15.06    2.14
  -2  -2   9   38.23    3.35
   0  -2   9   50.78    5.61
   2  -2   9   10.13    2.78
   4  -2   9   12.98    3.11
 -17  -1   9    0.42    1.31
 -15  -1   9   17.43    2.36
 -13  -1   9   64.63    3.82
 -11  -1   9   44.96    3.50
  -9  -1   9    5.60    1.42
  -7  -1   9   23.76    2.55
  -5  -1   9   46.97    3.19
  -3  -1   9    5.04    1.37
  -1  -1   9    8.21    1.64
   1  -1   9  119.70    5.04
   3  -1   9    3.16    1.28
   5  -1   9   15.50    2.34
 -18   0   9    1.35    1.41
 -14   0   9    1.68    1.02
 -12   0   9    1.92    1.29
 -10   0   9    7.96    1.57
  -8   0   9    5.59    1.43
  -6   0   9    5.58    1.47
  -4   0   9   18.43    2.18
  -2   0   9   49.10    3.34
   0   0   9   58.56    5.89
   2   0   9    9.04    2.74
   4   0   9   15.72    2.27
 -17   1   9   -0.51    1.22
 -15   1   9   12.30    2.16
 -13   1   9   59.33    3.30
 -11   1   9   40.65    2.86
  -9   1   9    6.17    1.69
  -7   1   9   19.97    2.55
  -5   1   9   39.06    3.60
  -3   1   9    7.51    1.76
  -1   1   9    8.21    1.85
   1   1   9  117.77    5.16
   3   1   9    1.26    2.08
   5   1   9   13.87    2.06
 -16   2   9  136.28    8.33
 -14   2   9    2.14    1.49
 -12   2   9    3.19    1.54
 -10   2   9    6.88    1.79
  -8   2   9    5.11    1.73
  -6   2   9    2.04    1.55
  -4   2   9   17.05    2.82
  -2   2   9   36.98    3.88
   0   2   9   52.64    6.49
   2   2   9    6.81    1.73
   4   2   9    9.84    1.84
 -13   3   9   59.77    6.63
 -11   3   9   29.73    3.49
  -9   3   9    7.36    2.26
  -7   3   9   14.75    3.01
  -5   3   9   27.04    3.79
  -3   3   9    4.62    1.73
  -1   3   9    4.70    1.72
   1   3   9   96.70    7.66
 -12  -2  10    5.31    2.31
  -8  -2  10   38.55    5.01
  -6  -2  10    1.40    1.30
  -4  -2  10    5.88    1.59
  -2  -2  10    3.22    2.27
 -13  -1  10   19.54    2.55
 -11  -1  10   -0.20    1.20
  -9  -1  10   10.69    1.91
  -7  -1  10    2.41    1.44
  -5  -1  10   35.63    3.27
  -3  -1  10    0.66    1.16
  -1  -1  10    0.36    1.30
   1  -1  10    1.05    1.34
 -14   0  10    2.97    1.27
 -12   0  10    6.69    1.44
 -10   0  10   94.05    6.74
  -8   0  10   37.14    3.32
  -6   0  10    3.03    1.40
  -4   0  10    5.62    2.26
  -2   0  10    1.44    1.71
   0   0  10    0.41    1.90
   2   0  10    5.85    1.89
 -13   1  10   20.38    4.14
 -11   1  10    1.58    1.44
  -9   1  10   13.19    2.24
  -7   1  10    7.37    1.93
  -5   1  10   46.70    5.73
  -3   1  10    0.03    1.40
  -1   1  10    0.90    1.52
   1   1  10    3.39    2.55
 -12   2  10    3.23    2.59
 -10   2  10   74.32    5.29
  -8   2  10   45.91    6.36
  -6   2  10    1.67    1.64
  -4   2  10    7.72    2.18
  -2   2  10    4.50    2.71
   0   0   0    0.00    0.00
;
_shelx_hkl_checksum              59775
#END Tags that were not found in dictionaries
loop_
_space_group_symop_operation_xyz
'x, y, z'
'-x, y, -z'
'x+1/2, y+1/2, z'
'-x+1/2, y+1/2, -z'
'-x, -y, -z'
'x, -y, z'
'-x+1/2, -y+1/2, -z'
'x+1/2, -y+1/2, z'
loop_
_atom_site_label
_atom_site_type_symbol
_atom_site_fract_x
_atom_site_fract_y
_atom_site_fract_z
_atom_site_U_iso_or_equiv
_atom_site_adp_type
_atom_site_occupancy
_atom_site_site_symmetry_order
_atom_site_calc_flag
_atom_site_refinement_flags_posn
_atom_site_refinement_flags_adp
_atom_site_refinement_flags_occupancy
Nd1 Nd 0.34959(3) 0.0000 0.06348(6) 0.00763(10) Uani 1 2 d S T P
Nd2 Nd 0.58818(3) 0.0000 0.38076(6) 0.00719(10) Uani 1 2 d S T P
Ru Ru 0.21848(4) 0.0000 0.62778(9) 0.00664(13) Uani 1 2 d S T P
In In 0.0000 0.0000 0.0000 0.0088(2) Uani 0.954(3) 4 d S T .
Ge1 Ge 0.06505(5) 0.0000 0.65481(12) 0.00723(16) Uani 1 2 d S T P
Ge2 Ge 0.20896(5) 0.0000 0.27264(12) 0.00785(16) Uani 1 2 d S T P
loop_
_atom_site_aniso_label
_atom_site_aniso_U_11
_atom_site_aniso_U_22
_atom_site_aniso_U_33
_atom_site_aniso_U_23
_atom_site_aniso_U_13
_atom_site_aniso_U_12
Nd1 0.00735(18) 0.00795(18) 0.00785(19) 0.000 0.00256(14) 0.000
Nd2 0.00682(19) 0.00683(18) 0.00878(19) 0.000 0.00360(14) 0.000
Ru 0.0060(3) 0.0060(2) 0.0084(3) 0.000 0.0029(2) 0.000
In 0.0096(4) 0.0087(4) 0.0092(4) 0.000 0.0048(3) 0.000
Ge1 0.0065(4) 0.0077(3) 0.0080(4) 0.000 0.0029(3) 0.000
Ge2 0.0099(4) 0.0055(3) 0.0091(4) 0.000 0.0044(3) 0.000
loop_
_atom_type_symbol
_atom_type_description
_atom_type_scat_dispersion_real
_atom_type_scat_dispersion_imag
_atom_type_scat_source
Ge Ge 0.1547 1.8001 'International Tables Vol C Tables 4.2.6.8 and 6.1.1.4'
Ru Ru -1.2594 0.8363 'International Tables Vol C Tables 4.2.6.8 and 6.1.1.4'
In In -0.7276 1.3100 'International Tables Vol C Tables 4.2.6.8 and 6.1.1.4'
Nd Nd -0.1943 3.0179 'International Tables Vol C Tables 4.2.6.8 and 6.1.1.4'
loop_
_geom_angle_atom_site_label_1
_geom_angle_atom_site_label_2
_geom_angle_atom_site_label_3
_geom_angle
_geom_angle_site_symmetry_1
_geom_angle_site_symmetry_3
Ge1 Nd1 Ge1 92.13(4) 7_556 7_546
Ge1 Nd1 Ge2 85.96(3) 7_556 .
Ge1 Nd1 Ge2 85.96(3) 7_546 .
Ge1 Nd1 Ge2 168.23(3) 7_556 7_545
Ge1 Nd1 Ge2 89.73(3) 7_546 7_545
Ge2 Nd1 Ge2 105.76(3) . 7_545
Ge1 Nd1 Ge2 89.73(3) 7_556 7
Ge1 Nd1 Ge2 168.23(3) 7_546 7
Ge2 Nd1 Ge2 105.76(3) . 7
Ge2 Nd1 Ge2 86.16(4) 7_545 7
Ge1 Nd1 Ru 133.937(18) 7_556 1_554
Ge1 Nd1 Ru 133.937(18) 7_546 1_554
Ge2 Nd1 Ru 96.06(3) . 1_554
Ge2 Nd1 Ru 45.340(19) 7_545 1_554
Ge2 Nd1 Ru 45.340(19) 7 1_554
Ge1 Nd1 In 54.49(2) 7_556 3
Ge1 Nd1 In 110.38(3) 7_546 3
Ge2 Nd1 In 136.436(16) . 3
Ge2 Nd1 In 114.09(2) 7_545 3
Ge2 Nd1 In 61.76(2) 7 3
Ru Nd1 In 99.47(2) 1_554 3
Ge1 Nd1 In 110.38(3) 7_556 3_545
Ge1 Nd1 In 54.49(2) 7_546 3_545
Ge2 Nd1 In 136.436(16) . 3_545
Ge2 Nd1 In 61.76(2) 7_545 3_545
Ge2 Nd1 In 114.09(2) 7 3_545
Ru Nd1 In 99.47(2) 1_554 3_545
In Nd1 In 80.35(3) 3 3_545
Ge1 Nd1 Ru 44.84(2) 7_556 7_556
Ge1 Nd1 Ru 100.88(3) 7_546 7_556
Ge2 Nd1 Ru 43.889(16) . 7_556
Ge2 Nd1 Ru 145.82(3) 7_545 7_556
Ge2 Nd1 Ru 88.61(3) 7 7_556
Ru Nd1 Ru 112.20(3) 1_554 7_556
In Nd1 Ru 92.67(2) 3 7_556
In Nd1 Ru 148.296(17) 3_545 7_556
Ge1 Nd1 Ru 100.88(3) 7_556 7_546
Ge1 Nd1 Ru 44.84(2) 7_546 7_546
Ge2 Nd1 Ru 43.889(15) . 7_546
Ge2 Nd1 Ru 88.61(3) 7_545 7_546
Ge2 Nd1 Ru 145.82(3) 7 7_546
Ru Nd1 Ru 112.20(3) 1_554 7_546
In Nd1 Ru 148.296(17) 3 7_546
In Nd1 Ru 92.67(2) 3_545 7_546
Ru Nd1 Ru 77.12(3) 7_556 7_546
Ge1 Nd1 Nd2 113.93(3) 7_556 5_655
Ge1 Nd1 Nd2 113.93(2) 7_546 5_655
Ge2 Nd1 Nd2 150.05(2) . 5_655
Ge2 Nd1 Nd2 54.98(2) 7_545 5_655
Ge2 Nd1 Nd2 54.98(2) 7 5_655
Ru Nd1 Nd2 53.99(3) 1_554 5_655
In Nd1 Nd2 59.546(11) 3 5_655
In Nd1 Nd2 59.546(11) 3_545 5_655
Ru Nd1 Nd2 140.890(15) 7_556 5_655
Ru Nd1 Nd2 140.890(15) 7_546 5_655
Ge1 Nd1 Nd1 140.62(3) 7_556 7_545
Ge1 Nd1 Nd1 86.51(3) 7_546 7_545
Ge2 Nd1 Nd1 54.66(2) . 7_545
Ge2 Nd1 Nd1 51.102(19) 7_545 7_545
Ge2 Nd1 Nd1 99.38(3) 7 7_545
Ru Nd1 Nd1 59.309(17) 1_554 7_545
In Nd1 Nd1 158.74(2) 3 7_545
In Nd1 Nd1 100.66(3) 3_545 7_545
Ru Nd1 Nd1 96.80(3) 7_556 7_545
Ru Nd1 Nd1 52.890(19) 7_546 7_545
Nd2 Nd1 Nd1 102.37(2) 5_655 7_545
Ge1 Nd2 Ge1 92.05(4) 3 3_545
Ge1 Nd2 Ru 108.50(2) 3 5_656
Ge1 Nd2 Ru 108.50(2) 3_545 5_656
Ge1 Nd2 Ge2 81.91(3) 3 3
Ge1 Nd2 Ge2 148.54(3) 3_545 3
Ru Nd2 Ge2 46.519(18) 5_656 3
Ge1 Nd2 Ge2 148.54(3) 3 3_545
Ge1 Nd2 Ge2 81.91(3) 3_545 3_545
Ru Nd2 Ge2 46.519(18) 5_656 3_545
Ge2 Nd2 Ge2 87.33(3) 3 3_545
Ge1 Nd2 Ru 47.83(2) 3 3
Ge1 Nd2 Ru 108.15(3) 3_545 3
Ru Nd2 Ru 60.72(2) 5_656 3
Ge2 Nd2 Ru 46.61(3) 3 3
Ge2 Nd2 Ru 104.83(3) 3_545 3
Ge1 Nd2 Ru 108.15(3) 3 3_545
Ge1 Nd2 Ru 47.83(2) 3_545 3_545
Ru Nd2 Ru 60.72(2) 5_656 3_545
Ge2 Nd2 Ru 104.83(3) 3 3_545
Ge2 Nd2 Ru 46.61(3) 3_545 3_545
Ru Nd2 Ru 86.14(3) 3 3_545
Ge1 Nd2 Ge1 107.80(2) 3 7_546
Ge1 Nd2 Ge1 48.58(3) 3_545 7_546
Ru Nd2 Ge1 137.315(18) 5_656 7_546
Ge2 Nd2 Ge1 161.78(3) 3 7_546
Ge2 Nd2 Ge1 91.25(3) 3_545 7_546
Ru Nd2 Ge1 150.11(2) 3 7_546
Ru Nd2 Ge1 87.08(3) 3_545 7_546
Ge1 Nd2 Ge1 48.58(3) 3 7_556
Ge1 Nd2 Ge1 107.80(2) 3_545 7_556
Ru Nd2 Ge1 137.315(18) 5_656 7_556
Ge2 Nd2 Ge1 91.25(3) 3 7_556
Ge2 Nd2 Ge1 161.78(3) 3_545 7_556
Ru Nd2 Ge1 87.08(3) 3 7_556
Ru Nd2 Ge1 150.11(2) 3_545 7_556
Ge1 Nd2 Ge1 84.45(4) 7_546 7_556
Ge1 Nd2 In 150.01(2) 3 3_545
Ge1 Nd2 In 87.85(3) 3_545 3_545
Ru Nd2 In 99.899(17) 5_656 3_545
Ge2 Nd2 In 112.48(3) 3 3_545
Ge2 Nd2 In 61.02(2) 3_545 3_545
Ru Nd2 In 157.629(18) 3 3_545
Ru Nd2 In 93.86(3) 3_545 3_545
Ge1 Nd2 In 51.96(2) 7_546 3_545
Ge1 Nd2 In 103.16(2) 7_556 3_545
Ge1 Nd2 In 87.85(3) 3 3
Ge1 Nd2 In 150.01(2) 3_545 3
Ru Nd2 In 99.899(17) 5_656 3
Ge2 Nd2 In 61.02(2) 3 3
Ge2 Nd2 In 112.48(3) 3_545 3
Ru Nd2 In 93.86(3) 3 3
Ru Nd2 In 157.629(18) 3_545 3
Ge1 Nd2 In 103.16(3) 7_546 3
Ge1 Nd2 In 51.96(2) 7_556 3
In Nd2 In 77.78(3) 3_545 3
Ge1 Nd2 Ge2 78.34(3) 3 5_656
Ge1 Nd2 Ge2 78.34(3) 3_545 5_656
Ru Nd2 Ge2 44.12(3) 5_656 5_656
Ge2 Nd2 Ge2 70.20(3) 3 5_656
Ge2 Nd2 Ge2 70.20(3) 3_545 5_656
Ru Nd2 Ge2 43.209(16) 3 5_656
Ru Nd2 Ge2 43.209(15) 3_545 5_656
Ge1 Nd2 Ge2 126.16(2) 7_546 5_656
Ge1 Nd2 Ge2 126.16(2) 7_556 5_656
In Nd2 Ge2 130.684(15) 3_545 5_656
In Nd2 Ge2 130.684(15) 3 5_656
Ge2 Ru Ge2 123.00(5) 7_556 7_546
Ge2 Ru Ge2 100.49(3) 7_556 .
Ge2 Ru Ge2 100.49(3) 7_546 .
Ge2 Ru Ge1 111.55(3) 7_556 .
Ge2 Ru Ge1 111.55(3) 7_546 .
Ge2 Ru Ge1 107.23(3) . .
Ge2 Ru Nd2 67.45(2) 7_556 5_656
Ge2 Ru Nd2 67.45(2) 7_546 5_656
Ge2 Ru Nd2 75.92(3) . 5_656
Ge1 Ru Nd2 176.85(3) . 5_656
Ge2 Ru Nd2 160.35(3) 7_556 3_445
Ge2 Ru Nd2 75.02(3) 7_546 3_445
Ge2 Ru Nd2 65.97(2) . 3_445
Ge1 Ru Nd2 62.71(2) . 3_445
Nd2 Ru Nd2 119.28(2) 5_656 3_445
Ge2 Ru Nd2 75.02(3) 7_556 3_455
Ge2 Ru Nd2 160.35(3) 7_546 3_455
Ge2 Ru Nd2 65.97(2) . 3_455
Ge1 Ru Nd2 62.71(2) . 3_455
Nd2 Ru Nd2 119.28(2) 5_656 3_455
Nd2 Ru Nd2 86.14(3) 3_445 3_455
Ge2 Ru Nd1 66.23(2) 7_556 1_556
Ge2 Ru Nd1 66.23(2) 7_546 1_556
Ge2 Ru Nd1 144.80(3) . 1_556
Ge1 Ru Nd1 107.96(3) . 1_556
Nd2 Ru Nd1 68.89(2) 5_656 1_556
Nd2 Ru Nd1 133.030(16) 3_445 1_556
Nd2 Ru Nd1 133.030(16) 3_455 1_556
Ge2 Ru Nd1 58.32(3) 7_556 7_556
Ge2 Ru Nd1 124.78(3) 7_546 7_556
Ge2 Ru Nd1 134.70(2) . 7_556
Ge1 Ru Nd1 57.676(18) . 7_556
Nd2 Ru Nd1 120.168(17) 5_656 7_556
Nd2 Ru Nd1 120.33(3) 3_445 7_556
Nd2 Ru Nd1 69.73(3) 3_455 7_556
Nd1 Ru Nd1 67.80(3) 1_556 7_556
Ge2 Ru Nd1 124.78(3) 7_556 7_546
Ge2 Ru Nd1 58.32(3) 7_546 7_546
Ge2 Ru Nd1 134.70(2) . 7_546
Ge1 Ru Nd1 57.676(18) . 7_546
Nd2 Ru Nd1 120.168(17) 5_656 7_546
Nd2 Ru Nd1 69.73(3) 3_445 7_546
Nd2 Ru Nd1 120.33(3) 3_455 7_546
Nd1 Ru Nd1 67.80(3) 1_556 7_546
Nd1 Ru Nd1 77.12(3) 7_556 7_546
Ge1 In Ge1 180.00(3) 5_556 1_554
Ge1 In Nd1 56.668(15) 5_556 3_445
Ge1 In Nd1 123.332(15) 1_554 3_445
Ge1 In Nd1 123.332(15) 5_556 7
Ge1 In Nd1 56.668(15) 1_554 7
Nd1 In Nd1 180.0 3_445 7
Ge1 In Nd1 123.332(15) 5_556 7_545
Ge1 In Nd1 56.668(15) 1_554 7_545
Nd1 In Nd1 99.65(3) 3_445 7_545
Nd1 In Nd1 80.35(3) 7 7_545
Ge1 In Nd1 56.668(15) 5_556 3_455
Ge1 In Nd1 123.332(15) 1_554 3_455
Nd1 In Nd1 80.35(3) 3_445 3_455
Nd1 In Nd1 99.65(3) 7 3_455
Nd1 In Nd1 180.000(14) 7_545 3_455
Ge1 In Nd2 60.02(2) 5_556 3_455
Ge1 In Nd2 119.98(2) 1_554 3_455
Nd1 In Nd2 116.57(2) 3_445 3_455
Nd1 In Nd2 63.43(2) 7 3_455
Nd1 In Nd2 111.26(2) 7_545 3_455
Nd1 In Nd2 68.74(2) 3_455 3_455
Ge1 In Nd2 119.98(2) 5_556 7_545
Ge1 In Nd2 60.02(2) 1_554 7_545
Nd1 In Nd2 63.43(2) 3_445 7_545
Nd1 In Nd2 116.57(2) 7 7_545
Nd1 In Nd2 68.74(2) 7_545 7_545
Nd1 In Nd2 111.26(2) 3_455 7_545
Nd2 In Nd2 180.000(10) 3_455 7_545
Ge1 In Nd2 60.02(2) 5_556 3_445
Ge1 In Nd2 119.98(2) 1_554 3_445
Nd1 In Nd2 68.74(2) 3_445 3_445
Nd1 In Nd2 111.26(2) 7 3_445
Nd1 In Nd2 63.43(2) 7_545 3_445
Nd1 In Nd2 116.57(2) 3_455 3_445
Nd2 In Nd2 77.78(3) 3_455 3_445
Nd2 In Nd2 102.22(3) 7_545 3_445
Ge1 In Nd2 119.98(2) 5_556 7
Ge1 In Nd2 60.02(2) 1_554 7
Nd1 In Nd2 111.26(2) 3_445 7
Nd1 In Nd2 68.74(2) 7 7
Nd1 In Nd2 116.57(2) 7_545 7
Nd1 In Nd2 63.43(2) 3_455 7
Nd2 In Nd2 102.22(3) 3_455 7
Nd2 In Nd2 77.78(3) 7_545 7
Nd2 In Nd2 180.0 3_445 7
Ru Ge1 Ge1 120.22(5) . 5_556
Ru Ge1 In 130.46(3) . 1_556
Ge1 Ge1 In 109.32(5) 5_556 1_556
Ru Ge1 Nd1 77.48(2) . 7_556
Ge1 Ge1 Nd1 132.74(2) 5_556 7_556
In Ge1 Nd1 68.85(3) 1_556 7_556
Ru Ge1 Nd1 77.48(2) . 7_546
Ge1 Ge1 Nd1 132.74(2) 5_556 7_546
In Ge1 Nd1 68.85(3) 1_556 7_546
Nd1 Ge1 Nd1 92.13(4) 7_556 7_546
Ru Ge1 Nd2 69.47(2) . 3_445
Ge1 Ge1 Nd2 70.04(3) 5_556 3_445
In Ge1 Nd2 133.122(19) 1_556 3_445
Nd1 Ge1 Nd2 146.84(3) 7_556 3_445
Nd1 Ge1 Nd2 78.51(3) 7_546 3_445
Ru Ge1 Nd2 69.47(2) . 3_455
Ge1 Ge1 Nd2 70.04(3) 5_556 3_455
In Ge1 Nd2 133.122(19) 1_556 3_455
Nd1 Ge1 Nd2 78.51(3) 7_556 3_455
Nd1 Ge1 Nd2 146.84(3) 7_546 3_455
Nd2 Ge1 Nd2 92.05(4) 3_445 3_455
Ru Ge1 Nd2 136.808(19) . 7_546
Ge1 Ge1 Nd2 61.38(3) 5_556 7_546
In Ge1 Nd2 68.01(2) 1_556 7_546
Nd1 Ge1 Nd2 136.68(3) 7_556 7_546
Nd1 Ge1 Nd2 76.09(3) 7_546 7_546
Nd2 Ge1 Nd2 72.20(2) 3_445 7_546
Nd2 Ge1 Nd2 131.42(3) 3_455 7_546
Ru Ge1 Nd2 136.808(19) . 7_556
Ge1 Ge1 Nd2 61.38(3) 5_556 7_556
In Ge1 Nd2 68.01(2) 1_556 7_556
Nd1 Ge1 Nd2 76.09(3) 7_556 7_556
Nd1 Ge1 Nd2 136.68(3) 7_546 7_556
Nd2 Ge1 Nd2 131.42(3) 3_445 7_556
Nd2 Ge1 Nd2 72.20(2) 3_455 7_556
Nd2 Ge1 Nd2 84.45(4) 7_546 7_556
Ru Ge2 Ru 123.00(5) 7_556 7_546
Ru Ge2 Ru 79.51(3) 7_556 .
Ru Ge2 Ru 79.51(3) 7_546 .
Ru Ge2 Nd1 77.79(3) 7_556 .
Ru Ge2 Nd1 77.79(3) 7_546 .
Ru Ge2 Nd1 131.26(4) . .
Ru Ge2 Nd2 143.83(4) 7_556 3_445
Ru Ge2 Nd2 66.03(3) 7_546 3_445
Ru Ge2 Nd2 67.43(2) . 3_445
Nd1 Ge2 Nd2 135.565(18) . 3_445
Ru Ge2 Nd2 66.03(3) 7_556 3_455
Ru Ge2 Nd2 143.83(4) 7_546 3_455
Ru Ge2 Nd2 67.43(2) . 3_455
Nd1 Ge2 Nd2 135.565(18) . 3_455
Nd2 Ge2 Nd2 87.33(3) 3_445 3_455
Ru Ge2 Nd1 146.39(3) 7_556 7_545
Ru Ge2 Nd1 68.43(3) 7_546 7_545
Ru Ge2 Nd1 133.54(2) . 7_545
Nd1 Ge2 Nd1 74.24(3) . 7_545
Nd2 Ge2 Nd1 69.14(2) 3_445 7_545
Nd2 Ge2 Nd1 125.95(3) 3_455 7_545
Ru Ge2 Nd1 68.43(3) 7_556 7
Ru Ge2 Nd1 146.39(3) 7_546 7
Ru Ge2 Nd1 133.54(2) . 7
Nd1 Ge2 Nd1 74.24(3) . 7
Nd2 Ge2 Nd1 125.95(3) 3_445 7
Nd2 Ge2 Nd1 69.14(2) 3_455 7
Nd1 Ge2 Nd1 86.16(4) 7_545 7
Ru Ge2 Nd2 61.77(2) 7_556 5_656
Ru Ge2 Nd2 61.77(2) 7_546 5_656
Ru Ge2 Nd2 59.96(3) . 5_656
Nd1 Ge2 Nd2 71.30(3) . 5_656
Nd2 Ge2 Nd2 109.80(3) 3_445 5_656
Nd2 Ge2 Nd2 109.80(3) 3_455 5_656
Nd1 Ge2 Nd2 123.72(2) 7_545 5_656
Nd1 Ge2 Nd2 123.72(2) 7 5_656
loop_
_geom_bond_atom_site_label_1
_geom_bond_atom_site_label_2
_geom_bond_distance
_geom_bond_site_symmetry_2
Nd1 Ge1 3.0178(9) 7_556
Nd1 Ge1 3.0178(9) 7_546
Nd1 Ge2 3.0355(12) .
Nd1 Ge2 3.1817(10) 7_545
Nd1 Ge2 3.1817(10) 7
Nd1 Ru 3.2331(12) 1_554
Nd1 In 3.3686(9) 3
Nd1 In 3.3686(9) 3_545
Nd1 Ru 3.4863(10) 7_556
Nd1 Ru 3.4863(10) 7_546
Nd1 Nd2 3.5912(12) 5_655
Nd1 Nd1 3.7536(12) 7_545
Nd2 Ge1 3.0198(10) 3
Nd2 Ge1 3.0198(10) 3_545
Nd2 Ru 3.1141(13) 5_656
Nd2 Ge2 3.1474(10) 3
Nd2 Ge2 3.1474(10) 3_545
Nd2 Ru 3.1822(9) 3
Nd2 Ru 3.1822(9) 3_545
Nd2 Ge1 3.2336(11) 7_546
Nd2 Ge1 3.2336(10) 7_556
Nd2 In 3.4614(9) 3_545
Nd2 In 3.4614(9) 3
Nd2 Ge2 3.4890(13) 5_656
Ru Ge2 2.4728(9) 7_556
Ru Ge2 2.4728(9) 7_546
Ru Ge2 2.5042(14) .
Ru Ge1 2.5184(13) .
Ru Nd2 3.1141(13) 5_656
Ru Nd2 3.1823(9) 3_445
Ru Nd2 3.1823(9) 3_455
Ru Nd1 3.2331(12) 1_556
Ru Nd1 3.4863(10) 7_556
Ru Nd1 3.4863(10) 7_546
In Ge1 2.9401(12) 5_556
In Ge1 2.9401(12) 1_554
In Nd1 3.3687(9) 3_445
In Nd1 3.3687(9) 7
In Nd1 3.3687(9) 7_545
In Nd1 3.3687(9) 3_455
In Nd2 3.4614(9) 3_455
In Nd2 3.4614(9) 7_545
In Nd2 3.4614(9) 3_445
In Nd2 3.4614(9) 7
Ge1 Ge1 2.5796(17) 5_556
Ge1 In 2.9401(12) 1_556
Ge1 Nd1 3.0179(9) 7_556
Ge1 Nd1 3.0179(9) 7_546
Ge1 Nd2 3.0198(10) 3_445
Ge1 Nd2 3.0198(10) 3_455
Ge1 Nd2 3.2336(10) 7_546
Ge1 Nd2 3.2336(10) 7_556
Ge2 Ru 2.4728(9) 7_556
Ge2 Ru 2.4728(9) 7_546
Ge2 Nd2 3.1474(10) 3_445
Ge2 Nd2 3.1474(10) 3_455
Ge2 Nd1 3.1817(10) 7_545
Ge2 Nd1 3.1817(10) 7
Ge2 Nd2 3.4891(13) 5_656
