#------------------------------------------------------------------------------
#$Date: 2016-03-24 00:14:39 +0200 (Thu, 24 Mar 2016) $
#$Revision: 179528 $
#$URL: svn://www.crystallography.net/cod/cif/4/34/25/4342571.cif $
#------------------------------------------------------------------------------
#
# This file is available in the Crystallography Open Database (COD),
# http://www.crystallography.net/
#
# All data on this site have been placed in the public domain by the
# contributors.
#
data_4342571
loop_
_publ_author_name
'Oliynyk, Anton O.'
'Stoyko, Stanislav S.'
'Mar, Arthur'
_publ_section_title
;
 Many Metals Make the Cut: Quaternary Rare-Earth Germanides RE4M2InGe4 (M
 = Fe, Co, Ni, Ru, Rh, Ir) and RE4RhInGe4 Derived from Excision of Slabs
 in RE2InGe2.
;
_journal_issue                   6
_journal_name_full               'Inorganic chemistry'
_journal_page_first              2780
_journal_page_last               2792
_journal_paper_doi               10.1021/ic502955h
_journal_volume                  54
_journal_year                    2015
_chemical_formula_structural     'Ce4 Ru2 In Ge4'
_chemical_formula_sum            'Ce4 Ge4 In Ru2'
_chemical_formula_weight         1167.80
_chemical_name_common            'cerium ruthenium indium germanide (4/2/1/4)'
_chemical_name_systematic        'cerium ruthenium indium germanide (4/2/1/4)'
_space_group_crystal_system      monoclinic
_space_group_IT_number           12
_space_group_name_Hall           '-C 2y'
_space_group_name_H-M_alt        'C 1 2/m 1'
_symmetry_space_group_name_Hall  '-C 2y'
_symmetry_space_group_name_H-M   'C 1 2/m 1'
_atom_sites_solution_primary     direct
_atom_sites_solution_secondary   difmap
_audit_creation_method           SHELXL-2013
_cell_angle_alpha                90
_cell_angle_beta                 106.144(3)
_cell_angle_gamma                90
_cell_formula_units_Z            2
_cell_length_a                   16.174(4)
_cell_length_b                   4.3794(10)
_cell_length_c                   7.2321(17)
_cell_measurement_reflns_used    2578
_cell_measurement_temperature    173(2)
_cell_measurement_theta_max      33.15
_cell_measurement_theta_min      2.62
_cell_volume                     492.1(2)
_computing_cell_refinement       'Bruker SAINT 8.27B (Bruker, 2011)'
_computing_data_collection       'Bruker APEX 2 (Bruker, 2008)'
_computing_data_reduction        'Bruker SAINT 8.27B'
_computing_molecular_graphics    'ATOMS 5.1 (Dowty, 1999)'
_computing_publication_material  'Bruker SHELXTL'
_computing_structure_refinement  'Bruker SHELXTL'
_computing_structure_solution    'Bruker SHELXTL'
_diffrn_ambient_temperature      173(2)
_diffrn_measured_fraction_theta_full 1.000
_diffrn_measured_fraction_theta_max 0.973
_diffrn_measurement_device_type  'Bruker PLATFORM/SMART APEX II CCD'
_diffrn_measurement_method       '\w and \f scans'
_diffrn_radiation_type           MoK\a
_diffrn_radiation_wavelength     0.71073
_diffrn_reflns_av_R_equivalents  0.0301
_diffrn_reflns_av_unetI/netI     0.0272
_diffrn_reflns_Laue_measured_fraction_full 1.000
_diffrn_reflns_Laue_measured_fraction_max 0.973
_diffrn_reflns_limit_h_max       24
_diffrn_reflns_limit_h_min       -24
_diffrn_reflns_limit_k_max       6
_diffrn_reflns_limit_k_min       -6
_diffrn_reflns_limit_l_max       11
_diffrn_reflns_limit_l_min       -11
_diffrn_reflns_number            3534
_diffrn_reflns_point_group_measured_fraction_full 1.000
_diffrn_reflns_point_group_measured_fraction_max 0.973
_diffrn_reflns_theta_full        25.242
_diffrn_reflns_theta_max         33.284
_diffrn_reflns_theta_min         2.622
_diffrn_source                   'fine-focus sealed tube'
_exptl_absorpt_coefficient_mu    35.293
_exptl_absorpt_correction_T_max  0.6524
_exptl_absorpt_correction_T_min  0.1382
_exptl_absorpt_correction_type   numerical
_exptl_absorpt_process_details   'Bruker SHELXTL (Sheldrick, 2013)'
_exptl_crystal_colour            grey
_exptl_crystal_density_diffrn    7.882
_exptl_crystal_density_method    'not measured'
_exptl_crystal_description       irregular
_exptl_crystal_F_000             994
_exptl_crystal_size_max          0.189
_exptl_crystal_size_mid          0.041
_exptl_crystal_size_min          0.019
_refine_diff_density_max         1.603
_refine_diff_density_min         -1.687
_refine_diff_density_rms         0.370
_refine_ls_extinction_coef       0.00053(8)
_refine_ls_extinction_expression Fc^*^=kFc[1+0.001xFc^2^\l^3^/sin(2\q)]^-1/4^
_refine_ls_extinction_method     SHELXL
_refine_ls_goodness_of_fit_ref   1.062
_refine_ls_hydrogen_treatment    undef
_refine_ls_matrix_type           full
_refine_ls_number_parameters     37
_refine_ls_number_reflns         1025
_refine_ls_number_restraints     0
_refine_ls_restrained_S_all      1.062
_refine_ls_R_factor_all          0.0294
_refine_ls_R_factor_gt           0.0218
_refine_ls_shift/su_max          0.001
_refine_ls_shift/su_mean         0.000
_refine_ls_structure_factor_coef Fsqd
_refine_ls_weighting_details
'w=1/[\s^2^(Fo^2^)+(0.0261P)^2^+0.2084P] where P=(Fo^2^+2Fc^2^)/3'
_refine_ls_weighting_scheme      calc
_refine_ls_wR_factor_gt          0.0493
_refine_ls_wR_factor_ref         0.0513
_reflns_Friedel_coverage         0.000
_reflns_number_gt                878
_reflns_number_total             1025
_reflns_threshold_expression     'I > 2\s(I)'
_cod_data_source_file            ic502955h_si_004.cif
_cod_data_source_block           Ce4Ru2InGe4
_cod_depositor_comments
'Adding full bibliography for 4342570--4342590.cif.'
_cod_database_code               4342571
#BEGIN Tags that were not found in dictionaries:
_shelx_space_group_comment
;
The symmetry employed for this shelxl refinement is uniquely defined
by the following loop, which should always be used as a source of
symmetry information in preference to the above space-group names.
They are only intended as comments.
;
_shelx_estimated_absorpt_t_min   0.057
_shelx_estimated_absorpt_t_max   0.554
_shelxl_version_number           2013-4
_shelx_res_file
;
TITL Ce4Ru2InGe4 C2/m lsf final refinement
CELL 0.71073  16.17370   4.37940   7.23210  90.0000 106.1443  90.0000
ZERR    2.00   0.00380   0.00100   0.00170   0.0000   0.0032   0.0000
LATT  7
SYMM -X, Y, -Z
SFAC GE RU IN CE
UNIT 8 4 2 8
TEMP -100
SIZE 0.019 0.041 0.189

L.S. 4
ACTA

WGHT    0.026100    0.208400
EXTI    0.000528
FVAR       0.04588
CE1   4    0.349535    0.000000    0.061184    10.50000    0.00853    0.00688 =
         0.00761    0.00000    0.00145    0.00000
CE2   4    0.588423    0.000000    0.378523    10.50000    0.00771    0.00631 =
         0.00842    0.00000    0.00268    0.00000
RU    2    0.217805    0.000000    0.626021    10.50000    0.00794    0.00567 =
         0.00874    0.00000    0.00231    0.00000
IN    3    0.000000    0.000000    0.000000     0.24047    0.01106    0.00790 =
         0.00943    0.00000    0.00363    0.00000
GE1   1    0.065407    0.000000    0.653477    10.50000    0.00767    0.00692 =
         0.00838    0.00000    0.00170    0.00000
GE2   1    0.211692    0.000000    0.276278    10.50000    0.01115    0.00573 =
         0.00834    0.00000    0.00367    0.00000
HKLF 4

REM  Ce4Ru2InGe4 C2/m lsf final refinement
REM R1 =  0.0218 for     878 Fo > 4sig(Fo)  and  0.0294 for all    1025 data
REM     37 parameters refined using      0 restraints

END

WGHT      0.0261      0.2085

REM Highest difference peak  1.603,  deepest hole -1.687,  1-sigma level  0.370
Q1    1   0.5836  0.0000  0.5248  10.50000  0.05    1.60
Q2    1   0.2996  0.0000  0.3176  10.50000  0.05    1.53
Q3    1   0.6065 -0.1124  0.3396  11.00000  0.05    1.50
Q4    1   0.1197  0.0000  0.3292  10.50000  0.05    1.48
Q5    1   0.3894  0.0000  0.0298  10.50000  0.05    1.48
Q6    1   0.3032  0.0000  0.0984  10.50000  0.05    1.47
Q7    1   0.6525  0.0000  0.3794  10.50000  0.05    1.43
Q8    1   0.6601 -0.1050  0.2971  11.00000  0.05    1.39
Q9    1   0.5481  0.0000  0.4164  10.50000  0.05    1.38
Q10   1   0.6452  0.0000  0.5583  10.50000  0.05    1.32
Q11   1   0.5296  0.0000  0.5154  10.50000  0.05    1.25
Q12   1   0.2928  0.0000  0.5276  10.50000  0.05    1.24
Q13   1   0.0851  0.0000  0.0037  10.50000  0.05    1.23
Q14   1   0.4541  0.0000 -0.0632  10.50000  0.05    1.23
Q15   1   0.2746  0.0000  0.1859  10.50000  0.05    1.20
Q16   1   0.3102  0.0000 -0.0160  10.50000  0.05    1.16
Q17   1   0.1571  0.0000  0.6026  10.50000  0.05    1.16
Q18   1   0.3033  0.0000  0.3934  10.50000  0.05    1.15
Q19   1   0.3434 -0.5000  0.0557  10.50000  0.05    1.15
Q20   1   0.2634  0.0000  0.8572  10.50000  0.05    1.14
;
_shelx_res_checksum              94249
_shelx_hkl_file
;
   6   0 -11   20.09    2.70
   8   0 -11   -1.12    1.19
   9   1 -11    0.54    1.93
   0  -2 -10    4.00    1.50
   2  -2 -10   -0.01    0.91
   4  -2 -10    2.72    1.04
   6  -2 -10    1.11    0.92
   8  -2 -10   32.22    2.30
  10  -2 -10   65.32    3.14
  12  -2 -10    7.12    1.42
  -3  -1 -10    7.92    1.89
  -1  -1 -10   -0.54    0.95
   1  -1 -10    1.66    0.98
   3  -1 -10    0.06    1.31
   5  -1 -10   35.63    3.92
   7  -1 -10    4.92    1.19
   9  -1 -10   11.89    1.63
  11  -1 -10   -0.31    0.94
  13  -1 -10   21.70    2.11
  15  -1 -10    2.85    1.87
  -2   0 -10    1.12    1.52
   0   0 -10    1.98    1.77
   2   0 -10   -0.40    1.44
   4   0 -10    1.42    0.97
   6   0 -10    0.12    0.83
   8   0 -10   36.70    2.40
  10   0 -10   74.68    4.85
  12   0 -10    8.64    1.35
  14   0 -10    3.75    1.59
  -1   1 -10    0.97    1.62
   1   1 -10    1.30    1.53
   3   1 -10    0.61    0.93
   5   1 -10   33.86    2.31
   7   1 -10    3.42    1.15
   9   1 -10    8.12    1.41
  11   1 -10   -0.21    1.12
   0   2 -10    5.59    1.75
   2   2 -10   -0.34    0.96
   4   2 -10    3.05    1.17
   6   2 -10   -0.03    0.88
   8   2 -10   28.53    3.27
  -3  -3  -9    2.84    1.78
  -1  -3  -9   80.69    3.43
   1  -3  -9    2.28    1.00
   3  -3  -9    0.97    0.83
   5  -3  -9   37.17    2.33
   7  -3  -9   22.60    1.95
   9  -3  -9    2.20    0.81
  11  -3  -9   28.94    1.82
  13  -3  -9   39.65    2.81
  -6  -2  -9    2.89    1.93
  -4  -2  -9    4.73    1.24
  -2  -2  -9   10.60    1.45
   0  -2  -9   49.10    2.49
   2  -2  -9   37.80    2.15
   4  -2  -9   20.53    1.75
   6  -2  -9    4.03    0.79
   8  -2  -9    2.13    0.69
  10  -2  -9    4.73    0.87
  12  -2  -9    7.44    1.37
  14  -2  -9    0.26    0.95
  16  -2  -9  113.60    4.29
  -7  -1  -9    7.69    1.36
  -5  -1  -9    8.49    1.41
  -3  -1  -9    4.33    1.16
  -1  -1  -9   96.90    3.49
   1  -1  -9    3.03    0.90
   3  -1  -9    2.21    0.80
   5  -1  -9   53.07    1.91
   7  -1  -9   32.49    1.54
   9  -1  -9    4.14    0.99
  11  -1  -9   28.37    2.19
  13  -1  -9   49.99    2.57
  15  -1  -9   12.32    1.59
  17  -1  -9    0.67    1.20
  -8   0  -9    0.36    1.42
  -6   0  -9   17.65    1.81
  -4   0  -9    7.03    1.30
  -2   0  -9   11.28    1.40
   0   0  -9   40.54    3.67
   2   0  -9   41.80    2.32
   4   0  -9   22.87    1.91
   6   0  -9    4.23    0.96
   8   0  -9    3.05    0.91
  10   0  -9    3.41    1.00
  12   0  -9    5.83    1.17
  14   0  -9    1.27    1.09
  18   0  -9   -0.46    1.16
  -5   1  -9    9.20    2.32
  -3   1  -9    1.93    1.71
   1   1  -9    4.64    1.06
   3   1  -9    2.63    0.95
   5   1  -9   43.50    2.42
   7   1  -9   27.61    2.21
   9   1  -9    1.44    0.92
  11   1  -9   27.76    2.99
  13   1  -9   43.02    3.49
  15   1  -9   11.81    2.19
  17   1  -9    0.33    1.25
  -4   2  -9    4.16    2.07
  -2   2  -9   10.36    1.53
   0   2  -9   51.98    2.70
   2   2  -9   36.22    2.36
   4   2  -9   16.96    1.81
   6   2  -9    4.57    1.18
   8   2  -9    2.17    1.14
  10   2  -9    4.27    1.49
  12   2  -9    5.86    1.77
  14   2  -9    2.54    1.50
  -3   3  -9    4.02    1.60
  -1   3  -9   89.44    4.89
   1   3  -9    2.73    1.24
   3   3  -9    2.04    1.20
   5   3  -9   37.31    3.73
   7   3  -9   21.61    2.91
   9   3  -9    3.13    1.52
  11   3  -9   19.74    3.01
  13   3  -9   31.44    3.83
  -2  -4  -8    2.00    1.81
   0  -4  -8   12.83    1.63
   2  -4  -8   13.56    1.61
   4  -4  -8   21.42    1.96
   6  -4  -8   10.57    1.49
   8  -4  -8   11.65    1.56
  10  -4  -8   55.48    2.93
  12  -4  -8   -0.37    1.35
  -7  -3  -8    6.01    1.71
  -5  -3  -8   23.57    1.63
  -3  -3  -8    8.36    1.38
  -1  -3  -8    0.68    0.81
   1  -3  -8   13.15    1.49
   3  -3  -8   15.11    1.58
   5  -3  -8   88.64    3.20
   7  -3  -8   29.36    1.69
   9  -3  -8    0.16    0.76
  11  -3  -8   41.73    2.40
  13  -3  -8    0.03    0.83
  15  -3  -8   16.06    1.92
  17  -3  -8    1.90    1.73
  -8  -2  -8    1.51    0.91
  -6  -2  -8   79.38    2.55
  -4  -2  -8    9.71    1.06
  -2  -2  -8    0.71    0.79
   0  -2  -8   21.93    1.77
   2  -2  -8   20.26    1.68
   4  -2  -8   30.10    1.41
   6  -2  -8   13.88    1.11
   8  -2  -8   22.00    1.36
  10  -2  -8   78.32    3.08
  12  -2  -8    0.00    0.72
  14  -2  -8    2.02    0.96
  16  -2  -8    0.60    0.89
  18  -2  -8    2.57    1.17
  -9  -1  -8    2.14    1.01
  -7  -1  -8    8.73    1.36
  -5  -1  -8   25.93    2.02
  -3  -1  -8   10.72    1.32
  -1  -1  -8    1.35    0.70
   1  -1  -8   21.59    1.64
   3  -1  -8   20.82    1.29
   5  -1  -8  117.81    2.76
   7  -1  -8   39.00    1.51
   9  -1  -8    0.30    0.47
  11  -1  -8   56.31    2.55
  13  -1  -8   -0.56    0.68
  15  -1  -8   19.49    1.84
  17  -1  -8    0.15    1.17
  19  -1  -8   75.99    4.75
 -10   0  -8   72.51    3.24
  -8   0  -8    2.01    0.98
  -6   0  -8   86.29    3.24
  -4   0  -8   10.89    1.35
  -2   0  -8    0.74    0.70
   0   0  -8   28.33    1.37
   2   0  -8   23.94    1.32
   4   0  -8   37.76    1.47
   6   0  -8   12.40    1.37
   8   0  -8   22.98    1.84
  10   0  -8   86.54    3.18
  12   0  -8    0.14    0.65
  14   0  -8    1.76    1.06
  16   0  -8    1.57    1.14
  18   0  -8    0.72    1.26
  20   0  -8    0.90    1.35
 -11   1  -8   24.89    2.98
  -9   1  -8    2.07    1.09
  -7   1  -8   10.26    1.50
  -5   1  -8   24.80    3.16
  -3   1  -8   12.22    2.28
  -1   1  -8    1.72    0.80
   1   1  -8   16.34    1.59
   3   1  -8   16.35    1.58
   5   1  -8  113.16    3.82
   7   1  -8   30.49    2.09
   9   1  -8    0.80    0.69
  11   1  -8   53.25    2.56
  13   1  -8    0.63    0.99
  15   1  -8   12.06    2.21
  17   1  -8   -1.03    0.92
  21   1  -8    0.41    1.43
  -8   2  -8    0.45    1.47
  -4   2  -8   10.62    1.44
  -2   2  -8   -0.14    0.74
   0   2  -8   22.90    1.99
   2   2  -8   19.67    1.86
   4   2  -8   28.95    2.25
   6   2  -8   11.23    1.49
   8   2  -8   16.98    1.85
  10   2  -8   73.13    4.42
  12   2  -8    2.49    1.31
  14   2  -8    1.46    1.30
  16   2  -8   -0.11    1.13
  18   2  -8    0.82    1.44
  20   2  -8   -0.89    1.48
  -5   3  -8   20.72    1.98
  -3   3  -8    7.74    1.34
  -1   3  -8   -0.16    0.78
   1   3  -8   10.88    1.52
   3   3  -8    9.92    1.53
   5   3  -8   83.74    4.63
   7   3  -8   27.53    3.12
   9   3  -8   -0.32    0.93
  11   3  -8   46.14    3.82
  13   3  -8   -0.75    1.22
  15   3  -8   11.33    2.75
  17   3  -8    0.13    1.73
  -2   4  -8    0.66    1.04
   0   4  -8   11.83    1.74
   2   4  -8   13.67    1.83
   4   4  -8   19.76    2.81
   6   4  -8    5.64    1.73
   8   4  -8   11.71    2.34
  10   4  -8   53.05    4.42
  12   4  -8   -0.43    1.68
   1  -5  -7   43.84    3.93
   3  -5  -7   -0.66    1.40
   5  -5  -7   -0.30    1.44
  -6  -4  -7   -0.26    0.77
  -4  -4  -7   48.37    2.39
  -2  -4  -7   21.26    1.90
   0  -4  -7   32.43    2.31
   2  -4  -7   16.24    1.60
   4  -4  -7    2.14    0.85
   6  -4  -7   17.99    1.73
   8  -4  -7    4.70    1.16
  10  -4  -7   54.51    2.73
  12  -4  -7    3.89    1.14
  14  -4  -7   22.50    2.18
  -9  -3  -7    0.97    0.90
  -7  -3  -7   37.54    2.15
  -5  -3  -7    0.81    0.61
  -3  -3  -7   22.04    1.86
  -1  -3  -7    0.11    0.62
   1  -3  -7   60.53    2.49
   3  -3  -7    0.45    0.60
   5  -3  -7    0.52    0.51
   7  -3  -7    6.87    1.14
   9  -3  -7    0.51    0.68
  11  -3  -7    4.61    1.08
  13  -3  -7   33.67    2.24
  15  -3  -7   18.84    1.93
  17  -3  -7   53.32    2.86
  19  -3  -7   -0.28    1.55
 -12  -2  -7    2.43    1.35
 -10  -2  -7    0.74    0.77
  -8  -2  -7    2.41    0.69
  -6  -2  -7    0.03    0.56
  -4  -2  -7   76.44    2.88
  -2  -2  -7   32.28    1.90
   0  -2  -7   46.96    2.09
   2  -2  -7   25.00    1.29
   4  -2  -7    6.80    0.80
   6  -2  -7   29.10    1.34
   8  -2  -7   10.77    1.30
  10  -2  -7   94.02    3.27
  12  -2  -7    5.77    1.05
  14  -2  -7   34.97    2.24
  16  -2  -7    3.39    1.02
  18  -2  -7   13.19    1.65
  20  -2  -7    3.95    1.62
 -11  -1  -7    6.44    1.66
  -9  -1  -7    3.18    0.98
  -7  -1  -7   59.30    1.97
  -5  -1  -7    1.04    0.48
  -3  -1  -7   30.22    1.83
  -1  -1  -7   -0.55    0.48
   1  -1  -7   88.09    2.23
   3  -1  -7    1.83    0.47
   5  -1  -7    0.63    0.41
   7  -1  -7   12.37    0.94
   9  -1  -7   -0.40    0.51
  11  -1  -7    4.51    0.93
  13  -1  -7   48.00    2.24
  15  -1  -7   29.58    1.97
  17  -1  -7   70.89    4.16
  19  -1  -7    0.94    1.13
  21  -1  -7    4.49    1.68
 -12   0  -7    3.71    1.16
 -10   0  -7    0.76    0.82
  -8   0  -7    1.93    0.87
  -6   0  -7   -0.34    0.64
  -4   0  -7   94.00    3.17
  -2   0  -7   43.64    1.55
   0   0  -7   61.01    1.82
   2   0  -7   33.37    1.29
   4   0  -7   10.86    0.86
   6   0  -7   32.08    1.26
   8   0  -7   13.04    0.92
  10   0  -7  110.16    3.42
  12   0  -7    6.54    1.03
  14   0  -7   41.14    3.05
  16   0  -7    3.94    1.41
  18   0  -7   14.55    2.29
  20   0  -7    2.80    1.42
  22   0  -7    1.49    1.47
 -13   1  -7    3.01    1.19
 -11   1  -7    7.57    1.34
  -9   1  -7    2.35    0.95
  -7   1  -7   54.78    2.54
  -5   1  -7    0.93    0.70
  -3   1  -7   31.21    1.42
  -1   1  -7    0.46    0.44
   1   1  -7   85.43    2.98
   3   1  -7    0.95    0.62
   5   1  -7    0.45    0.59
   7   1  -7   12.22    1.36
   9   1  -7    1.45    0.70
  11   1  -7    5.98    1.07
  13   1  -7   44.94    3.23
  15   1  -7   23.24    2.73
  17   1  -7   68.17    4.32
  19   1  -7    0.40    1.16
  21   1  -7    2.62    1.50
 -12   2  -7    3.42    1.26
 -10   2  -7   -0.59    1.31
  -8   2  -7    2.50    1.49
  -6   2  -7    0.18    0.68
  -4   2  -7   76.07    2.99
  -2   2  -7   33.82    1.94
   0   2  -7   47.66    2.28
   2   2  -7   21.35    1.78
   4   2  -7    8.85    1.20
   6   2  -7   31.80    2.04
   8   2  -7   10.57    1.49
  10   2  -7   97.84    4.88
  12   2  -7    5.36    1.58
  14   2  -7   44.96    3.60
  16   2  -7    4.65    1.78
  18   2  -7    9.91    2.32
  20   2  -7    4.06    1.81
  -9   3  -7    2.10    1.70
  -7   3  -7   37.30    2.35
  -5   3  -7    0.50    0.74
  -3   3  -7   19.65    1.81
  -1   3  -7   -0.57    0.61
   1   3  -7   58.15    2.72
   3   3  -7   -0.45    0.63
   5   3  -7    0.50    0.76
   7   3  -7    8.78    1.79
   9   3  -7   -0.18    0.57
  11   3  -7    3.82    0.91
  13   3  -7   32.15    2.02
  15   3  -7   14.81    3.23
  -6   4  -7    0.59    1.00
  -4   4  -7   47.53    2.72
  -2   4  -7   21.35    2.07
   0   4  -7   30.28    2.43
   2   4  -7   12.06    1.59
   4   4  -7    3.83    1.43
   6   4  -7   16.34    2.47
   8   4  -7    5.73    1.70
  10   4  -7   56.65    2.65
  12   4  -7    2.70    1.03
  14   4  -7   29.62    2.50
  16   4  -7    4.21    1.55
  -3  -5  -6   -0.39    0.71
  -1  -5  -6   67.17    3.87
   1  -5  -6   -0.20    0.77
   3  -5  -6    0.24    0.76
   5  -5  -6   49.37    2.50
   7  -5  -6   38.59    3.50
   9  -5  -6   22.89    2.11
  11  -5  -6    5.03    1.28
  -8  -4  -6    1.11    0.81
  -6  -4  -6    4.82    0.99
  -4  -4  -6   12.40    1.20
  -2  -4  -6   34.52    1.97
   0  -4  -6    0.46    0.69
   2  -4  -6    5.38    1.00
   4  -4  -6  111.27    3.54
   6  -4  -6   31.33    1.99
   8  -4  -6    7.15    1.16
  10  -4  -6   10.28    1.36
  12  -4  -6   61.94    2.85
  14  -4  -6    2.28    1.01
  16  -4  -6   17.50    1.90
 -11  -3  -6   14.63    1.53
  -9  -3  -6   87.26    3.08
  -7  -3  -6    0.18    0.63
  -5  -3  -6   42.25    1.70
  -3  -3  -6    0.60    0.61
  -1  -3  -6   99.56    3.19
   1  -3  -6   -0.41    0.45
   3  -3  -6    0.14    0.42
   5  -3  -6   85.48    2.94
   7  -3  -6   51.86    2.27
   9  -3  -6   44.43    2.13
  11  -3  -6   13.06    1.41
  13  -3  -6   37.91    2.08
  15  -3  -6    5.90    1.13
  17  -3  -6    5.81    0.94
  19  -3  -6    0.94    0.78
 -14  -2  -6    2.82    0.97
 -12  -2  -6   28.95    2.01
 -10  -2  -6   50.06    2.21
  -8  -2  -6    2.29    0.63
  -6  -2  -6    5.41    0.75
  -4  -2  -6   23.62    1.72
  -2  -2  -6   55.30    2.20
   0  -2  -6    1.81    0.59
   2  -2  -6    8.87    0.78
   4  -2  -6  183.19    3.48
   6  -2  -6   48.54    2.07
   8  -2  -6    9.42    1.14
  10  -2  -6   17.18    1.52
  12  -2  -6  101.75    2.57
  14  -2  -6    3.89    0.68
  16  -2  -6   25.41    1.49
  18  -2  -6   24.40    1.60
  20  -2  -6   85.03    4.88
  22  -2  -6    0.42    1.42
 -15  -1  -6   26.16    2.97
 -13  -1  -6   15.51    2.30
 -11  -1  -6   17.05    1.26
  -9  -1  -6  125.66    2.94
  -7  -1  -6    0.41    0.47
  -5  -1  -6   69.29    1.95
  -3  -1  -6    0.30    0.49
  -1  -1  -6  160.72    3.08
   1  -1  -6    0.42    0.35
   3  -1  -6    0.67    0.35
   5  -1  -6  123.37    2.61
   7  -1  -6   76.68    2.55
   9  -1  -6   61.14    2.31
  11  -1  -6   19.08    1.52
  13  -1  -6   57.65    2.35
  15  -1  -6    8.34    1.14
  17  -1  -6    8.56    1.72
  19  -1  -6    0.60    1.09
  21  -1  -6   48.60    3.72
  23  -1  -6    0.56    1.34
 -14   0  -6    3.35    1.46
 -12   0  -6   32.12    2.26
 -10   0  -6   53.83    2.44
  -8   0  -6    3.71    0.87
  -6   0  -6    6.73    0.99
  -4   0  -6   28.41    1.15
  -2   0  -6   70.24    1.89
   0   0  -6    1.36    0.42
   2   0  -6   12.07    0.85
   4   0  -6  225.39    3.85
   6   0  -6   62.22    1.63
   8   0  -6   12.93    1.22
  10   0  -6   20.76    1.44
  12   0  -6  124.69    3.57
  14   0  -6    5.29    0.89
  16   0  -6   38.51    2.93
  18   0  -6   25.62    2.87
  20   0  -6  101.22    5.21
  22   0  -6   -0.06    1.20
 -15   1  -6   26.50    2.27
 -13   1  -6   11.81    1.53
 -11   1  -6   17.32    1.63
  -9   1  -6  123.75    5.08
  -7   1  -6    0.03    0.64
  -5   1  -6   64.74    1.91
  -3   1  -6    0.40    0.39
  -1   1  -6  159.96    3.15
   1   1  -6    0.58    0.39
   3   1  -6   -0.19    0.33
   5   1  -6  125.76    3.57
   7   1  -6   78.27    2.71
   9   1  -6   59.23    1.69
  11   1  -6   17.59    1.53
  13   1  -6   60.69    3.56
  15   1  -6    7.18    1.53
  17   1  -6    6.34    1.46
  19   1  -6    0.49    1.12
 -14   2  -6    3.04    1.17
 -12   2  -6   25.86    2.17
 -10   2  -6   45.66    2.41
  -8   2  -6    2.03    0.64
  -6   2  -6    5.62    0.76
  -4   2  -6   24.32    1.43
  -2   2  -6   56.02    2.33
   0   2  -6    1.40    0.62
   2   2  -6   10.21    1.20
   4   2  -6  185.35    4.73
   6   2  -6   52.57    2.30
   8   2  -6   10.50    0.95
  10   2  -6   19.66    1.29
  12   2  -6  102.70    3.11
  14   2  -6    3.45    0.81
  16   2  -6   19.07    2.97
  18   2  -6   17.53    2.95
 -11   3  -6   10.61    2.38
  -9   3  -6   87.35    3.35
  -7   3  -6    0.37    0.71
  -5   3  -6   43.29    2.22
  -3   3  -6    0.40    0.59
  -1   3  -6  107.37    3.49
   1   3  -6   -0.47    0.51
   3   3  -6    0.02    0.56
   5   3  -6   88.08    3.12
   7   3  -6   54.43    2.16
   9   3  -6   41.62    1.98
  11   3  -6    8.35    1.13
  13   3  -6   35.73    2.10
  15   3  -6    7.95    1.38
  17   3  -6    9.82    1.75
 -10   4  -6   39.20    3.81
  -8   4  -6    1.20    0.94
  -6   4  -6    3.58    1.06
  -4   4  -6   13.51    1.55
  -2   4  -6   26.33    2.14
   0   4  -6    0.58    0.68
   2   4  -6    4.19    0.98
   4   4  -6   99.09    5.04
   6   4  -6   23.82    2.89
   8   4  -6    6.55    1.06
  10   4  -6    9.69    1.26
  12   4  -6   64.14    2.75
  14   4  -6    3.37    1.04
  16   4  -6   19.83    2.62
  -3   5  -6   -0.04    0.85
  -1   5  -6   61.68    3.05
   1   5  -6   -0.10    1.01
   3   5  -6    0.24    0.98
   5   5  -6   47.27    3.60
   7   5  -6   30.05    3.37
   9   5  -6   22.23    1.95
  11   5  -6    6.66    1.28
   4  -6  -5    0.11    1.63
  -7  -5  -5   13.67    1.47
  -5  -5  -5   13.35    1.45
  -3  -5  -5    4.92    0.99
  -1  -5  -5   61.34    3.59
   1  -5  -5   53.75    2.48
   3  -5  -5    8.42    1.23
   5  -5  -5   24.08    3.05
   7  -5  -5   15.69    1.73
   9  -5  -5    1.54    0.92
  11  -5  -5   31.72    2.36
  13  -5  -5    2.61    1.06
 -12  -4  -5    8.43    1.92
 -10  -4  -5    1.48    0.79
  -8  -4  -5   26.34    1.91
  -6  -4  -5  100.20    3.18
  -4  -4  -5    1.96    0.99
  -2  -4  -5   32.49    1.78
   0  -4  -5   13.00    1.32
   2  -4  -5    0.01    0.53
   4  -4  -5    0.40    0.62
   6  -4  -5   23.76    1.81
   8  -4  -5   16.66    1.58
  10  -4  -5   64.19    2.69
  12  -4  -5    8.64    1.23
  14  -4  -5   18.66    1.82
  16  -4  -5    4.23    1.14
  18  -4  -5   11.73    1.66
 -13  -3  -5   20.07    1.75
 -11  -3  -5    0.16    0.61
  -9  -3  -5    3.79    0.81
  -7  -3  -5   25.18    1.72
  -5  -3  -5   20.88    1.26
  -3  -3  -5    9.68    1.12
  -1  -3  -5  121.87    3.39
   1  -3  -5  101.42    2.36
   3  -3  -5   19.12    1.46
   5  -3  -5   43.73    1.89
   7  -3  -5   33.62    1.71
   9  -3  -5    2.57    0.71
  11  -3  -5   46.49    1.66
  13  -3  -5    4.50    0.73
  15  -3  -5  110.85    2.92
  17  -3  -5    0.55    0.63
  19  -3  -5    2.98    0.82
  21  -3  -5    0.00    1.31
 -16  -2  -5   -0.11    0.81
 -14  -2  -5   28.64    1.97
 -12  -2  -5   15.49    1.42
 -10  -2  -5    3.74    0.78
  -8  -2  -5   42.08    1.58
  -6  -2  -5  154.96    3.19
  -4  -2  -5    2.62    0.66
  -2  -2  -5   56.12    2.05
   0  -2  -5   20.60    0.98
   2  -2  -5    0.02    0.31
   4  -2  -5    0.71    0.49
   6  -2  -5   35.94    1.65
   8  -2  -5   26.78    1.09
  10  -2  -5  101.69    2.36
  12  -2  -5   11.79    0.96
  14  -2  -5   28.93    1.38
  16  -2  -5    6.85    0.83
  18  -2  -5   20.40    1.42
  20  -2  -5   25.84    2.06
  22  -2  -5    1.64    0.98
 -17  -1  -5   25.49    2.96
 -15  -1  -5   38.98    2.06
 -13  -1  -5   26.11    1.75
 -11  -1  -5    0.04    0.44
  -9  -1  -5    6.72    0.73
  -7  -1  -5   41.97    1.45
  -5  -1  -5   30.33    1.18
  -3  -1  -5   13.79    0.80
  -1  -1  -5  184.82    3.25
   1  -1  -5  155.40    2.86
   3  -1  -5   26.63    0.99
   5  -1  -5   66.86    2.20
   7  -1  -5   55.27    1.99
   9  -1  -5    4.80    0.77
  11  -1  -5   68.16    1.85
  13  -1  -5    7.82    0.78
  15  -1  -5  152.55    3.29
  17  -1  -5    0.26    0.60
  19  -1  -5    4.92    1.50
  21  -1  -5    3.57    1.42
  23  -1  -5    0.50    1.39
 -16   0  -5    0.75    1.17
 -14   0  -5   40.49    3.00
 -12   0  -5   21.20    1.77
 -10   0  -5    5.81    0.71
  -8   0  -5   54.37    1.62
  -6   0  -5  191.82    3.46
  -4   0  -5    4.68    0.43
  -2   0  -5   73.03    1.77
   0   0  -5   26.06    0.99
   2   0  -5    0.18    0.27
   4   0  -5    2.64    0.39
   6   0  -5   47.66    1.84
   8   0  -5   31.45    1.50
  10   0  -5  125.90    3.33
  12   0  -5   13.82    1.20
  14   0  -5   36.16    1.72
  16   0  -5    8.87    1.63
  18   0  -5   22.50    2.53
  20   0  -5   37.09    3.08
 -17   1  -5   16.68    2.34
 -15   1  -5   40.15    2.31
 -13   1  -5   23.85    1.88
 -11   1  -5   -0.63    0.59
  -9   1  -5    7.08    1.04
  -7   1  -5   37.24    1.38
  -5   1  -5   32.47    1.22
  -3   1  -5   13.63    0.91
  -1   1  -5  187.84    3.32
   1   1  -5  159.67    2.89
   3   1  -5   28.58    1.00
   5   1  -5   69.10    1.32
   7   1  -5   54.94    1.48
   9   1  -5    3.61    0.53
  11   1  -5   65.17    1.75
  13   1  -5    7.61    0.88
  15   1  -5  159.34    3.82
  17   1  -5    1.52    1.08
  19   1  -5    2.94    1.44
 -16   2  -5    0.54    1.01
 -14   2  -5   31.04    2.30
 -12   2  -5   19.21    1.76
 -10   2  -5    5.35    0.99
  -8   2  -5   42.88    1.60
  -6   2  -5  159.47    3.26
  -4   2  -5    3.33    0.57
  -2   2  -5   60.01    1.69
   0   2  -5   21.27    1.39
   2   2  -5    0.39    0.42
   4   2  -5    1.99    0.46
   6   2  -5   37.10    1.31
   8   2  -5   26.61    1.15
  10   2  -5  100.92    2.89
  12   2  -5    9.33    1.10
  14   2  -5   27.56    1.74
  16   2  -5    8.05    1.24
  18   2  -5   20.89    2.26
  20   2  -5   30.99    2.48
 -15   3  -5   26.12    3.13
 -13   3  -5   17.85    1.89
 -11   3  -5   -0.49    0.58
  -9   3  -5    3.81    0.76
  -7   3  -5   26.78    1.97
  -5   3  -5   21.02    1.67
  -3   3  -5    8.32    1.10
  -1   3  -5  115.60    3.54
   1   3  -5   98.07    3.16
   3   3  -5   16.55    1.41
   5   3  -5   45.20    1.52
   7   3  -5   36.33    1.68
   9   3  -5    2.23    0.66
  11   3  -5   47.53    2.06
  13   3  -5    3.82    0.85
  15   3  -5  113.08    3.70
  17   3  -5    1.37    0.97
  19   3  -5    2.14    1.22
  21   3  -5    1.77    1.35
 -12   4  -5   17.12    2.60
 -10   4  -5    3.83    1.14
  -8   4  -5   27.07    2.20
  -6   4  -5   92.75    3.49
  -4   4  -5    1.87    0.79
  -2   4  -5   35.29    1.98
   0   4  -5   12.55    1.39
   2   4  -5   -0.15    0.54
   4   4  -5    0.94    0.76
   6   4  -5   19.24    1.63
   8   4  -5   17.04    1.51
  10   4  -5   60.43    2.49
  12   4  -5    6.93    1.12
  14   4  -5   14.99    2.19
  16   4  -5    4.52    1.47
  18   4  -5   16.01    2.38
  -7   5  -5   15.50    1.85
  -5   5  -5   11.74    1.59
  -3   5  -5    4.21    1.05
  -1   5  -5   64.48    2.92
   1   5  -5   54.13    3.61
   3   5  -5    4.70    1.47
   5   5  -5   20.70    2.64
   7   5  -5   19.60    1.77
   9   5  -5    0.61    0.77
  11   5  -5   29.44    3.04
  13   5  -5    2.00    1.31
  -2  -6  -4   12.84    2.07
   0  -6  -4   16.87    2.29
   2  -6  -4   15.09    2.26
   4  -6  -4    4.79    1.87
   6  -6  -4   70.06    4.68
   8  -6  -4    0.15    1.27
  -9  -5  -4    0.07    0.96
  -7  -5  -4   -0.32    0.66
  -5  -5  -4    2.71    0.77
  -3  -5  -4    2.47    0.76
  -1  -5  -4    1.07    0.83
   1  -5  -4   53.72    2.35
   3  -5  -4   -0.01    1.08
   5  -5  -4   46.29    2.21
   7  -5  -4    3.75    0.95
   9  -5  -4   25.17    2.02
  11  -5  -4   33.37    3.29
  13  -5  -4   -0.34    1.14
 -14  -4  -4    1.55    1.27
 -12  -4  -4   29.74    2.07
 -10  -4  -4    7.19    1.09
  -8  -4  -4   58.25    2.38
  -6  -4  -4   23.10    1.64
  -4  -4  -4   13.81    1.76
  -2  -4  -4   23.89    1.57
   0  -4  -4   33.28    1.69
   2  -4  -4   31.20    1.58
   4  -4  -4   11.68    1.22
   6  -4  -4  133.18    3.71
   8  -4  -4    0.48    0.55
  10  -4  -4    2.26    0.68
  12  -4  -4    6.81    1.08
  14  -4  -4   11.27    1.31
  16  -4  -4    7.85    1.27
  18  -4  -4    8.71    1.35
 -17  -3  -4    2.09    1.34
 -15  -3  -4   26.46    1.94
 -13  -3  -4    4.73    0.94
 -11  -3  -4   69.21    2.58
  -9  -3  -4    0.33    0.52
  -7  -3  -4    0.20    0.46
  -5  -3  -4    9.42    0.82
  -3  -3  -4    7.00    0.87
  -1  -3  -4    1.46    0.54
   1  -3  -4   92.76    2.65
   3  -3  -4    0.25    0.42
   5  -3  -4   84.62    1.95
   7  -3  -4    5.59    0.62
   9  -3  -4   48.41    1.85
  11  -3  -4   55.63    2.09
  13  -3  -4    0.73    0.54
  15  -3  -4   19.64    1.61
  17  -3  -4   47.62    2.34
  19  -3  -4   22.53    1.95
  21  -3  -4   44.43    2.65
 -18  -2  -4    0.23    0.82
 -16  -2  -4   33.39    2.01
 -14  -2  -4    1.62    0.69
 -12  -2  -4   47.45    2.03
 -10  -2  -4    8.99    1.01
  -8  -2  -4  105.92    2.46
  -6  -2  -4   38.70    1.35
  -4  -2  -4   21.55    1.21
  -2  -2  -4   41.90    1.19
   0  -2  -4   57.78    1.48
   2  -2  -4   55.64    1.84
   4  -2  -4   16.55    0.76
   6  -2  -4  235.81    3.88
   8  -2  -4    0.46    0.32
  10  -2  -4    6.15    0.64
  12  -2  -4   10.40    1.06
  14  -2  -4   14.35    1.31
  16  -2  -4   10.75    1.20
  18  -2  -4   13.59    1.45
  20  -2  -4    7.09    1.15
  22  -2  -4   41.18    3.35
 -19  -1  -4    8.39    1.84
 -17  -1  -4   -0.22    0.72
 -15  -1  -4   38.93    1.95
 -13  -1  -4    5.99    0.88
 -11  -1  -4   90.92    2.26
  -9  -1  -4    0.06    0.34
  -7  -1  -4    0.44    0.35
  -5  -1  -4   17.45    0.89
  -3  -1  -4   12.34    0.67
  -1  -1  -4    2.17    0.36
   1  -1  -4  157.59    2.71
   3  -1  -4    0.52    0.35
   5  -1  -4  132.88    2.34
   7  -1  -4   11.08    0.73
   9  -1  -4   77.92    1.82
  11  -1  -4   86.66    2.04
  13  -1  -4    1.11    0.41
  15  -1  -4   30.81    1.29
  17  -1  -4   58.71    1.89
  19  -1  -4   25.72    1.92
  21  -1  -4   60.09    2.72
 -18   0  -4    0.17    1.10
 -16   0  -4   39.74    2.97
 -14   0  -4    1.64    0.59
 -12   0  -4   60.71    1.84
 -10   0  -4   14.52    0.96
  -8   0  -4  127.60    2.59
  -6   0  -4   51.94    1.17
  -4   0  -4   30.69    0.84
  -2   0  -4   52.98    1.35
   0   0  -4   80.57    1.67
   2   0  -4   78.85    1.61
   4   0  -4   24.30    1.16
   6   0  -4  310.86    4.49
   8   0  -4    1.23    0.28
  10   0  -4    7.18    0.56
  12   0  -4   13.23    0.80
  14   0  -4   21.15    0.96
  16   0  -4   11.20    1.06
  18   0  -4   15.81    2.15
  20   0  -4   12.09    1.99
 -17   1  -4    0.50    1.16
 -15   1  -4   35.66    2.03
 -13   1  -4    6.32    1.01
 -11   1  -4   90.51    2.97
  -9   1  -4    0.00    0.33
  -7   1  -4   -0.10    0.28
  -5   1  -4   15.68    0.63
  -3   1  -4   10.55    0.50
  -1   1  -4    2.60    0.38
   1   1  -4  157.77    2.69
   3   1  -4    0.68    0.25
   5   1  -4  129.81    1.87
   7   1  -4   12.39    0.71
   9   1  -4   79.52    1.81
  11   1  -4   86.97    1.97
  13   1  -4    0.23    0.43
  15   1  -4   29.89    1.53
  17   1  -4   54.73    2.20
  19   1  -4   20.94    2.17
 -18   2  -4   -0.35    1.41
 -16   2  -4   34.31    2.43
 -14   2  -4    2.32    0.88
 -12   2  -4   48.25    2.24
 -10   2  -4   11.16    0.96
  -8   2  -4  106.22    2.46
  -6   2  -4   42.19    1.39
  -4   2  -4   25.97    1.05
  -2   2  -4   42.09    1.27
   0   2  -4   61.70    1.45
   2   2  -4   55.43    1.91
   4   2  -4   16.86    0.85
   6   2  -4  239.25    3.94
   8   2  -4    0.69    0.32
  10   2  -4    5.63    0.77
  12   2  -4   12.55    1.19
  14   2  -4   16.79    1.48
  16   2  -4   11.11    1.42
  18   2  -4   14.98    1.91
  20   2  -4   10.88    1.85
  22   2  -4   32.06    3.08
 -15   3  -4   28.19    3.04
 -13   3  -4    3.34    0.80
 -11   3  -4   69.70    2.24
  -9   3  -4    0.00    0.47
  -7   3  -4    0.21    0.43
  -5   3  -4   10.05    0.85
  -3   3  -4    6.60    0.94
  -1   3  -4    1.38    0.53
   1   3  -4   94.73    2.85
   3   3  -4    0.03    0.31
   5   3  -4   82.98    2.00
   7   3  -4    5.67    0.81
   9   3  -4   48.37    1.90
  11   3  -4   57.67    2.17
  13   3  -4    0.77    0.52
  15   3  -4   18.63    2.15
  17   3  -4   42.18    2.91
  19   3  -4   18.61    2.36
  21   3  -4   47.11    3.40
 -14   4  -4    1.04    1.35
 -12   4  -4   30.86    3.24
 -10   4  -4    6.40    1.15
  -8   4  -4   56.79    2.62
  -6   4  -4   23.44    1.90
  -4   4  -4   10.21    1.25
  -2   4  -4   22.27    1.73
   0   4  -4   32.85    1.74
   2   4  -4   31.76    1.67
   4   4  -4   11.44    1.20
   6   4  -4  128.50    3.58
   8   4  -4    0.38    0.51
  10   4  -4    0.95    0.59
  12   4  -4    9.67    1.69
  14   4  -4   12.96    1.99
  16   4  -4    6.35    1.66
  18   4  -4    9.67    1.94
  -9   5  -4    0.33    0.84
  -7   5  -4   -0.42    0.70
  -5   5  -4    2.34    0.87
  -3   5  -4    1.69    0.77
  -1   5  -4    0.47    0.64
   1   5  -4   45.64    3.21
   3   5  -4   -0.18    0.73
   5   5  -4   46.55    2.18
   7   5  -4    2.02    0.74
   9   5  -4   24.21    1.88
  11   5  -4   30.95    3.18
  13   5  -4   -0.23    1.10
  -4   6  -4    3.06    1.69
   0   6  -4   16.76    2.52
   2   6  -4   15.58    2.47
   4   6  -4    2.43    1.34
   6   6  -4   60.28    4.02
  -6  -6  -3   -0.36    0.98
  -4  -6  -3   23.26    2.61
  -2  -6  -3    8.68    1.61
   4  -6  -3   38.52    3.42
   6  -6  -3   16.60    1.80
   8  -6  -3   10.41    2.08
 -11  -5  -3    2.00    0.82
  -9  -5  -3   14.18    1.97
  -7  -5  -3   30.21    2.78
  -5  -5  -3  140.95    3.78
  -3  -5  -3    2.59    0.71
  -1  -5  -3   12.35    1.72
   1  -5  -3    3.10    1.21
   3  -5  -3    9.75    1.18
   5  -5  -3    0.73    0.81
   7  -5  -3    0.27    0.82
   9  -5  -3   93.82    3.21
  11  -5  -3   45.42    2.26
  13  -5  -3    0.71    0.80
  15  -5  -3    2.12    1.00
 -14  -4  -3   31.36    2.12
 -12  -4  -3   13.95    1.39
 -10  -4  -3   43.06    1.99
  -8  -4  -3    1.93    0.63
  -6  -4  -3    0.22    0.45
  -4  -4  -3   54.38    2.02
  -2  -4  -3   21.25    1.49
   0  -4  -3  163.85    3.96
   2  -4  -3    5.59    0.79
   4  -4  -3   83.47    2.38
   6  -4  -3   32.42    1.49
   8  -4  -3   20.23    1.52
  10  -4  -3    5.06    0.87
  12  -4  -3   84.69    2.95
  14  -4  -3   61.82    2.63
  16  -4  -3   18.07    1.71
  18  -4  -3   20.90    1.93
 -17  -3  -3   10.62    1.09
 -15  -3  -3   41.25    1.67
 -13  -3  -3    0.17    0.53
 -11  -3  -3    3.23    0.73
  -9  -3  -3   32.30    1.56
  -7  -3  -3   60.40    2.10
  -5  -3  -3  270.32    4.46
  -3  -3  -3    6.10    0.78
  -1  -3  -3   27.19    0.97
   1  -3  -3    6.70    0.55
   3  -3  -3   16.67    0.77
   5  -3  -3    3.02    0.53
   7  -3  -3   -0.05    0.32
   9  -3  -3  183.17    4.16
  11  -3  -3   84.62    2.65
  13  -3  -3    0.39    0.52
  15  -3  -3    4.49    0.84
  17  -3  -3   44.70    2.21
  19  -3  -3    1.72    0.85
  21  -3  -3    0.65    0.91
 -18  -2  -3    3.51    0.94
 -16  -2  -3    0.63    0.53
 -14  -2  -3   44.19    1.97
 -12  -2  -3   23.37    1.42
 -10  -2  -3   65.50    2.22
  -8  -2  -3    3.75    0.53
  -6  -2  -3   -0.19    0.29
  -4  -2  -3  100.20    2.63
  -2  -2  -3   37.31    1.03
   0  -2  -3  344.09    4.78
   2  -2  -3   11.86    0.59
   4  -2  -3  157.92    2.15
   6  -2  -3   59.45    1.22
   8  -2  -3   34.18    0.97
  10  -2  -3    9.52    0.92
  12  -2  -3  151.49    3.65
  14  -2  -3  104.81    3.08
  16  -2  -3   28.49    1.75
  18  -2  -3   30.37    1.92
  20  -2  -3   22.80    1.91
  22  -2  -3    0.66    0.91
 -19  -1  -3   20.66    1.78
 -17  -1  -3   17.63    1.54
 -15  -1  -3   51.21    2.13
 -13  -1  -3   -0.02    0.44
 -11  -1  -3    6.70    0.70
  -9  -1  -3   45.33    1.38
  -7  -1  -3   92.08    2.01
  -5  -1  -3  425.55    6.11
  -3  -1  -3    8.61    0.50
  -1  -1  -3   47.66    1.13
   1  -1  -3   10.19    0.76
   3  -1  -3   31.33    0.84
   5  -1  -3    4.92    0.43
   7  -1  -3    0.19    0.14
   9  -1  -3  284.14    4.09
  11  -1  -3  124.61    2.31
  13  -1  -3    2.96    0.46
  15  -1  -3    9.45    0.80
  17  -1  -3   67.25    2.50
  19  -1  -3    3.15    0.84
  21  -1  -3    2.20    1.30
  23  -1  -3    5.62    1.79
 -20   0  -3   48.71    3.50
 -18   0  -3    2.83    0.88
 -16   0  -3    1.25    0.67
 -14   0  -3   53.24    1.73
 -12   0  -3   28.72    1.17
 -10   0  -3   81.51    1.96
  -8   0  -3    3.61    0.38
  -6   0  -3    0.36    0.20
  -4   0  -3  137.50    1.98
  -2   0  -3   54.16    1.22
   0   0  -3  502.96    6.69
   2   0  -3   16.02    0.59
   4   0  -3  225.40    3.25
   6   0  -3   82.05    1.51
   8   0  -3   44.29    1.07
  10   0  -3   11.69    0.56
  12   0  -3  185.61    2.77
  14   0  -3  134.64    2.30
  16   0  -3   34.53    1.33
  18   0  -3   35.50    1.74
  20   0  -3   28.67    2.28
 -19   1  -3   25.13    2.89
 -17   1  -3   16.60    2.24
 -15   1  -3   53.20    2.32
 -13   1  -3    0.71    0.58
 -11   1  -3    6.71    0.67
  -9   1  -3   46.16    1.13
  -7   1  -3   96.15    1.65
  -5   1  -3  438.98    5.17
  -3   1  -3    8.47    0.39
  -1   1  -3   50.68    1.16
   1   1  -3   10.29    0.52
   3   1  -3   32.49    0.68
   5   1  -3    5.04    0.43
   7   1  -3   -0.07    0.21
   9   1  -3  285.56    4.35
  11   1  -3  124.14    2.40
  13   1  -3    3.13    0.49
  15   1  -3   10.67    0.83
  17   1  -3   68.40    3.22
  19   1  -3    2.90    1.09
  21   1  -3   -0.25    0.92
  23   1  -3    2.28    1.37
 -18   2  -3    2.62    1.02
 -16   2  -3    0.91    0.76
 -14   2  -3   42.99    2.14
 -12   2  -3   26.23    1.27
 -10   2  -3   68.44    1.89
  -8   2  -3    2.59    0.49
  -6   2  -3    0.11    0.28
  -4   2  -3  107.74    2.16
  -2   2  -3   40.01    1.11
   0   2  -3  351.09    4.95
   2   2  -3   12.25    0.75
   4   2  -3  165.62    2.79
   6   2  -3   58.60    1.75
   8   2  -3   33.92    1.35
  10   2  -3    9.75    0.72
  12   2  -3  151.98    2.95
  14   2  -3  110.49    2.51
  16   2  -3   31.89    1.55
  18   2  -3   35.16    1.74
  20   2  -3   21.57    2.43
  22   2  -3    0.00    1.13
 -17   3  -3   10.90    1.57
 -15   3  -3   41.18    2.28
 -13   3  -3   -0.15    0.50
 -11   3  -3    4.41    0.71
  -9   3  -3   28.95    1.31
  -7   3  -3   62.31    1.80
  -5   3  -3  275.10    4.55
  -3   3  -3    5.25    0.56
  -1   3  -3   27.01    0.95
   1   3  -3    6.39    0.64
   3   3  -3   17.54    0.94
   5   3  -3    2.41    0.41
   7   3  -3    0.32    0.35
   9   3  -3  186.76    4.12
  11   3  -3   85.00    2.10
  13   3  -3    0.74    0.51
  15   3  -3    4.97    0.81
  17   3  -3   49.50    2.19
  19   3  -3    1.60    0.79
  21   3  -3    0.64    1.21
 -16   4  -3   -1.00    1.48
 -14   4  -3   29.84    1.90
 -12   4  -3   16.07    1.36
 -10   4  -3   44.34    1.80
  -8   4  -3    2.03    0.59
  -6   4  -3    0.19    0.50
  -4   4  -3   58.48    2.35
  -2   4  -3   21.56    1.63
   0   4  -3  174.78    4.25
   2   4  -3    3.92    0.57
   4   4  -3   81.11    2.59
   6   4  -3   30.78    1.55
   8   4  -3   22.79    1.58
  10   4  -3    4.23    0.75
  12   4  -3   80.41    4.05
  14   4  -3   62.85    2.58
  16   4  -3   18.81    1.69
  18   4  -3   19.79    1.86
 -11   5  -3    0.58    0.93
  -9   5  -3   16.50    1.81
  -7   5  -3   30.83    2.31
  -5   5  -3  140.02    4.38
  -3   5  -3    1.86    0.77
  -1   5  -3    9.89    1.26
   1   5  -3    2.56    1.04
   3   5  -3    6.29    1.01
   5   5  -3    1.23    0.57
   7   5  -3   -0.50    0.49
   9   5  -3  101.23    4.81
  11   5  -3   49.02    3.28
  13   5  -3    0.03    1.09
  15   5  -3    3.63    1.39
  -6   6  -3   -1.21    1.12
  -4   6  -3   27.90    2.33
  -2   6  -3    6.57    1.75
   0   6  -3   82.34    4.69
   2   6  -3    3.45    1.39
   4   6  -3   42.91    3.20
   6   6  -3   12.72    2.28
   8   6  -3    5.93    1.71
  -8  -6  -2   12.27    2.04
  -6  -6  -2   -0.18    1.01
  -4  -6  -2    1.03    1.07
   4  -6  -2   10.07    1.82
   6  -6  -2   76.10    4.20
   8  -6  -2    0.50    1.24
  10  -6  -2    1.46    1.31
 -13  -5  -2    0.94    1.07
 -11  -5  -2   39.24    2.04
  -9  -5  -2   20.29    1.63
  -7  -5  -2    8.01    1.48
  -5  -5  -2    1.42    0.88
  -3  -5  -2    0.26    0.48
  -1  -5  -2   80.43    3.55
   1  -5  -2   40.42    2.41
   3  -5  -2  114.02    3.13
   5  -5  -2    3.61    0.77
   7  -5  -2   -0.16    0.47
   9  -5  -2    1.21    0.62
  11  -5  -2    0.06    0.65
  13  -5  -2    3.58    0.99
  15  -5  -2   49.86    2.61
 -16  -4  -2    2.28    0.87
 -14  -4  -2   33.12    1.86
 -12  -4  -2   41.64    1.96
 -10  -4  -2   31.70    1.65
  -8  -4  -2   27.70    1.47
  -6  -4  -2    1.62    0.54
  -4  -4  -2    1.59    0.50
  -2  -4  -2   56.93    1.97
   0  -4  -2    6.50    0.81
   2  -4  -2    6.33    0.74
   4  -4  -2   16.54    0.95
   6  -4  -2  147.94    3.59
   8  -4  -2   10.08    1.06
  10  -4  -2    0.63    0.52
  12  -4  -2    3.44    0.77
  14  -4  -2   21.30    1.77
  16  -4  -2    9.71    1.34
  18  -4  -2   20.01    1.89
 -19  -3  -2   -0.73    1.16
 -17  -3  -2   41.05    1.72
 -15  -3  -2   60.08    1.92
 -13  -3  -2    0.43    0.42
 -11  -3  -2   80.47    2.52
  -9  -3  -2   40.62    1.66
  -7  -3  -2   21.22    1.25
  -5  -3  -2    5.33    0.56
  -3  -3  -2    0.46    0.26
  -1  -3  -2  171.97    3.61
   1  -3  -2   79.86    2.82
   3  -3  -2  244.29    3.68
   5  -3  -2    8.10    0.60
   7  -3  -2    0.27    0.27
   9  -3  -2    1.45    0.40
  11  -3  -2    0.29    0.42
  13  -3  -2    8.43    1.06
  15  -3  -2   77.01    2.80
  17  -3  -2    7.93    1.17
  19  -3  -2    9.81    1.31
  21  -3  -2    0.55    0.86
 -20  -2  -2    5.74    1.13
 -18  -2  -2   31.24    1.51
 -16  -2  -2    6.80    0.78
 -14  -2  -2   58.69    1.74
 -12  -2  -2   66.62    2.22
 -10  -2  -2   52.55    1.83
  -8  -2  -2   54.61    1.42
  -6  -2  -2    2.84    0.41
  -4  -2  -2    7.23    0.42
  -2  -2  -2  114.26    1.98
   0  -2  -2   10.81    0.66
   2  -2  -2   10.33    0.56
   4  -2  -2   26.50    0.73
   6  -2  -2  290.78    4.11
   8  -2  -2   16.97    0.74
  10  -2  -2    1.93    0.39
  12  -2  -2    7.87    0.70
  14  -2  -2   33.73    1.27
  16  -2  -2   13.73    1.02
  18  -2  -2   28.29    1.96
  20  -2  -2  108.26    3.69
  22  -2  -2   -0.10    1.22
 -21  -1  -2    3.35    1.00
 -19  -1  -2    1.12    0.73
 -17  -1  -2   52.92    2.19
 -15  -1  -2   85.53    2.11
 -13  -1  -2    0.57    0.44
 -11  -1  -2  124.03    2.47
  -9  -1  -2   64.79    1.55
  -7  -1  -2   35.77    1.05
  -5  -1  -2    8.33    0.54
  -3  -1  -2    1.39    0.21
  -1  -1  -2  319.67    4.42
   1  -1  -2  157.77    2.27
   3  -1  -2  446.98    7.04
   5  -1  -2   14.55    0.49
   7  -1  -2    0.15    0.18
   9  -1  -2    1.96    0.33
  11  -1  -2    0.80    0.30
  13  -1  -2   12.11    0.83
  15  -1  -2  112.66    2.49
  17  -1  -2   12.55    0.99
  19  -1  -2   15.20    1.15
  21  -1  -2    0.32    0.75
  23  -1  -2   13.98    2.42
 -20   0  -2    5.71    1.08
 -18   0  -2   37.84    1.92
 -16   0  -2    8.30    0.97
 -14   0  -2   67.30    1.86
 -12   0  -2   83.01    1.97
 -10   0  -2   61.16    1.56
  -8   0  -2   69.73    1.25
  -6   0  -2    3.41    0.28
  -4   0  -2    4.88    0.30
  -2   0  -2  166.97    3.21
   0   0  -2   16.51    0.54
   2   0  -2   12.79    0.43
   4   0  -2   40.49    0.83
   6   0  -2  421.68    4.85
   8   0  -2   24.20    0.63
  10   0  -2    2.50    0.29
  12   0  -2    8.25    0.53
  14   0  -2   41.08    1.36
  16   0  -2   15.94    1.07
  18   0  -2   30.71    1.78
  20   0  -2  133.47    5.23
  22   0  -2    1.18    1.12
  24   0  -2    1.26    1.29
 -21   1  -2    3.53    1.41
 -19   1  -2   -0.44    0.98
 -17   1  -2   55.27    3.28
 -15   1  -2   83.52    2.19
 -13   1  -2    2.00    0.47
 -11   1  -2  120.17    2.07
  -9   1  -2   62.00    1.28
  -7   1  -2   37.41    0.87
  -5   1  -2    8.83    0.42
  -3   1  -2    1.20    0.17
  -1   1  -2  324.60    4.44
   1   1  -2  156.84    1.97
   3   1  -2  453.74    6.03
   5   1  -2   14.07    0.47
   7   1  -2    0.18    0.19
   9   1  -2    1.59    0.31
  11   1  -2    0.22    0.27
  13   1  -2   13.44    0.88
  15   1  -2  112.44    2.90
  17   1  -2    9.73    1.48
  19   1  -2   12.32    1.77
  21   1  -2    0.03    0.92
  23   1  -2   22.57    2.63
 -20   2  -2    2.93    1.49
 -18   2  -2   28.63    2.13
 -16   2  -2    6.04    1.04
 -14   2  -2   54.09    1.77
 -12   2  -2   68.75    1.91
 -10   2  -2   54.21    1.58
  -8   2  -2   55.04    1.24
  -6   2  -2    2.97    0.32
  -4   2  -2    3.45    0.41
  -2   2  -2  118.61    2.07
   0   2  -2   11.00    0.47
   2   2  -2   11.43    0.62
   4   2  -2   27.74    0.81
   6   2  -2  293.42    4.30
   8   2  -2   18.77    0.78
  10   2  -2    0.67    0.29
  12   2  -2    5.81    0.60
  14   2  -2   28.52    1.44
  16   2  -2   15.14    1.28
  18   2  -2   29.51    1.74
  20   2  -2  114.83    5.12
  22   2  -2    1.96    1.32
 -19   3  -2    0.14    0.97
 -17   3  -2   41.04    2.31
 -15   3  -2   59.74    2.08
 -13   3  -2    0.70    0.50
 -11   3  -2   80.83    2.20
  -9   3  -2   42.89    1.49
  -7   3  -2   22.11    1.02
  -5   3  -2    5.90    0.60
  -3   3  -2    0.20    0.26
  -1   3  -2  173.35    2.94
   1   3  -2   78.61    1.79
   3   3  -2  255.28    4.01
   5   3  -2    7.06    0.50
   7   3  -2    0.25    0.26
   9   3  -2    1.91    0.41
  11   3  -2   -0.14    0.41
  13   3  -2    9.93    1.05
  15   3  -2   77.81    2.73
  17   3  -2    6.43    1.04
  19   3  -2    9.79    1.23
  21   3  -2    0.49    1.24
 -16   4  -2    3.51    0.91
 -14   4  -2   39.09    1.89
 -12   4  -2   39.81    1.73
 -10   4  -2   34.34    1.53
  -8   4  -2   28.58    1.40
  -6   4  -2    1.69    0.48
  -4   4  -2    1.24    0.42
  -2   4  -2   59.33    2.20
   0   4  -2    5.11    0.64
   2   4  -2    5.76    0.62
   4   4  -2   16.41    1.28
   6   4  -2  150.86    3.04
   8   4  -2    9.80    0.84
  10   4  -2    0.84    0.55
  12   4  -2    3.62    0.80
  14   4  -2   18.09    1.65
  16   4  -2    9.09    1.28
  18   4  -2   15.75    1.66
 -13   5  -2    0.76    1.13
 -11   5  -2   40.86    2.40
  -9   5  -2   20.71    1.90
  -7   5  -2    9.50    1.31
  -5   5  -2    2.10    0.73
  -3   5  -2    0.51    0.57
  -1   5  -2   82.12    2.90
   1   5  -2   40.67    2.68
   3   5  -2  114.19    4.69
   5   5  -2    2.30    0.70
   7   5  -2   -0.04    0.92
   9   5  -2    1.06    1.03
  11   5  -2    1.14    0.68
  13   5  -2    4.98    1.10
  15   5  -2   52.51    2.72
  -6   6  -2    0.37    0.84
  -4   6  -2    0.80    0.83
  -2   6  -2   27.32    3.12
   0   6  -2    3.64    1.32
   2   6  -2    1.54    1.15
   4   6  -2    8.31    1.80
   8   6  -2    3.73    1.46
  -8  -6  -1   45.21    3.25
  -6  -6  -1   71.39    3.82
  -4  -6  -1    6.57    1.52
   4  -6  -1   -0.39    0.81
   6  -6  -1   48.42    2.33
   8  -6  -1    0.71    0.80
  10  -6  -1   25.76    3.16
 -13  -5  -1    0.51    0.70
 -11  -5  -1   37.05    1.92
  -9  -5  -1   -0.14    0.52
  -7  -5  -1   10.64    1.14
  -5  -5  -1    2.34    0.63
  -3  -5  -1  103.55    2.86
  -1  -5  -1    1.28    0.49
   1  -5  -1   -0.40    0.60
   3  -5  -1    3.94    0.74
   5  -5  -1   51.38    2.95
   7  -5  -1    2.46    0.97
   9  -5  -1   47.71    2.18
  11  -5  -1   78.38    3.00
  13  -5  -1    9.60    1.31
  15  -5  -1    1.71    0.95
 -16  -4  -1    0.95    0.68
 -14  -4  -1    0.64    0.64
 -12  -4  -1   10.36    1.15
 -10  -4  -1   20.10    1.47
  -8  -4  -1   94.20    3.84
  -6  -4  -1  136.11    3.22
  -4  -4  -1    8.55    0.84
  -2  -4  -1    0.59    0.49
   2  -4  -1    0.50    0.49
   4  -4  -1    0.22    0.36
   6  -4  -1  109.98    2.88
   8  -4  -1    0.71    0.50
  10  -4  -1   39.14    1.48
  12  -4  -1   45.79    2.11
  14  -4  -1    3.97    0.90
  16  -4  -1   10.00    1.36
  18  -4  -1    0.91    0.87
 -19  -3  -1    2.51    0.88
 -17  -3  -1    4.92    0.86
 -15  -3  -1   -0.28    0.41
 -13  -3  -1    0.95    0.39
 -11  -3  -1   69.85    1.79
  -9  -3  -1    0.42    0.40
  -7  -3  -1   17.94    1.08
  -5  -3  -1    6.80    0.57
  -3  -3  -1  221.03    4.27
   3  -3  -1    8.67    0.73
   5  -3  -1  110.59    2.03
   7  -3  -1    7.11    0.79
   9  -3  -1  105.39    2.77
  11  -3  -1  155.70    3.12
  13  -3  -1   15.90    1.12
  15  -3  -1    3.38    0.63
  17  -3  -1    1.50    0.73
  19  -3  -1   18.47    1.75
  21  -3  -1   34.69    3.67
 -20  -2  -1   78.64    2.93
 -18  -2  -1    6.19    0.80
 -16  -2  -1    1.21    0.49
 -14  -2  -1    0.59    0.37
 -12  -2  -1   18.74    0.96
 -10  -2  -1   32.36    1.34
  -8  -2  -1  176.63    3.56
  -6  -2  -1  256.19    3.80
  -4  -2  -1   12.81    0.56
  -2  -2  -1    1.38    0.29
   4  -2  -1    0.19    0.15
   6  -2  -1  223.74    4.01
   8  -2  -1    2.41    0.39
  10  -2  -1   59.87    1.56
  12  -2  -1   79.04    1.96
  14  -2  -1    9.43    0.84
  16  -2  -1   12.83    1.02
  18  -2  -1    2.65    0.61
  20  -2  -1    2.58    0.85
  22  -2  -1   12.92    2.32
 -21  -1  -1   -0.30    0.70
 -19  -1  -1    5.05    0.91
 -17  -1  -1    5.88    0.86
 -15  -1  -1    0.03    0.33
 -13  -1  -1    0.14    0.29
 -11  -1  -1   91.62    1.66
  -9  -1  -1    0.80    0.27
  -7  -1  -1   26.26    0.80
  -5  -1  -1   12.54    0.52
  -3  -1  -1  419.35    5.55
  -1  -1  -1    6.92    0.36
   1  -1  -1    2.85    0.26
   3  -1  -1   16.99    0.49
   5  -1  -1  201.26    2.88
   7  -1  -1   14.84    0.61
   9  -1  -1  163.96    2.75
  11  -1  -1  243.76    3.88
  13  -1  -1   24.38    1.02
  15  -1  -1    4.64    0.61
  17  -1  -1    0.95    0.47
  19  -1  -1   26.61    1.90
  21  -1  -1   45.64    2.34
  23  -1  -1   14.23    1.62
 -22   0  -1    1.00    0.93
 -20   0  -1   90.53    3.08
 -18   0  -1    9.54    1.08
 -16   0  -1    1.66    0.61
 -14   0  -1    1.34    0.41
 -12   0  -1   22.23    0.75
 -10   0  -1   41.57    0.96
  -8   0  -1  228.04    2.97
  -6   0  -1  335.87    4.00
  -4   0  -1   19.84    0.46
  -2   0  -1    2.75    0.18
   0   0  -1   11.09    0.31
   2   0  -1    1.21    0.12
   4   0  -1    0.13    0.12
   6   0  -1  319.72    3.69
   8   0  -1    3.65    0.31
  10   0  -1   82.92    1.44
  12   0  -1  102.75    1.77
  14   0  -1   13.05    0.73
  16   0  -1   14.01    1.30
  18   0  -1    4.86    0.94
  20   0  -1    2.83    0.87
  22   0  -1   10.41    1.89
  24   0  -1    0.57    1.37
 -21   1  -1   -0.05    1.08
 -19   1  -1    3.46    0.89
 -17   1  -1    6.62    0.96
 -15   1  -1   -0.29    0.37
 -13   1  -1    0.53    0.36
 -11   1  -1   93.32    1.70
  -9   1  -1    0.94    0.25
  -7   1  -1   27.74    0.71
  -5   1  -1   12.42    0.43
  -3   1  -1  434.06    4.77
  -1   1  -1    7.36    0.37
   1   1  -1    2.49    0.16
   3   1  -1   17.74    0.54
   5   1  -1  203.55    2.91
   7   1  -1   13.46    0.57
   9   1  -1  165.62    2.78
  11   1  -1  246.23    4.04
  13   1  -1   23.67    1.09
  15   1  -1    6.50    0.80
  17   1  -1    1.33    0.55
  19   1  -1   27.82    2.69
  21   1  -1   50.13    3.38
  23   1  -1   12.88    2.21
 -20   2  -1   87.41    4.52
 -18   2  -1    6.58    1.06
 -16   2  -1    0.40    0.58
 -14   2  -1    0.81    0.40
 -12   2  -1   17.88    0.87
 -10   2  -1   34.15    1.02
  -8   2  -1  177.68    2.61
  -6   2  -1  258.48    3.33
  -4   2  -1   13.37    0.48
  -2   2  -1    0.80    0.16
   0   2  -1    6.32    0.36
   2   2  -1    0.74    0.15
   4   2  -1    0.11    0.14
   6   2  -1  220.58    3.35
   8   2  -1    2.77    0.34
  10   2  -1   60.93    1.45
  12   2  -1   83.41    2.46
  14   2  -1   11.08    1.07
  16   2  -1   13.10    1.23
  18   2  -1    2.08    0.70
  20   2  -1    3.01    1.28
  22   2  -1   11.28    2.13
 -19   3  -1    4.06    1.11
 -17   3  -1    4.73    1.06
 -15   3  -1    0.22    0.50
 -13   3  -1    0.19    0.41
 -11   3  -1   64.80    1.92
  -9   3  -1    0.77    0.38
  -7   3  -1   19.64    0.93
  -5   3  -1    6.70    0.47
  -3   3  -1  224.35    3.62
  -1   3  -1    2.91    0.28
   1   3  -1    0.97    0.21
   3   3  -1    7.81    0.51
   5   3  -1  113.89    1.87
   7   3  -1    7.99    0.64
   9   3  -1  105.28    2.17
  11   3  -1  160.22    3.91
  13   3  -1   16.69    1.38
  15   3  -1    3.23    0.76
  17   3  -1    0.90    0.69
  19   3  -1   23.45    1.95
  21   3  -1   35.52    3.59
 -16   4  -1   -0.13    0.65
 -14   4  -1   -0.07    0.53
 -12   4  -1   11.77    1.09
 -10   4  -1   20.52    1.33
  -8   4  -1  102.55    2.52
  -6   4  -1  140.78    2.95
  -4   4  -1    9.29    0.81
  -2   4  -1    0.34    0.31
   0   4  -1    2.87    0.40
   2   4  -1    0.24    0.31
   4   4  -1   -0.04    0.28
   6   4  -1  110.51    2.43
   8   4  -1    1.49    0.57
  10   4  -1   36.71    1.84
  12   4  -1   45.56    2.11
  14   4  -1    5.28    0.97
  16   4  -1    6.69    1.15
  18   4  -1    1.99    0.94
 -15   5  -1    0.03    1.48
 -13   5  -1    0.21    0.63
 -11   5  -1   43.29    1.88
  -9   5  -1    0.59    0.55
  -7   5  -1   11.31    1.39
  -5   5  -1    1.74    0.66
  -3   5  -1  100.30    3.29
  -1   5  -1    2.07    0.66
   1   5  -1    0.36    0.50
   3   5  -1    3.77    0.79
   5   5  -1   55.49    2.32
   7   5  -1    2.26    0.73
   9   5  -1   45.91    2.22
  11   5  -1   79.21    3.10
  13   5  -1    8.47    1.32
  15   5  -1    1.17    0.94
  -8   6  -1   46.47    2.63
  -6   6  -1   66.98    3.06
  -4   6  -1    4.59    1.06
  -2   6  -1    0.19    0.96
   0   6  -1    1.75    1.07
   2   6  -1   -0.31    0.68
   4   6  -1   -0.26    1.05
   8   6  -1    2.06    1.42
  10   6  -1   27.51    3.31
  -8  -6   0    0.41    1.04
  -6  -6   0    3.15    0.89
  -4  -6   0    0.49    1.00
  -2  -6   0    1.51    0.73
   0  -6   0  228.63    7.68
   2  -6   0    1.10    0.73
   4  -6   0    1.59    1.03
   6  -6   0    1.15    1.07
   8  -6   0    2.26    1.24
 -15  -5   0   17.54    2.29
 -13  -5   0    3.30    0.84
 -11  -5   0   13.74    1.34
  -9  -5   0   30.37    1.74
  -7  -5   0   40.40    1.76
  -5  -5   0   75.11    3.49
  -3  -5   0   17.21    1.83
  -1  -5   0    2.68    0.63
   1  -5   0    0.86    0.52
   3  -5   0   14.97    1.30
   5  -5   0   76.08    2.60
   7  -5   0   41.53    1.97
   9  -5   0   32.90    2.18
  11  -5   0   13.77    2.09
  13  -5   0    2.99    0.96
  15  -5   0   16.51    2.47
 -18  -4   0    0.49    0.74
 -16  -4   0   50.86    2.25
 -14  -4   0  114.04    3.39
 -12  -4   0    8.29    0.99
 -10  -4   0    6.30    0.83
  -8  -4   0    3.16    0.59
  -6  -4   0    6.25    0.73
  -4  -4   0    2.01    0.49
  -2  -4   0    2.27    0.47
   0  -4   0  488.24    8.45
   2  -4   0    1.95    0.37
   4  -4   0    2.44    0.40
   6  -4   0    6.79    0.86
   8  -4   0    2.63    0.68
  10  -4   0    4.55    0.85
  12  -4   0    8.07    1.13
  14  -4   0  108.52    2.92
  16  -4   0   42.77    2.42
  18  -4   0    1.56    0.92
 -21  -3   0   47.52    3.38
 -19  -3   0   12.38    1.36
 -17  -3   0   57.30    2.36
 -15  -3   0   37.10    1.77
 -13  -3   0    4.34    0.71
 -11  -3   0   22.98    1.02
  -9  -3   0   53.40    1.41
  -7  -3   0   83.69    1.76
  -5  -3   0  169.55    2.74
  -3  -3   0   30.40    1.03
   3  -3   0   26.85    1.06
   5  -3   0  169.18    2.85
   7  -3   0   83.39    2.37
   9  -3   0   53.30    1.94
  11  -3   0   22.08    1.56
  13  -3   0    6.15    0.76
  15  -3   0   37.88    1.58
  17  -3   0   59.10    2.08
  19  -3   0   12.61    1.24
 -22  -2   0    2.12    1.29
 -20  -2   0    8.91    1.20
 -18  -2   0    0.73    0.48
 -16  -2   0   68.75    1.87
 -14  -2   0  189.04    3.38
 -12  -2   0   17.80    0.86
 -10  -2   0    8.20    0.61
  -8  -2   0    5.73    0.47
  -6  -2   0   13.61    0.69
  -4  -2   0    3.14    0.37
   2  -2   0    4.05    0.41
   4  -2   0    3.81    0.34
   6  -2   0   14.21    0.66
   8  -2   0    6.72    0.54
  10  -2   0    9.34    0.95
  12  -2   0   18.00    1.00
  14  -2   0  183.08    3.57
  16  -2   0   64.90    1.98
  18  -2   0    0.88    0.56
  20  -2   0   10.57    1.36
  22  -2   0   -0.04    0.94
 -23  -1   0    5.71    1.17
 -21  -1   0   59.43    2.54
 -19  -1   0   17.07    1.42
 -17  -1   0   84.63    2.09
 -15  -1   0   60.14    1.61
 -13  -1   0    8.51    0.66
 -11  -1   0   33.00    1.02
  -9  -1   0   81.29    1.35
  -7  -1   0  137.29    2.15
  -5  -1   0  312.81    4.97
  -3  -1   0   55.56    0.94
   3  -1   0   58.25    1.00
   5  -1   0  315.46    4.21
   7  -1   0  136.44    2.24
   9  -1   0   84.95    1.45
  11  -1   0   34.74    0.92
  13  -1   0    7.07    0.69
  15  -1   0   58.08    1.71
  17  -1   0   84.38    2.90
  19  -1   0   15.91    1.52
  21  -1   0   62.71    2.75
  23  -1   0    6.28    1.32
 -22   0   0    1.62    0.92
 -20   0   0   11.78    1.29
 -18   0   0    2.01    0.67
 -16   0   0   81.12    2.52
 -14   0   0  226.09    3.66
 -12   0   0   23.45    0.75
 -10   0   0   11.15    0.51
  -8   0   0    7.63    0.38
  -6   0   0   17.81    0.47
  -4   0   0    4.30    0.22
  -2   0   0    6.83    0.20
   2   0   0    7.21    0.17
   4   0   0    5.14    0.26
   6   0   0   19.83    0.52
   8   0   0    8.07    0.44
  10   0   0   13.57    0.57
  12   0   0   24.77    0.82
  14   0   0  232.79    3.94
  16   0   0   85.83    2.79
  18   0   0    1.00    0.66
  20   0   0    9.56    1.31
  22   0   0    1.41    1.16
 -23   1   0    4.79    1.19
 -21   1   0   56.83    2.53
 -19   1   0   14.48    1.41
 -17   1   0   77.51    2.62
 -15   1   0   57.02    1.69
 -13   1   0    7.96    0.70
 -11   1   0   34.22    0.85
  -9   1   0   83.84    1.47
  -7   1   0  135.88    1.95
  -5   1   0  311.68    3.69
  -3   1   0   56.58    0.89
  -1   1   0    5.05    0.19
   1   1   0    5.09    0.18
   3   1   0   57.99    0.87
   5   1   0  311.90    3.63
   7   1   0  136.32    1.89
   9   1   0   88.45    1.68
  11   1   0   33.04    1.11
  13   1   0    7.71    0.84
  15   1   0   58.52    2.09
  17   1   0   88.54    2.79
  19   1   0   19.58    2.43
  21   1   0   61.22    3.89
  23   1   0    3.53    1.61
 -22   2   0    1.73    1.30
 -20   2   0    9.48    1.82
 -18   2   0    0.59    0.51
 -16   2   0   64.44    1.98
 -14   2   0  187.64    3.58
 -12   2   0   19.29    0.87
 -10   2   0    9.40    0.61
  -8   2   0    6.87    0.48
  -6   2   0   12.50    0.58
  -4   2   0    3.33    0.22
  -2   2   0    3.75    0.24
   0   2   0  983.42    8.03
   2   2   0    4.17    0.24
   4   2   0    3.45    0.25
   6   2   0   13.18    0.50
   8   2   0    5.89    0.39
  10   2   0    8.89    0.87
  12   2   0   14.91    1.19
  14   2   0  186.89    4.46
  16   2   0   66.65    2.47
  18   2   0    1.07    0.69
  20   2   0    9.09    1.92
  22   2   0    0.42    1.34
 -19   3   0   13.65    1.55
 -17   3   0   58.69    2.56
 -15   3   0   37.13    1.93
 -13   3   0    8.02    0.81
 -11   3   0   23.27    0.98
  -9   3   0   52.54    1.31
  -7   3   0   86.19    1.66
  -5   3   0  175.29    2.56
  -3   3   0   28.88    0.68
  -1   3   0    2.61    0.23
   1   3   0    2.94    0.24
   3   3   0   28.03    0.71
   5   3   0  172.48    2.25
   7   3   0   83.59    1.58
   9   3   0   51.68    1.93
  11   3   0   23.07    1.47
  13   3   0    6.59    0.91
  15   3   0   37.29    1.96
  17   3   0   58.45    2.62
  19   3   0   13.58    1.57
  21   3   0   46.39    3.56
 -18   4   0    0.92    0.97
 -16   4   0   43.89    2.39
 -14   4   0  113.98    3.04
 -12   4   0    8.28    0.91
 -10   4   0    4.71    0.71
  -8   4   0    3.57    0.59
  -6   4   0    7.19    0.76
  -4   4   0    2.40    0.47
  -2   4   0    1.65    0.29
   0   4   0  489.32    6.20
   2   4   0    1.94    0.29
   4   4   0    1.98    0.37
   6   4   0    5.02    0.80
   8   4   0    2.86    0.68
  10   4   0    4.57    0.87
  12   4   0    8.74    1.14
  14   4   0  112.09    3.70
  16   4   0   45.87    2.44
  18   4   0    0.20    0.92
 -15   5   0   21.96    2.78
 -13   5   0    3.19    0.85
 -11   5   0   12.26    1.22
  -9   5   0   27.57    1.68
  -7   5   0   35.77    1.58
  -5   5   0   80.59    2.26
  -3   5   0   13.18    1.37
  -1   5   0    2.73    0.72
   1   5   0    4.48    0.78
   3   5   0   11.93    0.99
   5   5   0   80.11    2.79
   7   5   0   37.75    1.98
   9   5   0   29.80    2.15
  11   5   0   12.96    1.50
  13   5   0    3.54    1.04
  15   5   0   18.74    3.02
  -8   6   0    1.07    0.89
  -6   6   0    3.30    1.00
  -4   6   0    0.53    0.75
  -2   6   0    1.37    0.99
   0   6   0  230.54    7.88
   2   6   0    0.09    1.08
   4   6   0   -0.71    1.04
   6   6   0    2.70    0.98
   8   6   0    1.89    0.91
  10   6   0    2.34    1.65
 -10  -6   1   23.24    2.66
  -8  -6   1    0.59    0.79
  -6  -6   1   55.61    3.57
  -4  -6   1   -0.76    0.84
  -2  -6   1   -0.20    0.61
   0  -6   1    2.00    1.09
   2  -6   1    0.92    0.66
   4  -6   1    4.45    0.99
   6  -6   1   62.62    2.79
   8  -6   1   52.25    3.59
 -15  -5   1    2.57    0.87
 -13  -5   1    8.74    1.15
 -11  -5   1   76.96    3.91
  -9  -5   1   47.37    2.89
  -7  -5   1    2.85    0.72
  -5  -5   1   53.03    2.09
  -3  -5   1    2.70    0.67
  -1  -5   1    0.91    0.50
   1  -5   1    1.71    0.59
   3  -5   1  101.25    4.36
   5  -5   1    3.70    0.79
   7  -5   1   10.96    1.30
   9  -5   1    0.90    0.74
  11  -5   1   38.18    2.29
  13  -5   1   -0.48    0.80
 -18  -4   1    0.56    0.76
 -16  -4   1    7.65    1.08
 -14  -4   1    5.93    0.90
 -12  -4   1   45.31    1.90
 -10  -4   1   37.75    1.65
  -8  -4   1    1.57    0.49
  -6  -4   1  112.55    2.77
  -4  -4   1    0.13    0.34
  -2  -4   1    0.86    0.37
   0  -4   1    2.87    0.53
   2  -4   1    0.19    0.36
   4  -4   1    9.74    0.96
   6  -4   1  137.46    3.52
   8  -4   1  101.54    3.05
  10  -4   1   19.02    1.62
  12  -4   1    9.37    1.22
  14  -4   1    0.48    0.73
  16  -4   1    0.85    0.70
  18  -4   1    4.30    1.20
 -21  -3   1   41.95    2.25
 -19  -3   1   19.28    1.61
 -17  -3   1    0.84    0.62
 -15  -3   1    3.94    0.76
 -13  -3   1   16.85    1.28
 -11  -3   1  159.99    3.65
  -9  -3   1  101.98    2.61
  -7  -3   1    9.43    0.80
  -5  -3   1  112.11    1.96
  -3  -3   1    8.30    0.65
  -1  -3   1    1.10    0.24
   1  -3   1    2.66    0.35
   3  -3   1  219.82    3.33
   5  -3   1    7.41    0.63
   7  -3   1   18.78    0.98
   9  -3   1    1.38    0.56
  11  -3   1   64.77    2.38
  13  -3   1    0.65    0.62
  15  -3   1   -0.24    0.47
  17  -3   1    4.61    0.83
  19  -3   1    3.38    1.09
 -22  -2   1   15.45    2.31
 -20  -2   1    2.91    0.80
 -18  -2   1    2.87    0.73
 -16  -2   1   15.36    1.26
 -14  -2   1   10.87    0.77
 -12  -2   1   83.09    1.80
 -10  -2   1   62.12    1.42
  -8  -2   1    3.19    0.35
  -6  -2   1  216.77    3.10
  -4  -2   1    0.15    0.14
  -2  -2   1    1.13    0.23
   0  -2   1    6.83    0.49
   2  -2   1    1.30    0.20
   4  -2   1   12.72    0.77
   6  -2   1  253.19    3.88
   8  -2   1  178.33    3.07
  10  -2   1   34.99    1.20
  12  -2   1   19.12    1.45
  14  -2   1    0.38    0.44
  16  -2   1    0.46    0.48
  18  -2   1    7.37    1.18
  20  -2   1   75.64    3.15
 -23  -1   1   14.77    2.31
 -21  -1   1   52.05    2.26
 -19  -1   1   27.95    1.32
 -17  -1   1    1.37    0.44
 -15  -1   1    5.30    0.58
 -13  -1   1   24.60    0.93
 -11  -1   1  244.63    3.66
  -9  -1   1  164.68    2.57
  -7  -1   1   13.29    0.52
  -5  -1   1  199.70    2.72
  -3  -1   1   17.16    0.41
  -1  -1   1    2.96    0.20
   1  -1   1    6.80    0.33
   3  -1   1  427.01    5.51
   5  -1   1   12.87    0.61
   7  -1   1   29.06    0.92
   9  -1   1    1.20    0.34
  11  -1   1   99.44    2.12
  13  -1   1    0.07    0.28
  15  -1   1    0.20    0.49
  17  -1   1    4.98    0.94
  19  -1   1    3.21    0.99
  21  -1   1    0.84    0.87
 -24   0   1   -0.14    0.89
 -22   0   1   11.24    1.35
 -20   0   1    3.21    0.83
 -18   0   1    4.14    0.74
 -16   0   1   14.39    0.89
 -14   0   1   13.70    0.77
 -12   0   1  101.36    1.70
 -10   0   1   80.86    1.36
  -8   0   1    4.25    0.29
  -6   0   1  317.01    3.66
  -4   0   1    0.30    0.12
  -2   0   1    1.15    0.11
   0   0   1   10.72    0.26
   2   0   1    3.37    0.21
   4   0   1   21.37    0.52
   6   0   1  355.25    4.04
   8   0   1  239.35    2.67
  10   0   1   42.28    0.86
  12   0   1   22.18    0.81
  14   0   1    1.39    0.46
  16   0   1    1.46    0.66
  18   0   1    6.75    1.12
  20   0   1   85.49    3.26
  22   0   1   -0.13    1.21
 -23   1   1   14.42    1.54
 -21   1   1   49.63    2.31
 -19   1   1   27.50    1.81
 -17   1   1    0.54    0.53
 -15   1   1    5.48    0.64
 -13   1   1   24.58    1.00
 -11   1   1  243.81    3.25
  -9   1   1  167.35    2.30
  -7   1   1   14.83    0.50
  -5   1   1  202.90    2.51
  -3   1   1   17.18    0.34
  -1   1   1    2.85    0.15
   1   1   1    6.78    0.23
   3   1   1  415.82    4.76
   5   1   1   12.66    0.56
   7   1   1   27.55    0.88
   9   1   1    1.41    0.33
  11   1   1   97.83    2.08
  13   1   1    0.15    0.42
  15   1   1   -0.12    0.48
  17   1   1    7.84    1.04
  19   1   1    2.48    1.21
  21   1   1   -0.11    1.05
 -22   2   1   14.07    2.25
 -20   2   1    3.16    0.92
 -18   2   1    2.74    0.66
 -16   2   1   14.35    1.06
 -14   2   1    9.44    0.83
 -12   2   1   77.83    1.94
 -10   2   1   63.45    1.59
  -8   2   1    3.66    0.28
  -6   2   1  217.59    2.55
  -4   2   1    0.29    0.11
  -2   2   1    0.91    0.13
   0   2   1    5.94    0.27
   2   2   1    1.29    0.15
   4   2   1   13.69    0.44
   6   2   1  254.55    3.93
   8   2   1  175.76    3.10
  10   2   1   34.20    1.23
  12   2   1   18.93    1.13
  14   2   1    0.81    0.56
  16   2   1    0.65    0.61
  18   2   1    8.27    1.19
  20   2   1   81.03    3.18
 -21   3   1   38.55    3.45
 -19   3   1   21.14    1.89
 -17   3   1    1.45    0.71
 -15   3   1    4.49    0.70
 -13   3   1   17.49    1.15
 -11   3   1  157.03    2.74
  -9   3   1  103.70    1.99
  -7   3   1    8.22    0.59
  -5   3   1  113.99    1.66
  -3   3   1    8.29    0.41
  -1   3   1    0.88    0.17
   1   3   1    2.73    0.24
   3   3   1  220.12    2.48
   5   3   1    6.64    0.47
   7   3   1   18.12    0.98
   9   3   1    0.44    0.36
  11   3   1   65.67    1.95
  13   3   1   -0.03    0.54
  15   3   1    0.22    0.59
  17   3   1    3.53    0.93
  19   3   1    4.20    1.11
 -18   4   1    1.55    0.93
 -16   4   1    8.93    1.29
 -14   4   1    5.32    1.00
 -12   4   1   45.48    1.74
 -10   4   1   42.04    1.58
  -8   4   1    0.53    0.34
  -6   4   1  110.85    2.54
  -4   4   1   -0.19    0.24
  -2   4   1    0.35    0.19
   0   4   1    2.83    0.30
   2   4   1    0.48    0.21
   4   4   1    8.72    0.78
   6   4   1  132.54    2.87
   8   4   1   93.26    2.42
  10   4   1   18.26    1.27
  12   4   1    9.07    1.21
  14   4   1    0.42    0.73
  16   4   1   -0.33    0.78
 -15   5   1    3.31    1.10
 -13   5   1    8.46    1.30
 -11   5   1   82.91    2.60
  -9   5   1   51.42    1.95
  -7   5   1    3.13    0.69
  -5   5   1   55.79    1.88
  -3   5   1    3.06    0.60
  -1   5   1    0.13    0.30
   1   5   1    1.79    0.39
   3   5   1  101.08    2.53
   5   5   1    1.54    0.51
   7   5   1   10.18    1.25
   9   5   1    0.52    0.67
  11   5   1   39.76    2.41
  13   5   1    0.11    0.87
  -8   6   1    0.32    0.84
  -6   6   1   52.31    2.69
  -4   6   1   -0.53    0.66
  -2   6   1    0.24    0.97
   2   6   1    0.68    0.99
   4   6   1    6.93    1.18
   6   6   1   67.33    2.95
   8   6   1   43.62    2.69
 -10  -6   2    2.02    1.31
  -8  -6   2    2.21    0.91
  -6  -6   2   75.54    4.34
  -4  -6   2    9.85    1.34
  -2  -6   2    4.27    0.98
   0  -6   2    3.03    1.17
   2  -6   2   29.73    3.10
   4  -6   2    0.12    0.71
   6  -6   2    1.78    0.88
   8  -6   2   12.08    2.39
 -15  -5   2   49.05    2.46
 -13  -5   2    6.55    1.09
 -11  -5   2    0.90    0.65
  -9  -5   2    0.20    0.55
  -7  -5   2   -0.07    0.49
  -5  -5   2    2.93    0.70
  -3  -5   2  111.62    4.74
  -1  -5   2   35.19    1.76
   1  -5   2   83.35    2.73
   3  -5   2    0.14    0.72
   5  -5   2    2.04    0.71
   7  -5   2    7.90    1.16
   9  -5   2   21.37    1.89
  11  -5   2   43.86    2.42
  13  -5   2    0.32    0.91
 -18  -4   2   16.25    1.58
 -16  -4   2   12.21    1.32
 -14  -4   2   21.57    1.58
 -12  -4   2    3.02    0.68
 -10  -4   2    0.52    0.44
  -8  -4   2   10.10    0.80
  -6  -4   2  147.08    3.59
  -4  -4   2   16.53    1.18
  -2  -4   2    7.16    0.79
   0  -4   2    4.21    0.72
   2  -4   2   58.92    2.03
   4  -4   2    1.62    0.56
   6  -4   2    1.03    0.54
   8  -4   2   28.64    1.93
  10  -4   2   31.33    2.12
  12  -4   2   39.53    2.13
  14  -4   2   39.06    2.42
  16  -4   2    4.64    0.94
 -21  -3   2    0.71    0.82
 -19  -3   2   13.21    1.36
 -17  -3   2   11.02    1.18
 -15  -3   2   78.71    2.57
 -13  -3   2    9.85    0.99
 -11  -3   2   -0.29    0.33
  -9  -3   2    1.60    0.43
  -7  -3   2   -0.11    0.28
  -5  -3   2    8.38    0.58
  -3  -3   2  248.03    3.67
  -1  -3   2   76.86    1.46
   1  -3   2  171.82    2.85
   3  -3   2    0.47    0.35
   5  -3   2    6.45    0.64
   7  -3   2   20.27    1.11
   9  -3   2   43.30    1.87
  11  -3   2   78.73    2.71
  13  -3   2    1.52    0.74
  15  -3   2   57.94    2.65
  17  -3   2   36.62    2.52
  19  -3   2    1.03    1.00
 -22  -2   2   -0.10    0.74
 -20  -2   2  113.23    5.03
 -18  -2   2   30.92    1.64
 -16  -2   2   14.07    1.21
 -14  -2   2   32.06    1.45
 -12  -2   2    5.39    0.68
 -10  -2   2    1.66    0.31
  -8  -2   2   18.12    0.61
  -6  -2   2  286.80    4.95
  -4  -2   2   26.23    0.74
  -2  -2   2   11.44    0.44
   0  -2   2   10.78    0.53
   2  -2   2  114.41    1.95
   4  -2   2    3.68    0.56
   6  -2   2    2.43    0.42
   8  -2   2   53.33    1.53
  10  -2   2   50.79    1.57
  12  -2   2   69.40    2.48
  14  -2   2   55.58    2.36
  16  -2   2    6.65    1.07
  18  -2   2   26.09    2.09
  20  -2   2    4.02    1.15
 -23  -1   2   16.24    2.36
 -21  -1   2    2.07    1.04
 -19  -1   2   14.32    1.27
 -17  -1   2   12.90    0.89
 -15  -1   2  113.21    2.32
 -13  -1   2   12.99    0.76
 -11  -1   2    0.47    0.24
  -9  -1   2    1.59    0.27
  -7  -1   2    0.16    0.15
  -5  -1   2   14.37    0.52
  -3  -1   2  462.86    5.79
  -1  -1   2  156.99    2.18
   1  -1   2  323.93    4.35
   3  -1   2    1.09    0.25
   5  -1   2    9.99    0.44
   7  -1   2   35.45    0.82
   9  -1   2   64.86    1.66
  11  -1   2  123.80    2.59
  13  -1   2    1.49    0.50
  15  -1   2   82.51    2.86
  17  -1   2   49.72    2.34
  19  -1   2   -0.31    0.78
  21  -1   2    3.75    1.55
 -24   0   2   -0.56    1.22
 -22   0   2    0.42    0.71
 -20   0   2  135.23    3.73
 -18   0   2   32.54    1.61
 -16   0   2   18.25    0.98
 -14   0   2   40.77    1.23
 -12   0   2    7.62    0.48
 -10   0   2    1.89    0.26
  -8   0   2   24.29    0.62
  -6   0   2  416.64    4.26
  -4   0   2   38.74    0.69
  -2   0   2   14.42    0.40
   0   0   2   16.13    0.45
   2   0   2  171.47    1.88
   4   0   2    4.93    0.34
   6   0   2    3.22    0.31
   8   0   2   69.44    1.34
  10   0   2   65.21    1.36
  12   0   2   84.35    1.69
  14   0   2   71.40    1.98
  16   0   2    7.51    0.84
  18   0   2   36.02    2.18
  20   0   2    4.97    1.61
 -23   1   2   17.87    1.69
 -21   1   2    0.91    0.72
 -19   1   2   12.86    1.26
 -17   1   2   14.07    1.19
 -15   1   2  113.65    2.45
 -13   1   2   14.11    0.72
 -11   1   2    0.49    0.24
  -9   1   2    2.83    0.31
  -7   1   2    0.12    0.17
  -5   1   2   13.33    0.48
  -3   1   2  442.87    4.59
  -1   1   2  152.37    1.73
   1   1   2  323.81    3.75
   3   1   2    1.66    0.24
   5   1   2    9.16    0.60
   7   1   2   36.38    1.12
   9   1   2   63.43    1.61
  11   1   2  123.02    2.56
  13   1   2    1.33    0.43
  15   1   2   82.78    2.89
  17   1   2   49.24    2.30
  19   1   2    0.07    1.03
  21   1   2    5.27    1.84
 -22   2   2    0.82    0.86
 -20   2   2  113.06    3.53
 -18   2   2   29.27    1.42
 -16   2   2   16.48    1.12
 -14   2   2   32.82    1.26
 -12   2   2    6.76    0.66
 -10   2   2    1.36    0.30
  -8   2   2   18.13    0.66
  -6   2   2  288.85    3.68
  -4   2   2   26.20    0.60
  -2   2   2   10.27    0.37
   0   2   2   10.18    0.42
   2   2   2  115.28    1.77
   4   2   2    5.35    0.49
   6   2   2    2.59    0.41
   8   2   2   52.77    1.53
  10   2   2   49.60    1.58
  12   2   2   71.93    2.03
  14   2   2   59.22    1.92
  16   2   2    5.75    1.07
  18   2   2   29.18    2.19
  20   2   2    4.86    1.17
 -21   3   2    0.82    1.17
 -19   3   2   13.47    1.28
 -17   3   2    8.86    0.98
 -15   3   2   79.30    2.28
 -13   3   2    7.81    0.84
 -11   3   2   -0.32    0.33
  -9   3   2    1.13    0.38
  -7   3   2   -0.12    0.21
  -5   3   2    7.26    0.40
  -3   3   2  251.43    2.77
  -1   3   2   78.10    1.11
   1   3   2  176.52    2.26
   3   3   2    0.38    0.24
   5   3   2    5.03    0.50
   7   3   2   22.88    1.05
   9   3   2   40.89    1.49
  11   3   2   76.06    2.21
  13   3   2    0.61    0.51
  15   3   2   58.59    2.76
  17   3   2   38.16    2.47
  19   3   2    0.11    1.17
 -18   4   2   16.55    1.71
 -16   4   2    9.41    1.32
 -14   4   2   19.62    1.70
 -12   4   2    3.54    0.65
 -10   4   2    1.65    0.52
  -8   4   2    7.20    0.78
  -6   4   2  150.80    2.66
  -4   4   2   14.86    0.74
  -2   4   2    6.65    0.42
   0   4   2    5.22    0.38
   2   4   2   57.03    1.36
   4   4   2    1.23    0.37
   6   4   2    1.40    0.46
   8   4   2   27.48    1.36
  10   4   2   32.92    1.56
  12   4   2   38.93    1.81
  14   4   2   37.15    2.44
  16   4   2    4.47    1.25
 -15   5   2   51.78    2.72
 -13   5   2    5.27    1.13
 -11   5   2    0.15    0.66
  -9   5   2    0.72    0.73
  -7   5   2    1.02    0.66
  -5   5   2    3.09    0.56
  -3   5   2  113.24    2.80
  -1   5   2   37.35    1.48
   1   5   2   85.28    2.75
   3   5   2    0.58    0.43
   5   5   2    2.01    0.58
   7   5   2    9.88    1.05
   9   5   2   22.90    1.57
  11   5   2   40.52    2.59
  13   5   2    1.45    1.02
 -10   6   2    0.90    1.36
  -8   6   2    2.50    1.10
  -6   6   2   81.58    3.28
  -4   6   2    7.54    1.92
   4   6   2    0.50    0.78
   6   6   2    1.83    1.36
 -10  -6   3    2.82    1.44
  -8  -6   3    8.31    1.91
  -6  -6   3   16.11    2.50
  -4  -6   3   39.28    2.18
  -2  -6   3    3.98    0.99
   0  -6   3   80.24    4.42
   2  -6   3    8.26    1.81
   4  -6   3   27.57    2.24
 -15  -5   3    2.72    0.95
 -13  -5   3    0.02    0.70
 -11  -5   3   44.57    2.15
  -9  -5   3   97.20    3.19
  -7  -5   3    1.00    0.59
  -5  -5   3    1.57    0.66
  -3  -5   3   10.51    1.23
  -1  -5   3    3.13    0.80
   1  -5   3   11.14    1.24
   3  -5   3    1.68    0.67
   5  -5   3  136.78    4.02
   7  -5   3   30.25    2.20
   9  -5   3   14.10    1.66
  11  -5   3    1.26    0.99
 -18  -4   3   20.59    1.46
 -16  -4   3   18.95    1.34
 -14  -4   3   63.65    1.99
 -12  -4   3   89.44    2.89
 -10  -4   3    4.98    0.79
  -8  -4   3   21.25    1.50
  -6  -4   3   31.18    1.50
  -4  -4   3   78.33    2.40
  -2  -4   3    6.91    0.66
   0  -4   3  167.35    4.01
   2  -4   3   19.72    1.48
   4  -4   3   61.98    2.27
   6  -4   3    0.16    0.41
   8  -4   3    2.16    0.76
  10  -4   3   41.90    2.19
  12  -4   3   15.77    1.68
  14  -4   3   28.48    2.34
 -21  -3   3   -0.17    0.75
 -19  -3   3    1.84    0.63
 -17  -3   3   42.94    2.01
 -15  -3   3    6.23    0.87
 -13  -3   3    1.57    0.44
 -11  -3   3   84.94    2.02
  -9  -3   3  183.17    3.23
  -7  -3   3   -0.25    0.23
  -5  -3   3    3.40    0.41
  -3  -3   3   17.02    0.95
  -1  -3   3    6.72    0.58
   1  -3   3   26.35    0.95
   3  -3   3    3.66    0.64
   5  -3   3  266.32    5.62
   7  -3   3   61.39    1.84
   9  -3   3   32.06    1.44
  11  -3   3    4.16    0.86
  13  -3   3   -0.30    0.66
  15  -3   3   37.07    2.50
  17  -3   3   11.49    1.60
 -22  -2   3   -0.10    0.77
 -20  -2   3   21.19    1.67
 -18  -2   3   34.61    1.74
 -16  -2   3   28.22    1.50
 -14  -2   3  107.35    2.89
 -12  -2   3  152.22    3.42
 -10  -2   3    9.13    0.67
  -8  -2   3   33.81    1.01
  -6  -2   3   59.79    1.32
  -4  -2   3  161.18    2.51
  -2  -2   3   11.28    0.74
   0  -2   3  348.01    4.89
   2  -2   3   39.01    1.07
   4  -2   3  106.42    2.02
   6  -2   3    0.44    0.35
   8  -2   3    4.38    0.61
  10  -2   3   68.17    1.94
  12  -2   3   25.64    1.82
  14  -2   3   46.44    2.20
  16  -2   3    0.92    0.79
  18  -2   3    2.42    0.99
 -23  -1   3    2.56    1.34
 -21  -1   3    0.01    0.66
 -19  -1   3    2.06    0.69
 -17  -1   3   67.31    2.31
 -15  -1   3    7.68    0.67
 -13  -1   3    2.24    0.32
 -11  -1   3  123.11    1.89
  -9  -1   3  282.33    3.47
  -7  -1   3   -0.16    0.12
  -5  -1   3    4.65    0.38
  -3  -1   3   32.99    0.80
  -1  -1   3    9.73    0.38
   1  -1   3   48.74    1.16
   3  -1   3    8.32    0.57
   5  -1   3  437.31    5.18
   7  -1   3   96.95    1.67
   9  -1   3   49.59    1.52
  11  -1   3    8.11    0.81
  13  -1   3    0.11    0.44
  15  -1   3   55.03    2.35
  17  -1   3   17.71    1.58
  19  -1   3   22.74    2.81
 -24   0   3    6.40    1.75
 -22   0   3   -0.79    0.93
 -20   0   3   28.45    1.72
 -18   0   3   38.91    1.40
 -16   0   3   34.74    1.24
 -14   0   3  133.07    2.54
 -12   0   3  185.49    2.34
 -10   0   3   11.99    0.51
  -8   0   3   43.30    0.88
  -6   0   3   80.80    1.27
  -4   0   3  221.08    2.74
  -2   0   3   15.60    0.42
   0   0   3  490.70    5.60
   2   0   3   54.44    0.87
   4   0   3  137.17    2.00
   6   0   3    0.35    0.23
   8   0   3    4.48    0.44
  10   0   3   83.78    1.67
  12   0   3   26.12    1.25
  14   0   3   55.22    2.29
  16   0   3    0.89    0.67
  18   0   3    3.22    1.38
 -23   1   3    4.01    0.98
 -21   1   3    0.39    0.63
 -19   1   3    1.48    0.63
 -17   1   3   64.14    2.25
 -15   1   3   10.48    0.69
 -13   1   3    2.36    0.37
 -11   1   3  120.32    2.03
  -9   1   3  280.12    3.69
  -7   1   3    0.48    0.20
  -5   1   3    5.32    0.37
  -3   1   3   30.98    0.76
  -1   1   3   10.07    0.37
   1   1   3   50.08    1.01
   3   1   3    8.04    0.50
   5   1   3  430.77    5.32
   7   1   3   95.46    2.12
   9   1   3   46.03    1.46
  11   1   3    6.87    0.73
  13   1   3   -0.48    0.39
  15   1   3   48.24    2.26
  17   1   3   16.47    1.65
  19   1   3   21.00    2.82
 -22   2   3   -0.35    0.76
 -20   2   3   24.08    1.81
 -18   2   3   32.89    1.45
 -16   2   3   28.10    1.33
 -14   2   3  104.55    2.46
 -12   2   3  145.70    2.55
 -10   2   3    9.30    0.62
  -8   2   3   32.23    0.95
  -6   2   3   59.75    1.04
  -4   2   3  158.00    2.08
  -2   2   3   10.65    0.43
   0   2   3  342.25    3.76
   2   2   3   37.00    0.94
   4   2   3  104.22    1.85
   6   2   3    0.42    0.33
   8   2   3    3.04    0.55
  10   2   3   69.72    2.01
  12   2   3   25.16    1.40
  14   2   3   45.56    1.85
  16   2   3    0.06    0.61
  18   2   3    1.94    1.02
  20   2   3   31.96    3.41
 -21   3   3    0.19    0.90
 -19   3   3    2.44    0.75
 -17   3   3   44.15    1.78
 -15   3   3    6.04    0.79
 -13   3   3    1.82    0.52
 -11   3   3   86.11    2.20
  -9   3   3  186.83    2.91
  -7   3   3    0.10    0.26
  -5   3   3    2.43    0.30
  -3   3   3   15.81    0.66
  -1   3   3    6.17    0.43
   1   3   3   26.50    0.78
   3   3   3    4.55    0.48
   5   3   3  269.66    3.88
   7   3   3   61.31    1.81
   9   3   3   31.93    1.47
  11   3   3    5.82    0.80
  13   3   3    0.23    0.57
  15   3   3   38.04    1.91
  17   3   3    9.07    1.50
 -18   4   3   22.79    2.03
 -16   4   3   20.02    1.53
 -14   4   3   66.71    2.22
 -12   4   3   83.23    2.41
 -10   4   3    6.06    0.78
  -8   4   3   20.63    1.29
  -6   4   3   31.22    1.10
  -4   4   3   83.71    1.82
  -2   4   3    5.11    0.48
   0   4   3  171.06    3.27
   2   4   3   19.76    1.00
   4   4   3   59.22    1.56
   6   4   3    0.28    0.41
   8   4   3    2.35    0.61
  10   4   3   41.16    1.78
  12   4   3   15.07    1.37
  14   4   3   28.83    1.95
 -15   5   3    4.23    1.18
 -13   5   3    0.60    0.79
 -11   5   3   47.48    2.44
  -9   5   3   99.88    2.80
  -7   5   3   -0.04    0.53
  -5   5   3    0.89    0.56
  -3   5   3    7.48    0.89
  -1   5   3    2.91    0.65
   1   5   3   11.75    1.02
   3   5   3    2.16    0.62
   5   5   3  140.45    4.17
   7   5   3   30.01    2.19
   9   5   3   14.18    1.59
  11   5   3    2.75    1.01
  -8   6   3    9.54    1.49
  -6   6   3   14.09    1.72
  -2   6   3    1.60    1.31
   2   6   3    7.55    1.88
   4   6   3   30.39    2.27
   6   6   3   -0.16    1.18
  -6  -6   4   67.40    4.24
  -4  -6   4    4.81    1.05
  -2  -6   4   17.18    1.81
   0  -6   4   19.93    1.93
 -13  -5   4   -0.30    0.68
 -11  -5   4   32.76    2.21
  -9  -5   4   23.87    1.85
  -7  -5   4    2.76    0.82
  -5  -5   4   45.78    2.14
  -3  -5   4    0.02    0.56
  -1  -5   4   50.85    2.26
   1  -5   4    1.21    0.64
   3  -5   4    2.98    0.90
   5  -5   4    4.05    0.92
   7  -5   4    0.06    0.76
   9  -5   4    1.18    0.93
 -18  -4   4    9.64    1.32
 -16  -4   4    5.12    1.00
 -14  -4   4   10.84    1.26
 -12  -4   4    5.24    0.90
 -10  -4   4    2.21    0.64
  -8  -4   4    0.62    0.47
  -6  -4   4  132.21    3.48
  -4  -4   4    9.26    1.01
  -2  -4   4   32.62    1.62
   0  -4   4   31.63    1.63
   2  -4   4   23.27    1.68
   4  -4   4   11.48    1.27
   6  -4   4   24.99    1.55
   8  -4   4   64.65    2.64
  10  -4   4    6.44    1.17
  12  -4   4   30.23    2.33
  14  -4   4    0.93    1.41
 -21  -3   4   48.49    2.46
 -19  -3   4   19.49    1.35
 -17  -3   4   47.70    1.74
 -15  -3   4   21.64    1.27
 -13  -3   4    0.20    0.37
 -11  -3   4   58.85    1.65
  -9  -3   4   47.33    1.84
  -7  -3   4    6.61    0.81
  -5  -3   4   82.46    2.39
  -3  -3   4    0.07    0.28
  -1  -3   4   98.25    2.09
   1  -3   4    1.15    0.45
   3  -3   4    5.36    0.79
   5  -3   4    7.98    0.81
   7  -3   4    0.38    0.46
   9  -3   4    0.21    0.52
  11  -3   4   66.74    2.67
  13  -3   4    3.66    1.04
  15  -3   4   25.61    2.18
  17  -3   4    2.14    1.68
 -22  -2   4   36.17    2.22
 -20  -2   4    7.92    1.14
 -18  -2   4   14.82    1.10
 -16  -2   4    9.72    0.85
 -14  -2   4   17.52    0.98
 -12  -2   4   11.66    0.82
 -10  -2   4    5.43    0.56
  -8  -2   4    0.79    0.29
  -6  -2   4  246.08    3.70
  -4  -2   4   17.43    0.66
  -2  -2   4   58.74    1.43
   0  -2   4   59.57    1.49
   2  -2   4   38.95    1.21
   4  -2   4   24.95    1.37
   6  -2   4   41.83    1.43
   8  -2   4  104.33    2.47
  10  -2   4   12.32    1.03
  12  -2   4   46.43    1.77
  14  -2   4    0.65    0.78
  16  -2   4   28.38    3.15
 -23  -1   4   17.86    2.46
 -21  -1   4   63.24    2.58
 -19  -1   4   25.01    1.75
 -17  -1   4   59.11    2.22
 -15  -1   4   30.59    1.17
 -13  -1   4    0.59    0.32
 -11  -1   4   84.35    1.86
  -9  -1   4   78.61    1.35
  -7  -1   4   11.07    0.47
  -5  -1   4  126.33    2.22
  -3  -1   4    0.76    0.20
  -1  -1   4  155.31    2.16
   1  -1   4    2.32    0.27
   3  -1   4   11.44    0.77
   5  -1   4   14.56    0.68
   7  -1   4   -0.18    0.35
   9  -1   4    0.02    0.38
  11  -1   4   92.29    2.36
  13  -1   4    6.02    0.99
  15  -1   4   35.23    3.41
  17  -1   4    1.25    1.18
 -22   0   4   39.23    2.99
 -20   0   4   11.41    1.78
 -18   0   4   15.90    1.03
 -16   0   4   11.45    0.84
 -14   0   4   19.65    0.96
 -12   0   4   13.37    0.62
 -10   0   4    8.03    0.49
  -8   0   4    1.08    0.24
  -6   0   4  305.29    3.77
  -4   0   4   23.06    0.55
  -2   0   4   75.00    1.32
   0   0   4   79.25    1.40
   2   0   4   55.03    0.95
   4   0   4   32.87    0.76
   6   0   4   55.78    1.25
   8   0   4  131.64    2.22
  10   0   4   13.31    0.93
  12   0   4   57.45    2.39
  14   0   4    0.58    0.64
  16   0   4   40.85    2.22
  18   0   4    0.61    1.21
 -23   1   4   16.93    1.66
 -21   1   4   62.48    2.51
 -19   1   4   24.92    1.68
 -17   1   4   57.47    2.13
 -15   1   4   28.81    1.03
 -13   1   4    0.66    0.33
 -11   1   4   83.87    1.89
  -9   1   4   76.36    1.52
  -7   1   4   10.46    0.59
  -5   1   4  125.17    2.01
  -3   1   4    0.86    0.24
  -1   1   4  157.41    2.25
   1   1   4    2.06    0.34
   3   1   4    9.04    0.62
   5   1   4   15.12    0.81
   7   1   4    0.62    0.40
   9   1   4    0.49    0.42
  11   1   4   87.15    2.32
  13   1   4    4.41    0.70
  15   1   4   34.93    2.13
  17   1   4    0.89    0.87
  19   1   4    6.12    1.83
 -22   2   4   37.91    2.25
 -20   2   4    9.68    1.22
 -18   2   4   17.65    1.23
 -16   2   4    9.79    0.87
 -14   2   4   16.70    1.07
 -12   2   4   11.93    0.80
 -10   2   4    5.95    0.55
  -8   2   4    0.83    0.30
  -6   2   4  238.87    3.25
  -4   2   4   17.30    0.72
  -2   2   4   58.18    1.28
   0   2   4   59.89    1.23
   2   2   4   39.41    1.05
   4   2   4   22.95    0.88
   6   2   4   40.71    1.26
   8   2   4  101.23    2.63
  10   2   4   11.05    1.04
  12   2   4   44.59    1.85
  14   2   4    1.49    0.68
  16   2   4   31.15    2.41
  18   2   4    0.23    1.00
 -21   3   4   43.28    2.48
 -19   3   4   22.59    1.56
 -17   3   4   45.46    1.83
 -15   3   4   22.57    1.41
 -13   3   4    0.02    0.43
 -11   3   4   56.43    1.79
  -9   3   4   49.50    1.37
  -7   3   4    5.93    0.57
  -5   3   4   84.03    1.99
  -3   3   4    0.48    0.27
  -1   3   4   96.13    1.90
   1   3   4    1.34    0.40
   3   3   4    5.35    0.54
   5   3   4    8.92    0.71
   7   3   4   -0.11    0.38
   9   3   4    0.60    0.51
  11   3   4   65.62    2.37
  13   3   4    4.23    0.92
  15   3   4   24.55    1.80
  17   3   4    1.63    1.51
 -18   4   4   10.29    1.22
 -16   4   4    9.82    1.11
 -14   4   4   10.09    1.08
 -12   4   4    5.86    0.85
 -10   4   4    2.04    0.61
  -8   4   4    1.20    0.52
  -6   4   4  133.89    2.56
  -4   4   4   11.07    0.93
  -2   4   4   32.16    1.13
   0   4   4   33.35    1.19
   2   4   4   26.46    1.37
   4   4   4   12.05    1.03
   6   4   4   23.25    1.80
   8   4   4   58.06    2.56
  10   4   4    6.95    1.00
  12   4   4   31.12    2.01
  14   4   4    0.79    3.12
 -13   5   4    1.08    0.76
 -11   5   4   33.59    1.93
  -9   5   4   24.05    1.61
  -7   5   4    3.98    0.80
  -5   5   4   47.58    2.23
  -3   5   4    0.53    0.54
  -1   5   4   51.32    2.29
   1   5   4    0.40    0.53
   3   5   4    3.17    0.73
   5   5   4    2.82    0.92
   7   5   4   -0.67    0.72
   9   5   4    0.45    0.80
  -4   6   4    5.22    1.24
  -2   6   4   13.36    2.27
   0   6   4   16.18    2.50
   2   6   4   10.49    2.15
 -13  -5   5    1.86    0.93
 -11  -5   5   29.15    2.14
  -9  -5   5    0.60    0.72
  -7  -5   5   19.90    1.76
  -5  -5   5   24.84    1.95
  -3  -5   5    8.40    1.20
  -1  -5   5   49.78    2.39
   1  -5   5   64.50    2.75
   3  -5   5    4.74    1.04
   5  -5   5   13.61    1.59
   7  -5   5   12.59    1.62
 -18  -4   5   11.09    2.05
 -16  -4   5    6.49    1.15
 -14  -4   5   15.93    1.56
 -12  -4   5    7.56    1.09
 -10  -4   5   68.94    2.55
  -8  -4   5   18.61    1.49
  -6  -4   5   22.99    1.64
  -4  -4   5    1.01    0.44
  -2  -4   5    0.20    0.48
   0  -4   5   13.76    1.34
   2  -4   5   33.31    1.84
   4  -4   5    1.07    0.76
   6  -4   5   98.97    2.80
   8  -4   5   24.19    1.98
  10  -4   5    3.77    1.07
  12  -4   5    9.93    2.12
 -21  -3   5    1.90    1.25
 -19  -3   5    1.97    0.72
 -17  -3   5    0.05    0.53
 -15  -3   5  110.24    2.68
 -13  -3   5    4.70    0.86
 -11  -3   5   45.12    1.93
  -9  -3   5    3.44    0.70
  -7  -3   5   35.43    1.60
  -5  -3   5   42.94    1.75
  -3  -3   5   17.96    1.08
  -1  -3   5  103.43    2.32
   1  -3   5  124.10    3.40
   3  -3   5   10.72    1.24
   5  -3   5   20.11    1.30
   7  -3   5   30.22    1.67
   9  -3   5    4.25    0.76
  11  -3   5    1.18    0.82
  13  -3   5   19.33    1.92
 -22  -2   5    0.90    0.87
 -20  -2   5   28.42    2.02
 -18  -2   5   18.61    1.54
 -16  -2   5    7.37    0.79
 -14  -2   5   28.89    1.21
 -12  -2   5   11.27    0.84
 -10  -2   5   98.93    2.17
  -8  -2   5   26.87    1.00
  -6  -2   5   37.55    1.56
  -4  -2   5    0.92    0.35
  -2  -2   5    0.52    0.34
   0  -2   5   22.47    0.99
   2  -2   5   59.14    1.65
   4  -2   5    3.56    0.78
   6  -2   5  157.13    3.23
   8  -2   5   43.17    1.61
  10  -2   5    4.36    0.74
  12  -2   5   16.21    1.65
  14  -2   5   28.45    3.24
  16  -2   5    0.98    1.35
 -23  -1   5    1.80    1.27
 -21  -1   5    2.48    0.88
 -19  -1   5    3.37    0.86
 -17  -1   5    0.11    0.53
 -15  -1   5  153.42    3.79
 -13  -1   5    6.38    0.64
 -11  -1   5   66.00    1.69
  -9  -1   5    3.90    0.48
  -7  -1   5   55.19    1.42
  -5  -1   5   68.18    1.31
  -3  -1   5   26.73    0.78
  -1  -1   5  155.83    2.29
   1  -1   5  187.11    3.32
   3  -1   5   13.84    0.93
   5  -1   5   30.00    0.97
   7  -1   5   43.19    1.45
   9  -1   5    7.45    1.10
  11  -1   5    0.58    0.65
  13  -1   5   25.73    1.99
  15  -1   5   37.91    2.36
  17  -1   5   19.56    2.74
 -22   0   5    2.30    1.17
 -20   0   5   32.84    1.90
 -18   0   5   21.09    1.55
 -16   0   5    8.56    1.00
 -14   0   5   34.58    1.22
 -12   0   5   14.60    0.81
 -10   0   5  122.49    2.02
  -8   0   5   33.08    0.90
  -6   0   5   49.42    0.92
  -4   0   5    1.93    0.30
  -2   0   5    0.32    0.23
   0   0   5   26.54    0.85
   2   0   5   73.77    1.50
   4   0   5    3.94    0.46
   6   0   5  191.99    3.57
   8   0   5   49.43    1.62
  10   0   5    6.58    1.03
  12   0   5   23.20    1.84
  14   0   5   27.87    2.06
  16   0   5   -0.37    0.80
 -23   1   5    0.05    1.21
 -21   1   5    0.81    0.74
 -19   1   5    3.58    0.78
 -17   1   5    1.42    0.49
 -15   1   5  150.11    3.04
 -13   1   5    7.69    0.67
 -11   1   5   68.80    1.72
  -9   1   5    4.32    0.52
  -7   1   5   53.29    1.29
  -5   1   5   67.52    1.46
  -3   1   5   25.83    0.89
  -1   1   5  152.49    2.42
   1   1   5  179.14    2.95
   3   1   5   12.16    0.78
   5   1   5   30.52    1.12
   7   1   5   40.92    1.53
   9   1   5    4.27    0.69
  11   1   5   -0.32    0.48
  13   1   5   26.02    2.06
  15   1   5   40.24    2.48
  17   1   5   20.31    2.02
 -22   2   5    2.00    0.96
 -20   2   5   28.32    1.95
 -18   2   5   18.81    1.52
 -16   2   5    8.77    1.06
 -14   2   5   27.76    1.39
 -12   2   5   12.60    0.96
 -10   2   5  100.31    2.32
  -8   2   5   28.15    1.13
  -6   2   5   37.04    1.08
  -4   2   5    1.07    0.33
  -2   2   5   -0.03    0.27
   0   2   5   22.27    1.12
   2   2   5   55.49    1.69
   4   2   5    2.82    0.47
   6   2   5  153.87    2.91
   8   2   5   40.28    1.84
  10   2   5    4.05    0.85
  12   2   5   15.20    1.22
  14   2   5   24.11    1.68
  16   2   5    0.41    1.05
 -21   3   5    2.31    1.00
 -19   3   5    2.42    0.79
 -17   3   5    1.06    0.62
 -15   3   5  108.49    2.86
 -13   3   5    3.52    0.67
 -11   3   5   47.28    1.66
  -9   3   5    3.13    0.57
  -7   3   5   35.87    1.37
  -5   3   5   43.23    1.49
  -3   3   5   16.62    0.90
  -1   3   5  100.78    2.10
   1   3   5  124.13    2.80
   3   3   5    7.37    0.82
   5   3   5   19.84    1.29
   7   3   5   23.40    1.82
   9   3   5    3.86    0.81
  11   3   5    0.22    0.70
  13   3   5   19.54    1.71
  15   3   5   30.43    2.63
 -18   4   5   12.56    1.70
 -16   4   5    7.37    1.05
 -14   4   5   18.36    1.41
 -12   4   5    9.19    1.04
 -10   4   5   64.96    2.53
  -8   4   5   16.42    1.20
  -6   4   5   18.01    1.24
  -4   4   5    1.46    0.53
  -2   4   5   -0.07    0.42
   0   4   5   14.38    1.12
   2   4   5   32.51    1.59
   4   4   5    2.57    0.66
   6   4   5   93.45    3.44
   8   4   5   21.29    1.87
  10   4   5    4.20    1.09
 -15   5   5   76.87    4.90
 -13   5   5    3.15    1.09
 -11   5   5   27.85    2.14
  -9   5   5    0.47    0.82
  -7   5   5   19.35    1.72
  -5   5   5   24.36    1.93
  -3   5   5    7.53    0.96
  -1   5   5   55.27    2.53
   1   5   5   73.16    4.15
   3   5   5    5.12    0.89
   5   5   5   13.21    1.61
   7   5   5   16.56    1.87
 -11  -5   6    9.35    1.37
  -9  -5   6   28.42    1.76
  -7  -5   6   33.35    2.36
  -5  -5   6   44.97    2.34
  -3  -5   6    0.97    0.77
  -1  -5   6   -0.58    0.65
   1  -5   6   60.18    2.84
   3  -5   6    0.43    0.92
 -16  -4   6   19.50    1.82
 -14  -4   6    4.30    0.99
 -12  -4   6   64.05    2.66
 -10  -4   6   11.80    1.33
  -8  -4   6    7.28    1.09
  -6  -4   6   30.26    1.45
  -4  -4   6  112.83    3.47
  -2  -4   6    5.67    0.99
   0  -4   6    1.12    0.69
   2  -4   6   34.13    2.32
   4  -4   6   14.01    1.25
   6  -4   6    3.47    0.85
   8  -4   6    1.31    0.94
  10  -4   6   37.47    3.56
 -19  -3   6    0.12    1.21
 -17  -3   6    5.41    1.06
 -15  -3   6    7.82    1.09
 -13  -3   6   36.34    1.87
 -11  -3   6   10.49    1.16
  -9  -3   6   37.42    1.85
  -7  -3   6   51.29    1.67
  -5  -3   6   90.11    2.25
  -3  -3   6    0.23    0.40
  -1  -3   6    0.21    0.52
   1  -3   6   97.83    3.21
   3  -3   6    1.16    0.68
   5  -3   6   43.91    1.74
   7  -3   6    0.14    0.58
   9  -3   6   87.74    3.43
  11  -3   6    9.93    2.19
 -22  -2   6   -0.29    0.84
 -20  -2   6   83.97    3.12
 -18  -2   6   25.47    1.85
 -16  -2   6   26.98    1.33
 -14  -2   6    3.96    0.61
 -12  -2   6  100.81    2.36
 -10  -2   6   17.43    1.37
  -8  -2   6   10.66    1.09
  -6  -2   6   50.80    1.52
  -4  -2   6  186.49    3.41
  -2  -2   6    8.45    0.78
   0  -2   6    1.87    0.50
   2  -2   6   57.46    2.33
   4  -2   6   23.06    1.25
   6  -2   6    6.55    1.10
   8  -2   6    3.30    0.87
  10  -2   6   45.29    2.40
  12  -2   6   23.44    2.06
  14  -2   6    2.46    1.45
 -23  -1   6    1.16    1.56
 -21  -1   6   50.91    2.44
 -19  -1   6   -0.08    0.64
 -17  -1   6    7.21    1.02
 -15  -1   6    7.66    0.99
 -13  -1   6   56.90    1.70
 -11  -1   6   19.08    1.03
  -9  -1   6   65.61    1.68
  -7  -1   6   75.43    1.51
  -5  -1   6  127.14    2.09
  -3  -1   6    0.10    0.34
  -1  -1   6    0.85    0.42
   1  -1   6  157.19    3.16
   3  -1   6    0.74    0.44
   5  -1   6   62.46    2.49
   7  -1   6    0.70    0.65
   9  -1   6  125.47    3.90
  11  -1   6   12.49    1.49
  13  -1   6   16.47    1.66
  15  -1   6   25.62    2.19
 -22   0   6    0.24    1.07
 -20   0   6  101.81    3.42
 -18   0   6   27.15    1.88
 -16   0   6   32.75    1.74
 -14   0   6    6.85    0.90
 -12   0   6  120.39    3.22
 -10   0   6   20.83    0.84
  -8   0   6   11.41    0.67
  -6   0   6   60.99    1.66
  -4   0   6  225.06    3.87
  -2   0   6   13.28    0.72
   0   0   6    1.50    0.36
   2   0   6   76.42    1.63
   4   0   6   27.59    1.23
   6   0   6    7.05    0.79
   8   0   6    3.63    0.87
  10   0   6   50.74    2.37
  12   0   6   28.82    2.14
  14   0   6    2.99    1.01
  16   0   6   26.11    3.15
 -21   1   6   56.35    3.58
 -19   1   6    1.12    0.94
 -17   1   6    6.25    0.76
 -15   1   6    6.97    0.76
 -13   1   6   53.92    1.65
 -11   1   6   15.79    1.00
  -9   1   6   58.32    1.65
  -7   1   6   79.30    1.70
  -5   1   6  126.99    2.28
  -3   1   6    0.09    0.34
  -1   1   6    0.26    0.35
   1   1   6  155.51    3.11
   3   1   6    0.79    0.37
   5   1   6   67.09    1.70
   7   1   6    0.33    0.49
   9   1   6  121.84    3.02
  11   1   6   15.05    1.60
  13   1   6   17.65    1.79
  15   1   6   24.66    2.20
 -22   2   6   -0.54    1.15
 -20   2   6   83.52    3.06
 -18   2   6   26.81    1.86
 -16   2   6   28.11    1.72
 -14   2   6    4.66    0.70
 -12   2   6  104.76    2.54
 -10   2   6   17.14    1.10
  -8   2   6   10.99    0.87
  -6   2   6   48.24    1.56
  -4   2   6  177.46    3.06
  -2   2   6    8.11    0.81
   0   2   6    1.04    0.46
   2   2   6   58.76    1.86
   4   2   6   20.38    1.30
   6   2   6    7.53    1.08
   8   2   6    2.14    0.76
  10   2   6   49.06    2.15
  12   2   6   27.55    1.79
  14   2   6    2.45    1.16
 -19   3   6    0.10    0.79
 -17   3   6    5.87    1.09
 -15   3   6    5.59    1.01
 -13   3   6   36.80    1.91
 -11   3   6   11.45    1.03
  -9   3   6   43.21    1.63
  -7   3   6   51.94    1.76
  -5   3   6   85.71    2.30
  -3   3   6   -0.13    0.34
  -1   3   6    0.10    0.42
   1   3   6  106.34    2.75
   3   3   6    0.48    0.47
   5   3   6   42.81    1.77
   7   3   6   -0.09    0.66
   9   3   6   85.19    3.37
  11   3   6    9.05    1.34
  13   3   6   12.41    2.21
 -16   4   6   20.50    1.91
 -14   4   6    1.13    0.81
 -12   4   6   66.51    2.73
 -10   4   6   10.65    1.27
  -8   4   6    4.64    0.80
  -6   4   6   29.30    1.67
  -4   4   6  109.39    2.87
  -2   4   6    5.15    0.93
   0   4   6    1.18    0.59
   2   4   6   30.30    1.78
   4   4   6   14.61    1.29
   6   4   6    4.16    1.10
   8   4   6    0.81    0.93
 -11   5   6    4.52    1.21
  -9   5   6   25.15    2.10
  -7   5   6   32.49    2.34
  -5   5   6   47.08    2.51
  -3   5   6    0.47    0.82
  -1   5   6    0.49    0.86
   1   5   6   64.65    4.28
   3   5   6    0.67    0.92
   5   5   6   18.68    3.03
  -7  -5   7    4.60    1.54
  -5  -5   7   -0.89    0.86
  -3  -5   7    0.78    1.10
 -14  -4   7   28.83    2.23
 -12  -4   7    3.48    1.02
 -10  -4   7   58.89    2.10
  -8  -4   7    5.68    0.87
  -6  -4   7   18.41    1.70
  -4  -4   7    4.36    0.99
  -2  -4   7   13.91    1.58
   0  -4   7   36.69    2.51
   2  -4   7   24.91    2.18
   4  -4   7   48.77    2.17
   6  -4   7   -0.57    0.73
 -17  -3   7   56.78    2.67
 -15  -3   7   22.35    1.85
 -13  -3   7   37.63    2.04
 -11  -3   7    6.54    1.07
  -9  -3   7    0.69    0.50
  -7  -3   7    7.79    0.86
  -5  -3   7    0.60    0.47
  -3  -3   7    0.62    0.50
  -1  -3   7   58.63    2.48
   1  -3   7    1.00    0.67
   3  -3   7   19.42    1.84
   5  -3   7   -0.21    0.80
   7  -3   7   40.66    2.54
   9  -3   7    1.87    1.08
 -20  -2   7    5.61    1.17
 -18  -2   7   18.18    1.63
 -16  -2   7    4.56    1.40
 -14  -2   7   38.00    1.98
 -12  -2   7    4.55    0.92
 -10  -2   7   92.09    3.04
  -8  -2   7   11.36    0.93
  -6  -2   7   30.91    1.29
  -4  -2   7    8.19    0.83
  -2  -2   7   27.21    1.40
   0  -2   7   50.10    1.74
   2  -2   7   34.86    2.10
   4  -2   7   75.44    2.96
   6  -2   7    1.08    0.80
   8  -2   7    2.19    0.96
  10  -2   7   -0.51    0.86
  12  -2   7    3.55    1.19
 -21  -1   7    7.37    1.29
 -19  -1   7    0.94    0.76
 -17  -1   7   70.24    2.72
 -15  -1   7   28.70    1.75
 -13  -1   7   46.03    1.60
 -11  -1   7    6.49    0.72
  -9  -1   7    0.00    0.36
  -7  -1   7   12.15    1.24
  -5  -1   7    0.49    0.55
  -3  -1   7    2.00    0.55
  -1  -1   7   89.26    2.31
   1  -1   7   -0.21    0.45
   3  -1   7   30.01    1.40
   5  -1   7    0.37    0.65
   7  -1   7   54.37    2.55
   9  -1   7    4.05    1.06
  11  -1   7    7.12    1.30
  13  -1   7    3.21    1.11
 -22   0   7    0.26    1.16
 -20   0   7    5.81    1.17
 -18   0   7   21.66    1.73
 -16   0   7    5.68    0.97
 -14   0   7   45.62    2.00
 -12   0   7    6.99    0.92
 -10   0   7  109.95    2.53
  -8   0   7   12.07    0.93
  -6   0   7   35.23    1.34
  -4   0   7   11.47    0.89
  -2   0   7   30.02    1.27
   0   0   7   60.07    2.35
   2   0   7   39.40    1.91
   4   0   7   99.24    2.50
   6   0   7    0.14    0.52
   8   0   7    2.45    0.88
  10   0   7   -0.56    0.74
  12   0   7    5.63    1.23
  14   0   7    0.46    1.29
 -21   1   7    5.38    1.55
 -19   1   7    0.99    0.81
 -17   1   7   76.75    2.85
 -15   1   7   28.92    1.79
 -13   1   7   45.32    1.58
 -11   1   7    6.03    0.71
  -9   1   7    0.53    0.41
  -7   1   7   10.07    0.74
  -5   1   7    0.12    0.38
  -3   1   7    1.77    0.49
  -1   1   7   88.64    2.29
   1   1   7    0.24    0.41
   3   1   7   33.32    1.43
   5   1   7    1.52    0.70
   7   1   7   55.89    2.47
   9   1   7    3.56    0.97
  11   1   7    5.40    1.64
  13   1   7    2.88    1.12
 -20   2   7    6.60    1.69
 -18   2   7   18.68    1.60
 -16   2   7    4.57    0.80
 -14   2   7   39.07    1.65
 -12   2   7    5.23    0.74
 -10   2   7   93.64    2.44
  -8   2   7   11.11    0.92
  -6   2   7   29.44    1.35
  -4   2   7    7.30    0.89
  -2   2   7   23.28    1.45
   0   2   7   46.46    1.77
   2   2   7   33.86    1.56
   4   2   7   78.91    2.36
   6   2   7    0.45    0.69
   8   2   7    1.83    0.84
  10   2   7    0.14    0.80
 -19   3   7    1.31    1.22
 -17   3   7   52.97    2.53
 -15   3   7   21.92    1.76
 -13   3   7   33.59    1.69
 -11   3   7    3.36    0.73
  -9   3   7   -0.06    0.49
  -7   3   7    6.85    0.87
  -5   3   7    1.09    0.56
  -3   3   7    0.56    0.58
  -1   3   7   60.11    2.17
   1   3   7    0.22    0.58
   3   3   7   20.60    1.47
   5   3   7    0.38    0.62
   7   3   7   37.92    2.39
   9   3   7    0.98    0.93
 -14   4   7   25.64    2.03
 -12   4   7    2.36    0.96
 -10   4   7   58.37    2.62
  -8   4   7    4.93    0.88
  -6   4   7   17.42    1.40
  -4   4   7    4.48    1.04
  -2   4   7   15.26    1.59
   0   4   7   30.47    2.23
   2   4   7   18.14    1.50
   4   4   7   51.22    2.58
   6   4   7   -0.28    0.97
  -5   5   7   -0.39    1.47
  -3   5   7   -0.16    1.42
  -1   5   7   39.26    4.00
 -12  -4   8    1.69    0.94
 -10  -4   8   59.37    2.21
  -8  -4   8   14.91    1.64
  -6  -4   8   10.13    1.39
  -4  -4   8   21.09    1.93
  -2  -4   8   12.20    1.64
   0  -4   8   17.95    1.91
   2  -4   8    0.36    1.01
 -15  -3   8   12.03    1.56
 -13  -3   8   -0.23    0.77
 -11  -3   8   41.79    2.25
  -9  -3   8    0.28    0.72
  -7  -3   8   30.78    1.62
  -5  -3   8   89.28    2.53
  -3  -3   8   14.45    1.52
  -1  -3   8   13.34    1.54
   1  -3   8    1.10    0.92
   3  -3   8    4.60    1.21
   5  -3   8   24.99    2.21
   7  -3   8    4.90    1.37
 -18  -2   8    1.91    1.42
 -16  -2   8   -0.69    1.07
 -14  -2   8    0.59    0.75
 -12  -2   8   -0.18    0.65
 -10  -2   8   75.94    2.95
  -8  -2   8   19.80    1.70
  -6  -2   8   11.80    1.34
  -4  -2   8   34.03    2.06
  -2  -2   8   20.94    1.40
   0  -2   8   21.10    1.85
   2  -2   8    1.54    0.81
   4  -2   8    8.49    1.35
   6  -2   8   76.58    3.27
   8  -2   8    1.03    1.01
 -21  -1   8   -1.29    1.06
 -19  -1   8   79.46    3.09
 -17  -1   8   -0.17    0.70
 -15  -1   8   16.97    1.49
 -13  -1   8   -0.54    0.87
 -11  -1   8   56.28    2.41
  -9  -1   8    0.60    0.64
  -7  -1   8   38.95    2.01
  -5  -1   8  109.75    3.63
  -3  -1   8   19.28    1.65
  -1  -1   8   17.06    1.58
   1  -1   8    1.52    0.73
   3  -1   8   12.19    2.22
   5  -1   8   32.32    2.28
   7  -1   8   10.21    1.46
   9  -1   8    3.03    1.08
  11  -1   8   21.74    2.87
 -20   0   8    1.27    0.87
 -18   0   8    1.41    0.81
 -16   0   8   -0.23    0.65
 -14   0   8    1.22    0.68
 -12   0   8    0.77    0.61
 -10   0   8   95.94    2.96
  -8   0   8   24.12    1.27
  -6   0   8   12.25    0.98
  -4   0   8   33.94    1.90
  -2   0   8   22.82    1.79
   0   0   8   23.87    1.83
   2   0   8    0.78    0.69
   4   0   8   11.38    1.37
   6   0   8   77.02    4.67
   8   0   8    0.37    1.15
  10   0   8   75.13    4.81
 -19   1   8   78.37    3.19
 -17   1   8    0.58    0.79
 -15   1   8   16.93    1.57
 -13   1   8    0.47    0.62
 -11   1   8   54.11    2.30
  -9   1   8    1.20    0.50
  -7   1   8   40.75    1.60
  -5   1   8  117.85    2.82
  -3   1   8   18.59    1.25
  -1   1   8   18.27    1.23
   1   1   8    1.91    0.56
   3   1   8   12.26    1.40
   5   1   8   23.63    1.90
   7   1   8    8.60    1.30
   9   1   8    2.01    1.44
 -18   2   8    1.03    1.09
 -16   2   8   -0.80    0.59
 -14   2   8    1.61    0.64
 -12   2   8    0.46    0.56
 -10   2   8   83.20    2.37
  -8   2   8   20.68    1.33
  -6   2   8   11.50    1.28
  -4   2   8   29.31    1.63
  -2   2   8   19.25    1.39
   0   2   8   20.92    1.45
   2   2   8    0.52    0.60
   4   2   8    8.16    1.01
   6   2   8   76.87    3.21
   8   2   8    1.94    1.00
 -17   3   8    0.72    1.20
 -15   3   8   11.71    1.46
 -13   3   8    0.17    0.69
 -11   3   8   42.96    1.92
  -9   3   8    0.40    0.59
  -7   3   8   28.73    1.72
  -5   3   8   84.53    3.18
  -3   3   8   13.47    1.47
  -1   3   8   11.69    1.28
   1   3   8    1.47    0.72
   3   3   8    8.01    1.10
   5   3   8   23.34    2.16
 -10   4   8   51.84    4.98
  -8   4   8   11.82    1.27
  -6   4   8   10.77    1.54
  -4   4   8   17.54    1.82
  -2   4   8   11.91    1.51
   0   4   8   16.87    1.76
 -13  -3   9   39.55    2.53
 -11  -3   9   25.09    2.16
  -9  -3   9    3.36    1.14
  -7  -3   9   22.65    2.04
  -5  -3   9   41.22    4.09
  -3  -3   9    0.94    1.34
  -1  -3   9    3.00    1.82
   1  -3   9   82.23    3.55
   3  -3   9    0.66    1.39
 -16  -2   9  113.29    5.77
 -14  -2   9    2.26    1.45
 -12  -2   9    5.97    1.20
 -10  -2   9    3.74    1.05
  -8  -2   9    3.20    0.97
  -6  -2   9    4.18    1.09
  -4  -2   9   18.23    1.79
  -2  -2   9   36.83    4.01
   0  -2   9   38.65    3.98
   2  -2   9   11.02    2.37
   4  -2   9    6.11    1.93
 -17  -1   9    0.07    1.25
 -15  -1   9   14.92    2.38
 -13  -1   9   54.83    3.67
 -11  -1   9   36.29    2.19
  -9  -1   9    4.62    1.11
  -7  -1   9   31.26    2.26
  -5  -1   9   51.62    3.79
  -3  -1   9    2.57    0.94
  -1  -1   9    2.73    0.94
   1  -1   9   99.85    5.47
   3  -1   9    2.57    1.51
   5  -1   9    9.72    2.26
 -18   0   9   -0.15    0.85
 -16   0   9  134.16    4.08
 -14   0   9    0.30    0.76
 -12   0   9    5.26    0.98
 -10   0   9    5.98    1.57
  -8   0   9    2.12    0.87
  -6   0   9    3.40    0.92
  -4   0   9   22.54    1.87
  -2   0   9   43.30    2.27
   0   0   9   49.70    2.41
   2   0   9   12.12    1.52
   4   0   9    6.86    1.89
   6   0   9   17.14    2.85
 -19   1   9    1.47    1.51
 -17   1   9   -0.13    0.80
 -15   1   9   14.42    1.56
 -13   1   9   55.11    3.33
 -11   1   9   34.86    2.03
  -9   1   9    4.73    0.97
  -7   1   9   35.14    1.89
  -5   1   9   51.15    1.90
  -3   1   9    2.56    0.90
  -1   1   9    5.15    1.05
   1   1   9  106.57    3.66
   3   1   9    2.64    0.94
   5   1   9    7.02    1.29
 -16   2   9  112.52    3.99
 -14   2   9    1.18    0.88
 -12   2   9    5.17    0.85
 -10   2   9    3.61    0.79
  -8   2   9    1.44    0.80
  -6   2   9    3.61    0.96
  -4   2   9   21.59    1.80
  -2   2   9   37.11    1.81
   0   2   9   48.90    2.03
   2   2   9    9.66    1.15
   4   2   9    7.63    1.39
   6   2   9   13.18    2.28
 -13   3   9   52.75    4.30
 -11   3   9   22.17    1.62
  -9   3   9    2.71    1.01
  -7   3   9   29.19    2.23
  -5   3   9   39.72    2.37
  -3   3   9    2.11    0.97
  -1   3   9    3.94    1.08
   1   3   9   90.78    3.07
   3   3   9    1.67    1.12
 -12  -2  10    9.03    2.19
 -10  -2  10   67.86    3.19
  -8  -2  10   32.12    2.55
  -6  -2  10    0.77    0.99
  -4  -2  10    1.46    1.58
  -2  -2  10   -0.15    1.41
 -13  -1  10   25.37    3.12
 -11  -1  10   -0.10    1.25
  -9  -1  10    8.62    1.99
  -7  -1  10    4.59    1.17
  -5  -1  10   35.41    3.68
  -3  -1  10    0.09    0.89
  -1  -1  10    1.20    0.93
   1  -1  10    0.58    1.33
 -14   0  10    8.30    2.01
 -12   0  10    7.93    1.95
  -6   0  10    0.23    0.85
  -4   0  10    2.02    0.90
  -2   0  10    0.05    0.84
   0   0  10    6.49    1.23
   2   0  10    3.23    1.15
 -15   1  10    1.71    1.32
 -13   1  10   24.65    2.02
 -11   1  10    0.37    0.82
  -9   1  10    9.28    2.05
  -7   1  10    4.22    1.53
  -5   1  10   31.75    3.24
  -3   1  10    0.87    0.86
  -1   1  10    1.46    0.96
   1   1  10    0.06    0.95
   3   1  10    9.07    1.99
 -12   2  10    5.04    1.62
 -10   2  10   70.46    4.54
  -8   2  10   36.84    2.27
  -6   2  10    1.00    0.86
  -4   2  10    2.50    0.95
  -2   2  10    1.41    1.31
   0   2  10    3.72    1.84
  -6   0  11   20.00    2.82
   0   0   0    0.00    0.00
;
_shelx_hkl_checksum              96603
#END Tags that were not found in dictionaries
loop_
_space_group_symop_operation_xyz
'x, y, z'
'-x, y, -z'
'x+1/2, y+1/2, z'
'-x+1/2, y+1/2, -z'
'-x, -y, -z'
'x, -y, z'
'-x+1/2, -y+1/2, -z'
'x+1/2, -y+1/2, z'
loop_
_atom_site_label
_atom_site_type_symbol
_atom_site_fract_x
_atom_site_fract_y
_atom_site_fract_z
_atom_site_U_iso_or_equiv
_atom_site_adp_type
_atom_site_occupancy
_atom_site_site_symmetry_order
_atom_site_calc_flag
_atom_site_refinement_flags_posn
_atom_site_refinement_flags_adp
_atom_site_refinement_flags_occupancy
Ce1 Ce 0.34953(2) 0.0000 0.06118(5) 0.00783(9) Uani 1 2 d S T P
Ce2 Ce 0.58842(2) 0.0000 0.37852(5) 0.00739(9) Uani 1 2 d S T P
Ru Ru 0.21781(3) 0.0000 0.62602(7) 0.00745(11) Uani 1 2 d S T P
In In 0.0000 0.0000 0.0000 0.00931(19) Uani 0.962(3) 4 d S T .
Ge1 Ge 0.06541(4) 0.0000 0.65348(10) 0.00776(14) Uani 1 2 d S T P
Ge2 Ge 0.21169(4) 0.0000 0.27628(10) 0.00821(14) Uani 1 2 d S T P
loop_
_atom_site_aniso_label
_atom_site_aniso_U_11
_atom_site_aniso_U_22
_atom_site_aniso_U_33
_atom_site_aniso_U_23
_atom_site_aniso_U_13
_atom_site_aniso_U_12
Ce1 0.00853(16) 0.00688(16) 0.00761(17) 0.000 0.00145(12) 0.000
Ce2 0.00771(16) 0.00631(16) 0.00842(17) 0.000 0.00268(12) 0.000
Ru 0.0079(2) 0.0057(2) 0.0087(2) 0.000 0.00231(18) 0.000
In 0.0111(3) 0.0079(3) 0.0094(3) 0.000 0.0036(2) 0.000
Ge1 0.0077(3) 0.0069(3) 0.0084(3) 0.000 0.0017(2) 0.000
Ge2 0.0111(3) 0.0057(3) 0.0083(3) 0.000 0.0037(2) 0.000
loop_
_atom_type_symbol
_atom_type_description
_atom_type_scat_dispersion_real
_atom_type_scat_dispersion_imag
_atom_type_scat_source
Ge Ge 0.1547 1.8001 'International Tables Vol C Tables 4.2.6.8 and 6.1.1.4'
Ru Ru -1.2594 0.8363 'International Tables Vol C Tables 4.2.6.8 and 6.1.1.4'
In In -0.7276 1.3100 'International Tables Vol C Tables 4.2.6.8 and 6.1.1.4'
Ce Ce -0.2486 2.6331 'International Tables Vol C Tables 4.2.6.8 and 6.1.1.4'
loop_
_geom_angle_atom_site_label_1
_geom_angle_atom_site_label_2
_geom_angle_atom_site_label_3
_geom_angle
_geom_angle_site_symmetry_1
_geom_angle_site_symmetry_3
Ge2 Ce1 Ge1 84.92(2) . 7_556
Ge2 Ce1 Ge1 84.92(2) . 7_546
Ge1 Ce1 Ge1 91.36(3) 7_556 7_546
Ge2 Ce1 Ge2 105.77(2) . 7_545
Ge1 Ce1 Ge2 169.27(2) 7_556 7_545
Ge1 Ce1 Ge2 90.59(2) 7_546 7_545
Ge2 Ce1 Ge2 105.77(2) . 7
Ge1 Ce1 Ge2 90.59(2) 7_556 7
Ge1 Ce1 Ge2 169.27(2) 7_546 7
Ge2 Ce1 Ge2 85.59(3) 7_545 7
Ge2 Ce1 Ru 96.75(3) . 1_554
Ge1 Ce1 Ru 134.317(13) 7_556 1_554
Ge1 Ce1 Ru 134.317(13) 7_546 1_554
Ge2 Ce1 Ru 44.860(14) 7_545 1_554
Ge2 Ce1 Ru 44.860(14) 7 1_554
Ge2 Ce1 In 135.922(11) . 3
Ge1 Ce1 In 54.687(17) 7_556 3
Ge1 Ce1 In 110.21(2) 7_546 3
Ge2 Ce1 In 114.848(19) 7_545 3
Ge2 Ce1 In 62.824(16) 7 3
Ru Ce1 In 99.981(16) 1_554 3
Ge2 Ce1 In 135.922(12) . 3_545
Ge1 Ce1 In 110.21(2) 7_556 3_545
Ge1 Ce1 In 54.687(17) 7_546 3_545
Ge2 Ce1 In 62.824(16) 7_545 3_545
Ge2 Ce1 In 114.848(19) 7 3_545
Ru Ce1 In 99.981(16) 1_554 3_545
In Ce1 In 80.388(19) 3 3_545
Ge2 Ce1 Ru 43.488(12) . 7_556
Ge1 Ce1 Ru 44.378(19) 7_556 7_556
Ge1 Ce1 Ru 99.94(2) 7_546 7_556
Ge2 Ce1 Ru 145.27(2) 7_545 7_556
Ge2 Ce1 Ru 88.81(2) 7 7_556
Ru Ce1 Ru 112.439(18) 1_554 7_556
In Ce1 Ru 92.494(15) 3 7_556
In Ce1 Ru 147.560(14) 3_545 7_556
Ge2 Ce1 Ru 43.488(12) . 7_546
Ge1 Ce1 Ru 99.94(2) 7_556 7_546
Ge1 Ce1 Ru 44.378(19) 7_546 7_546
Ge2 Ce1 Ru 88.81(2) 7_545 7_546
Ge2 Ce1 Ru 145.27(2) 7 7_546
Ru Ce1 Ru 112.439(18) 1_554 7_546
In Ce1 Ru 147.560(14) 3 7_546
In Ce1 Ru 92.494(15) 3_545 7_546
Ru Ce1 Ru 76.65(2) 7_556 7_546
Ge2 Ce1 Ce2 151.021(18) . 5_655
Ge1 Ce1 Ce2 114.407(19) 7_556 5_655
Ge1 Ce1 Ce2 114.407(19) 7_546 5_655
Ge2 Ce1 Ce2 55.395(16) 7_545 5_655
Ge2 Ce1 Ce2 55.395(16) 7 5_655
Ru Ce1 Ce2 54.27(2) 1_554 5_655
In Ce1 Ce2 59.822(8) 3 5_655
In Ce1 Ce2 59.822(8) 3_545 5_655
Ru Ce1 Ce2 141.194(11) 7_556 5_655
Ru Ce1 Ce2 141.194(11) 7_546 5_655
Ge2 Ce1 Ce1 54.938(17) . 7_545
Ge1 Ce1 Ce1 139.85(2) 7_556 7_545
Ge1 Ce1 Ce1 86.415(18) 7_546 7_545
Ge2 Ce1 Ce1 50.828(15) 7_545 7_545
Ge2 Ce1 Ce1 98.83(2) 7 7_545
Ru Ce1 Ce1 59.459(14) 1_554 7_545
In Ce1 Ce1 159.410(17) 3 7_545
In Ce1 Ce1 100.968(19) 3_545 7_545
Ru Ce1 Ce1 96.58(2) 7_556 7_545
Ru Ce1 Ce1 52.979(14) 7_546 7_545
Ce2 Ce1 Ce1 102.807(16) 5_655 7_545
Ge1 Ce2 Ge1 91.79(3) 3 3_545
Ge1 Ce2 Ru 108.039(17) 3 5_656
Ge1 Ce2 Ru 108.039(17) 3_545 5_656
Ge1 Ce2 Ge2 81.69(2) 3 3
Ge1 Ce2 Ge2 147.48(2) 3_545 3
Ru Ce2 Ge2 46.132(13) 5_656 3
Ge1 Ce2 Ge2 147.48(2) 3 3_545
Ge1 Ce2 Ge2 81.69(2) 3_545 3_545
Ru Ce2 Ge2 46.132(13) 5_656 3_545
Ge2 Ce2 Ge2 86.91(3) 3 3_545
Ge1 Ce2 Ru 47.553(18) 3 3
Ge1 Ce2 Ru 107.77(2) 3_545 3
Ru Ce2 Ru 60.550(16) 5_656 3
Ge2 Ce2 Ru 46.116(19) 3 3
Ge2 Ce2 Ru 104.21(2) 3_545 3
Ge1 Ce2 Ru 107.77(2) 3 3_545
Ge1 Ce2 Ru 47.553(18) 3_545 3_545
Ru Ce2 Ru 60.550(16) 5_656 3_545
Ge2 Ce2 Ru 104.21(2) 3 3_545
Ge2 Ce2 Ru 46.12(2) 3_545 3_545
Ru Ce2 Ru 86.07(2) 3 3_545
Ge1 Ce2 Ge1 107.350(18) 3 7_546
Ge1 Ce2 Ge1 48.52(2) 3_545 7_546
Ru Ce2 Ge1 137.696(13) 5_656 7_546
Ge2 Ce2 Ge1 162.99(2) 3 7_546
Ge2 Ce2 Ge1 92.08(2) 3_545 7_546
Ru Ce2 Ge1 149.41(2) 3 7_546
Ru Ce2 Ge1 87.01(2) 3_545 7_546
Ge1 Ce2 Ge1 48.52(2) 3 7_556
Ge1 Ce2 Ge1 107.350(18) 3_545 7_556
Ru Ce2 Ge1 137.696(13) 5_656 7_556
Ge2 Ce2 Ge1 92.08(2) 3 7_556
Ge2 Ce2 Ge1 162.99(2) 3_545 7_556
Ru Ce2 Ge1 87.01(2) 3 7_556
Ru Ce2 Ge1 149.41(2) 3_545 7_556
Ge1 Ce2 Ge1 83.95(3) 7_546 7_556
Ge1 Ce2 In 149.899(19) 3 3_545
Ge1 Ce2 In 87.89(2) 3_545 3_545
Ru Ce2 In 100.619(13) 5_656 3_545
Ge2 Ce2 In 113.34(2) 3 3_545
Ge2 Ce2 In 62.118(18) 3_545 3_545
Ru Ce2 In 158.142(15) 3 3_545
Ru Ce2 In 94.066(17) 3_545 3_545
Ge1 Ce2 In 52.172(15) 7_546 3_545
Ge1 Ce2 In 103.109(19) 7_556 3_545
Ge1 Ce2 In 87.89(2) 3 3
Ge1 Ce2 In 149.899(19) 3_545 3
Ru Ce2 In 100.619(13) 5_656 3
Ge2 Ce2 In 62.118(18) 3 3
Ge2 Ce2 In 113.34(2) 3_545 3
Ru Ce2 In 94.066(17) 3 3
Ru Ce2 In 158.142(15) 3_545 3
Ge1 Ce2 In 103.109(19) 7_546 3
Ge1 Ce2 In 52.172(15) 7_556 3
In Ce2 In 77.809(19) 3_545 3
Ge1 Ce2 Ge2 77.90(2) 3 5_656
Ge1 Ce2 Ge2 77.90(2) 3_545 5_656
Ru Ce2 Ge2 43.94(2) 5_656 5_656
Ge2 Ce2 Ge2 69.58(2) 3 5_656
Ge2 Ce2 Ge2 69.58(2) 3_545 5_656
Ru Ce2 Ge2 43.170(11) 3 5_656
Ru Ce2 Ge2 43.170(11) 3_545 5_656
Ge1 Ce2 Ge2 125.788(18) 7_546 5_656
Ge1 Ce2 Ge2 125.788(18) 7_556 5_656
In Ce2 Ge2 131.099(12) 3_545 5_656
In Ce2 Ge2 131.099(12) 3 5_656
Ge2 Ru Ge2 124.07(4) 7_556 7_546
Ge2 Ru Ge2 100.01(2) 7_556 .
Ge2 Ru Ge2 100.01(2) 7_546 .
Ge2 Ru Ge1 111.04(2) 7_556 .
Ge2 Ru Ge1 111.04(2) 7_546 .
Ge2 Ru Ge1 108.30(3) . .
Ge2 Ru Ce2 67.795(19) 7_556 5_656
Ge2 Ru Ce2 67.79(2) 7_546 5_656
Ge2 Ru Ce2 75.45(2) . 5_656
Ge1 Ru Ce2 176.25(3) . 5_656
Ge2 Ru Ce2 159.84(2) 7_556 3_445
Ge2 Ru Ce2 74.52(2) 7_546 3_445
Ge2 Ru Ce2 66.421(17) . 3_445
Ge1 Ru Ce2 62.921(18) . 3_445
Ce2 Ru Ce2 119.450(16) 5_656 3_445
Ge2 Ru Ce2 74.52(2) 7_556 3_455
Ge2 Ru Ce2 159.84(2) 7_546 3_455
Ge2 Ru Ce2 66.421(17) . 3_455
Ge1 Ru Ce2 62.921(18) . 3_455
Ce2 Ru Ce2 119.450(16) 5_656 3_455
Ce2 Ru Ce2 86.07(2) 3_445 3_455
Ge2 Ru Ce1 66.494(19) 7_556 1_556
Ge2 Ru Ce1 66.494(19) 7_546 1_556
Ge2 Ru Ce1 143.48(3) . 1_556
Ge1 Ru Ce1 108.22(3) . 1_556
Ce2 Ru Ce1 68.023(18) 5_656 1_556
Ce2 Ru Ce1 133.277(12) 3_445 1_556
Ce2 Ru Ce1 133.277(12) 3_455 1_556
Ge2 Ru Ce1 57.93(2) 7_556 7_556
Ge2 Ru Ce1 124.37(3) 7_546 7_556
Ge2 Ru Ce1 135.614(15) . 7_556
Ge1 Ru Ce1 57.885(15) . 7_556
Ce2 Ru Ce1 119.520(14) 5_656 7_556
Ce2 Ru Ce1 120.74(2) 3_445 7_556
Ce2 Ru Ce1 70.408(18) 3_455 7_556
Ce1 Ru Ce1 67.561(18) 1_556 7_556
Ge2 Ru Ce1 124.37(3) 7_556 7_546
Ge2 Ru Ce1 57.93(2) 7_546 7_546
Ge2 Ru Ce1 135.614(15) . 7_546
Ge1 Ru Ce1 57.885(15) . 7_546
Ce2 Ru Ce1 119.520(14) 5_656 7_546
Ce2 Ru Ce1 70.408(18) 3_445 7_546
Ce2 Ru Ce1 120.74(2) 3_455 7_546
Ce1 Ru Ce1 67.561(18) 1_556 7_546
Ce1 Ru Ce1 76.65(2) 7_556 7_546
Ge1 In Ge1 180.00(2) 5_556 1_554
Ge1 In Ce1 56.968(11) 5_556 3_445
Ge1 In Ce1 123.032(11) 1_554 3_445
Ge1 In Ce1 123.032(11) 5_556 7
Ge1 In Ce1 56.968(11) 1_554 7
Ce1 In Ce1 180.0 3_445 7
Ge1 In Ce1 123.032(11) 5_556 7_545
Ge1 In Ce1 56.968(11) 1_554 7_545
Ce1 In Ce1 99.61(2) 3_445 7_545
Ce1 In Ce1 80.39(2) 7 7_545
Ge1 In Ce1 56.968(11) 5_556 3_455
Ge1 In Ce1 123.032(11) 1_554 3_455
Ce1 In Ce1 80.39(2) 3_445 3_455
Ce1 In Ce1 99.61(2) 7 3_455
Ce1 In Ce1 180.0 7_545 3_455
Ge1 In Ce2 60.236(16) 5_556 3_455
Ge1 In Ce2 119.764(16) 1_554 3_455
Ce1 In Ce2 117.091(14) 3_445 3_455
Ce1 In Ce2 62.909(14) 7 3_455
Ce1 In Ce2 110.806(14) 7_545 3_455
Ce1 In Ce2 69.194(14) 3_455 3_455
Ge1 In Ce2 119.764(16) 5_556 7_545
Ge1 In Ce2 60.236(16) 1_554 7_545
Ce1 In Ce2 62.909(14) 3_445 7_545
Ce1 In Ce2 117.091(14) 7 7_545
Ce1 In Ce2 69.194(14) 7_545 7_545
Ce1 In Ce2 110.806(14) 3_455 7_545
Ce2 In Ce2 180.0 3_455 7_545
Ge1 In Ce2 60.236(16) 5_556 3_445
Ge1 In Ce2 119.764(16) 1_554 3_445
Ce1 In Ce2 69.194(14) 3_445 3_445
Ce1 In Ce2 110.806(15) 7 3_445
Ce1 In Ce2 62.909(14) 7_545 3_445
Ce1 In Ce2 117.091(14) 3_455 3_445
Ce2 In Ce2 77.808(19) 3_455 3_445
Ce2 In Ce2 102.192(19) 7_545 3_445
Ge1 In Ce2 119.764(16) 5_556 7
Ge1 In Ce2 60.236(16) 1_554 7
Ce1 In Ce2 110.806(15) 3_445 7
Ce1 In Ce2 69.194(14) 7 7
Ce1 In Ce2 117.091(14) 7_545 7
Ce1 In Ce2 62.909(14) 3_455 7
Ce2 In Ce2 102.192(19) 3_455 7
Ce2 In Ce2 77.808(19) 7_545 7
Ce2 In Ce2 180.0 3_445 7
Ru Ge1 Ge1 120.77(4) . 5_556
Ru Ge1 In 130.42(3) . 1_556
Ge1 Ge1 In 108.81(4) 5_556 1_556
Ru Ge1 Ce2 69.525(17) . 3_445
Ge1 Ge1 Ce2 70.24(2) 5_556 3_445
In Ge1 Ce2 133.226(14) 1_556 3_445
Ru Ge1 Ce2 69.525(17) . 3_455
Ge1 Ge1 Ce2 70.24(2) 5_556 3_455
In Ge1 Ce2 133.226(14) 1_556 3_455
Ce2 Ge1 Ce2 91.79(3) 3_445 3_455
Ru Ge1 Ce1 77.74(2) . 7_556
Ge1 Ge1 Ce1 132.887(16) 5_556 7_556
In Ge1 Ce1 68.344(19) 1_556 7_556
Ce2 Ge1 Ce1 147.13(3) 3_445 7_556
Ce2 Ge1 Ce1 79.19(2) 3_455 7_556
Ru Ge1 Ce1 77.74(2) . 7_546
Ge1 Ge1 Ce1 132.887(16) 5_556 7_546
In Ge1 Ce1 68.344(19) 1_556 7_546
Ce2 Ge1 Ce1 79.19(2) 3_445 7_546
Ce2 Ge1 Ce1 147.13(3) 3_455 7_546
Ce1 Ge1 Ce1 91.36(3) 7_556 7_546
Ru Ge1 Ce2 137.144(14) . 7_546
Ge1 Ge1 Ce2 61.24(2) 5_556 7_546
In Ge1 Ce2 67.592(16) 1_556 7_546
Ce2 Ge1 Ce2 72.651(18) 3_445 7_546
Ce2 Ge1 Ce2 131.48(2) 3_455 7_546
Ce1 Ge1 Ce2 135.76(3) 7_556 7_546
Ce1 Ge1 Ce2 76.080(18) 7_546 7_546
Ru Ge1 Ce2 137.144(14) . 7_556
Ge1 Ge1 Ce2 61.24(2) 5_556 7_556
In Ge1 Ce2 67.592(16) 1_556 7_556
Ce2 Ge1 Ce2 131.48(2) 3_445 7_556
Ce2 Ge1 Ce2 72.651(17) 3_455 7_556
Ce1 Ge1 Ce2 76.080(18) 7_556 7_556
Ce1 Ge1 Ce2 135.76(3) 7_546 7_556
Ce2 Ge1 Ce2 83.95(3) 7_546 7_556
Ru Ge2 Ru 124.07(4) 7_556 7_546
Ru Ge2 Ru 79.99(2) 7_556 .
Ru Ge2 Ru 79.99(2) 7_546 .
Ru Ge2 Ce1 78.58(2) 7_556 .
Ru Ge2 Ce1 78.58(2) 7_546 .
Ru Ge2 Ce1 133.28(3) . .
Ru Ge2 Ce2 144.04(3) 7_556 3_445
Ru Ge2 Ce2 66.07(2) 7_546 3_445
Ru Ge2 Ce2 67.464(17) . 3_445
Ce1 Ge2 Ce2 135.364(14) . 3_445
Ru Ge2 Ce2 66.07(2) 7_556 3_455
Ru Ge2 Ce2 144.04(3) 7_546 3_455
Ru Ge2 Ce2 67.464(17) . 3_455
Ce1 Ge2 Ce2 135.364(14) . 3_455
Ce2 Ge2 Ce2 86.91(3) 3_445 3_455
Ru Ge2 Ce1 146.72(3) 7_556 7_545
Ru Ge2 Ce1 68.646(19) 7_546 7_545
Ru Ge2 Ce1 133.041(17) . 7_545
Ce1 Ge2 Ce1 74.23(2) . 7_545
Ce2 Ge2 Ce1 68.175(18) 3_445 7_545
Ce2 Ge2 Ce1 124.25(3) 3_455 7_545
Ru Ge2 Ce1 68.646(19) 7_556 7
Ru Ge2 Ce1 146.72(3) 7_546 7
Ru Ge2 Ce1 133.041(17) . 7
Ce1 Ge2 Ce1 74.23(2) . 7
Ce2 Ge2 Ce1 124.25(3) 3_445 7
Ce2 Ge2 Ce1 68.175(17) 3_455 7
Ce1 Ge2 Ce1 85.59(3) 7_545 7
Ru Ge2 Ce2 62.306(19) 7_556 5_656
Ru Ge2 Ce2 62.306(19) 7_546 5_656
Ru Ge2 Ce2 60.60(2) . 5_656
Ce1 Ge2 Ce2 72.68(3) . 5_656
Ce2 Ge2 Ce2 110.42(2) 3_445 5_656
Ce2 Ge2 Ce2 110.42(2) 3_455 5_656
Ce1 Ge2 Ce2 124.733(18) 7_545 5_656
Ce1 Ge2 Ce2 124.733(18) 7 5_656
loop_
_geom_bond_atom_site_label_1
_geom_bond_atom_site_label_2
_geom_bond_distance
_geom_bond_site_symmetry_2
Ce1 Ge2 3.0527(10) .
Ce1 Ge1 3.0605(7) 7_556
Ce1 Ge1 3.0605(7) 7_546
Ce1 Ge2 3.2230(8) 7_545
Ce1 Ge2 3.2230(8) 7
Ce1 Ru 3.2734(9) 1_554
Ce1 In 3.3929(6) 3
Ce1 In 3.3929(6) 3_545
Ce1 Ru 3.5311(7) 7_556
Ce1 Ru 3.5311(7) 7_546
Ce1 Ce2 3.5908(9) 5_655
Ce1 Ce1 3.7894(9) 7_545
Ce2 Ge1 3.0495(7) 3
Ce2 Ge1 3.0495(7) 3_545
Ce2 Ru 3.1433(9) 5_656
Ce2 Ge2 3.1838(7) 3
Ce2 Ge2 3.1838(7) 3_545
Ce2 Ru 3.2085(6) 3
Ce2 Ru 3.2085(6) 3_545
Ce2 Ge1 3.2739(8) 7_546
Ce2 Ge1 3.2739(8) 7_556
Ce2 In 3.4867(6) 3_545
Ce2 In 3.4867(6) 3
Ce2 Ge2 3.4922(10) 5_656
Ru Ge2 2.4792(6) 7_556
Ru Ge2 2.4792(6) 7_546
Ru Ge2 2.5037(11) .
Ru Ge1 2.5273(10) .
Ru Ce2 3.1433(9) 5_656
Ru Ce2 3.2085(6) 3_445
Ru Ce2 3.2085(6) 3_455
Ru Ce1 3.2734(9) 1_556
Ru Ce1 3.5310(7) 7_556
Ru Ce1 3.5310(7) 7_546
In Ge1 2.9789(9) 5_556
In Ge1 2.9789(9) 1_554
In Ce1 3.3929(6) 3_445
In Ce1 3.3929(6) 7
In Ce1 3.3929(6) 7_545
In Ce1 3.3929(6) 3_455
In Ce2 3.4867(6) 3_455
In Ce2 3.4867(6) 7_545
In Ce2 3.4867(6) 3_445
In Ce2 3.4867(6) 7
Ge1 Ge1 2.6063(14) 5_556
Ge1 In 2.9789(9) 1_556
Ge1 Ce2 3.0494(7) 3_445
Ge1 Ce2 3.0494(7) 3_455
Ge1 Ce1 3.0606(7) 7_556
Ge1 Ce1 3.0606(7) 7_546
Ge1 Ce2 3.2739(8) 7_546
Ge1 Ce2 3.2739(8) 7_556
Ge2 Ru 2.4792(6) 7_556
Ge2 Ru 2.4792(6) 7_546
Ge2 Ce2 3.1837(7) 3_445
Ge2 Ce2 3.1837(7) 3_455
Ge2 Ce1 3.2230(8) 7_545
Ge2 Ce1 3.2230(8) 7
Ge2 Ce2 3.4922(10) 5_656
