#------------------------------------------------------------------------------
#$Date: 2016-03-24 00:05:28 +0200 (Thu, 24 Mar 2016) $
#$Revision: 179523 $
#$URL: svn://www.crystallography.net/cod/cif/4/34/20/4342099.cif $
#------------------------------------------------------------------------------
#
# This file is available in the Crystallography Open Database (COD),
# http://www.crystallography.net/
#
# All data on this site have been placed in the public domain by the
# contributors.
#
data_4342099
loop_
_publ_author_name
'Barats-Damatov, Delina'
'Shimon, Linda J. W.'
'Feldman, Yishay'
'Bendikov, Tatyana'
'Neumann, Ronny'
_publ_section_title
;
 Solid-State Crystal-to-Crystal Phase Transitions and Reversible
 Structure-Temperature Behavior of Phosphovanadomolybdic Acid,
 H5PV2Mo10O40.
;
_journal_issue                   2
_journal_name_full               'Inorganic chemistry'
_journal_page_first              628
_journal_page_last               634
_journal_paper_doi               10.1021/ic502541b
_journal_volume                  54
_journal_year                    2015
_chemical_formula_moiety         'H5 Mo10 O40 P V2, 8(H2O)'
_chemical_formula_sum            'H21 Mo10 O48 P V2'
_chemical_formula_weight         1881.42
_chemical_name_systematic
;
 ?
;
_space_group_crystal_system      triclinic
_space_group_IT_number           2
_space_group_name_Hall           '-P 1'
_space_group_name_H-M_alt        'P -1'
_symmetry_space_group_name_Hall  '-P 1'
_symmetry_space_group_name_H-M   'P -1'
_audit_creation_method           SHELXL-2013
_cell_angle_alpha                88.062(3)
_cell_angle_beta                 88.477(4)
_cell_angle_gamma                89.832(4)
_cell_formula_units_Z            1
_cell_length_a                   9.7580(4)
_cell_length_b                   9.7627(6)
_cell_length_c                   9.8748(5)
_cell_measurement_reflns_used    4142
_cell_measurement_temperature    313(2)
_cell_measurement_theta_max      27.48
_cell_measurement_theta_min      2.55
_cell_volume                     939.84(8)
_computing_cell_refinement       'Denzo-SMN (Otwinowski & Minor, 1997)'
_computing_data_collection       'Collect package (Bruker Nonius)'
_computing_data_reduction        'Denzo-SMN (Otwinowski & Minor, 1997)'
_computing_structure_refinement  'SHELXL-2013 (Sheldrick, 2013)'
_computing_structure_solution    'SHELXS-97 (Sheldrick, 1990)'
_diffrn_ambient_temperature      313(2)
_diffrn_measured_fraction_theta_full 0.996
_diffrn_measured_fraction_theta_max 0.996
_diffrn_measurement_device_type  'Nonius KappaCCD'
_diffrn_measurement_method       'phi and omega scans'
_diffrn_radiation_type           MoK\a
_diffrn_radiation_wavelength     0.71073
_diffrn_reflns_av_R_equivalents  0.0417
_diffrn_reflns_av_unetI/netI     0.0544
_diffrn_reflns_Laue_measured_fraction_full 0.996
_diffrn_reflns_Laue_measured_fraction_max 0.996
_diffrn_reflns_limit_h_max       12
_diffrn_reflns_limit_h_min       -12
_diffrn_reflns_limit_k_max       12
_diffrn_reflns_limit_k_min       -12
_diffrn_reflns_limit_l_max       12
_diffrn_reflns_limit_l_min       -12
_diffrn_reflns_number            7307
_diffrn_reflns_point_group_measured_fraction_full 0.996
_diffrn_reflns_point_group_measured_fraction_max 0.996
_diffrn_reflns_theta_full        25.242
_diffrn_reflns_theta_max         26.372
_diffrn_reflns_theta_min         2.956
_diffrn_source                   sealed-tube
_exptl_absorpt_coefficient_mu    3.871
_exptl_absorpt_correction_T_max  0.8927
_exptl_absorpt_correction_T_min  0.6982
_exptl_absorpt_correction_type   multi-scan
_exptl_absorpt_process_details   'Denzo-SMN (Otwinowski & Minor, 1997)'
_exptl_crystal_colour            orange
_exptl_crystal_density_diffrn    3.324
_exptl_crystal_description       piece
_exptl_crystal_F_000             886
_exptl_crystal_size_max          0.100
_exptl_crystal_size_mid          0.080
_exptl_crystal_size_min          0.030
_refine_diff_density_max         2.337
_refine_diff_density_min         -1.820
_refine_diff_density_rms         0.303
_refine_ls_extinction_method     none
_refine_ls_goodness_of_fit_ref   1.133
_refine_ls_hydrogen_treatment    undef
_refine_ls_matrix_type           full
_refine_ls_number_parameters     294
_refine_ls_number_reflns         3832
_refine_ls_number_restraints     54
_refine_ls_restrained_S_all      1.179
_refine_ls_R_factor_all          0.1196
_refine_ls_R_factor_gt           0.0859
_refine_ls_shift/su_max          0.000
_refine_ls_shift/su_mean         0.000
_refine_ls_structure_factor_coef Fsqd
_refine_ls_weighting_details
'w=1/[\s^2^(Fo^2^)+(0.1693P)^2^+1.6844P] where P=(Fo^2^+2Fc^2^)/3'
_refine_ls_weighting_scheme      calc
_refine_ls_wR_factor_gt          0.2417
_refine_ls_wR_factor_ref         0.2745
_reflns_Friedel_coverage         0.000
_reflns_number_gt                2559
_reflns_number_total             3832
_reflns_threshold_expression     'I > 2\s(I)'
_cod_data_source_file            ic502541b_si_004.cif
_cod_data_source_block           n493h
_cod_depositor_comments
'Adding full bibliography for 4342097--4342101.cif.'
_cod_original_cell_volume        939.85(8)
_cod_database_code               4342099
#BEGIN Tags that were not found in dictionaries:
_shelx_space_group_comment
;
The symmetry employed for this shelxl refinement is uniquely defined
by the following loop, which should always be used as a source of
symmetry information in preference to the above space-group names.
They are only intended as comments.
;
_shelx_estimated_absorpt_t_min   0.698
_shelx_estimated_absorpt_t_max   0.893
_shelxl_version_number           2013-4
_shelx_res_file
;
TITL Compound X
CELL 0.71073   9.7580   9.7627   9.8748  88.0620  88.4770  89.8320
ZERR    1  0.0004  0.0006  0.0005  0.0026  0.0036  0.0038
LATT  1
SFAC  Mo  P  O  V H
UNIT    10    1   48  2 21
LIST 6
rem delina piece of orange crystal heated 40degs overnight
ACTA
BOND $H
FMAP 2
PLAN -20
eadp mo1 v1
eadp mo2 v2
eadp mo3 v3
eadp mo4 v4
eadp mo5 v5
eadp mo6 v6
exyz mo1 v1
exyz mo2 v2
exyz mo3 v3
exyz mo4 v4
exyz mo5 v5
exyz mo6 v6
omit 0 0 2
omit 0 2 0
omit 0 2 1
omit 0 1 1
omit 1 1 0
omit 1 0 1
omit 0 6 2
omit 1 2 1
eadp o25a o25b
shel 8.0 0.8
temp 40
size 0.1 0.08 0.03
L.S.  8

WGHT    0.169300    1.684400
FVAR       0.24551   0.22928
RESI    0
PART    1
MO1   1    1.054094    0.294770    0.693344    10.83333    0.05977    0.04635 =
         0.05531   -0.01783    0.00739   -0.01005
MO2   1    0.788974    0.061897    0.789257    10.83333    0.04925    0.07161 =
         0.06506   -0.03133    0.01110   -0.00572
MO3   1    0.703653   -0.019605    0.299061    10.83333    0.04263    0.05485 =
         0.05964   -0.00405   -0.00947   -0.00310
MO4   1    1.026849   -0.211097    0.797480    10.83333    0.06106    0.05309 =
         0.06816   -0.00796   -0.01626    0.00276
MO5   1    0.760028    0.274817    0.492895    10.83333    0.05531    0.06949 =
         0.05029   -0.01049   -0.00196    0.02009
MO6   1    0.732291   -0.231824    0.597097    10.83333    0.05140    0.05314 =
         0.09786   -0.01343    0.00860   -0.01583
PART    2
V1    4    1.054094    0.294770    0.693344    10.16667    0.05977    0.04635 =
         0.05531   -0.01783    0.00739   -0.01005
V2    4    0.788974    0.061897    0.789257    10.16667    0.04925    0.07161 =
         0.06506   -0.03133    0.01110   -0.00572
V3    4    0.703653   -0.019605    0.299061    10.16667    0.04263    0.05485 =
         0.05964   -0.00405   -0.00947   -0.00310
V4    4    1.026849   -0.211097    0.797480    10.16667    0.06106    0.05309 =
         0.06816   -0.00796   -0.01626    0.00276
V5    4    0.760028    0.274817    0.492895    10.16667    0.05531    0.06949 =
         0.05029   -0.01049   -0.00196    0.02009
V6    4    0.732291   -0.231824    0.597097    10.16667    0.05140    0.05314 =
         0.09786   -0.01343    0.00860   -0.01583
PART    0
isor 0.01 o9 o11 o14 o15 o16 o17 o18 o19 o21

P1    2   11.000000   10.000000   10.500000    10.50000    0.03138    0.03457 =
         0.03810   -0.01214    0.00302   -0.00450
O1    3    0.902957    0.076825    0.424151    10.50000    0.06443    0.03898 =
         0.02509   -0.00728   -0.00437   -0.00916
O2    3    0.929567    0.119217    0.572422    10.50000    0.02573    0.04851 =
         0.03450    0.00237    0.00205   -0.00759
O3    3    0.924462   -0.074131    0.633521    10.50000    0.03179    0.04000 =
         0.03947   -0.01091    0.00186   -0.00102
O4    3    1.107696    0.087357    0.564110    10.50000    0.02488    0.03691 =
         0.03752   -0.01266    0.01057   -0.00345
O5    3    0.695012    0.090910    0.921471    11.00000    0.06787    0.08977 =
         0.04686    0.00036    0.02159    0.00241
O6    3    0.662029    0.133140    0.406414    11.00000    0.11088    0.05155 =
         0.05595   -0.01072    0.01453   -0.02309
O7    3    1.079299    0.429302    0.784202    11.00000    0.10691    0.05449 =
         0.06394   -0.01581   -0.02385   -0.01078
O8    3    0.859375    0.302516    0.326759    11.00000    0.12383    0.07474 =
         0.04833   -0.01685    0.01648   -0.02641
O9    3    0.835239   -0.334272    0.471257    11.00000    0.11392    0.07310 =
         0.10364    0.01291    0.04869    0.02238
O10   3    0.708657    0.180735    0.656045    11.00000    0.07319    0.18246 =
         0.05590   -0.01493    0.00315   -0.06596
O11   3    0.802174   -0.178328    0.243862    11.00000    0.10187    0.08837 =
         0.10265    0.02303    0.04477    0.02518
O12   3    0.929739    0.192455    0.801420    11.00000    0.08754    0.17450 =
         0.05121    0.02364   -0.01441   -0.06237
O13   3    0.646485    0.399777    0.488410    11.00000    0.07715    0.06011 =
         0.16875   -0.03755   -0.01996    0.01901
O14   3    0.916819   -0.067352    0.862299    11.00000    0.08472    0.09816 =
         0.15191   -0.06110   -0.03760    0.00931
O15   3    0.699103   -0.087401    0.715178    11.00000    0.09340    0.09870 =
         0.14997   -0.05058   -0.03695    0.00528
O16   3    0.569517   -0.039184    0.209442    11.00000    0.06488    0.13161 =
         0.07864   -0.03565   -0.01018   -0.00329
O17   3    1.174816   -0.087095    0.809112    11.00000    0.08496    0.06477 =
         0.06276   -0.02254    0.00624   -0.01494
O18   3    0.651424   -0.129228    0.457087    11.00000    0.09646    0.08781 =
         0.10698    0.01821    0.04932    0.01746
O19   3    0.899553    0.359320    0.584675    11.00000    0.09184    0.12835 =
         0.06528    0.01248   -0.00776   -0.03034
O20   3    0.612410   -0.343402    0.650367    11.00000    0.05414    0.05452 =
         0.07000   -0.00887    0.00553   -0.00192
O21   3    0.872849   -0.293629    0.733311    11.00000    0.08632    0.10974 =
         0.15064   -0.05631   -0.03839    0.02254
O22   3    0.951084    0.306948    0.065673    11.00000    0.11287    0.05763 =
         0.05913    0.00714    0.02112   -0.00598
rem RESI    1   HOH
O23   3    0.535321   -0.397212    0.253591    11.00000    0.10449    0.13094 =
         0.13720   -0.02650    0.00327   -0.00828

rem RESI    2   HOH
O24   3    0.771711    0.478831    0.905344    11.00000    0.10670    0.14014 =
         0.15764    0.01210    0.04620    0.01563

rem RESI    4   HOH
O26   3    0.373996   -0.409095    0.879599    11.00000    0.13624    0.17423 =
         0.17228    0.03756    0.06947    0.01098
rem RESI    3   HOH
part 3
O25A  3    0.734083   -0.330414    0.982121    21.00000    0.12513

part 4
O25B  3    0.562730   -0.234604    0.961272   -21.00000    0.12513

HKLF 4

REM  Compound X
REM R1 =  0.0859 for    2559 Fo > 4sig(Fo)  and  0.1196 for all    3832 data
REM    294 parameters refined using     54 restraints

END

WGHT      0.1706      5.6742

REM Highest difference peak  2.337,  deepest hole -1.820,  1-sigma level  0.303
Q1    1   0.8928 -0.2542  0.6646  11.00000  0.05    2.13
Q2    1   0.9773  0.4955  0.5984  11.00000  0.05    1.77
Q3    1   0.5049 -0.0445  0.4170  11.00000  0.05    1.51
Q4    1   0.9423  0.2953  0.5945  11.00000  0.05    1.38
Q5    1   0.7187 -0.0513  0.6627  11.00000  0.05    1.33
Q6    1   0.9151 -0.0875  1.0107  11.00000  0.05    1.32
Q7    1   0.6772  0.4774  0.4110  11.00000  0.05    1.30
Q8    1   0.9292 -0.0369  0.7994  11.00000  0.05    1.30
Q9    1   0.7604 -0.4490  0.8975  11.00000  0.05    1.27
Q10   1   1.1565 -0.3599  1.0233  11.00000  0.05    1.24
Q11   1   0.6720 -0.1115  0.7702  11.00000  0.05    1.22
Q12   1   0.9018 -0.0958  0.9133  11.00000  0.05    1.20
Q13   1   0.6041 -0.1429  0.4190  11.00000  0.05    1.19
Q14   1   0.8252 -0.4254  0.6812  11.00000  0.05    1.19
Q15   1   1.1520  0.1601  0.7222  11.00000  0.05    1.17
Q16   1   1.1463  0.3160  0.7412  11.00000  0.05    1.16
Q17   1   0.7837  0.1113  0.1807  11.00000  0.05    1.14
Q18   1   0.4794  0.1797  0.1064  11.00000  0.05    1.14
Q19   1   0.4980 -0.2267  0.9211  11.00000  0.05    1.07
Q20   1   0.9715  0.2002  0.7219  11.00000  0.05    1.02
;
_shelx_res_checksum              38141
_shelx_hkl_file
;
 -12  -4  -1   49.56    7.74   1
 -12  -4   0   -2.99    5.88   1
 -12  -3  -3   -4.41    5.00   1
 -12  -3  -2   23.72    6.82   1
 -12  -3  -1   45.16    6.59   1
 -12  -3   0    7.62    5.52   1
 -12  -3   1   -6.40    6.58   1
 -12  -3   2   41.34    6.43   1
 -12  -2  -4   -2.19    4.50   1
 -12  -2  -3    4.00    4.68   1
 -12  -2  -2   -4.28    5.30   1
 -12  -2  -1    3.31    5.02   1
 -12  -2   0   10.30    5.07   1
 -12  -2   1    4.20    5.00   1
 -12  -2   2   14.21    6.18   1
 -12  -2   3    3.88    6.07   1
 -12  -1  -4    6.81    5.12   1
 -12  -1  -3    5.38    5.20   1
 -12  -1  -2    2.50    5.18   1
 -12  -1  -1    8.70    5.61   1
 -12  -1   0    8.70    5.07   1
 -12  -1   1   11.22    7.50   1
 -12  -1   2    7.90    6.01   1
 -12  -1   3    0.59    4.87   1
 -12   0  -4    9.67    4.79   1
 -12   0  -3   19.80    5.16   1
 -12   0  -2   99.80    8.99   1
 -12   0  -1    1.10    4.30   1
 -12   0   0    5.20    5.11   1
 -12   0   1   -4.80    5.08   1
 -12   0   2    3.69    5.61   1
 -12   0   3   17.64   13.94   1
 -12   1  -4   14.67    7.12   1
 -12   1  -3    3.80    4.41   1
 -12   1  -2   31.02    4.23   1
 -12   1  -1    3.50    4.71   1
 -12   1   0    4.41    4.12   1
 -12   2  -1    2.99    5.29   1
 -12   2   0  -19.01   15.61   1
 -12   2   1   12.60   17.82   1
 -11  -6  -1   22.09   14.85   1
 -11  -6   0   -3.88    5.67   1
 -11  -6   1    2.69    5.90   1
 -11  -5  -1   -0.71    5.43   1
 -11  -5   0   40.45    6.74   1
 -11  -5   1    9.92    4.73   1
 -11  -5   2   -0.79    5.18   1
 -11  -5   3   10.37    5.67   1
 -11  -4  -3   -1.99    2.99   1
 -11  -4  -2    1.39    5.19   1
 -11  -4  -1    1.80    4.80   1
 -11  -4   0    1.49    4.39   1
 -11  -4   1    2.10    4.49   1
 -11  -4   2   -1.30    4.70   1
 -11  -4   3    2.31    5.02   1
 -11  -4   4    2.69    5.77   1
 -11  -3  -6   14.06    4.88   1
 -11  -3  -5    6.00    5.19   1
 -11  -3  -4   37.95    4.56   1
 -11  -3  -3    5.11    3.12   1
 -11  -3  -2   11.02    2.92   1
 -11  -3  -1    7.29    5.18   1
 -11  -3   0    4.08    4.61   1
 -11  -3   1    5.11    4.29   1
 -11  -3   2   34.11    4.79   1
 -11  -3   3   28.20    5.73   1
 -11  -3   4   -0.90    5.70   1
 -11  -3   5    3.50    5.31   1
 -11  -2  -6   16.16    5.79   1
 -11  -2  -5    2.31    3.92   1
 -11  -2  -4  160.78    8.37   1
 -11  -2  -3   21.16    3.50   1
 -11  -2  -2   13.47    3.08   1
 -11  -2  -1   -1.69    4.58   1
 -11  -2   0    9.00    4.20   1
 -11  -2   1    0.30    5.02   1
 -11  -2   2    5.90    3.89   1
 -11  -2   3    4.88    4.29   1
 -11  -2   4    6.50    4.59   1
 -11  -2   5   -5.29    5.29   1
 -11  -1  -6    8.29    4.49   1
 -11  -1  -5    4.08    4.08   1
 -11  -1  -4   -2.89    2.79   1
 -11  -1  -3   -1.30    2.80   1
 -11  -1  -2    9.67    2.80   1
 -11  -1  -1   -1.99    2.20   1
 -11  -1   0   11.63    4.50   1
 -11  -1   1   -0.71    4.62   1
 -11  -1   2    5.20    4.38   1
 -11  -1   3   -3.88    3.78   1
 -11  -1   4    2.59    4.19   1
 -11  -1   5   -6.50   11.53   1
 -11   0  -6    9.30    4.03   1
 -11   0  -5   -3.20    3.51   1
 -11   0  -4    7.02    4.08   1
 -11   0  -3    1.30    2.69   1
 -11   0  -2   -1.49    2.49   1
 -11   0  -1   -1.49    2.49   1
 -11   0   0    1.30    2.01   1
 -11   0   1    3.80    4.21   1
 -11   0   2   17.47    4.93   1
 -11   0   3    1.21    4.22   1
 -11   0   4    6.81   10.81   1
 -11   0   5   -0.71   10.63   1
 -11   1  -6    0.59    3.48   1
 -11   1  -5   23.72    3.90   1
 -11   1  -4   22.28    4.06   1
 -11   1  -3   -1.69    3.38   1
 -11   1  -2    0.20    2.82   1
 -11   1  -1    3.88    2.48   1
 -11   1   0   -0.59    2.39   1
 -11   1   1   47.20    4.95   1
 -11   1   2  106.50   18.78   1
 -11   1   4   -7.51   10.80   1
 -11   2  -4   17.89   14.64   1
 -11   2  -3    1.00   13.70   1
 -11   2  -2   -0.50    4.12   1
 -11   2  -1    0.50    3.62   1
 -11   2   0    7.08    3.51   1
 -11   2   1    3.10    3.59   1
 -11   2   2   13.99    3.67   1
 -11   2   3  -11.09   15.18   1
 -11   2   4   -3.10   10.70   1
 -11   3  -1  -10.30    4.82   1
 -11   3   0    1.59    4.99   1
 -11   3   1   -4.20    4.71   1
 -11   3   2    0.79    3.99   1
 -11   4   1    2.69    6.99   1
 -11   4   2    0.30    6.13   1
 -11   4   3    3.80    6.08   1
 -10  -7  -3    5.29   10.58   1
 -10  -7  -2    0.40   12.25   1
 -10  -7  -1   -3.10   11.51   1
 -10  -7   0    0.30   11.65   1
 -10  -7   1   -2.19    7.07   1
 -10  -7   2   -0.59    5.37   1
 -10  -6  -3   15.92    4.87   1
 -10  -6  -1    2.31   11.34   1
 -10  -6   0   18.06    6.29   1
 -10  -6   1   69.72   14.70   1
 -10  -6   2    1.59    4.18   1
 -10  -6   3    9.67    5.16   1
 -10  -6   4    2.31    5.41   1
 -10  -5  -4   20.79    7.48   1
 -10  -5  -3    4.00    4.40   1
 -10  -5  -2    8.29    3.80   1
 -10  -5  -1   -1.21    5.21   1
 -10  -5   0   88.55    7.34   1
 -10  -5   1  118.81    6.98   1
 -10  -5   2    0.40    3.78   1
 -10  -5   3   10.89    4.82   1
 -10  -5   4   11.90    4.83   1
 -10  -5   5   11.42    5.00   1
 -10  -4  -4   19.10    5.33   1
 -10  -4  -3   -2.10    3.31   1
 -10  -4  -2   -1.69    3.09   1
 -10  -4  -1    4.28    4.80   1
 -10  -4   0    0.00    1.00   1
 -10  -4   1   -1.80    3.48   1
 -10  -4   2   20.34    3.79   1
 -10  -4   3   -0.50    3.51   1
 -10  -4   4   58.52    5.97   1
 -10  -4   5   20.88    5.03   1
 -10  -4   6   -0.50    4.81   1
 -10  -3  -4   17.81    4.98   1
 -10  -3  -3   -2.50    2.09   1
 -10  -3  -2    4.00    2.28   1
 -10  -3  -1    4.71    1.30   1
 -10  -3   0    1.39    3.28   1
 -10  -3   1    8.18    3.09   1
 -10  -3   2   15.29    3.60   1
 -10  -3   3    4.20    3.40   1
 -10  -3   4    1.49    4.59   1
 -10  -3   5   -4.28    4.10   1
 -10  -3   6    6.50    4.49   1
 -10  -2  -8    6.40    3.90   1
 -10  -2  -7   -0.79    3.28   1
 -10  -2  -6    2.31    3.22   1
 -10  -2  -5    7.08    2.39   1
 -10  -2  -4   82.81    4.00   1
 -10  -2  -3    2.10    2.29   1
 -10  -2  -2   21.16    1.93   1
 -10  -2  -1   22.18    2.17   1
 -10  -2   0  234.09   11.63   1
 -10  -2   1    9.49    3.33   1
 -10  -2   2   19.98    3.67   1
 -10  -2   3    9.12    3.50   1
 -10  -2   4    6.00    3.82   1
 -10  -2   5    6.00    4.41   1
 -10  -2   6    2.79    4.01   1
 -10  -2   7    4.41   10.33   1
 -10  -1  -8    5.38    3.80   1
 -10  -1  -7    4.58    3.00   1
 -10  -1  -6   19.27    3.78   1
 -10  -1  -5   -4.49    2.20   1
 -10  -1  -4    0.30    2.01   1
 -10  -1  -3    3.20    1.72   1
 -10  -1  -2   16.00    1.92   1
 -10  -1  -1   29.81    2.07   1
 -10  -1   0  360.24    8.35   1
 -10  -1   1   14.36    3.56   1
 -10  -1   2   17.47    3.93   1
 -10  -1   3   21.07    3.40   1
 -10  -1   4   27.56    3.78   1
 -10  -1   5   -1.30    3.49   1
 -10  -1   6  -10.63    8.41   1
 -10   0  -8    9.00    4.68   1
 -10   0  -7    9.99    3.48   1
 -10   0  -6    1.30    2.39   1
 -10   0  -5   -1.30    2.51   1
 -10   0  -4   21.44    2.41   1
 -10   0  -3   16.40    2.11   1
 -10   0  -2   37.45    2.45   1
 -10   0  -1   12.53    1.91   1
 -10   0   0    0.20    1.31   1
 -10   0   1    0.79    0.89   1
 -10   0   2    6.00    3.28   1
 -10   0   3   14.82    4.24   1
 -10   0   4    0.71    7.22   1
 -10   0   5    3.80    8.19   1
 -10   0   6   11.63    9.00   1
 -10   1  -8    5.52    5.50   1
 -10   1  -7   10.50    2.59   1
 -10   1  -6   -1.39    2.19   1
 -10   1  -5   53.44    4.53   1
 -10   1  -4   17.47    2.42   1
 -10   1  -3    9.92    2.08   1
 -10   1  -2   10.18    1.98   1
 -10   1  -1    3.50    1.91   1
 -10   1   0   -0.20    1.51   1
 -10   1   1    6.81    1.51   1
 -10   1   2    1.21    1.30   1
 -10   1   3   11.09   13.92   1
 -10   1   4    2.59    6.79   1
 -10   1   5    6.40    7.89   1
 -10   2  -7   -1.30    5.40   1
 -10   2  -6    4.41    4.91   1
 -10   2  -5   43.16    3.15   1
 -10   2  -4   33.76    2.67   1
 -10   2  -3    7.90    2.19   1
 -10   2  -2    2.99    2.60   1
 -10   2  -1  249.96    8.85   1
 -10   2   0   71.74    4.07   1
 -10   2   1    0.90    2.20   1
 -10   2   2    0.30    1.90   1
 -10   2   3    0.79    2.69   1
 -10   2   4    1.00    3.00   1
 -10   2   5   10.18    8.10   1
 -10   3  -7    2.79    4.98   1
 -10   3  -5    0.50    4.81   1
 -10   3  -4   -1.80    4.10   1
 -10   3  -3    4.49    3.31   1
 -10   3  -2    0.20    3.12   1
 -10   3  -1   81.72    5.06   1
 -10   3   0   23.81    3.32   1
 -10   3   1    3.20    2.68   1
 -10   3   2    0.30    2.51   1
 -10   3   3   22.47    6.16   1
 -10   3   4   -2.10    4.81   1
 -10   3   5   -1.90    4.42   1
 -10   4  -6    6.40    5.92   1
 -10   4  -5   -1.39    5.48   1
 -10   4  -4   -0.20    5.34   1
 -10   4  -3    8.18    5.38   1
 -10   4  -2   15.37    3.92   1
 -10   4  -1   -2.99    3.08   1
 -10   4   0    3.50    2.99   1
 -10   4   1    1.99    3.38   1
 -10   4   3   -9.00    5.58   1
 -10   4   4    7.67    6.59   1
 -10   4   5   -2.69    6.69   1
 -10   5  -6   13.62    5.53   1
 -10   5  -5   23.91    6.06   1
 -10   5  -4    1.99    6.18   1
 -10   5  -3    3.69    5.99   1
 -10   5  -2   -1.69    5.77   1
 -10   5  -1   -1.49    5.37   1
 -10   5   0    3.61    5.21   1
 -10   5   1   -0.79    5.07   1
 -10   6  -4    3.39    6.99   1
 -10   6  -3    0.00    1.00   1
 -10   6  -2   43.03    8.53   1
 -10   6  -1   57.15    8.62   1
 -10   6   0   -1.10    6.01   1
 -10   7  -3    6.30    7.28   1
 -10   7  -2   -0.90    7.51   1
 -10   7  -1   -7.18    7.29   1
  -9  -8  -4  -32.49   12.08   1
  -9  -8  -3   27.88   12.14   1
  -9  -8  -2   41.86   12.55   1
  -9  -8  -1  126.34   16.19   1
  -9  -8   0   -1.10    7.01   1
  -9  -8   1    9.49    7.70   1
  -9  -8   2   29.27   12.66   1
  -9  -8   3   10.37   11.98   1
  -9  -7  -3    8.53    5.02   1
  -9  -7  -2   17.81    4.39   1
  -9  -7  -1   81.54    4.88   1
  -9  -7   0   -3.31    5.42   1
  -9  -7   1    9.30    6.22   1
  -9  -7   2    5.52    6.53   1
  -9  -7   3    1.99    5.19   1
  -9  -7   4   -4.58    5.39   1
  -9  -7   5    2.19    5.39   1
  -9  -6  -4   12.53    5.10   1
  -9  -6  -3    6.92    4.21   1
  -9  -6  -2   10.63    3.00   1
  -9  -6  -1    2.19    2.31   1
  -9  -6   0   -0.20    4.83   1
  -9  -6   1   10.18    4.72   1
  -9  -6   2   16.48    5.68   1
  -9  -6   3    6.92    4.31   1
  -9  -6   4    1.80    4.90   1
  -9  -6   5    1.90    4.50   1
  -9  -6   6    0.30    5.62   1
  -9  -5  -5   27.25    4.07   1
  -9  -5  -4   23.62    2.82   1
  -9  -5  -3    5.38    1.90   1
  -9  -5  -2    1.30    1.71   1
  -9  -5  -1    1.90    1.79   1
  -9  -5   0    0.90    3.80   1
  -9  -5   1   -5.62    4.60   1
  -9  -5   2   13.91    3.73   1
  -9  -5   3    5.29    3.31   1
  -9  -5   4   73.62    6.52   1
  -9  -5   5   27.77    5.16   1
  -9  -5   6   -1.30    4.90   1
  -9  -5   7    3.69    5.18   1
  -9  -4  -7   -2.89    3.30   1
  -9  -4  -6  129.73    8.88   1
  -9  -4  -5   16.08    4.57   1
  -9  -4  -4   47.47    5.37   1
  -9  -4  -3    5.81    1.78   1
  -9  -4  -2  273.24    7.93   1
  -9  -4  -1   20.16    1.62   1
  -9  -4   0   12.18    4.33   1
  -9  -4   1    5.52    2.82   1
  -9  -4   2   10.89    3.10   1
  -9  -4   3    3.61    3.31   1
  -9  -4   4   37.95    4.44   1
  -9  -4   5   11.02    4.32   1
  -9  -4   6    0.79    4.49   1
  -9  -4   7   -1.69    4.68   1
  -9  -3  -8   -2.99    5.09   1
  -9  -3  -7    1.80    4.29   1
  -9  -3  -6    3.20    3.29   1
  -9  -3  -5    1.99    2.28   1
  -9  -3  -4   14.59    2.29   1
  -9  -3  -3    2.59    1.80   1
  -9  -3  -2   68.56    5.13   1
  -9  -3  -1    9.12    1.69   1
  -9  -3   0   11.09    2.60   1
  -9  -3   1    4.00    2.60   1
  -9  -3   2    3.61    2.89   1
  -9  -3   3    6.60    2.88   1
  -9  -3   4    2.10    2.90   1
  -9  -3   5   13.10    4.27   1
  -9  -3   6   10.82    4.41   1
  -9  -3   7    0.79    3.88   1
  -9  -3   8   10.89   11.29   1
  -9  -2  -8    3.39    4.20   1
  -9  -2  -7    1.90    3.20   1
  -9  -2  -6    1.21    3.21   1
  -9  -2  -5    2.89    3.98   1
  -9  -2  -4   20.16    2.60   1
  -9  -2  -3   16.16    3.22   1
  -9  -2  -2   11.49    2.10   1
  -9  -2  -1    4.41    1.60   1
  -9  -2   0   39.06    3.38   1
  -9  -2   1    2.59    2.61   1
  -9  -2   2   10.69    2.68   1
  -9  -2   3    2.99    2.80   1
  -9  -2   4    4.58    2.91   1
  -9  -2   5    2.89    2.99   1
  -9  -2   6   23.14    4.33   1
  -9  -2   7   -5.20    8.12   1
  -9  -2   8   -3.50    9.09   1
  -9  -1  -9   -1.10    5.82   1
  -9  -1  -8    3.50    2.69   1
  -9  -1  -7  129.05    5.91   1
  -9  -1  -6  191.27    6.36   1
  -9  -1  -5    4.49    1.70   1
  -9  -1  -4   13.32    2.34   1
  -9  -1  -3   17.31    1.91   1
  -9  -1  -2    9.49    1.60   1
  -9  -1  -1   -1.59    1.18   1
  -9  -1   0   19.18    1.40   1
  -9  -1   1    3.50    2.28   1
  -9  -1   2   24.01    3.14   1
  -9  -1   3  130.64    5.49   1
  -9  -1   4  234.40    8.57   1
  -9  -1   5    6.60    3.19   1
  -9  -1   6    2.10    7.71   1
  -9   0  -9   -2.89    4.59   1
  -9   0  -8   -1.00    2.20   1
  -9   0  -7   16.48    2.44   1
  -9   0  -6   35.28    2.73   1
  -9   0  -5    7.51    1.92   1
  -9   0  -4    0.30    1.71   1
  -9   0  -3  166.41    5.42   1
  -9   0  -2  110.25    3.78   1
  -9   0  -1   13.47    1.61   1
  -9   0   0    1.30    1.30   1
  -9   0   1   -0.30    1.00   1
  -9   0   2    5.62    2.80   1
  -9   0   3   92.54    4.81   1
  -9   0   4  112.57    5.30   1
  -9   0   5    0.90    4.31   1
  -9   0   6   10.89    7.72   1
  -9   0   7   34.22    8.66   1
  -9   1  -9    1.69    4.39   1
  -9   1  -8    3.61    2.01   1
  -9   1  -7    0.59    1.89   1
  -9   1  -6    5.20    2.10   1
  -9   1  -5   11.29    1.88   1
  -9   1  -4   13.62    2.44   1
  -9   1  -3    0.71    1.71   1
  -9   1  -2    7.90    1.57   1
  -9   1  -1    3.31    1.49   1
  -9   1   0    1.00    1.30   1
  -9   1   1    1.21    1.21   1
  -9   1   2   23.23    1.64   1
  -9   1   3   11.02    1.39   1
  -9   1   4    4.71    1.22   1
  -9   1   5   26.94    7.47   1
  -9   1   6   -2.59    5.89   1
  -9   2  -8    8.88    6.50   1
  -9   2  -7   20.52    4.53   1
  -9   2  -6    0.40    1.69   1
  -9   2  -5    4.88    1.81   1
  -9   2  -4    0.59    1.89   1
  -9   2  -3   14.98    1.93   1
  -9   2  -2    1.39    1.60   1
  -9   2  -1   82.81    3.28   1
  -9   2   0   22.18    2.54   1
  -9   2   1   13.69    2.29   1
  -9   2   2   -0.59    1.69   1
  -9   2   3   22.18    2.26   1
  -9   2   4    2.40    2.01   1
  -9   2   5    8.12    2.51   1
  -9   2   6    4.49    3.18   1
  -9   2   7    4.49    4.79   1
  -9   3  -8    2.69    4.89   1
  -9   3  -7  121.00   10.78   1
  -9   3  -6    2.99    3.60   1
  -9   3  -5    7.67    4.27   1
  -9   3  -4   10.63    3.19   1
  -9   3  -3   17.81    3.12   1
  -9   3  -2    6.20    2.69   1
  -9   3  -1   48.58    4.46   1
  -9   3   0    6.60    2.31   1
  -9   3   1   16.56    3.50   1
  -9   3   2   25.30    2.92   1
  -9   3   3  443.10   15.16   1
  -9   3   4   50.27    3.55   1
  -9   3   5    8.58    4.10   1
  -9   3   6    8.53    5.78   1
  -9   3   7   -4.00    6.00   1
  -9   4  -7    2.19    5.59   1
  -9   4  -6   -0.10    5.16   1
  -9   4  -5    6.50    4.79   1
  -9   4  -4   -1.59    3.68   1
  -9   4  -3   38.44    3.72   1
  -9   4  -2   -0.59    2.48   1
  -9   4  -1    3.80    2.69   1
  -9   4   0   -2.59    2.70   1
  -9   4   1   23.14    3.56   1
  -9   4   2   -2.79    2.61   1
  -9   4   3   50.98    4.28   1
  -9   4   4   -1.30    3.19   1
  -9   4   5    7.08    6.17   1
  -9   4   6   21.81    7.47   1
  -9   5  -7    4.88    5.30   1
  -9   5  -6   -1.30    4.49   1
  -9   5  -5   -1.99    4.40   1
  -9   5  -4    6.10    4.69   1
  -9   5  -3    0.71    5.12   1
  -9   5  -2    0.40    2.60   1
  -9   5  -1    0.10    3.14   1
  -9   5   0    9.42    3.50   1
  -9   5   1   21.72    4.01   1
  -9   5   2   21.34    4.25   1
  -9   5   3    3.80    3.51   1
  -9   5   4    2.89    3.91   1
  -9   5   5   -5.38    6.87   1
  -9   6  -6    4.28    6.50   1
  -9   6  -5    6.10    7.81   1
  -9   6  -4    1.49    4.68   1
  -9   6  -3    5.71    5.69   1
  -9   6  -2   36.24    7.22   1
  -9   6  -1   50.55    6.97   1
  -9   6   0   13.18    5.59   1
  -9   6   1    8.88    5.48   1
  -9   6   2   11.29    5.51   1
  -9   6   3   -1.80    4.58   1
  -9   7  -5   -1.21    6.93   1
  -9   7  -4    9.67    5.91   1
  -9   7  -3   -0.90    5.21   1
  -9   7  -2   -6.92    6.63   1
  -9   7  -1   12.32    7.09   1
  -9   7   0    8.29    6.68   1
  -9   7   1   -1.39    6.28   1
  -9   7   2   93.12   11.39   1
  -9   7   3   47.33    7.43   1
  -9   8  -3    2.59    7.70   1
  -9   8  -2    9.67    6.28   1
  -9   8  -1   -0.59    6.36   1
  -9   8   0   -3.31    8.12   1
  -9   8   1    0.00    1.00   1
  -9   8   2    8.12    8.49   1
  -8  -9  -4    3.10   11.19   1
  -8  -9  -3    4.28   10.39   1
  -8  -9  -2    7.18   10.18   1
  -8  -9  -1    4.49    3.90   1
  -8  -9   0    2.89    3.40   1
  -8  -9   1   28.30   11.60   1
  -8  -9   2    3.69   10.79   1
  -8  -9   3  -17.89   11.42   1
  -8  -8  -5   17.81    8.69   1
  -8  -8  -4   17.22    9.13   1
  -8  -8  -3    0.00    1.00   1
  -8  -8  -2   13.69    4.22   1
  -8  -8  -1   68.06    4.46   1
  -8  -8   0   -2.99    2.49   1
  -8  -8   1    0.59    2.48   1
  -8  -8   2   14.90    6.56   1
  -8  -8   3    4.88   10.39   1
  -8  -8   4    3.50    4.49   1
  -8  -8   5    3.69    5.38   1
  -8  -7  -5    5.38    3.57   1
  -8  -7  -4    6.00    2.50   1
  -8  -7  -3    0.20    2.11   1
  -8  -7  -2    0.71    2.10   1
  -8  -7  -1    9.92    1.83   1
  -8  -7   0    6.30    1.51   1
  -8  -7   1    8.29    5.13   1
  -8  -7   2  129.50    9.33   1
  -8  -7   3  142.09   10.49   1
  -8  -7   4   -2.50    4.49   1
  -8  -7   5    7.67    4.27   1
  -8  -7   6    0.40    4.38   1
  -8  -6  -8   11.70    5.20   1
  -8  -6  -7   -2.19    4.00   1
  -8  -6  -6   10.63    3.39   1
  -8  -6  -5   -5.11    2.40   1
  -8  -6  -4   55.50    2.68   1
  -8  -6  -3    4.20    1.68   1
  -8  -6  -2   29.70    3.05   1
  -8  -6  -1   10.63    1.50   1
  -8  -6   0   14.82    1.92   1
  -8  -6   1   11.02    4.32   1
  -8  -6   2   21.44    4.72   1
  -8  -6   3   13.40    5.12   1
  -8  -6   4    4.08    3.60   1
  -8  -6   5   -1.99    4.09   1
  -8  -6   6   29.05    5.17   1
  -8  -6   7    5.52    4.70   1
  -8  -5  -8   -1.00    3.50   1
  -8  -5  -7    1.21    3.81   1
  -8  -5  -6    3.50    2.58   1
  -8  -5  -5    1.39    1.79   1
  -8  -5  -4    4.71    1.91   1
  -8  -5  -3    2.50    1.30   1
  -8  -5  -2   28.94    2.04   1
  -8  -5  -1    2.19    1.18   1
  -8  -5   0    9.61    1.61   1
  -8  -5   1   27.77    4.85   1
  -8  -5   2    4.80    4.12   1
  -8  -5   3    7.78    2.79   1
  -8  -5   4    2.19    3.11   1
  -8  -5   5    4.58    3.98   1
  -8  -5   6   -2.69    3.80   1
  -8  -5   7   -0.79    4.38   1
  -8  -5   8    0.20    4.43   1
  -8  -4  -9    7.51    4.11   1
  -8  -4  -8   37.09    5.72   1
  -8  -4  -7    0.79    3.49   1
  -8  -4  -6    3.20    3.90   1
  -8  -4  -5   -3.31    1.82   1
  -8  -4  -4   40.20    2.92   1
  -8  -4  -3   21.90    2.06   1
  -8  -4  -2  452.84   14.90   1
  -8  -4  -1   13.91    2.01   1
  -8  -4   0   47.06    2.20   1
  -8  -4   1   10.82    3.62   1
  -8  -4   2  107.74    4.77   1
  -8  -4   3    4.20    2.79   1
  -8  -4   4   11.83    2.82   1
  -8  -4   5    4.41    3.11   1
  -8  -4   6   17.72    4.21   1
  -8  -4   7    1.90    3.62   1
  -8  -4   8    5.90    3.89   1
  -8  -3  -9   24.50    5.05   1
  -8  -3  -8  144.00   10.80   1
  -8  -3  -7   -2.10    3.19   1
  -8  -3  -6   10.11    2.23   1
  -8  -3  -5    8.01    3.28   1
  -8  -3  -4    4.00    2.40   1
  -8  -3  -3    1.10    1.41   1
  -8  -3  -2   27.25    1.77   1
  -8  -3  -1    2.10    1.51   1
  -8  -3   0   45.83    2.03   1
  -8  -3   1  204.49    8.01   1
  -8  -3   2  718.24   18.76   1
  -8  -3   3   23.62    2.92   1
  -8  -3   4   19.71    2.93   1
  -8  -3   5    2.99    2.80   1
  -8  -3   6   -0.40    3.09   1
  -8  -3   7    6.50    3.31   1
  -8  -3   8   13.18    9.29   1
  -8  -3   9   -5.20    9.90   1
  -8  -2  -8   -1.30    3.60   1
  -8  -2  -6    3.61    2.32   1
  -8  -2  -5    7.67    3.27   1
  -8  -2  -4    1.30    1.39   1
  -8  -2  -3    7.62    1.60   1
  -8  -2  -2   17.81    2.62   1
  -8  -2  -1   57.76    1.98   1
  -8  -2   0   84.82    2.21   1
  -8  -2   1   11.97    2.42   1
  -8  -2   2   90.25    4.56   1
  -8  -2   3   -1.30    2.10   1
  -8  -2   4    3.10    2.50   1
  -8  -2   5   19.01    2.79   1
  -8  -2   6    7.29    3.08   1
  -8  -2   7   -0.30    7.44   1
  -8  -2   8   -1.21    7.94   1
  -8  -2   9    9.92    8.51   1
  -8  -1  -9    7.40    4.52   1
  -8  -1  -8    3.61    3.80   1
  -8  -1  -7    0.90    2.81   1
  -8  -1  -6    0.00    1.00   1
  -8  -1  -5   24.01    2.55   1
  -8  -1  -4    1.59    3.00   1
  -8  -1  -3  110.25    4.83   1
  -8  -1  -2   84.46    2.94   1
  -8  -1  -1   44.36    2.00   1
  -8  -1   0  196.84    4.77   1
  -8  -1   1   63.36    3.34   1
  -8  -1   2   46.51    3.00   1
  -8  -1   3   20.61    2.72   1
  -8  -1   4   -0.20    2.31   1
  -8  -1   5    0.30    2.51   1
  -8  -1   6    8.29    4.78   1
  -8  -1   7   -8.82    6.83   1
  -8  -1   8    3.31    7.10   1
  -8   0  -9   52.85    3.93   1
  -8   0  -8   19.98    2.68   1
  -8   0  -7    1.59    1.89   1
  -8   0  -6    2.69    1.61   1
  -8   0  -5    4.41    1.51   1
  -8   0  -4    0.79    1.39   1
  -8   0  -3  516.65   12.27   1
  -8   0  -2  468.29   13.85   1
  -8   0  -1   29.81    1.75   1
  -8   0   0    7.51    1.21   1
  -8   0   1  377.52    8.16   1
  -8   0   2   68.89    1.66   1
  -8   0   3   14.29    2.42   1
  -8   0   4    0.40    1.99   1
  -8   0   5    2.79    3.71   1
  -8   0   6   -1.49    1.68   1
  -8   0   7   38.44    3.35   1
  -8   0   8   45.83    4.74   1
  -8   1 -10   -0.79    4.27   1
  -8   1  -9   14.82    4.70   1
  -8   1  -8    3.39    1.99   1
  -8   1  -7   26.94    2.28   1
  -8   1  -6    1.90    1.60   1
  -8   1  -5    3.61    1.41   1
  -8   1  -4    3.69    1.50   1
  -8   1  -3   33.18    1.96   1
  -8   1  -2   43.03    2.10   1
  -8   1  -1   78.50    2.84   1
  -8   1   0    6.60    1.28   1
  -8   1   1  825.41   17.24   1
  -8   1   2  157.00    4.51   1
  -8   1   3   62.88    2.70   1
  -8   1   4   -1.00    1.70   1
  -8   1   5    3.61    1.52   1
  -8   1   6   -0.71    1.61   1
  -8   1   7    3.61    3.12   1
  -8   1   8    7.78    4.69   1
  -8   2  -8    3.88    3.78   1
  -8   2  -7   -1.80    3.99   1
  -8   2  -6   13.10    2.03   1
  -8   2  -5    5.62    1.52   1
  -8   2  -4    6.81    1.51   1
  -8   2  -3   35.05    2.25   1
  -8   2  -2   24.11    1.77   1
  -8   2  -1   82.08    3.26   1
  -8   2   0   90.82    4.38   1
  -8   2   1    0.79    1.69   1
  -8   2   2    3.50    1.91   1
  -8   2   3    3.80    1.79   1
  -8   2   4    2.59    1.71   1
  -8   2   5    0.40    1.99   1
  -8   2   6   21.81    2.43   1
  -8   2   7   22.56    3.99   1
  -8   2   8    4.41    5.12   1
  -8   2   9    7.78    6.81   1
  -8   3  -8    3.61    3.80   1
  -8   3  -7   19.27    4.83   1
  -8   3  -6    5.02    3.99   1
  -8   3  -5   15.68    3.17   1
  -8   3  -4   88.55    5.27   1
  -8   3  -3  110.04    5.04   1
  -8   3  -2    0.30    2.21   1
  -8   3  -1   19.18    2.37   1
  -8   3   0    3.50    1.91   1
  -8   3   1    2.50    1.90   1
  -8   3   2   -0.59    1.69   1
  -8   3   3   21.07    2.57   1
  -8   3   4    2.79    2.20   1
  -8   3   5    5.02    2.20   1
  -8   3   6   -1.00    2.10   1
  -8   3   8    4.71    9.11   1
  -8   4  -9    9.42    5.53   1
  -8   4  -8    0.00    1.00   1
  -8   4  -7    1.99    4.48   1
  -8   4  -6   -0.10    3.44   1
  -8   4  -5    6.60    3.19   1
  -8   4  -4  154.50    6.46   1
  -8   4  -3  327.97   10.87   1
  -8   4  -2    2.59    2.09   1
  -8   4  -1   18.49    3.10   1
  -8   4   0  156.00    6.49   1
  -8   4   1  158.26    7.30   1
  -8   4   2    1.30    2.51   1
  -8   4   3    4.58    2.40   1
  -8   4   4    4.41    2.90   1
  -8   4   5    3.20    2.29   1
  -8   4   6   33.99    4.43   1
  -8   4   7  169.00   13.00   1
  -8   5  -8    1.90    4.91   1
  -8   5  -7    9.12    5.80   1
  -8   5  -6   -4.88    4.20   1
  -8   5  -5    0.30    3.31   1
  -8   5  -4    3.61    2.62   1
  -8   5  -3    2.99    2.21   1
  -8   5  -2    1.39    2.29   1
  -8   5  -1   12.39    3.31   1
  -8   5   0   40.32    4.06   1
  -8   5   1   42.12    4.02   1
  -8   5   2    1.10    3.11   1
  -8   5   3    4.41    2.90   1
  -8   5   4    0.50    3.31   1
  -8   5   5    6.30    3.41   1
  -8   5   6   -3.61    3.50   1
  -8   6  -7    4.08    4.81   1
  -8   6  -6    8.29    5.99   1
  -8   6  -5   -1.30    5.49   1
  -8   6  -4    1.80    4.10   1
  -8   6  -3    2.99    3.98   1
  -8   6  -2   12.11    3.90   1
  -8   6  -1   13.10    3.62   1
  -8   6   0    9.18    3.82   1
  -8   6   1    5.90    3.89   1
  -8   6   2    1.90    3.51   1
  -8   6   3   -0.50    3.31   1
  -8   6   4    7.40    4.08   1
  -8   6   5   14.06    5.32   1
  -8   7  -6   10.69    5.43   1
  -8   7  -5    3.20    5.01   1
  -8   7  -4   86.49    8.74   1
  -8   7  -3    7.67    4.71   1
  -8   7  -2    9.42    5.03   1
  -8   7  -1    6.30    4.42   1
  -8   7   0   -2.89    4.18   1
  -8   7   1    1.00    4.00   1
  -8   7   2   28.62    5.03   1
  -8   7   3    1.80    5.20   1
  -8   7   4    8.29    5.88   1
  -8   7   5    6.50    6.78   1
  -8   8  -5   -1.10    5.31   1
  -8   8  -4   34.22    6.90   1
  -8   8  -3    8.53    5.02   1
  -8   8  -2    1.00    5.60   1
  -8   8  -1    2.40    4.59   1
  -8   8   0   38.69    6.72   1
  -8   8   1   12.32    6.81   1
  -8   8   2   -5.38    5.10   1
  -8   8   3   -2.79    7.68   1
  -8   8   4   -1.30    7.50   1
  -8   9  -3    0.79    7.16   1
  -8   9  -2    7.08    7.29   1
  -8   9  -1   -1.69    6.08   1
  -8   9   0   -4.41    6.72   1
  -8   9   1    1.69    6.47   1
  -8   9   2    3.10    8.59   1
  -8   9   3    8.12    7.52   1
  -8   9   4   15.29    7.66   1
  -7 -10  -4   20.07   10.57   1
  -7 -10  -3   88.74   14.13   1
  -7 -10  -2   14.21   10.03   1
  -7 -10  -1   32.38   11.15   1
  -7 -10   0    8.82   10.10   1
  -7 -10   1    8.18   11.21   1
  -7 -10   2   -4.88   10.17   1
  -7  -9  -6   -3.69    9.18   1
  -7  -9  -5   -0.50   10.44   1
  -7  -9  -4    7.90    8.82   1
  -7  -9  -3   12.82    8.74   1
  -7  -9  -2   11.29    8.40   1
  -7  -9  -1    1.59    3.98   1
  -7  -9   0   61.94    5.67   1
  -7  -9   1  106.50    7.22   1
  -7  -9   2   -1.10    9.81   1
  -7  -9   3   -4.08   10.18   1
  -7  -9   4    6.60   10.79   1
  -7  -8  -7    0.90    4.71   1
  -7  -8  -5    3.88    2.80   1
  -7  -8  -4    0.10    2.84   1
  -7  -8  -3    2.50    2.50   1
  -7  -8  -2   12.18    2.09   1
  -7  -8  -1    7.08    2.61   1
  -7  -8   0    0.71    2.91   1
  -7  -8   1   -1.80    2.49   1
  -7  -8   2   -1.30    7.30   1
  -7  -8   3    4.80    2.28   1
  -7  -8   4   -2.50    9.48   1
  -7  -8   5    1.59    4.59   1
  -7  -8   6   -1.49    4.49   1
  -7  -7  -8   24.50    4.75   1
  -7  -7  -7    9.61    4.59   1
  -7  -7  -6   15.29    4.07   1
  -7  -7  -5    0.50    2.41   1
  -7  -7  -4  174.24    5.81   1
  -7  -7  -3   25.10    2.10   1
  -7  -7  -2   46.65    3.55   1
  -7  -7  -1   20.88    2.01   1
  -7  -7   0    8.12    1.82   1
  -7  -7   1    7.78    2.51   1
  -7  -7   2    2.89    1.70   1
  -7  -7   3    9.30    1.59   1
  -7  -7   4   -0.30    1.41   1
  -7  -7   5    6.50    4.39   1
  -7  -7   6   18.84    4.34   1
  -7  -7   7    4.88    4.29   1
  -7  -6  -9    0.10    3.95   1
  -7  -6  -8   -0.40    3.49   1
  -7  -6  -7   -6.40    3.59   1
  -7  -6  -6   17.31    3.66   1
  -7  -6  -5    6.20    2.09   1
  -7  -6  -4  441.84   10.93   1
  -7  -6  -3   98.01    4.75   1
  -7  -6  -2   87.05    3.55   1
  -7  -6  -1    0.79    1.09   1
  -7  -6   0  152.03    4.69   1
  -7  -6   1   14.98    1.16   1
  -7  -6   2    0.90    1.01   1
  -7  -6   3   -4.20    3.89   1
  -7  -6   4   15.37    3.53   1
  -7  -6   5    1.59    2.90   1
  -7  -6   6  100.20    7.21   1
  -7  -6   7   20.98    4.31   1
  -7  -6   8   -4.08    3.88   1
  -7  -5  -9   -1.49    5.17   1
  -7  -5  -8   -2.31    3.71   1
  -7  -5  -7    2.19    3.29   1
  -7  -5  -6    9.00    2.52   1
  -7  -5  -5   16.89    2.47   1
  -7  -5  -4    0.20    1.61   1
  -7  -5  -3    2.40    1.21   1
  -7  -5  -2   27.98    2.54   1
  -7  -5  -1   35.16    1.90   1
  -7  -5   0  273.24    6.28   1
  -7  -5   1   13.91    1.42   1
  -7  -5   2   19.01    3.84   1
  -7  -5   3    1.10    3.61   1
  -7  -5   4   -0.10    2.84   1
  -7  -5   5    1.69    2.50   1
  -7  -5   6    4.08    3.47   1
  -7  -5   7    4.49    3.60   1
  -7  -5   8    4.49    3.90   1
  -7  -5   9   11.29   12.10   1
  -7  -4 -10   -0.40    3.98   1
  -7  -4  -9    1.80    3.59   1
  -7  -4  -7    3.61    2.51   1
  -7  -4  -6   10.18    2.11   1
  -7  -4  -5    1.90    1.60   1
  -7  -4  -4   18.58    3.02   1
  -7  -4  -3   27.04    1.56   1
  -7  -4  -2    2.40    1.12   1
  -7  -4  -1   18.92    1.31   1
  -7  -4   0    0.30    1.21   1
  -7  -4   1   15.21    3.20   1
  -7  -4   2   37.33    3.91   1
  -7  -4   3    7.08    2.39   1
  -7  -4   4    6.30    2.61   1
  -7  -4   5   11.83    2.89   1
  -7  -4   6    8.70    2.89   1
  -7  -4   7    4.41    3.32   1
  -7  -4   8    0.59    2.88   1
  -7  -4   9    4.00    8.20   1
  -7  -3 -10    2.69    4.20   1
  -7  -3  -9   35.05    4.85   1
  -7  -3  -8   61.47    5.64   1
  -7  -3  -7    0.20    2.41   1
  -7  -3  -6   12.53    2.34   1
  -7  -3  -5  280.90   10.39   1
  -7  -3  -4  387.70   17.72   1
  -7  -3  -3    5.81    1.78   1
  -7  -3  -2   72.08    2.55   1
  -7  -3  -1   25.20    1.31   1
  -7  -3   0    4.88    0.71   1
  -7  -3   1   41.86    4.27   1
  -7  -3   2  242.74    7.17   1
  -7  -3   3   11.22    2.21   1
  -7  -3   4   25.00    2.40   1
  -7  -3   5   49.14    3.22   1
  -7  -3   6  106.09    5.15   1
  -7  -3   7   -0.40    2.78   1
  -7  -3   8    3.50    6.81   1
  -7  -3   9   16.48    9.18   1
  -7  -2 -10   -2.10    3.80   1
  -7  -2  -9    6.40    4.50   1
  -7  -2  -8   -0.30    3.21   1
  -7  -2  -7    9.99    2.40   1
  -7  -2  -6    7.67    3.38   1
  -7  -2  -5  283.25   10.43   1
  -7  -2  -4  407.64   13.33   1
  -7  -2  -3    8.18    1.37   1
  -7  -2  -2   11.22    1.27   1
  -7  -2  -1  225.90    5.41   1
  -7  -2   0  106.30    2.89   1
  -7  -2   1   13.91    2.01   1
  -7  -2   2    2.69    1.90   1
  -7  -2   3    5.20    1.78   1
  -7  -2   4   27.46    2.52   1
  -7  -2   5  113.64    4.69   1
  -7  -2   6  153.26    6.69   1
  -7  -2   7    1.10    1.41   1
  -7  -2   8    1.21    2.90   1
  -7  -2   9   11.09    6.73   1
  -7  -1 -10   -0.30    3.72   1
  -7  -1  -9    6.71    3.21   1
  -7  -1  -8   18.84    4.17   1
  -7  -1  -7    4.88    2.21   1
  -7  -1  -6   18.92    2.26   1
  -7  -1  -5    2.19    2.69   1
  -7  -1  -4   -2.99    2.11   1
  -7  -1  -3   25.81    2.03   1
  -7  -1  -2    0.59    1.59   1
  -7  -1  -1   83.36    2.74   1
  -7  -1   0   48.30    1.67   1
  -7  -1   1   86.49    3.53   1
  -7  -1   2   46.92    2.88   1
  -7  -1   3   43.69    2.64   1
  -7  -1   4   98.41    4.17   1
  -7  -1   5   10.18    1.91   1
  -7  -1   6   -1.00    0.90   1
  -7  -1   7    7.78    1.51   1
  -7  -1   8    1.39    3.19   1
  -7  -1   9   13.69    5.40   1
  -7   0 -10    2.69    4.89   1
  -7   0  -9   55.65    2.83   1
  -7   0  -7   35.76    3.35   1
  -7   0  -6    0.79    2.08   1
  -7   0  -5   24.60    1.69   1
  -7   0  -4    3.69    1.50   1
  -7   0  -3   23.23    1.54   1
  -7   0  -2   40.58    1.78   1
  -7   0  -1  189.06    4.95   1
  -7   0   0    0.71    0.81   1
  -7   0   1  330.15    6.54   1
  -7   0   2   65.93    1.95   1
  -7   0   3   85.01    2.03   1
  -7   0   4   33.64    1.16   1
  -7   0   5    1.00    1.00   1
  -7   0   6    1.10    1.30   1
  -7   0   7    6.81    1.72   1
  -7   0   8    0.40    3.29   1
  -7   0   9    5.52    5.83   1
  -7   0  10    9.80    7.39   1
  -7   1 -10    6.10    4.40   1
  -7   1  -9   75.86    3.14   1
  -7   1  -8    2.40    1.49   1
  -7   1  -7   47.06    2.47   1
  -7   1  -6   98.01    3.56   1
  -7   1  -5  658.95   19.51   1
  -7   1  -4   29.16    1.84   1
  -7   1  -3    1.39    1.39   1
  -7   1  -2    5.81    1.21   1
  -7   1  -1    7.62    1.21   1
  -7   1   0   18.06    1.28   1
  -7   1   1  556.49   12.27   1
  -7   1   2  102.21    3.03   1
  -7   1   3  105.47    4.31   1
  -7   1   4  106.30    3.30   1
  -7   1   5  585.64   12.58   1
  -7   1   6   40.45    2.42   1
  -7   1   7    7.40    1.80   1
  -7   1   8    0.71    2.50   1
  -7   1   9   -7.02    6.41   1
  -7   2 -10   -0.59    4.28   1
  -7   2  -9   -2.59    3.61   1
  -7   2  -8    2.99    3.29   1
  -7   2  -7   26.63    3.10   1
  -7   2  -6    0.40    1.20   1
  -7   2  -5  164.35    5.13   1
  -7   2  -4    7.08    1.22   1
  -7   2  -3   70.73    2.86   1
  -7   2  -2   17.31    1.58   1
  -7   2  -1   92.16    3.26   1
  -7   2   0   36.72    1.82   1
  -7   2   1   10.69    1.57   1
  -7   2   2   21.34    1.94   1
  -7   2   3   94.67    4.09   1
  -7   2   4   78.68    3.37   1
  -7   2   5  372.49   10.04   1
  -7   2   6   11.22    2.01   1
  -7   2   7    9.42    2.21   1
  -7   2   8    8.29    3.23   1
  -7   2   9   24.21    9.74   1
  -7   3 -10   -0.90    5.91   1
  -7   3  -9    1.59    3.98   1
  -7   3  -8    8.29    4.20   1
  -7   3  -7   17.39    2.92   1
  -7   3  -6   32.49    3.31   1
  -7   3  -5   12.11    2.78   1
  -7   3  -4    1.10    1.99   1
  -7   3  -3   -0.20    1.71   1
  -7   3  -2   34.81    2.60   1
  -7   3  -1   -1.30    1.50   1
  -7   3   0   -0.50    1.60   1
  -7   3   1   14.36    1.97   1
  -7   3   2   49.14    3.36   1
  -7   3   3  101.61    5.85   1
  -7   3   4   32.26    2.95   1
  -7   3   5    3.50    1.68   1
  -7   3   6   14.52    2.13   1
  -7   3   7    0.40    2.99   1
  -7   3   8   21.34    6.47   1
  -7   4  -9   12.18    4.40   1
  -7   4  -8    3.88    3.78   1
  -7   4  -7    4.80    3.29   1
  -7   4  -6    5.20    5.70   1
  -7   4  -5    1.10    2.10   1
  -7   4  -4   14.06    2.62   1
  -7   4  -3   16.16    2.33   1
  -7   4  -2   15.92    2.23   1
  -7   4  -1   -2.31    1.61   1
  -7   4   0  330.88    9.46   1
  -7   4   1  398.00   14.76   1
  -7   4   2    7.40    2.39   1
  -7   4   3   30.58    3.10   1
  -7   4   4    0.59    1.99   1
  -7   4   5    2.31    1.70   1
  -7   4   6   -3.61    2.89   1
  -7   4   7    3.61    3.31   1
  -7   5  -9   15.92    7.34   1
  -7   5  -8    3.50    4.49   1
  -7   5  -6  165.89   11.08   1
  -7   5  -5   42.64    4.18   1
  -7   5  -4    9.30    2.07   1
  -7   5  -3   -0.10    1.82   1
  -7   5  -2    4.28    2.48   1
  -7   5  -1    3.10    2.18   1
  -7   5   0  148.11    7.79   1
  -7   5   1  220.52   10.99   1
  -7   5   2    2.19    2.31   1
  -7   5   3   -1.69    2.39   1
  -7   5   4  345.59   14.87   1
  -7   5   5  161.54    8.39   1
  -7   5   6    5.20    3.28   1
  -7   5   7    4.49    5.98   1
  -7   6  -8   12.60    7.03   1
  -7   6  -7   11.09    4.60   1
  -7   6  -6    1.99    4.88   1
  -7   6  -5    7.29    4.91   1
  -7   6  -4    7.67    2.88   1
  -7   6  -3   10.37    3.41   1
  -7   6  -2   -0.59    3.08   1
  -7   6  -1    4.00    3.28   1
  -7   6   0    7.90    2.59   1
  -7   6   1   -0.50    2.81   1
  -7   6   2   16.08    3.69   1
  -7   6   3    2.79    2.30   1
  -7   6   4   65.12    5.49   1
  -7   6   5   10.11    3.88   1
  -7   6   6   18.40    5.66   1
  -7   6   7   -2.99    5.71   1
  -7   7  -7    4.88    5.08   1
  -7   7  -6   -0.10    5.66   1
  -7   7  -5    3.39    4.38   1
  -7   7  -4    8.29    4.20   1
  -7   7  -3    9.67    4.29   1
  -7   7  -2   11.63    3.48   1
  -7   7  -1    3.69    3.49   1
  -7   7   0    5.11    2.89   1
  -7   7   1    9.80    3.32   1
  -7   7   2   18.32    3.17   1
  -7   7   3   18.66    3.20   1
  -7   7   4   21.34    5.64   1
  -7   7   5    6.20    5.48   1
  -7   7   6   -7.18    6.49   1
  -7   8  -6    9.18    7.88   1
  -7   8  -5    7.08    6.49   1
  -7   8  -4   11.70    4.72   1
  -7   8  -3   -5.20    4.20   1
  -7   8  -2    1.21    4.22   1
  -7   8  -1   25.10    5.11   1
  -7   8   0  188.24    9.88   1
  -7   8   1    1.69    4.39   1
  -7   8   2    9.42    4.42   1
  -7   8   3    1.90    5.41   1
  -7   8   4    3.88    4.89   1
  -7   8   5    6.10    6.62   1
  -7   8   6   14.21    7.69   1
  -7   9  -5   -1.39    5.48   1
  -7   9  -4    9.80    5.82   1
  -7   9  -3   -3.31    5.90   1
  -7   9  -2   -3.31    5.71   1
  -7   9  -1    0.90    4.81   1
  -7   9   0   29.70    5.78   1
  -7   9   1   -6.20    6.62   1
  -7   9   2    6.81    6.89   1
  -7   9   3   61.94   10.23   1
  -7   9   4   74.65   11.23   1
  -7   9   5    6.50    8.82   1
  -7  10  -3    0.79    6.18   1
  -7  10  -2    1.49    6.08   1
  -7  10  -1   14.29    8.09   1
  -7  10   0   -4.41    8.19   1
  -7  10   1   -2.89    8.77   1
  -7  10   2    6.81    8.82   1
  -7  10   3   -1.30    9.39   1
  -6 -11  -2   25.30   10.56   1
  -6 -11  -1    7.18    9.97   1
  -6 -11   0   -8.01    9.90   1
  -6 -11   1    8.70   10.50   1
  -6 -10  -5   -1.10    8.40   1
  -6 -10  -4   -5.62    9.53   1
  -6 -10  -3  -11.42    8.11   1
  -6 -10  -2   10.82    9.80   1
  -6 -10  -1    4.88    8.40   1
  -6 -10   0   16.32    9.29   1
  -6 -10   1   49.14   10.80   1
  -6 -10   2    4.00    9.40   1
  -6 -10   3   10.11   10.68   1
  -6 -10   4   -0.59   11.04   1
  -6  -9  -7    4.08    9.17   1
  -6  -9  -6  137.12    8.90   1
  -6  -9  -5   35.40    3.69   1
  -6  -9  -4   13.91    4.70   1
  -6  -9  -3    0.50    4.02   1
  -6  -9  -2    2.50    2.81   1
  -6  -9  -1    1.00    2.70   1
  -6  -9   0   22.00    3.10   1
  -6  -9   1   50.41    3.83   1
  -6  -9   2    5.52    2.91   1
  -6  -9   3    1.49    3.29   1
  -6  -9   4   46.24    4.49   1
  -6  -9   5   41.22    4.75   1
  -6  -9   6    0.50    4.71   1
  -6  -8  -8   -1.49    4.07   1
  -6  -8  -6   50.84    6.13   1
  -6  -8  -5   17.89    3.30   1
  -6  -8  -4   14.82    3.08   1
  -6  -8  -3    3.10    2.39   1
  -6  -8  -2   24.90    3.99   1
  -6  -8  -1    1.69    2.39   1
  -6  -8   0    5.71    2.20   1
  -6  -8   1    4.58    2.01   1
  -6  -8   2   13.91    2.24   1
  -6  -8   3    1.21    3.10   1
  -6  -8   4   63.36    4.14   1
  -6  -8   5   25.60    3.44   1
  -6  -8   6    0.50    2.31   1
  -6  -8   7    3.61    4.52   1
  -6  -7  -9   -2.40    4.90   1
  -6  -7  -8    2.40    5.21   1
  -6  -7  -7    3.50    3.59   1
  -6  -7  -6   17.98    3.90   1
  -6  -7  -5    3.31    1.49   1
  -6  -7  -4    2.59    1.90   1
  -6  -7  -3    6.81    2.19   1
  -6  -7  -2    0.59    1.99   1
  -6  -7  -1   -0.10    1.92   1
  -6  -7   0    2.69    1.71   1
  -6  -7   1    3.39    1.69   1
  -6  -7   2    3.39    1.51   1
  -6  -7   3   16.48    2.68   1
  -6  -7   4    5.81    2.70   1
  -6  -7   5    0.50    3.41   1
  -6  -7   6   -1.59    3.18   1
  -6  -7   7   -1.80    2.20   1
  -6  -7   8    2.19    4.08   1
  -6  -6  -9   -1.90    3.39   1
  -6  -6  -8   18.84    4.51   1
  -6  -6  -7   -0.90    3.21   1
  -6  -6  -6    2.99    2.28   1
  -6  -6  -5    2.40    1.89   1
  -6  -6  -4    4.88    1.28   1
  -6  -6  -3    4.20    1.52   1
  -6  -6  -2  125.89    5.61   1
  -6  -6  -1   58.06    3.96   1
  -6  -6   0  645.67   15.75   1
  -6  -6   1   77.44    3.34   1
  -6  -6   2   21.62    2.42   1
  -6  -6   3    6.40    2.02   1
  -6  -6   4    4.80    2.10   1
  -6  -6   5   -0.30    1.21   1
  -6  -6   6    0.59    1.39   1
  -6  -6   7    3.50    1.91   1
  -6  -6   8    7.18    4.02   1
  -6  -6   9   -7.62   10.49   1
  -6  -5 -10   24.11    5.40   1
  -6  -5  -9   -4.28    3.97   1
  -6  -5  -8   17.98    3.56   1
  -6  -5  -7   69.39    4.50   1
  -6  -5  -6  285.95   10.15   1
  -6  -5  -5    4.28    1.90   1
  -6  -5  -4   62.09    2.36   1
  -6  -5  -3   43.16    1.97   1
  -6  -5  -2   41.86    1.94   1
  -6  -5  -1   63.36    2.39   1
  -6  -5   0  537.31   15.30   1
  -6  -5   1   24.60    1.59   1
  -6  -5   2    8.58    1.52   1
  -6  -5   3  135.02    4.65   1
  -6  -5   4  382.98    7.44   1
  -6  -5   5    5.52    1.60   1
  -6  -5   6   11.22    2.01   1
  -6  -5   7    3.31    2.29   1
  -6  -5   8   -1.59    2.49   1
  -6  -5   9    9.80    8.83   1
  -6  -4 -10    1.59    4.18   1
  -6  -4  -9    4.41    3.32   1
  -6  -4  -8   13.18    3.19   1
  -6  -4  -7    1.99    1.89   1
  -6  -4  -6   25.81    3.56   1
  -6  -4  -5    1.00    1.50   1
  -6  -4  -4   14.67    1.76   1
  -6  -4  -3    0.59    0.89   1
  -6  -4  -2    3.50    1.01   1
  -6  -4  -1   71.74    2.37   1
  -6  -4   0   60.68    2.03   1
  -6  -4   1   53.44    1.61   1
  -6  -4   2   51.98    3.75   1
  -6  -4   3   37.70    2.58   1
  -6  -4   4  139.48    5.20   1
  -6  -4   5    0.40    0.79   1
  -6  -4   6   16.97    1.40   1
  -6  -4   7    6.30    1.61   1
  -6  -4   8    4.80    2.10   1
  -6  -4   9    3.39    4.38   1
  -6  -3  -8    2.40    2.39   1
  -6  -3  -7   13.76    2.30   1
  -6  -3  -6   13.69    2.00   1
  -6  -3  -5   61.15    3.13   1
  -6  -3  -4  117.72    4.56   1
  -6  -3  -3   23.62    1.65   1
  -6  -3  -2    7.62    0.99   1
  -6  -3  -1   93.90    3.68   1
  -6  -3   0    6.00    1.18   1
  -6  -3   1  187.69    8.22   1
  -6  -3   2  269.94    8.54   1
  -6  -3   3   34.46    2.35   1
  -6  -3   4   31.81    2.37   1
  -6  -3   5   -0.30    1.80   1
  -6  -3   6   16.48    1.30   1
  -6  -3   7    1.69    1.51   1
  -6  -3   8   -0.10    2.12   1
  -6  -3  10    3.50    5.98   1
  -6  -2 -11   65.45    7.28   1
  -6  -2 -10   18.23    5.04   1
  -6  -2  -9   20.98    3.66   1
  -6  -2  -8   -2.10    2.29   1
  -6  -2  -7   46.65    3.14   1
  -6  -2  -6    1.59    2.80   1
  -6  -2  -5   41.34    2.57   1
  -6  -2  -4   85.19    3.32   1
  -6  -2  -3  163.33    5.37   1
  -6  -2  -2    9.61    0.99   1
  -6  -2  -1 1860.20   36.23   1
  -6  -2   0  695.90   13.72   1
  -6  -2   1   98.01    3.76   1
  -6  -2   2   37.95    2.34   1
  -6  -2   3   58.98    2.61   1
  -6  -2   4   -0.79    1.69   1
  -6  -2   5    2.19    1.60   1
  -6  -2   6   23.43    1.94   1
  -6  -2   7   11.49    2.51   1
  -6  -2   8    0.90    1.99   1
  -6  -2   9   23.52    5.24   1
  -6  -1 -10    0.10    3.44   1
  -6  -1  -9   31.58    4.27   1
  -6  -1  -8    3.61    1.90   1
  -6  -1  -7  184.14    7.87   1
  -6  -1  -6    0.90    1.50   1
  -6  -1  -5   15.76    1.83   1
  -6  -1  -4   37.95    2.34   1
  -6  -1  -3   29.16    1.84   1
  -6  -1  -2   27.46    1.78   1
  -6  -1  -1  414.12    9.36   1
  -6  -1   0  256.00    5.44   1
  -6  -1   1  273.24    8.27   1
  -6  -1   2   77.79    4.06   1
  -6  -1   3 1058.85   22.13   1
  -6  -1   4   48.16    2.64   1
  -6  -1   5   28.20    1.49   1
  -6  -1   6    5.29    1.29   1
  -6  -1   7    0.20    1.61   1
  -6  -1   8    3.50    2.09   1
  -6  -1   9   77.62    7.05   1
  -6  -1  10   15.76    6.43   1
  -6   0 -11    1.00    5.00   1
  -6   0 -10    5.20    3.51   1
  -6   0  -9    2.31    2.92   1
  -6   0  -8    8.41    2.09   1
  -6   0  -7   -1.59    1.69   1
  -6   0  -6    4.20    2.01   1
  -6   0  -5    1.59    1.49   1
  -6   0  -4    1.49    2.20   1
  -6   0  -3   59.14    2.15   1
  -6   0  -2   86.12    2.78   1
  -6   0  -1  146.17    4.35   1
  -6   0   0  190.99    4.98   1
  -6   0   1   86.86    2.24   1
  -6   0   2   11.29    0.81   1
  -6   0   3  111.30    2.74   1
  -6   0   4    2.99    0.80   1
  -6   0   5    1.49    1.00   1
  -6   0   6    4.08    1.41   1
  -6   0   7   -0.90    1.60   1
  -6   0   8    3.20    2.11   1
  -6   0   9    2.69    5.28   1
  -6   0  10   30.03   11.62   1
  -6   1 -11    6.30    4.32   1
  -6   1 -10   -0.40    3.78   1
  -6   1  -9   -0.40    1.10   1
  -6   1  -8    6.81    1.20   1
  -6   1  -7    9.67    1.18   1
  -6   1  -6   81.00    2.88   1
  -6   1  -5  253.13    6.68   1
  -6   1  -4   16.97    1.32   1
  -6   1  -3  136.19    5.13   1
  -6   1  -2   85.01    3.87   1
  -6   1  -1   82.26    3.63   1
  -6   1   0   65.93    2.44   1
  -6   1   1   77.09    2.46   1
  -6   1   2   83.36    2.56   1
  -6   1   3  207.94    5.19   1
  -6   1   4    5.62    1.42   1
  -6   1   5   99.20    3.39   1
  -6   1   6    5.52    1.50   1
  -6   1   7   16.97    2.06   1
  -6   1   8   -0.40    2.19   1
  -6   1   9   -1.69    2.89   1
  -6   2 -11   29.05    5.39   1
  -6   2  -9    1.39    3.09   1
  -6   2  -8   34.46    3.52   1
  -6   2  -7   13.18    4.50   1
  -6   2  -6   28.73    1.50   1
  -6   2  -5  208.51    7.80   1
  -6   2  -4    0.71    1.01   1
  -6   2  -3   33.52    1.74   1
  -6   2  -2 1066.02   30.04   1
  -6   2  -1 1815.61   34.94   1
  -6   2   0    1.99    1.30   1
  -6   2   1  161.04    5.08   1
  -6   2   2  190.16    5.79   1
  -6   2   3   58.22    2.75   1
  -6   2   4   20.88    1.83   1
  -6   2   5   94.67    3.89   1
  -6   2   6    1.99    1.49   1
  -6   2   7    8.41    2.32   1
  -6   2   8   66.26    4.88   1
  -6   2   9  208.51    9.82   1
  -6   3  -9   12.82    4.51   1
  -6   3  -8    4.80    2.50   1
  -6   3  -7   14.06    2.78   1
  -6   3  -6   24.90    2.69   1
  -6   3  -5   41.73    3.23   1
  -6   3  -4   33.76    2.79   1
  -6   3  -3   55.20    3.27   1
  -6   3  -2   58.68    2.76   1
  -6   3  -1  179.56    6.43   1
  -6   3   0   56.70    2.86   1
  -6   3   1   78.15    3.71   1
  -6   3   2  433.06   15.40   1
  -6   3   3  157.25    6.52   1
  -6   3   4   18.92    1.83   1
  -6   3   5    2.89    1.39   1
  -6   3   6    2.99    2.60   1
  -6   3   7    3.80    2.50   1
  -6   3   8    3.50    3.10   1
  -6   3   9   24.80    4.58   1
  -6   4  -9   14.59    3.97   1
  -6   4  -8   17.72    4.46   1
  -6   4  -7    0.40    2.19   1
  -6   4  -6    3.10    2.18   1
  -6   4  -5   14.29    2.57   1
  -6   4  -4   89.68    4.92   1
  -6   4  -3   42.64    3.27   1
  -6   4  -2   92.35    3.46   1
  -6   4  -1   33.87    2.33   1
  -6   4   0   82.26    4.90   1
  -6   4   1   31.36    2.91   1
  -6   4   2    0.79    1.80   1
  -6   4   3   42.90    3.28   1
  -6   4   4   18.66    2.51   1
  -6   4   5    3.20    2.18   1
  -6   4   6    4.49    2.80   1
  -6   4   7   48.44    4.45   1
  -6   4   8    9.80    3.69   1
  -6   4   9    6.30    5.42   1
  -6   5 -10    0.59    4.47   1
  -6   5  -9    4.80    4.60   1
  -6   5  -8    0.50    3.62   1
  -6   5  -7    4.49    3.48   1
  -6   5  -6  155.75    7.74   1
  -6   5  -5   23.14    3.08   1
  -6   5  -4   60.84    3.12   1
  -6   5  -3   21.62    2.88   1
  -6   5  -2  316.48   14.59   1
  -6   5  -1   12.89    2.87   1
  -6   5   0   18.84    2.60   1
  -6   5   1    2.19    2.10   1
  -6   5   2   11.70    2.39   1
  -6   5   3    2.19    2.19   1
  -6   5   4  277.56    8.33   1
  -6   5   5  179.83    8.58   1
  -6   5   6   12.53    3.40   1
  -6   5   7    3.31    3.71   1
  -6   5   8   29.81    5.68   1
  -6   6  -9   -1.80    4.58   1
  -6   6  -8    8.01    4.30   1
  -6   6  -7   -1.99    3.50   1
  -6   6  -6   10.11    3.18   1
  -6   6  -5    3.88    2.68   1
  -6   6  -4   25.70    3.65   1
  -6   6  -3   46.24    3.67   1
  -6   6  -2  548.50   20.61   1
  -6   6  -1  116.64    6.26   1
  -6   6   0   19.89    3.12   1
  -6   6   1    7.51    2.30   1
  -6   6   2   46.65    3.41   1
  -6   6   3   -0.40    1.99   1
  -6   6   4   64.64    4.82   1
  -6   6   5   41.34    4.24   1
  -6   6   6   14.36    3.87   1
  -6   6   7    6.10    5.58   1
  -6   6   8  254.08   17.85   1
  -6   7  -8   -0.30    4.62   1
  -6   7  -7    2.19    4.38   1
  -6   7  -6    8.01    4.41   1
  -6   7  -5    2.40    3.41   1
  -6   7  -4   19.18    3.59   1
  -6   7  -3   22.94    3.26   1
  -6   7  -2    1.90    3.39   1
  -6   7  -1    0.20    4.02   1
  -6   7   0    8.82    2.61   1
  -6   7   1    6.10    2.91   1
  -6   7   2   20.88    3.02   1
  -6   7   3    5.38    2.41   1
  -6   7   4   33.06    4.37   1
  -6   7   5   -1.90    3.81   1
  -6   7   6    9.00    5.58   1
  -6   7   7    1.80    5.90   1
  -6   7   8   14.29    6.58   1
  -6   8  -7   10.30    6.42   1
  -6   8  -6    5.52    4.79   1
  -6   8  -5    3.20    5.41   1
  -6   8  -4   -0.59    3.57   1
  -6   8  -3    7.40    3.81   1
  -6   8  -2    9.49    3.70   1
  -6   8  -1   -0.30    3.21   1
  -6   8   0    2.40    3.01   1
  -6   8   1    1.90    3.09   1
  -6   8   2    4.58    2.78   1
  -6   8   3   -1.39    3.19   1
  -6   8   4    1.21    5.41   1
  -6   8   5    6.10    4.89   1
  -6   8   6   25.81    7.82   1
  -6   8   7   14.21    7.69   1
  -6   9  -6   12.11    6.12   1
  -6   9  -5    2.19    5.39   1
  -6   9  -4   -0.71    4.52   1
  -6   9  -3   33.99    5.36   1
  -6   9  -2   25.20    5.22   1
  -6   9  -1    4.71    4.82   1
  -6   9   0   -9.30    4.82   1
  -6   9   1   -1.69    3.80   1
  -6   9   2   -1.39    5.69   1
  -6   9   3   77.62    9.51   1
  -6   9   4   97.22   11.44   1
  -6   9   5   -0.10    6.58   1
  -6   9   6   22.09    8.74   1
  -6  10  -4    1.59    5.87   1
  -6  10  -3   19.10    7.69   1
  -6  10  -2    8.53    6.13   1
  -6  10  -1    5.02    6.09   1
  -6  10   0    1.49    5.37   1
  -6  10   1    7.90    7.92   1
  -6  10   2    5.02    5.91   1
  -6  10   3    4.88    8.57   1
  -6  10   4    0.59    6.36   1
  -6  10   5    3.80    9.32   1
  -6  11  -1    8.18    9.21   1
  -6  11   0   -1.39    6.77   1
  -6  11   1    8.88    9.60   1
  -6  11   2   13.76    8.09   1
  -5 -11  -4    8.29    9.79   1
  -5 -11  -3    5.29    9.98   1
  -5 -11  -2   -1.59    8.67   1
  -5 -11  -1   12.89    8.47   1
  -5 -11   0    1.49    8.95   1
  -5 -11   1    6.71    9.79   1
  -5 -11   2   10.63    9.71   1
  -5 -11   3   17.64   11.34   1
  -5 -10  -6   -5.81    5.49   1
  -5 -10  -5   -0.40    6.38   1
  -5 -10  -4   -2.31    4.71   1
  -5 -10  -3    2.79    5.08   1
  -5 -10  -2    8.53    4.73   1
  -5 -10  -1    7.90    4.72   1
  -5 -10   0    3.50    4.30   1
  -5 -10   1   -2.50    3.10   1
  -5 -10   2   -5.20    3.69   1
  -5 -10   3    2.40    7.41   1
  -5 -10   4   11.49    9.42   1
  -5 -10   5   18.23   11.19   1
  -5  -9  -7    0.00    1.00   1
  -5  -9  -6   93.32    7.34   1
  -5  -9  -5   33.99    5.25   1
  -5  -9  -4   10.50    4.47   1
  -5  -9  -3   -2.50    2.69   1
  -5  -9  -2   33.87    3.61   1
  -5  -9  -1    1.21    2.42   1
  -5  -9   0    5.90    2.28   1
  -5  -9   1    1.59    2.29   1
  -5  -9   2   30.25    2.86   1
  -5  -9   3    1.39    3.40   1
  -5  -9   4    8.01    3.11   1
  -5  -9   5   14.06    8.10   1
  -5  -9   6    6.71    3.88   1
  -5  -8  -9   -0.90    4.10   1
  -5  -8  -8    4.28    3.97   1
  -5  -8  -7   -0.71    3.71   1
  -5  -8  -6    7.02    3.13   1
  -5  -8  -5   -2.59    2.70   1
  -5  -8  -4   59.91    4.02   1
  -5  -8  -3   20.52    2.90   1
  -5  -8  -2  603.68   16.22   1
  -5  -8  -1   84.09    4.22   1
  -5  -8   0   49.98    3.54   1
  -5  -8   1    1.99    1.89   1
  -5  -8   2    6.10    1.88   1
  -5  -8   3   -1.10    1.60   1
  -5  -8   4    0.50    1.90   1
  -5  -8   5    0.30    2.31   1
  -5  -8   6    3.20    2.18   1
  -5  -8   7    0.20    3.42   1
  -5  -8   8    8.70   11.21   1
  -5  -7  -9   13.10    4.92   1
  -5  -7  -8   19.10    4.37   1
  -5  -7  -7    5.20    2.92   1
  -5  -7  -6   19.18    1.49   1
  -5  -7  -5    9.30    2.01   1
  -5  -7  -4   45.97    3.66   1
  -5  -7  -3    0.59    1.99   1
  -5  -7  -2  189.89    6.61   1
  -5  -7  -1    4.71    1.82   1
  -5  -7   0    9.61    1.80   1
  -5  -7   1   20.52    1.99   1
  -5  -7   2  153.26    5.20   1
  -5  -7   3    2.89    2.48   1
  -5  -7   4   14.52    2.90   1
  -5  -7   5    2.19    2.78   1
  -5  -7   6    8.58    1.88   1
  -5  -7   7   -1.00    2.10   1
  -5  -7   8   -0.20    2.41   1
  -5  -6 -10    0.20    4.63   1
  -5  -6  -9    5.11    4.02   1
  -5  -6  -8   14.90    3.47   1
  -5  -6  -7    2.99    2.11   1
  -5  -6  -6   16.97    2.31   1
  -5  -6  -5    1.90    1.49   1
  -5  -6  -4   85.01    3.32   1
  -5  -6  -3  104.86    4.92   1
  -5  -6  -2   53.73    2.93   1
  -5  -6  -1   12.11    1.67   1
  -5  -6   0    3.10    1.30   1
  -5  -6   1   -0.40    1.20   1
  -5  -6   2    1.59    1.29   1
  -5  -6   3    6.40    2.18   1
  -5  -6   4    4.58    1.41   1
  -5  -6   5   -0.59    1.19   1
  -5  -6   6    2.69    2.00   1
  -5  -6   7    2.89    1.60   1
  -5  -6   8    3.69    2.11   1
  -5  -6   9    2.79    3.61   1
  -5  -5 -11    7.18    5.47   1
  -5  -5  -9   -0.79    2.88   1
  -5  -5  -8    5.62    2.89   1
  -5  -5  -7   96.04    4.70   1
  -5  -5  -6  310.82   10.23   1
  -5  -5  -5   -0.20    1.51   1
  -5  -5  -4   72.59    3.41   1
  -5  -5  -3  149.82    4.41   1
  -5  -5  -2  126.34    4.72   1
  -5  -5  -1   45.83    2.57   1
  -5  -5   0   49.56    2.25   1
  -5  -5   1   14.82    1.31   1
  -5  -5   2    5.11    1.08   1
  -5  -5   3  117.51    3.47   1
  -5  -5   4  346.70   10.43   1
  -5  -5   5    0.79    1.00   1
  -5  -5   6   42.90    1.97   1
  -5  -5   7    5.81    1.40   1
  -5  -5   8   21.90    3.28   1
  -5  -5   9   13.40    6.22   1
  -5  -4 -11    8.29    4.72   1
  -5  -4 -10    0.79    3.28   1
  -5  -4  -9   11.97    3.81   1
  -5  -4  -8    0.40    2.09   1
  -5  -4  -7    9.80    3.51   1
  -5  -4  -6   14.98    2.01   1
  -5  -4  -5   45.29    4.04   1
  -5  -4  -4   14.90    2.62   1
  -5  -4  -3 1108.22   21.97   1
  -5  -4  -2 1111.56   27.34   1
  -5  -4  -1   85.01    3.13   1
  -5  -4   0   46.65    2.05   1
  -5  -4   1  130.19    3.42   1
  -5  -4   2   83.17    3.10   1
  -5  -4   3   19.36    1.58   1
  -5  -4   4  118.59    3.05   1
  -5  -4   5   15.21    1.09   1
  -5  -4   6   32.60    1.94   1
  -5  -4   7  162.56    5.87   1
  -5  -4   8  174.24    8.71   1
  -5  -4   9   -4.41    4.49   1
  -5  -3 -11    0.50    4.61   1
  -5  -3 -10    3.39    3.28   1
  -5  -3  -9    2.40    2.51   1
  -5  -3  -8   -1.80    2.01   1
  -5  -3  -7   17.98    2.29   1
  -5  -3  -6   23.23    2.02   1
  -5  -3  -5   69.06    3.16   1
  -5  -3  -4  117.51    4.77   1
  -5  -3  -3    8.12    0.80   1
  -5  -3  -2   42.90    1.57   1
  -5  -3  -1   53.88    1.76   1
  -5  -3   0   24.01    2.06   1
  -5  -3   1  287.30    6.10   1
  -5  -3   2   35.05    2.72   1
  -5  -3   3  143.04    4.31   1
  -5  -3   4   81.90    1.99   1
  -5  -3   5   25.50    1.31   1
  -5  -3   6   18.23    1.37   1
  -5  -3   7    1.90    1.60   1
  -5  -3   8    4.88    1.99   1
  -5  -3   9    7.40    4.41   1
  -5  -3  10   26.52    8.24   1
  -5  -2 -11    4.58    4.79   1
  -5  -2 -10    0.30    3.62   1
  -5  -2  -9   44.22    3.72   1
  -5  -2  -8    1.99    2.00   1
  -5  -2  -7  173.71    7.38   1
  -5  -2  -6    6.50    1.68   1
  -5  -2  -5  112.15    6.57   1
  -5  -2  -4   45.83    2.44   1
  -5  -2  -3   35.40    1.90   1
  -5  -2  -2  179.83    4.56   1
  -5  -2  -1    4.00    0.88   1
  -5  -2   0   12.39    0.99   1
  -5  -2   1   22.00    2.44   1
  -5  -2   2    2.99    1.21   1
  -5  -2   3  210.54    6.38   1
  -5  -2   4   52.71    1.74   1
  -5  -2   5   43.16    1.84   1
  -5  -2   6   49.28    1.97   1
  -5  -2   7   35.64    2.27   1
  -5  -2   8    9.42    1.78   1
  -5  -2   9    1.90    2.21   1
  -5  -2  10   -3.31    5.50   1
  -5  -1 -11    2.69    3.80   1
  -5  -1 -10   -0.50    3.01   1
  -5  -1  -9    7.51    2.58   1
  -5  -1  -8   71.06    4.05   1
  -5  -1  -7  750.76   23.02   1
  -5  -1  -6   13.40    1.98   1
  -5  -1  -5  249.64    8.22   1
  -5  -1  -4  376.75   11.65   1
  -5  -1  -3 1155.32   29.91   1
  -5  -1  -2   10.50    1.10   1
  -5  -1  -1    2.69    0.79   1
  -5  -1   0   14.82    1.00   1
  -5  -1   1  304.50    9.42   1
  -5  -1   2   11.63    1.43   1
  -5  -1   3 1797.76   35.62   1
  -5  -1   4  400.00    7.20   1
  -5  -1   5  113.85    2.99   1
  -5  -1   6   20.07    1.70   1
  -5  -1   7  160.28    5.32   1
  -5  -1   8   26.42    2.57   1
  -5  -1   9    1.69    2.50   1
  -5  -1  10   -2.89    5.41   1
  -5   0 -10   -2.59    2.80   1
  -5   0  -9   -0.59    2.19   1
  -5   0  -8   -0.30    1.71   1
  -5   0  -7   36.12    2.88   1
  -5   0  -6    0.20    1.61   1
  -5   0  -5  156.00    6.00   1
  -5   0  -4  337.82   10.29   1
  -5   0  -3 1637.01   42.89   1
  -5   0  -2   20.98    1.47   1
  -5   0  -1  277.56    9.33   1
  -5   0   0   15.52    0.79   1
  -5   0   1   14.21    0.68   1
  -5   0   2   42.64    1.31   1
  -5   0   3   44.36    1.33   1
  -5   0   4    1.90    0.80   1
  -5   0   5   84.46    2.76   1
  -5   0   6  114.28    3.42   1
  -5   0   7  433.89   10.41   1
  -5   0   8   17.14    2.57   1
  -5   0   9    4.41    2.39   1
  -5   0  10  -10.37    5.09   1
  -5   1 -11   -1.30    3.31   1
  -5   1 -10    7.02    3.29   1
  -5   1  -9    1.99    0.79   1
  -5   1  -8    8.01    1.02   1
  -5   1  -7   35.88    1.68   1
  -5   1  -6   26.73    1.45   1
  -5   1  -5  117.29    3.68   1
  -5   1  -4   46.10    1.90   1
  -5   1  -3   12.53    0.99   1
  -5   1  -2    8.18    1.20   1
  -5   1  -1    5.52    0.80   1
  -5   1   0   32.26    1.36   1
  -5   1   1   42.12    1.56   1
  -5   1   2  400.40    9.20   1
  -5   1   3   68.72    2.32   1
  -5   1   4  112.57    3.18   1
  -5   1   5  289.68    8.51   1
  -5   1   6    3.31    1.31   1
  -5   1   7    0.71    1.71   1
  -5   1   8    7.51    2.19   1
  -5   1   9    4.88    2.61   1
  -5   1  10    1.00    3.10   1
  -5   2 -11   -3.80    3.78   1
  -5   2 -10   13.18    3.63   1
  -5   2  -9   -2.89    2.31   1
  -5   2  -8  165.38    7.20   1
  -5   2  -7   44.36    4.93   1
  -5   2  -6   21.90    2.90   1
  -5   2  -5   23.81    1.27   1
  -5   2  -4   20.88    1.37   1
  -5   2  -3   26.42    1.34   1
  -5   2  -2   88.55    4.14   1
  -5   2  -1  249.64    9.80   1
  -5   2   0  114.70    4.50   1
  -5   2   1  207.94    6.34   1
  -5   2   2  446.05   11.40   1
  -5   2   3  337.82   10.29   1
  -5   2   4   64.96    2.74   1
  -5   2   5  113.00    4.25   1
  -5   2   6    3.50    2.09   1
  -5   2   7    2.40    2.11   1
  -5   2   8    6.71    2.90   1
  -5   2   9    9.67    3.11   1
  -5   2  10   -6.81    4.12   1
  -5   3 -11    9.00    4.62   1
  -5   3 -10   -3.39    4.49   1
  -5   3  -9   -0.40    2.89   1
  -5   3  -8  205.92    8.61   1
  -5   3  -7  193.77    7.52   1
  -5   3  -6   30.36    2.64   1
  -5   3  -5    1.80    1.50   1
  -5   3  -4  487.53   15.46   1
  -5   3  -3  151.29    5.90   1
  -5   3  -2    9.92    1.70   1
  -5   3  -1    7.40    1.41   1
  -5   3   0    0.90    1.20   1
  -5   3   1   13.69    2.00   1
  -5   3   2 1489.19   41.68   1
  -5   3   3 1636.20   61.48   1
  -5   3   4   31.14    1.90   1
  -5   3   5   -1.21    1.50   1
  -5   3   6  416.57   26.12   1
  -5   3   7  160.02    7.84   1
  -5   3   8   -2.10    2.81   1
  -5   3   9   -1.99    3.58   1
  -5   4 -11    2.40    4.09   1
  -5   4 -10   -1.10    3.61   1
  -5   4  -9    0.50    3.11   1
  -5   4  -8    1.80    2.49   1
  -5   4  -7    0.30    2.01   1
  -5   4  -6   55.20    3.71   1
  -5   4  -5   23.43    2.52   1
  -5   4  -4   75.86    4.18   1
  -5   4  -3   10.18    1.91   1
  -5   4  -2  162.82    6.12   1
  -5   4  -1   38.32    2.85   1
  -5   4   0    5.62    1.71   1
  -5   4   1  118.81    8.94   1
  -5   4   2    4.80    3.11   1
  -5   4   3   19.71    2.31   1
  -5   4   4  100.60    4.81   1
  -5   4   5    0.30    1.90   1
  -5   4   6  415.34   16.71   1
  -5   4   7   31.70    3.60   1
  -5   4   8   45.83    4.60   1
  -5   4   9    0.20    4.93   1
  -5   4  10    4.08    5.98   1
  -5   5 -10    5.90    4.18   1
  -5   5  -9   10.18    7.98   1
  -5   5  -8   -1.10    3.61   1
  -5   5  -7    3.80    2.42   1
  -5   5  -6    7.18    2.57   1
  -5   5  -5   55.65    3.73   1
  -5   5  -4   47.47    2.20   1
  -5   5  -3   14.36    2.12   1
  -5   5  -2   32.95    2.76   1
  -5   5  -1    1.10    1.99   1
  -5   5   0    1.80    1.69   1
  -5   5   1   35.64    3.22   1
  -5   5   2   39.56    2.39   1
  -5   5   3   73.62    3.26   1
  -5   5   4   22.37    2.93   1
  -5   5   5   20.61    2.81   1
  -5   5   6   18.49    3.27   1
  -5   5   7    5.52    3.52   1
  -5   5   8    0.59    3.88   1
  -5   5   9    2.31    4.62   1
  -5   5  10   -0.71    6.62   1
  -5   6 -10   -1.59    4.79   1
  -5   6  -9   16.32    5.58   1
  -5   6  -8   60.37    6.06   1
  -5   6  -7    3.10    3.31   1
  -5   6  -6    3.39    1.91   1
  -5   6  -5    5.38    2.27   1
  -5   6  -4   -0.20    2.21   1
  -5   6  -3   35.76    3.35   1
  -5   6  -2  256.32    8.01   1
  -5   6  -1    9.00    1.98   1
  -5   6   0    0.79    1.69   1
  -5   6   1  184.42    7.06   1
  -5   6   2  694.32   20.03   1
  -5   6   3   12.82    2.00   1
  -5   6   4   49.56    3.94   1
  -5   6   5    1.21    2.82   1
  -5   6   6    5.29    3.17   1
  -5   6   7   -1.80    3.89   1
  -5   6   8   18.92    6.44   1
  -5   6   9    8.58    6.68   1
  -5   7  -9    1.30    5.70   1
  -5   7  -8   13.62    4.58   1
  -5   7  -7    1.80    3.81   1
  -5   7  -6    8.29    3.23   1
  -5   7  -5   36.97    4.50   1
  -5   7  -4   45.97    3.93   1
  -5   7  -3    0.40    2.19   1
  -5   7  -2    0.50    2.22   1
  -5   7  -1   -1.21    2.42   1
  -5   7   0   33.76    3.14   1
  -5   7   1  123.88    7.35   1
  -5   7   2  530.38   17.50   1
  -5   7   3    1.10    1.81   1
  -5   7   4   65.12    5.16   1
  -5   7   5   92.54    5.96   1
  -5   7   6  110.88    6.95   1
  -5   7   7    4.28    4.51   1
  -5   7   8    0.10    5.97   1
  -5   7   9    6.40    8.10   1
  -5   8  -8    4.08    4.89   1
  -5   8  -7    3.39    4.60   1
  -5   8  -6   10.11    4.01   1
  -5   8  -5    1.30    3.49   1
  -5   8  -4   -0.79    3.08   1
  -5   8  -3   -2.79    3.01   1
  -5   8  -2   11.97    2.91   1
  -5   8  -1    3.10    2.60   1
  -5   8   0   10.89    2.97   1
  -5   8   1   15.68    2.69   1
  -5   8   2    2.69    2.30   1
  -5   8   3    9.30    2.62   1
  -5   8   4   11.02    3.52   1
  -5   8   5   18.92    5.92   1
  -5   8   6    8.53    5.78   1
  -5   8   7   22.56    7.79   1
  -5   8   8    6.30    7.68   1
  -5   9  -7    1.49    6.56   1
  -5   9  -6   -0.30    4.52   1
  -5   9  -5   14.67    5.97   1
  -5   9  -4   -3.50    4.11   1
  -5   9  -3   32.72    5.61   1
  -5   9  -2   -0.10    3.85   1
  -5   9  -1   16.48    3.82   1
  -5   9   0    8.01    3.51   1
  -5   9   1   -0.20    3.01   1
  -5   9   2    0.90    3.61   1
  -5   9   3    5.62    3.60   1
  -5   9   4    0.20    5.53   1
  -5   9   5    5.29    6.30   1
  -5   9   6   11.83    6.33   1
  -5   9   7    4.28    7.87   1
  -5  10  -5    2.50    5.40   1
  -5  10  -4    5.71    5.11   1
  -5  10  -3   19.98    5.45   1
  -5  10  -2   12.89    5.17   1
  -5  10  -1   17.72    5.81   1
  -5  10   0    0.10    5.06   1
  -5  10   1  118.16    8.70   1
  -5  10   2   17.64    6.64   1
  -5  10   3   -4.08    6.59   1
  -5  10   4    6.20    5.48   1
  -5  10   5   -1.00    8.60   1
  -5  10   6    2.19    7.07   1
  -5  11  -3   -2.50    5.91   1
  -5  11  -2    2.19    5.98   1
  -5  11  -1    4.08    5.90   1
  -5  11   0   -1.59    6.17   1
  -5  11   1   63.68   10.69   1
  -5  11   2    6.30    7.38   1
  -5  11   3  -11.42    6.83   1
  -5  11   4    7.62    7.62   1
  -4 -11  -5    0.59    5.76   1
  -4 -11  -4   28.73    6.00   1
  -4 -11  -3   15.21    5.23   1
  -4 -11  -2   -0.40    5.18   1
  -4 -11  -1    1.59    5.19   1
  -4 -11   0   11.42    4.73   1
  -4 -11   1   -6.71    6.53   1
  -4 -11   2   43.16    8.80   1
  -4 -11   3   49.84    9.46   1
  -4 -11   4   -0.10   10.73   1
  -4 -10  -7    5.02    5.11   1
  -4 -10  -6   11.90    4.83   1
  -4 -10  -5    4.49    4.58   1
  -4 -10  -4  118.16    8.04   1
  -4 -10  -3   20.98    5.22   1
  -4 -10  -2    9.18    4.12   1
  -4 -10  -1    8.41    4.12   1
  -4 -10   0   -2.19    2.90   1
  -4 -10   1    1.39    2.60   1
  -4 -10   2   -3.50    2.81   1
  -4 -10   3    7.29    4.10   1
  -4 -10   4    9.00    7.08   1
  -4 -10   5    3.31    7.50   1
  -4  -9  -8    1.90    4.11   1
  -4  -9  -7    5.20    5.02   1
  -4  -9  -6    3.10    4.08   1
  -4  -9  -5    1.00    3.40   1
  -4  -9  -4    8.70    4.13   1
  -4  -9  -3    1.21    2.31   1
  -4  -9  -2    6.81    2.51   1
  -4  -9  -1    7.51    2.52   1
  -4  -9   0    3.69    2.30   1
  -4  -9   1    4.00    2.28   1
  -4  -9   2   11.90    2.41   1
  -4  -9   3   16.08    3.69   1
  -4  -9   4    8.82    3.80   1
  -4  -9   5    2.40    3.10   1
  -4  -9   6   -9.92    7.43   1
  -4  -9   7   -0.10   10.52   1
  -4  -8  -9    7.90    4.27   1
  -4  -8  -8  110.04    7.13   1
  -4  -8  -7   -1.30    2.39   1
  -4  -8  -6   26.63    4.23   1
  -4  -8  -5    3.88    2.48   1
  -4  -8  -4    8.29    2.42   1
  -4  -8  -3    1.80    2.09   1
  -4  -8  -2   61.62    3.92   1
  -4  -8  -1    7.18    1.98   1
  -4  -8   0   24.90    2.59   1
  -4  -8   1   26.52    2.37   1
  -4  -8   2  168.48    5.71   1
  -4  -8   3    7.08    1.92   1
  -4  -8   4    6.92    2.00   1
  -4  -8   5    8.58    2.29   1
  -4  -8   6    2.19    1.89   1
  -4  -8   7   -1.30    2.19   1
  -4  -7  -9   30.69    5.21   1
  -4  -7  -8  181.44   11.31   1
  -4  -7  -7    1.39    1.49   1
  -4  -7  -6   24.21    2.16   1
  -4  -7  -5   90.82    5.34   1
  -4  -7  -4  137.83    5.17   1
  -4  -7  -3    2.79    1.80   1
  -4  -7  -2    4.80    1.80   1
  -4  -7  -1   40.20    2.66   1
  -4  -7   0   54.17    2.94   1
  -4  -7   1  192.10    6.10   1
  -4  -7   2  688.54   17.84   1
  -4  -7   3   32.38    2.50   1
  -4  -7   4   21.34    2.13   1
  -4  -7   5    5.81    2.99   1
  -4  -7   6   45.16    2.55   1
  -4  -7   7    8.58    1.88   1
  -4  -7   8   -0.20    2.02   1
  -4  -6 -10    8.29    4.49   1
  -4  -6  -9    3.61    3.31   1
  -4  -6  -8   -2.31    3.10   1
  -4  -6  -7    5.90    3.01   1
  -4  -6  -6    4.00    1.28   1
  -4  -6  -5   91.58    4.78   1
  -4  -6  -4  215.80    8.23   1
  -4  -6  -3    5.38    1.81   1
  -4  -6  -2   59.29    2.93   1
  -4  -6  -1    5.02    1.52   1
  -4  -6   0    8.82    1.49   1
  -4  -6   1   22.66    1.81   1
  -4  -6   2    1.21    1.21   1
  -4  -6   3    1.21    1.21   1
  -4  -6   4   17.64    2.27   1
  -4  -6   5   56.85    2.87   1
  -4  -6   6   96.04    3.33   1
  -4  -6   7   -0.90    1.50   1
  -4  -6   8    2.99    2.39   1
  -4  -5 -10    3.31    3.82   1
  -4  -5  -9   -3.31    2.80   1
  -4  -5  -8    0.20    2.02   1
  -4  -5  -7   12.18    2.30   1
  -4  -5  -6    5.02    2.60   1
  -4  -5  -5   46.79    2.05   1
  -4  -5  -4   14.52    1.90   1
  -4  -5  -3   58.22    3.82   1
  -4  -5  -2  160.78    5.58   1
  -4  -5  -1    9.49    1.48   1
  -4  -5   0   96.63    3.15   1
  -4  -5   1   30.25    1.65   1
  -4  -5   2  105.47    3.29   1
  -4  -5   3   64.80    3.22   1
  -4  -5   4   13.69    2.07   1
  -4  -5   5   14.82    1.69   1
  -4  -5   6    1.69    1.09   1
  -4  -5   7    0.79    1.30   1
  -4  -5   8    2.31    1.61   1
  -4  -5   9    1.39    2.90   1
  -4  -4 -11    4.20    3.69   1
  -4  -4 -10    0.90    3.00   1
  -4  -4  -9  259.85   10.64   1
  -4  -4  -8   54.17    3.53   1
  -4  -4  -7   22.56    2.28   1
  -4  -4  -6   19.36    2.02   1
  -4  -4  -5    4.00    1.20   1
  -4  -4  -4    1.99    0.99   1
  -4  -4  -3  560.27   15.15   1
  -4  -4  -2  806.56   27.26   1
  -4  -4  -1  216.68    6.48   1
  -4  -4   0   18.23    1.54   1
  -4  -4   1 1888.77   37.38   1
  -4  -4   2  992.25   18.90   1
  -4  -4   3   49.84    2.54   1
  -4  -4   4   92.35    3.84   1
  -4  -4   5   -0.79    1.30   1
  -4  -4   6   32.60    1.71   1
  -4  -4   7   10.18    1.28   1
  -4  -4   8   26.83    3.42   1
  -4  -4   9   -1.90    3.01   1
  -4  -3 -12    3.80    5.19   1
  -4  -3 -11   -0.10    3.24   1
  -4  -3 -10    4.00    2.80   1
  -4  -3  -9  204.78    8.59   1
  -4  -3  -8   14.29    2.12   1
  -4  -3  -7  139.00    5.66   1
  -4  -3  -6    0.50    1.51   1
  -4  -3  -5  335.62   10.26   1
  -4  -3  -4   19.54    1.59   1
  -4  -3  -3   21.72    1.21   1
  -4  -3  -2   73.27    2.57   1
  -4  -3  -1  190.72    5.25   1
  -4  -3   0   55.35    2.53   1
  -4  -3   1 2136.29   41.60   1
  -4  -3   2  675.48   12.99   1
  -4  -3   3  144.00    4.32   1
  -4  -3   4   25.00    2.40   1
  -4  -3   5  398.80    7.19   1
  -4  -3   6    1.99    0.90   1
  -4  -3   7   18.06    1.36   1
  -4  -3   8    3.31    2.29   1
  -4  -3   9    1.90    2.40   1
  -4  -3  10    0.79    5.46   1
  -4  -2 -12    4.88    4.11   1
  -4  -2 -11   -0.90    3.21   1
  -4  -2  -9    9.99    2.72   1
  -4  -2  -8    3.50    1.80   1
  -4  -2  -7    7.02    1.59   1
  -4  -2  -6   -0.50    1.21   1
  -4  -2  -5   26.21    2.15   1
  -4  -2  -4   21.16    1.47   1
  -4  -2  -3  240.56    7.76   1
  -4  -2  -2  277.56    6.33   1
  -4  -2  -1  192.10    4.44   1
  -4  -2   0  246.49    5.34   1
  -4  -2   1  162.05    7.13   1
  -4  -2   2   53.00    2.77   1
  -4  -2   3  225.30    4.80   1
  -4  -2   4   19.10    0.96   1
  -4  -2   5  180.36    4.03   1
  -4  -2   6    1.21    0.90   1
  -4  -2   7   46.38    2.45   1
  -4  -2   8    7.90    2.08   1
  -4  -2   9    2.31    2.10   1
  -4  -2  10   -1.10    2.71   1
  -4  -1 -12    3.88    5.00   1
  -4  -1 -11    0.20    3.92   1
  -4  -1 -10    3.61    3.00   1
  -4  -1  -9   -2.10    3.31   1
  -4  -1  -8   -0.50    1.60   1
  -4  -1  -7   26.01    2.45   1
  -4  -1  -6   63.36    3.02   1
  -4  -1  -5   87.61    4.12   1
  -4  -1  -4  372.10   11.19   1
  -4  -1  -3  623.00   16.97   1
  -4  -1  -2   81.54    4.15   1
  -4  -1  -1  126.79    3.38   1
  -4  -1   0   52.42    1.74   1
  -4  -1   1   33.76    1.86   1
  -4  -1   2   12.39    1.20   1
  -4  -1   3   88.17    2.07   1
  -4  -1   4   79.21    2.14   1
  -4  -1   5  153.02    3.71   1
  -4  -1   6    2.31    1.22   1
  -4  -1   7   73.96    3.27   1
  -4  -1   8   -0.71    2.02   1
  -4  -1   9    3.50    2.28   1
  -4  -1  10   11.49    3.32   1
  -4   0 -12    6.00    3.92   1
  -4   0 -11    1.69    3.20   1
  -4   0 -10  127.69    6.55   1
  -4   0  -9  143.28    6.70   1
  -4   0  -8   -2.59    1.80   1
  -4   0  -7   -0.30    1.31   1
  -4   0  -6    5.81    1.49   1
  -4   0  -5    0.59    1.00   1
  -4   0  -4  418.20   11.86   1
  -4   0  -3 1008.06   29.21   1
  -4   0  -2   16.97    1.81   1
  -4   0  -1  143.28    4.31   1
  -4   0   0 1123.59   24.80   1
  -4   0   1  757.90   19.27   1
  -4   0   2    8.70    0.59   1
  -4   0   3   64.64    1.77   1
  -4   0   4   12.18    1.12   1
  -4   0   5    1.39    0.90   1
  -4   0   6   56.55    2.26   1
  -4   0   7  320.05   11.81   1
  -4   0   8    2.99    1.90   1
  -4   0   9    9.49    2.90   1
  -4   0  10   16.40    3.08   1
  -4   1 -12   -0.40    4.59   1
  -4   1 -11    4.49    3.39   1
  -4   1 -10    6.92    2.52   1
  -4   1  -9   16.97    2.64   1
  -4   1  -8    4.20    3.12   1
  -4   1  -7   16.00    2.00   1
  -4   1  -6   54.32    4.86   1
  -4   1  -5    8.58    1.41   1
  -4   1  -4  112.15    3.39   1
  -4   1  -3   81.18    2.70   1
  -4   1  -2  414.12   11.40   1
  -4   1  -1    8.18    0.69   1
  -4   1   0  452.41   10.21   1
  -4   1   1  583.71   12.08   1
  -4   1   2   54.46    1.77   1
  -4   1   3   66.75    2.45   1
  -4   1   4  602.70   11.78   1
  -4   1   5  290.70    7.16   1
  -4   1   6   27.46    1.99   1
  -4   1   7    2.19    1.69   1
  -4   1   8   10.18    3.13   1
  -4   1   9    3.50    2.51   1
  -4   1  10   39.44    3.64   1
  -4   1  11   35.64    5.25   1
  -4   2 -12   -7.29    4.32   1
  -4   2 -11    1.80    3.19   1
  -4   2 -10    9.99    4.68   1
  -4   2  -9   -3.69    2.00   1
  -4   2  -8    2.89    1.80   1
  -4   2  -7   20.88    2.56   1
  -4   2  -6   35.40    2.38   1
  -4   2  -5    6.30    1.41   1
  -4   2  -4    5.20    0.82   1
  -4   2  -3   72.42    2.21   1
  -4   2  -2  457.53   16.26   1
  -4   2  -1  342.99   12.59   1
  -4   2   0  193.21    6.39   1
  -4   2   1   32.72    1.60   1
  -4   2   2    4.71    1.00   1
  -4   2   3    9.67    1.31   1
  -4   2   4   36.97    1.58   1
  -4   2   5    1.69    1.30   1
  -4   2   6   -0.50    1.41   1
  -4   2   7    5.90    1.90   1
  -4   2   8    1.69    2.11   1
  -4   2   9    8.88    2.62   1
  -4   2  10   12.60    3.83   1
  -4   2  11   -2.40    4.80   1
  -4   3 -11   -1.39    3.80   1
  -4   3 -10   13.40    3.59   1
  -4   3  -9    8.01    2.32   1
  -4   3  -8   19.10    2.53   1
  -4   3  -7   -0.90    1.71   1
  -4   3  -6   53.58    5.27   1
  -4   3  -5   25.50    2.22   1
  -4   3  -4 1430.35   40.09   1
  -4   3  -3  387.70   12.60   1
  -4   3  -2  394.02   14.29   1
  -4   3  -1   33.76    1.98   1
  -4   3   0   44.76    2.14   1
  -4   3   1   61.15    3.44   1
  -4   3   2    1.69    1.30   1
  -4   3   3    1.30    1.30   1
  -4   3   4  181.17    6.19   1
  -4   3   5   24.40    2.37   1
  -4   3   6  420.25   13.94   1
  -4   3   7  209.38    9.84   1
  -4   3   8   15.92    3.11   1
  -4   3   9    8.58    3.57   1
  -4   3  10   -0.10    5.06   1
  -4   3  11   -3.31    5.02   1
  -4   4 -11    1.59    4.38   1
  -4   4 -10   54.61    6.06   1
  -4   4  -9    4.41    2.81   1
  -4   4  -8    0.20    2.02   1
  -4   4  -7   -0.30    2.31   1
  -4   4  -6    0.30    2.01   1
  -4   4  -5    9.49    3.33   1
  -4   4  -4  516.20   16.36   1
  -4   4  -3   87.24    4.11   1
  -4   4  -2  121.44    5.07   1
  -4   4  -1  506.70   18.91   1
  -4   4   0 3550.97   94.15   1
  -4   4   1  305.90   11.54   1
  -4   4   2  189.34    7.71   1
  -4   4   3   43.03    1.97   1
  -4   4   4    6.20    1.59   1
  -4   4   5   28.20    2.55   1
  -4   4   6  657.92   21.55   1
  -4   4   7  105.06    6.15   1
  -4   4   8   24.70    3.58   1
  -4   4   9    4.08    3.80   1
  -4   4  10  152.52   15.56   1
  -4   4  11    7.08    6.70   1
  -4   5 -11    6.10    5.19   1
  -4   5 -10   -1.80    3.11   1
  -4   5  -9    1.30    2.69   1
  -4   5  -8   31.36    2.80   1
  -4   5  -7    4.80    1.80   1
  -4   5  -6   -0.20    1.71   1
  -4   5  -5   30.03    2.41   1
  -4   5  -4   33.18    1.84   1
  -4   5  -3   39.06    2.88   1
  -4   5  -2  185.23    7.62   1
  -4   5  -1    9.92    2.20   1
  -4   5   0  624.00   24.98   1
  -4   5   1   47.06    2.74   1
  -4   5   2  209.96    7.53   1
  -4   5   3    4.49    1.31   1
  -4   5   4   14.59    2.29   1
  -4   5   5  101.40    4.83   1
  -4   5   6   35.64    3.34   1
  -4   5   7    2.31    2.71   1
  -4   5   8   22.75    4.10   1
  -4   5   9   -0.20    4.33   1
  -4   5  10   35.76    7.89   1
  -4   6 -10    4.88    4.38   1
  -4   6  -9    6.30    6.78   1
  -4   6  -8   -2.19    2.31   1
  -4   6  -7   16.81    2.62   1
  -4   6  -6    0.50    1.70   1
  -4   6  -5   13.62    2.44   1
  -4   6  -4    0.90    1.71   1
  -4   6  -3   40.70    2.93   1
  -4   6  -2   27.46    2.72   1
  -4   6  -1  163.58    6.14   1
  -4   6   0   74.82    3.98   1
  -4   6   1    1.10    1.70   1
  -4   6   2   43.69    2.64   1
  -4   6   3    0.90    1.60   1
  -4   6   4  131.10    6.64   1
  -4   6   5   37.45    3.43   1
  -4   6   6   11.29    3.23   1
  -4   6   7   10.11    3.69   1
  -4   6   8   22.94    5.46   1
  -4   6   9    2.89    5.98   1
  -4   6  10    3.61    6.19   1
  -4   7  -9    9.92    4.73   1
  -4   7  -8    5.62    3.89   1
  -4   7  -7    3.50    2.92   1
  -4   7  -6    0.50    2.81   1
  -4   7  -5  229.22    9.08   1
  -4   7  -4  157.25    7.27   1
  -4   7  -3   13.76    2.37   1
  -4   7  -2    1.10    2.10   1
  -4   7  -1   31.36    2.91   1
  -4   7   0    5.29    2.30   1
  -4   7   1   11.22    2.08   1
  -4   7   2   74.48    3.80   1
  -4   7   3    9.12    2.17   1
  -4   7   4   47.75    4.28   1
  -4   7   5  246.18   10.36   1
  -4   7   6  443.10   16.84   1
  -4   7   7   -2.69    4.89   1
  -4   7   8    4.88    6.19   1
  -4   7   9    0.40    5.87   1
  -4   7  10    8.82    8.61   1
  -4   8  -8   -5.29    5.20   1
  -4   8  -7   -2.89    3.60   1
  -4   8  -6    1.99    3.38   1
  -4   8  -5   23.04    3.74   1
  -4   8  -4   40.70    3.70   1
  -4   8  -3   12.60    2.98   1
  -4   8  -2    1.69    2.50   1
  -4   8  -1  229.22   11.81   1
  -4   8   0   70.73    4.54   1
  -4   8   1   15.52    2.68   1
  -4   8   2    2.31    2.31   1
  -4   8   3    2.19    2.10   1
  -4   8   4    7.67    3.38   1
  -4   8   5   69.06    5.65   1
  -4   8   6  127.46   10.84   1
  -4   8   7    1.49    4.68   1
  -4   8   8   -1.00    7.50   1
  -4   8   9   56.85    9.20   1
  -4   9  -7   -2.19    4.29   1
  -4   9  -6    0.90    4.71   1
  -4   9  -5   16.00    5.60   1
  -4   9  -4    4.49    3.10   1
  -4   9  -3   -1.90    3.09   1
  -4   9  -2    6.50    2.91   1
  -4   9  -1    4.80    3.11   1
  -4   9   0    0.90    2.70   1
  -4   9   1    8.82    3.09   1
  -4   9   2    2.59    2.90   1
  -4   9   3   -0.40    3.09   1
  -4   9   4   10.50    4.47   1
  -4   9   5   12.32    5.12   1
  -4   9   6    8.12    6.73   1
  -4   9   7   12.60    6.11   1
  -4   9   8    2.40    8.80   1
  -4  10  -6   -0.10    4.86   1
  -4  10  -5    6.50    5.10   1
  -4  10  -4    0.30    4.82   1
  -4  10  -3    2.19    4.88   1
  -4  10  -2    4.28    5.09   1
  -4  10  -1    9.99    4.49   1
  -4  10   0   -1.99    3.58   1
  -4  10   1   28.84    4.51   1
  -4  10   2    3.39    3.68   1
  -4  10   3    4.49    5.81   1
  -4  10   4    6.92    6.52   1
  -4  10   5    8.12    5.93   1
  -4  10   6    6.71    7.51   1
  -4  11  -4   -3.31    4.91   1
  -4  11  -3    4.00    6.92   1
  -4  11  -2    1.21    5.02   1
  -4  11  -1    3.69    5.68   1
  -4  11   0    6.30    5.52   1
  -4  11   1   -1.49    5.59   1
  -4  11   2    5.29    6.07   1
  -4  11   3   13.76    8.31   1
  -4  11   4   29.05   12.07   1
  -4  11   5  113.64   13.22   1
  -4  12   0    1.10    9.51   1
  -4  12   1    5.11    9.22   1
  -3 -12  -3    5.20    6.70   1
  -3 -12  -2   -4.80    5.91   1
  -3 -12  -1    7.08    5.91   1
  -3 -12   0   -3.69    9.87   1
  -3 -12   1   14.36    9.32   1
  -3 -12   2    1.69   10.87   1
  -3 -11  -6   11.70    7.18   1
  -3 -11  -5   -4.00    5.32   1
  -3 -11  -4   61.62    7.69   1
  -3 -11  -3   20.16    4.67   1
  -3 -11  -2    0.20    4.43   1
  -3 -11  -1    3.50    4.19   1
  -3 -11   0   -2.10    4.09   1
  -3 -11   1    1.10    3.91   1
  -3 -11   2   -3.10    4.51   1
  -3 -11   3   -1.39    6.68   1
  -3 -11   4   13.69    8.58   1
  -3 -10  -7   -1.90    5.30   1
  -3 -10  -6    0.90    4.90   1
  -3 -10  -5    4.80    4.38   1
  -3 -10  -4   97.61    7.11   1
  -3 -10  -3   10.11    4.20   1
  -3 -10  -2   15.52    3.94   1
  -3 -10  -1    5.29    2.71   1
  -3 -10   0  236.54    8.92   1
  -3 -10   1   20.34    2.89   1
  -3 -10   2    3.69    2.80   1
  -3 -10   3    4.28    4.10   1
  -3 -10   4    7.40    4.19   1
  -3 -10   5    5.52    6.82   1
  -3 -10   6    3.20    8.09   1
  -3  -9  -8    4.08    2.99   1
  -3  -9  -7    8.58    4.22   1
  -3  -9  -6   10.11    4.52   1
  -3  -9  -5    7.90    3.88   1
  -3  -9  -4    6.60    2.42   1
  -3  -9  -3    8.53    2.22   1
  -3  -9  -2   24.21    2.95   1
  -3  -9  -1   15.68    2.38   1
  -3  -9   0  202.78    7.69   1
  -3  -9   1   14.06    2.48   1
  -3  -9   2   39.69    3.02   1
  -3  -9   3    0.71    2.20   1
  -3  -9   4   23.33    2.99   1
  -3  -9   5   -1.30    2.51   1
  -3  -9   6   -4.88    4.11   1
  -3  -8  -9   -2.50    3.19   1
  -3  -8  -8   20.98    5.77   1
  -3  -8  -7    1.30    2.51   1
  -3  -8  -6   -1.90    2.29   1
  -3  -8  -5    0.71    2.40   1
  -3  -8  -4    1.39    2.19   1
  -3  -8  -3    9.00    2.10   1
  -3  -8  -2   30.47    2.65   1
  -3  -8  -1   24.70    2.29   1
  -3  -8   0   16.48    2.44   1
  -3  -8   1    0.90    2.11   1
  -3  -8   2   19.27    2.99   1
  -3  -8   3    1.30    1.71   1
  -3  -8   4    2.99    1.90   1
  -3  -8   5    0.50    2.00   1
  -3  -8   6    5.38    2.51   1
  -3  -8   7    0.30    2.61   1
  -3  -7 -10    3.61    3.91   1
  -3  -7  -9    1.80    2.79   1
  -3  -7  -8    6.50    1.89   1
  -3  -7  -7    2.31    1.49   1
  -3  -7  -6   29.59    2.61   1
  -3  -7  -5  274.56    8.62   1
  -3  -7  -4  547.56   13.57   1
  -3  -7  -3    2.69    1.51   1
  -3  -7  -2   59.75    2.94   1
  -3  -7  -1    0.40    1.50   1
  -3  -7   0    4.20    1.60   1
  -3  -7   1    1.49    1.49   1
  -3  -7   2   29.05    2.16   1
  -3  -7   3   17.31    1.91   1
  -3  -7   4   16.40    2.03   1
  -3  -7   5   21.53    2.13   1
  -3  -7   6   46.24    2.86   1
  -3  -7   7    1.30    1.71   1
  -3  -7   8    1.39    1.89   1
  -3  -6 -11   33.52    5.91   1
  -3  -6 -10   11.49    4.47   1
  -3  -6  -9   13.18    3.41   1
  -3  -6  -8   -1.10    1.81   1
  -3  -6  -7    0.90    1.31   1
  -3  -6  -6    3.50    1.38   1
  -3  -6  -5  186.60    7.92   1
  -3  -6  -4  368.26   12.67   1
  -3  -6  -3   93.32    3.48   1
  -3  -6  -2   17.31    1.83   1
  -3  -6  -1 1303.21   27.44   1
  -3  -6   0  682.78   15.16   1
  -3  -6   1   85.38    3.14   1
  -3  -6   2   96.63    3.15   1
  -3  -6   3    1.39    1.30   1
  -3  -6   4   15.37    1.72   1
  -3  -6   5   36.12    2.16   1
  -3  -6   6   90.25    3.61   1
  -3  -6   7    2.19    1.60   1
  -3  -6   8    6.10    1.68   1
  -3  -5 -11    1.90    3.31   1
  -3  -5  -9   10.18    2.42   1
  -3  -5  -8   -1.39    2.01   1
  -3  -5  -7    0.20    1.71   1
  -3  -5  -6    2.50    1.01   1
  -3  -5  -5   26.32    1.64   1
  -3  -5  -4   86.68    3.72   1
  -3  -5  -3  154.01    5.21   1
  -3  -5  -2   64.32    3.05   1
  -3  -5  -1  299.98    6.93   1
  -3  -5   0  107.33    3.32   1
  -3  -5   1    7.40    1.20   1
  -3  -5   2   11.02    1.20   1
  -3  -5   3   28.94    1.72   1
  -3  -5   4    1.00    2.80   1
  -3  -5   5   22.47    1.52   1
  -3  -5   6    0.50    1.11   1
  -3  -5   7   23.72    1.66   1
  -3  -5   8    1.99    2.09   1
  -3  -5   9    8.12    2.62   1
  -3  -4 -11    3.80    4.41   1
  -3  -4 -10    1.59    2.80   1
  -3  -4  -9   66.42    5.22   1
  -3  -4  -8    1.59    1.89   1
  -3  -4  -7   82.81    3.82   1
  -3  -4  -6    1.49    1.20   1
  -3  -4  -5   69.89    2.17   1
  -3  -4  -4   24.60    2.08   1
  -3  -4  -3  243.36    7.49   1
  -3  -4  -2  160.28    5.06   1
  -3  -4  -1  414.12   10.99   1
  -3  -4   0  191.55    4.98   1
  -3  -4   1  193.49    5.29   1
  -3  -4   2   35.40    1.55   1
  -3  -4   3   47.33    1.79   1
  -3  -4   4    1.80    0.80   1
  -3  -4   5    1.10    0.90   1
  -3  -4   6    9.30    1.10   1
  -3  -4   7   65.93    2.44   1
  -3  -4   8   22.47    2.84   1
  -3  -4   9   10.30    3.27   1
  -3  -4  10    5.29    3.91   1
  -3  -3 -12    7.62    3.70   1
  -3  -3 -11   11.49    4.20   1
  -3  -3 -10    4.88    2.48   1
  -3  -3  -9  139.48    6.14   1
  -3  -3  -8    0.20    2.02   1
  -3  -3  -7  196.84    7.01   1
  -3  -3  -6  301.37    9.03   1
  -3  -3  -5 1969.58   47.93   1
  -3  -3  -4   72.76    2.90   1
  -3  -3  -3  364.81    8.40   1
  -3  -3  -2  453.26   12.35   1
  -3  -3  -1  236.54    6.77   1
  -3  -3   0  122.77    3.55   1
  -3  -3   1   28.20    1.17   1
  -3  -3   2    8.58    1.17   1
  -3  -3   3  478.73   10.06   1
  -3  -3   4  126.79    3.15   1
  -3  -3   5 1441.72   26.58   1
  -3  -3   6  113.00    3.40   1
  -3  -3   7   60.53    2.80   1
  -3  -3   8   -0.79    1.50   1
  -3  -3   9    4.41    3.19   1
  -3  -3  10    8.88    2.80   1
  -3  -2 -12    2.59    3.80   1
  -3  -2 -11   24.50    4.36   1
  -3  -2 -10    0.40    2.09   1
  -3  -2  -9    1.30    2.01   1
  -3  -2  -8    4.08    1.70   1
  -3  -2  -7   46.65    2.73   1
  -3  -2  -6   66.42    3.10   1
  -3  -2  -5  415.34   11.82   1
  -3  -2  -4    4.88    1.41   1
  -3  -2  -3  394.02   11.51   1
  -3  -2  -2  623.50   12.98   1
  -3  -2  -1 1333.71   26.29   1
  -3  -2   0    1.99    0.51   1
  -3  -2   1   21.72    0.75   1
  -3  -2   2  264.06    7.15   1
  -3  -2   3   15.37    1.10   1
  -3  -2   4  206.21    4.60   1
  -3  -2   5  742.56   13.62   1
  -3  -2   6   31.02    1.56   1
  -3  -2   7   36.60    2.54   1
  -3  -2   8   96.83    4.13   1
  -3  -2   9  156.00    6.24   1
  -3  -2  10   13.18    2.83   1
  -3  -2  11   -0.30    3.72   1
  -3  -1 -12    1.59    4.49   1
  -3  -1 -11    0.79    2.88   1
  -3  -1 -10    0.50    2.00   1
  -3  -1  -9    1.39    1.70   1
  -3  -1  -8   38.44    2.60   1
  -3  -1  -7  105.47    4.11   1
  -3  -1  -6  196.00    6.44   1
  -3  -1  -5  117.51    4.55   1
  -3  -1  -4  129.96    4.33   1
  -3  -1  -3  117.07    3.90   1
  -3  -1  -2   36.24    2.41   1
  -3  -1  -1  190.72    4.42   1
  -3  -1   0    8.58    0.70   1
  -3  -1   1   73.96    3.27   1
  -3  -1   2   83.54    2.38   1
  -3  -1   3   52.42    1.45   1
  -3  -1   4  303.11    6.27   1
  -3  -1   5  172.13    4.46   1
  -3  -1   6  159.77    4.30   1
  -3  -1   7   28.62    2.14   1
  -3  -1   8    0.50    1.80   1
  -3  -1   9    7.67    2.27   1
  -3  -1  10    5.38    2.69   1
  -3  -1  11    1.80    3.89   1
  -3   0 -12    2.89    3.30   1
  -3   0 -11   -0.71    1.31   1
  -3   0 -10   89.87    4.93   1
  -3   0  -9   55.65    3.43   1
  -3   0  -8   77.79    7.06   1
  -3   0  -7    1.69    1.40   1
  -3   0  -6  200.79    7.37   1
  -3   0  -5   25.20    1.71   1
  -3   0  -4  117.72    4.12   1
  -3   0  -3   88.17    3.19   1
  -3   0  -2   17.39    1.08   1
  -3   0  -1  263.09    8.11   1
  -3   0   0  765.63   28.22   1
  -3   0   1 1301.77   25.26   1
  -3   0   2   16.32    0.73   1
  -3   0   3  190.16    3.59   1
  -3   0   4   31.25    1.90   1
  -3   0   5  145.20    4.58   1
  -3   0   6   45.97    2.44   1
  -3   0   7   38.32    2.35   1
  -3   0   8    7.02    1.70   1
  -3   0   9   12.11    2.23   1
  -3   0  10    0.50    2.22   1
  -3   0  11   -1.59    3.48   1
  -3   1 -12    7.51    3.78   1
  -3   1 -11   19.01    9.68   1
  -3   1 -10   41.73    3.62   1
  -3   1  -9   21.62    1.12   1
  -3   1  -8    8.70    1.83   1
  -3   1  -7   29.38    3.90   1
  -3   1  -6 1335.90   36.55   1
  -3   1  -5  682.25   19.85   1
  -3   1  -4  276.56   12.97   1
  -3   1  -3   73.27    2.05   1
  -3   1  -2  132.71    3.92   1
  -3   1  -1  149.33    4.89   1
  -3   1   0  559.32   11.35   1
  -3   1   1  543.36   12.59   1
  -3   1   2   29.16    1.19   1
  -3   1   3   82.81    2.37   1
  -3   1   4 3253.56   58.18   1
  -3   1   5 2249.60   52.17   1
  -3   1   6   21.72    1.77   1
  -3   1   7   12.60    1.70   1
  -3   1   8   82.45    4.00   1
  -3   1   9   29.16    3.78   1
  -3   1  10    1.10    2.39   1
  -3   1  11    7.02    3.71   1
  -3   2 -12    7.08    3.78   1
  -3   2 -11    0.79    2.79   1
  -3   2 -10    4.08    2.30   1
  -3   2  -9    1.80    1.80   1
  -3   2  -8   11.83    1.93   1
  -3   2  -7    6.40    1.62   1
  -3   2  -6   64.64    3.22   1
  -3   2  -5   50.55    2.84   1
  -3   2  -4  292.75    9.58   1
  -3   2  -3   66.91    3.27   1
  -3   2  -2 1164.86   42.32   1
  -3   2  -1    7.51    0.99   1
  -3   2   0  240.87    6.52   1
  -3   2   1   35.76    1.79   1
  -3   2   2   21.81    1.49   1
  -3   2   3  345.96    7.44   1
  -3   2   4  352.31    9.76   1
  -3   2   5  408.04   11.31   1
  -3   2   6  192.10    6.93   1
  -3   2   7    3.20    1.50   1
  -3   2   8  234.09    8.57   1
  -3   2   9   30.69    4.21   1
  -3   2  10   16.73    3.19   1
  -3   2  11    5.20    3.69   1
  -3   3 -12    4.20    4.18   1
  -3   3 -11    4.00    3.72   1
  -3   3 -10    4.88    2.70   1
  -3   3  -9    7.29    2.21   1
  -3   3  -8   17.39    2.34   1
  -3   3  -7    3.50    3.40   1
  -3   3  -6   76.04    3.49   1
  -3   3  -5   50.84    4.28   1
  -3   3  -4   12.82    1.58   1
  -3   3  -3    9.12    1.63   1
  -3   3  -2  158.00    5.28   1
  -3   3  -1   93.90    2.71   1
  -3   3   0   29.05    2.05   1
  -3   3   1  201.36    6.81   1
  -3   3   2  449.86   11.88   1
  -3   3   3  504.45   13.03   1
  -3   3   4  326.52    9.40   1
  -3   3   5  151.54    5.91   1
  -3   3   6   98.60    5.16   1
  -3   3   7   -0.20    2.02   1
  -3   3   8    1.99    2.40   1
  -3   3   9    2.31    2.49   1
  -3   3  10   13.69    4.51   1
  -3   3  11    0.50    4.71   1
  -3   4 -11   13.76    4.38   1
  -3   4 -10   53.88    4.26   1
  -3   4  -9    5.11    3.39   1
  -3   4  -8   11.49    2.17   1
  -3   4  -7  110.25    4.62   1
  -3   4  -6  209.96    8.11   1
  -3   4  -5    1.90    1.49   1
  -3   4  -4    2.99    1.49   1
  -3   4  -3   13.47    1.17   1
  -3   4  -2  316.13    9.96   1
  -3   4  -1  311.52   10.94   1
  -3   4   0 1768.20   50.46   1
  -3   4   1   22.09    1.97   1
  -3   4   2  435.97   10.44   1
  -3   4   3  379.08    8.18   1
  -3   4   4  615.04   16.37   1
  -3   4   5   23.23    2.51   1
  -3   4   6   15.21    2.42   1
  -3   4   7    0.71    2.40   1
  -3   4   8   10.89    3.30   1
  -3   4   9   -1.69    2.89   1
  -3   4  10   30.58    6.19   1
  -3   4  11    1.21    6.03   1
  -3   5 -11    2.89    3.60   1
  -3   5 -10    9.49    3.33   1
  -3   5  -9    4.80    3.99   1
  -3   5  -8   13.32    2.34   1
  -3   5  -7  117.51    4.77   1
  -3   5  -6  371.33    9.64   1
  -3   5  -5    2.69    1.41   1
  -3   5  -4   47.61    2.21   1
  -3   5  -3  208.22    6.64   1
  -3   5  -2   26.63    2.06   1
  -3   5  -1   37.33    2.44   1
  -3   5   0  468.29   11.69   1
  -3   5   1   11.29    1.61   1
  -3   5   2  166.67    4.91   1
  -3   5   3  997.30   21.47   1
  -3   5   4 2277.20   57.26   1
  -3   5   5    0.50    1.70   1
  -3   5   6   31.92    3.16   1
  -3   5   7   65.93    4.87   1
  -3   5   8   45.97    4.61   1
  -3   5   9    2.79    3.91   1
  -3   5  10   18.66    5.53   1
  -3   5  11    0.10    6.68   1
  -3   6  -9   -0.10    2.84   1
  -3   6  -8   13.76    2.67   1
  -3   6  -7    9.12    2.42   1
  -3   6  -6    2.10    1.91   1
  -3   6  -5    2.79    1.40   1
  -3   6  -4   35.05    2.84   1
  -3   6  -3    5.52    1.79   1
  -3   6  -2   14.90    2.01   1
  -3   6  -1  119.25    4.59   1
  -3   6   0  160.53    5.83   1
  -3   6   1   92.54    4.04   1
  -3   6   2  161.80    5.60   1
  -3   6   3    3.31    1.42   1
  -3   6   4    6.60    1.90   1
  -3   6   5  120.78    5.49   1
  -3   6   6    9.49    2.77   1
  -3   6   7  115.56    7.10   1
  -3   6   8    7.67    3.71   1
  -3   6   9    1.00    5.50   1
  -3   6  10   14.82    8.78   1
  -3   6  11    5.71    7.70   1
  -3   7 -10   -2.31    4.50   1
  -3   7  -9    0.00    1.00   1
  -3   7  -8   -2.10    2.49   1
  -3   7  -7    9.80    2.63   1
  -3   7  -6   -0.10    2.43   1
  -3   7  -5    4.20    2.42   1
  -3   7  -4    3.20    2.29   1
  -3   7  -3   24.11    2.45   1
  -3   7  -2   10.18    2.42   1
  -3   7  -1  104.65    5.11   1
  -3   7   0   16.56    2.28   1
  -3   7   1   12.82    2.08   1
  -3   7   2   66.10    3.25   1
  -3   7   3   13.03    1.88   1
  -3   7   4   62.25    4.26   1
  -3   7   5   22.37    3.12   1
  -3   7   6    4.28    3.11   1
  -3   7   7    4.00    3.80   1
  -3   7   8    1.00    5.70   1
  -3   7   9   -4.41    5.00   1
  -3   7  10    3.31    6.70   1
  -3   8  -9    3.88    4.69   1
  -3   8  -8   -1.69    4.89   1
  -3   8  -7   50.27    5.39   1
  -3   8  -6    9.42    2.89   1
  -3   8  -5    3.50    3.10   1
  -3   8  -4    2.10    2.61   1
  -3   8  -3    5.62    2.42   1
  -3   8  -2   11.97    2.49   1
  -3   8  -1  543.36   16.78   1
  -3   8   0  190.16    8.00   1
  -3   8   1   20.52    2.63   1
  -3   8   2    2.89    2.31   1
  -3   8   3  321.84   13.99   1
  -3   8   4   61.94    5.04   1
  -3   8   5    5.02    2.91   1
  -3   8   6    0.71    3.41   1
  -3   8   7    5.02    4.61   1
  -3   8   8    3.88    7.29   1
  -3   8   9   49.14    8.55   1
  -3   9  -8   -5.52    5.59   1
  -3   9  -7    8.58    5.57   1
  -3   9  -6    0.10    3.34   1
  -3   9  -5   12.32    3.37   1
  -3   9  -4   -0.59    2.88   1
  -3   9  -3    3.88    2.80   1
  -3   9  -2    2.10    2.49   1
  -3   9  -1    0.79    2.79   1
  -3   9   0    6.81    2.71   1
  -3   9   1   11.90    2.90   1
  -3   9   2    5.29    2.71   1
  -3   9   3  254.72   12.13   1
  -3   9   4   19.54    3.80   1
  -3   9   5   29.70    5.45   1
  -3   9   6    1.10    5.82   1
  -3   9   7    9.42    6.02   1
  -3   9   8   -1.49    8.27   1
  -3  10  -7   -2.19    5.00   1
  -3  10  -6    6.30    5.92   1
  -3  10  -5   -1.49    5.27   1
  -3  10  -4    3.88    5.40   1
  -3  10  -3    2.10    3.19   1
  -3  10  -2    3.20    4.69   1
  -3  10  -1   25.70    3.85   1
  -3  10   0    5.29    3.40   1
  -3  10   1    8.53    3.39   1
  -3  10   2    3.80    3.00   1
  -3  10   3   -4.58    5.31   1
  -3  10   4    1.69    4.99   1
  -3  10   5    1.10    5.00   1
  -3  10   6    4.49    7.50   1
  -3  10   7   10.11    8.08   1
  -3  11  -5    4.58    6.59   1
  -3  11  -4    0.90    5.30   1
  -3  11  -3    4.71    4.90   1
  -3  11  -2   15.21    4.91   1
  -3  11  -1   10.82    4.47   1
  -3  11   0   -0.71    4.92   1
  -3  11   1    8.70    4.43   1
  -3  11   2   11.22    5.49   1
  -3  11   3    5.52    5.50   1
  -3  11   4    2.69    7.28   1
  -3  11   5   14.52    8.38   1
  -3  12  -2   15.92    8.70   1
  -3  12  -1   26.01    7.24   1
  -3  12   0    1.00    6.30   1
  -3  12   1   11.42    8.52   1
  -3  12   2   24.50    7.82   1
  -3  12   3   16.73    9.41   1
  -2 -12  -4   12.11    8.70   1
  -2 -12  -3    9.18    6.30   1
  -2 -12  -2   30.14    6.26   1
  -2 -12  -1    8.18    5.32   1
  -2 -12   0    4.00    4.60   1
  -2 -12   1    2.50    5.40   1
  -2 -12   2    4.08    5.78   1
  -2 -12   3   -4.71    9.50   1
  -2 -11  -6   10.89    5.81   1
  -2 -11  -5    7.02    5.30   1
  -2 -11  -4    3.80    4.41   1
  -2 -11  -3    1.00    4.70   1
  -2 -11  -2   -0.10    4.45   1
  -2 -11  -1    0.90    3.71   1
  -2 -11   0    0.10    4.04   1
  -2 -11   1   -1.21    4.03   1
  -2 -11   2    0.71    4.22   1
  -2 -11   3    1.39    4.30   1
  -2 -11   4    2.69    4.59   1
  -2 -10  -8    0.50    7.13   1
  -2 -10  -7    5.90    5.10   1
  -2 -10  -6   22.94    5.08   1
  -2 -10  -5   -1.80    4.10   1
  -2 -10  -4   10.69    4.19   1
  -2 -10  -3   15.29    4.22   1
  -2 -10  -2   23.91    3.42   1
  -2 -10  -1    1.39    2.38   1
  -2 -10   0  125.89    5.83   1
  -2 -10   1   15.52    2.99   1
  -2 -10   2    5.38    2.51   1
  -2 -10   3    0.79    3.58   1
  -2 -10   4   -0.50    3.72   1
  -2 -10   5   -3.20    5.51   1
  -2  -9  -9    1.99    3.58   1
  -2  -9  -8   10.37    4.57   1
  -2  -9  -7  108.58    5.84   1
  -2  -9  -6  296.87   12.41   1
  -2  -9  -5    1.21    2.62   1
  -2  -9  -4   24.50    2.87   1
  -2  -9  -3    6.40    2.18   1
  -2  -9  -2   16.48    2.52   1
  -2  -9  -1    1.80    2.20   1
  -2  -9   0   28.20    2.87   1
  -2  -9   1    2.69    1.80   1
  -2  -9   2   21.44    2.50   1
  -2  -9   3   78.15    4.07   1
  -2  -9   4  262.44   10.69   1
  -2  -9   5    6.60    2.62   1
  -2  -9   6    3.80    4.29   1
  -2  -9   7    2.69    5.48   1
  -2  -8 -10    3.88    4.18   1
  -2  -8  -9    8.88    3.22   1
  -2  -8  -8    4.71    2.82   1
  -2  -8  -7    5.81    2.31   1
  -2  -8  -6   10.50    2.59   1
  -2  -8  -5    7.08    2.39   1
  -2  -8  -4    4.28    1.99   1
  -2  -8  -3  104.24    4.49   1
  -2  -8  -2  183.06    6.22   1
  -2  -8  -1    8.12    1.82   1
  -2  -8   0  129.73    5.01   1
  -2  -8   1   43.96    2.65   1
  -2  -8   2   22.28    2.17   1
  -2  -8   3    3.61    1.71   1
  -2  -8   4   37.45    2.69   1
  -2  -8   5    2.10    1.80   1
  -2  -8   6   10.50    2.79   1
  -2  -8   7    0.59    1.89   1
  -2  -8   8   12.60    5.40   1
  -2  -7 -10   -1.99    3.78   1
  -2  -7  -9   14.59    3.51   1
  -2  -7  -8   27.98    2.54   1
  -2  -7  -7    6.00    1.72   1
  -2  -7  -6   23.14    2.12   1
  -2  -7  -5    1.49    1.78   1
  -2  -7  -4   12.32    2.04   1
  -2  -7  -3    1.30    1.50   1
  -2  -7  -2    0.30    1.41   1
  -2  -7  -1   66.42    3.10   1
  -2  -7   0   24.01    2.16   1
  -2  -7   1   65.29    3.23   1
  -2  -7   2   58.83    3.37   1
  -2  -7   3  115.56    4.09   1
  -2  -7   4  129.50    4.55   1
  -2  -7   5    6.20    2.49   1
  -2  -7   6    1.21    1.80   1
  -2  -7   7    1.49    1.49   1
  -2  -7   8    1.59    1.69   1
  -2  -6 -11   77.09    8.43   1
  -2  -6 -10   20.61    4.27   1
  -2  -6  -9   41.73    4.65   1
  -2  -6  -8    0.90    1.90   1
  -2  -6  -7  218.45    7.09   1
  -2  -6  -6    8.82    1.60   1
  -2  -6  -5    4.58    1.88   1
  -2  -6  -4   16.00    1.76   1
  -2  -6  -3  103.23    3.66   1
  -2  -6  -2   21.72    1.68   1
  -2  -6  -1  849.14   18.07   1
  -2  -6   0  538.24   14.85   1
  -2  -6   1  124.99    3.80   1
  -2  -6   2   12.89    1.51   1
  -2  -6   3  315.06    7.45   1
  -2  -6   4    2.10    1.91   1
  -2  -6   5   34.69    2.36   1
  -2  -6   6    4.58    1.20   1
  -2  -6   7    5.62    1.61   1
  -2  -6   8    0.10    1.11   1
  -2  -6   9   22.09    5.26   1
  -2  -5 -11   11.49    4.07   1
  -2  -5 -10    3.31    2.91   1
  -2  -5  -9   46.10    3.67   1
  -2  -5  -8   25.20    2.41   1
  -2  -5  -7  649.74   15.29   1
  -2  -5  -6   62.73    2.69   1
  -2  -5  -5  177.42    4.80   1
  -2  -5  -4   12.53    1.91   1
  -2  -5  -3  209.67    6.66   1
  -2  -5  -2   19.18    1.66   1
  -2  -5  -1   71.40    2.54   1
  -2  -5   0   90.44    3.04   1
  -2  -5   1  329.79    7.99   1
  -2  -5   2   36.36    1.81   1
  -2  -5   3 1624.09   29.02   1
  -2  -5   4  590.00   12.15   1
  -2  -5   5   50.69    2.56   1
  -2  -5   6    2.10    1.10   1
  -2  -5   7   20.88    1.55   1
  -2  -5   8   24.01    4.12   1
  -2  -5   9   30.80    3.33   1
  -2  -5  10    1.80    4.50   1
  -2  -4 -11    0.20    2.82   1
  -2  -4 -10    2.50    2.31   1
  -2  -4  -9   17.72    2.53   1
  -2  -4  -8    9.92    2.20   1
  -2  -4  -7    3.31    1.42   1
  -2  -4  -6    3.31    1.20   1
  -2  -4  -5   34.11    1.64   1
  -2  -4  -4   24.30    1.97   1
  -2  -4  -3   25.91    2.04   1
  -2  -4  -2  217.27    6.49   1
  -2  -4  -1  254.72    6.06   1
  -2  -4   0   63.20    2.07   1
  -2  -4   1  251.54    6.34   1
  -2  -4   2   44.22    2.26   1
  -2  -4   3   36.36    1.69   1
  -2  -4   4    9.92    1.20   1
  -2  -4   5   63.04    2.22   1
  -2  -4   6    7.08    1.22   1
  -2  -4   7   58.68    3.37   1
  -2  -4   8    0.30    1.71   1
  -2  -4   9    2.89    2.21   1
  -2  -4  10    5.38    3.71   1
  -2  -3 -11   34.81    4.37   1
  -2  -3 -10    2.10    2.09   1
  -2  -3  -9   12.89    2.23   1
  -2  -3  -8    5.20    1.60   1
  -2  -3  -7   81.36    3.79   1
  -2  -3  -6    1.30    1.30   1
  -2  -3  -5   90.63    2.67   1
  -2  -3  -4   14.59    0.99   1
  -2  -3  -3  301.37    9.03   1
  -2  -3  -2   14.98    1.32   1
  -2  -3  -1  479.17   12.70   1
  -2  -3   0   12.89    0.93   1
  -2  -3   1  178.76    4.28   1
  -2  -3   2  216.97    5.01   1
  -2  -3   3  216.09    5.00   1
  -2  -3   4   47.06    1.65   1
  -2  -3   5    5.02    1.12   1
  -2  -3   6   15.29    1.41   1
  -2  -3   7    5.29    1.52   1
  -2  -3   8    0.30    1.61   1
  -2  -3   9    0.50    1.70   1
  -2  -3  10   -4.00    3.80   1
  -2  -3  11   -1.99    4.48   1
  -2  -2 -12   41.47    5.41   1
  -2  -2 -11   76.74    8.76   1
  -2  -2 -10    4.71    2.00   1
  -2  -2  -9    5.81    1.78   1
  -2  -2  -8  351.56   11.62   1
  -2  -2  -7  226.50    7.83   1
  -2  -2  -6    5.81    1.30   1
  -2  -2  -5    1.30    1.00   1
  -2  -2  -4    1.99    0.79   1
  -2  -2  -3    6.50    0.61   1
  -2  -2  -2 1292.40   32.35   1
  -2  -2  -1 5462.69  177.38   1
  -2  -2   0   10.69    0.72   1
  -2  -2   1  216.38    4.71   1
  -2  -2   2  723.07   13.44   1
  -2  -2   3 1842.98   37.78   1
  -2  -2   4  204.20    4.86   1
  -2  -2   5    7.67    0.78   1
  -2  -2   6    1.59    1.08   1
  -2  -2   7   27.98    1.90   1
  -2  -2   8   48.86    3.63   1
  -2  -2   9   85.56    4.62   1
  -2  -2  10    1.59    2.49   1
  -2  -2  11    2.79    3.81   1
  -2  -1 -12    0.10    3.24   1
  -2  -1 -11    3.39    2.91   1
  -2  -1 -10   13.69    2.37   1
  -2  -1  -9    7.67    3.71   1
  -2  -1  -8  214.62    7.32   1
  -2  -1  -7  178.76    6.15   1
  -2  -1  -6  116.42    4.75   1
  -2  -1  -5  211.41    7.27   1
  -2  -1  -4    5.38    1.02   1
  -2  -1  -3    1.59    0.71   1
  -2  -1  -2   27.14    1.56   1
  -2  -1  -1  156.75    3.51   1
  -2  -1   0  248.06    5.99   1
  -2  -1   1  211.41    5.53   1
  -2  -1   2 2650.19   52.51   1
  -2  -1   3 1961.60   32.77   1
  -2  -1   4   27.25    1.15   1
  -2  -1   5  183.60    5.96   1
  -2  -1   6  164.61    4.88   1
  -2  -1   7    4.80    1.62   1
  -2  -1   8    1.00    1.60   1
  -2  -1   9    6.00    2.11   1
  -2  -1  10    6.60    2.42   1
  -2  -1  11    2.59    3.19   1
  -2  -1  12    3.69    5.61   1
  -2   0 -12    1.99    3.19   1
  -2   0 -11    1.10    1.41   1
  -2   0 -10    2.59    1.29   1
  -2   0  -9   20.34    2.44   1
  -2   0  -8   75.86    3.66   1
  -2   0  -7   22.00    1.97   1
  -2   0  -6    3.20    1.11   1
  -2   0  -5   27.25    1.57   1
  -2   0  -4   12.39    1.69   1
  -2   0  -3   12.67    0.93   1
  -2   0  -2  402.40   11.23   1
  -2   0  -1  692.22   17.36   1
  -2   0   0  957.90   22.90   1
  -2   0   1  673.92   15.58   1
  -2   0   2   58.98    1.54   1
  -2   0   3   10.82    0.72   1
  -2   0   4  147.87    4.13   1
  -2   0   5   54.32    2.65   1
  -2   0   6    7.08    1.28   1
  -2   0   7    1.39    1.39   1
  -2   0   8   24.40    2.17   1
  -2   0   9    5.52    2.11   1
  -2   0  10    1.49    2.39   1
  -2   0  11    8.58    3.69   1
  -2   0  12   -5.52    4.09   1
  -2   1 -12   21.81    4.02   1
  -2   1 -11    5.20    2.42   1
  -2   1 -10    4.08    0.89   1
  -2   1  -9   -0.40    0.79   1
  -2   1  -8    2.79    0.70   1
  -2   1  -7    1.21    1.30   1
  -2   1  -6  219.34    7.41   1
  -2   1  -5   57.15    2.87   1
  -2   1  -4   99.80    3.40   1
  -2   1  -3   79.57    2.85   1
  -2   1  -2 3082.47   74.40   1
  -2   1  -1  233.48    6.42   1
  -2   1   0 1096.93   22.52   1
  -2   1   1  201.92    4.83   1
  -2   1   2  117.72    2.60   1
  -2   1   3   10.37    0.71   1
  -2   1   4    8.29    0.98   1
  -2   1   5  334.89   10.61   1
  -2   1   6   78.32    3.54   1
  -2   1   7   35.05    2.25   1
  -2   1   8  148.11    5.11   1
  -2   1   9   23.81    2.64   1
  -2   1  10    3.20    2.29   1
  -2   1  11   16.40    3.81   1
  -2   1  12   -0.90    4.31   1
  -2   2 -12   37.45    5.14   1
  -2   2 -11    0.40    2.89   1
  -2   2 -10   16.40    2.51   1
  -2   2  -9   33.41    3.93   1
  -2   2  -8  210.83    8.42   1
  -2   2  -7   21.44    1.94   1
  -2   2  -6    3.69    1.19   1
  -2   2  -5    6.40    2.18   1
  -2   2  -4  381.03   16.01   1
  -2   2  -3   99.80    4.00   1
  -2   2  -2 3285.58   80.25   1
  -2   2  -1 1260.25   35.50   1
  -2   2   0  852.06   23.35   1
  -2   2   1  921.73   23.68   1
  -2   2   2 2323.24   53.98   1
  -2   2   3   71.06    2.87   1
  -2   2   4   59.14    2.46   1
  -2   2   5   18.06    1.53   1
  -2   2   6   39.82    2.40   1
  -2   2   7    3.69    1.50   1
  -2   2   8  685.39   18.85   1
  -2   2   9  110.04    4.83   1
  -2   2  10   28.20    3.08   1
  -2   2  11    0.90    3.21   1
  -2   2  12   34.11    7.48   1
  -2   3 -12   -4.41    3.49   1
  -2   3 -11    1.59    2.49   1
  -2   3 -10   26.42    2.98   1
  -2   3  -9    0.90    1.80   1
  -2   3  -8   22.28    3.40   1
  -2   3  -7    1.00    1.30   1
  -2   3  -6  173.19    6.05   1
  -2   3  -5    4.20    1.31   1
  -2   3  -4   81.00    3.24   1
  -2   3  -3  371.72   11.18   1
  -2   3  -2    6.71    1.09   1
  -2   3  -1   65.45    3.07   1
  -2   3   0   58.83    2.61   1
  -2   3   1   44.09    1.86   1
  -2   3   2 2659.46   50.54   1
  -2   3   3  171.35    5.24   1
  -2   3   4  661.52   19.03   1
  -2   3   5    1.59    1.69   1
  -2   3   6    2.19    1.81   1
  -2   3   7    2.31    2.10   1
  -2   3   8   15.29    2.50   1
  -2   3   9   -3.10    2.50   1
  -2   3  10   16.73    5.32   1
  -2   3  11   -7.40    4.90   1
  -2   3  12   27.25    6.99   1
  -2   4 -11    2.50    2.91   1
  -2   4 -10   -0.79    2.39   1
  -2   4  -9    6.81    3.18   1
  -2   4  -8    3.39    1.58   1
  -2   4  -7   60.37    2.95   1
  -2   4  -6   12.60    1.70   1
  -2   4  -5   68.23    2.97   1
  -2   4  -4   59.14    2.15   1
  -2   4  -3   78.15    2.48   1
  -2   4  -2   73.96    2.75   1
  -2   4  -1  185.23    4.90   1
  -2   4   0  274.56    9.94   1
  -2   4   1  395.61    9.15   1
  -2   4   2   39.56    1.76   1
  -2   4   3  193.77    6.12   1
  -2   4   4   95.06    4.09   1
  -2   4   5   23.91    2.44   1
  -2   4   6   43.56    3.30   1
  -2   4   7   97.81    5.74   1
  -2   4   8   24.40    3.16   1
  -2   4   9    2.69    2.59   1
  -2   4  10    6.71    4.09   1
  -2   4  12    7.78    6.97   1
  -2   5 -11    0.50    3.92   1
  -2   5 -10    0.00    1.00   1
  -2   5  -9    1.69    2.11   1
  -2   5  -8    2.50    1.80   1
  -2   5  -7  187.96    6.31   1
  -2   5  -6  152.03    4.93   1
  -2   5  -5   39.94    2.15   1
  -2   5  -4    9.49    1.48   1
  -2   5  -3  970.32   21.81   1
  -2   5  -2  521.67   12.79   1
  -2   5  -1   39.94    2.28   1
  -2   5   0   13.69    1.70   1
  -2   5   1   19.54    1.50   1
  -2   5   2   72.42    2.72   1
  -2   5   3  210.83    7.26   1
  -2   5   4  586.61   16.47   1
  -2   5   5    8.29    2.02   1
  -2   5   6   66.26    4.23   1
  -2   5   7  140.66    7.83   1
  -2   5   8  196.84   10.10   1
  -2   5   9   -3.39    2.98   1
  -2   5  10    7.40    4.90   1
  -2   5  11    1.90    6.51   1
  -2   6 -10    2.59    2.99   1
  -2   6  -9   17.98    3.22   1
  -2   6  -8    4.08    1.98   1
  -2   6  -7    0.40    1.79   1
  -2   6  -6    3.20    1.72   1
  -2   6  -5    2.19    1.51   1
  -2   6  -4   -0.90    1.60   1
  -2   6  -3  618.02   18.40   1
  -2   6  -2  464.40   11.64   1
  -2   6  -1   93.70    3.68   1
  -2   6   0   12.18    1.81   1
  -2   6   1  762.86   18.78   1
  -2   6   2  262.12    6.80   1
  -2   6   3    5.20    1.78   1
  -2   6   4    3.10    1.90   1
  -2   6   5   16.00    2.56   1
  -2   6   6    3.10    2.50   1
  -2   6   7  416.57   17.96   1
  -2   6   8  234.70   11.95   1
  -2   6   9    5.52    5.50   1
  -2   6  10    2.19    6.19   1
  -2   7 -10    4.28    4.10   1
  -2   7  -9    1.39    3.19   1
  -2   7  -8    1.00    2.40   1
  -2   7  -7    7.08    2.39   1
  -2   7  -6   17.81    3.04   1
  -2   7  -5   10.63    2.09   1
  -2   7  -4   10.37    2.51   1
  -2   7  -3    6.71    1.81   1
  -2   7  -2    2.31    1.70   1
  -2   7  -1   44.89    2.81   1
  -2   7   0   -0.50    1.51   1
  -2   7   1   83.54    4.02   1
  -2   7   2    1.00    1.70   1
  -2   7   3   85.93    4.64   1
  -2   7   4    6.81    2.09   1
  -2   7   5   14.06    2.78   1
  -2   7   6   42.64    4.05   1
  -2   7   7    7.08    3.30   1
  -2   7   8   -3.20    5.19   1
  -2   7   9   15.68    5.46   1
  -2   7  10    4.20    5.70   1
  -2   8  -9    2.59    4.19   1
  -2   8  -8    8.18    3.72   1
  -2   8  -7   24.80    3.98   1
  -2   8  -6    1.80    2.60   1
  -2   8  -5   10.69    2.88   1
  -2   8  -4   -1.00    2.40   1
  -2   8  -3    1.99    2.20   1
  -2   8  -2    9.18    2.18   1
  -2   8  -1    5.62    2.32   1
  -2   8   0   14.36    2.43   1
  -2   8   1   97.22    4.54   1
  -2   8   2   -0.20    1.71   1
  -2   8   3   75.34    4.86   1
  -2   8   4   26.73    3.83   1
  -2   8   5   34.93    3.90   1
  -2   8   6   14.90    3.47   1
  -2   8   7   -5.38    4.69   1
  -2   8   8    5.29    4.78   1
  -2   8   9   -1.39    5.99   1
  -2   9  -8    1.39    4.79   1
  -2   9  -7   17.64    3.70   1
  -2   9  -6    1.99    3.58   1
  -2   9  -5    2.99    3.08   1
  -2   9  -4   51.70    4.31   1
  -2   9  -3  182.52    8.11   1
  -2   9  -2    5.90    2.62   1
  -2   9  -1   23.62    3.01   1
  -2   9   0    0.50    2.61   1
  -2   9   1    0.30    2.51   1
  -2   9   2   10.11    2.42   1
  -2   9   3  137.83    7.51   1
  -2   9   4    8.70    3.72   1
  -2   9   5   37.95    4.68   1
  -2   9   6   19.54    5.22   1
  -2   9   7  209.67   17.96   1
  -2   9   8   17.39    8.42   1
  -2   9   9    2.50    9.39   1
  -2  10  -7    0.40    4.28   1
  -2  10  -6    1.10    5.40   1
  -2  10  -5    1.80    3.30   1
  -2  10  -4    4.71    3.91   1
  -2  10  -3   52.13    4.77   1
  -2  10  -2   -0.40    3.09   1
  -2  10  -1   11.42    3.58   1
  -2  10   0    9.49    3.02   1
  -2  10   1   31.70    4.05   1
  -2  10   2    6.20    3.69   1
  -2  10   3    7.08    3.30   1
  -2  10   4   -1.80    5.20   1
  -2  10   5    5.20    5.70   1
  -2  10   6    9.99    5.50   1
  -2  10   7  102.82   11.15   1
  -2  11  -5   -5.20    6.20   1
  -2  11  -4   25.30    5.94   1
  -2  11  -3    3.80    4.60   1
  -2  11  -2    1.00    4.00   1
  -2  11  -1    0.30    4.52   1
  -2  11   0   -2.79    4.48   1
  -2  11   1    5.11    4.38   1
  -2  11   2    3.10    4.68   1
  -2  11   3   -0.30    4.72   1
  -2  11   4   -1.59    5.37   1
  -2  11   5   -4.08    6.10   1
  -2  11   6    3.80    6.01   1
  -2  12  -3   -2.10    5.92   1
  -2  12  -2    5.81    7.52   1
  -2  12  -1    6.20    7.02   1
  -2  12   0   -2.10    5.80   1
  -2  12   1   -2.89    7.28   1
  -2  12   2   31.25    7.71   1
  -2  12   3   26.83    8.39   1
  -1 -12  -4    5.29    6.39   1
  -1 -12  -3    9.80    4.88   1
  -1 -12  -2   88.17    8.45   1
  -1 -12  -1    3.88    7.88   1
  -1 -12   0    6.10    5.38   1
  -1 -12   1   -3.61    4.79   1
  -1 -12   2    9.18    6.48   1
  -1 -12   3   10.69    7.72   1
  -1 -11  -6    9.12    5.13   1
  -1 -11  -5   -1.21    5.13   1
  -1 -11  -4   -4.28    4.89   1
  -1 -11  -3    2.69    3.80   1
  -1 -11  -2    2.89    4.69   1
  -1 -11  -1    4.49    4.58   1
  -1 -11   0   -0.71    3.61   1
  -1 -11   1   17.98    4.32   1
  -1 -11   2   82.63    6.36   1
  -1 -11   3    6.30    5.12   1
  -1 -11   4    2.99    4.88   1
  -1 -11   5    3.80    6.59   1
  -1 -10  -8   11.97    7.89   1
  -1 -10  -7    5.71    3.49   1
  -1 -10  -6    2.99    4.29   1
  -1 -10  -5    2.69    4.20   1
  -1 -10  -4    2.69    3.80   1
  -1 -10  -3    7.18    2.68   1
  -1 -10  -2   26.94    3.11   1
  -1 -10  -1   24.21    3.15   1
  -1 -10   0    0.40    2.29   1
  -1 -10   1   -0.59    2.39   1
  -1 -10   2    1.10    2.20   1
  -1 -10   3    3.39    3.20   1
  -1 -10   4    0.10    4.35   1
  -1 -10   5   -0.10    4.56   1
  -1 -10   6   -4.88    5.48   1
  -1  -9  -9    9.67    7.46   1
  -1  -9  -8    4.08    3.19   1
  -1  -9  -7    7.08    2.87   1
  -1  -9  -6   51.84    4.75   1
  -1  -9  -5    4.08    2.59   1
  -1  -9  -4   13.40    2.42   1
  -1  -9  -3  134.79    5.11   1
  -1  -9  -2  171.87    7.60   1
  -1  -9  -1    6.81    1.98   1
  -1  -9   0   31.92    2.94   1
  -1  -9   1    1.69    1.90   1
  -1  -9   2   14.06    2.10   1
  -1  -9   3   13.10    3.11   1
  -1  -9   4   21.44    2.69   1
  -1  -9   5    3.20    3.01   1
  -1  -9   6    0.00    1.00   1
  -1  -9   7    4.41    5.29   1
  -1  -8 -10    2.31    4.20   1
  -1  -8  -9   61.62    4.40   1
  -1  -8  -8   15.76    2.78   1
  -1  -8  -7    0.00    1.00   1
  -1  -8  -6   -0.71    1.71   1
  -1  -8  -5    4.80    2.19   1
  -1  -8  -4   10.89    2.11   1
  -1  -8  -3  379.08   10.51   1
  -1  -8  -2  635.54   15.63   1
  -1  -8  -1    3.31    1.82   1
  -1  -8   0   59.14    3.08   1
  -1  -8   1  288.32    7.47   1
  -1  -8   2  135.49    4.66   1
  -1  -8   3    0.00    1.00   1
  -1  -8   4    0.79    1.69   1
  -1  -8   5    3.31    2.22   1
  -1  -8   6    1.21    2.31   1
  -1  -8   7   19.01    2.09   1
  -1  -8   8   30.25    6.16   1
  -1  -7 -10    2.19    3.58   1
  -1  -7  -9    8.82    2.32   1
  -1  -7  -8   -1.49    1.90   1
  -1  -7  -7   18.49    2.06   1
  -1  -7  -6    5.29    1.61   1
  -1  -7  -5    1.49    1.59   1
  -1  -7  -4    8.12    1.82   1
  -1  -7  -3   39.44    2.39   1
  -1  -7  -2   22.18    1.98   1
  -1  -7  -1  160.02    4.81   1
  -1  -7   0    9.00    1.68   1
  -1  -7   1  263.41    7.79   1
  -1  -7   2  151.29    4.43   1
  -1  -7   3   68.39    2.98   1
  -1  -7   4   60.84    2.96   1
  -1  -7   5   -1.10    1.91   1
  -1  -7   7   -1.30    1.21   1
  -1  -7   8   -1.21    4.22   1
  -1  -7   9    2.69    5.18   1
  -1  -6 -10    4.08    3.80   1
  -1  -6  -9   13.03    2.24   1
  -1  -6  -8   -0.40    1.30   1
  -1  -6  -7   78.85    3.55   1
  -1  -6  -6    6.20    1.39   1
  -1  -6  -5   22.66    2.00   1
  -1  -6  -4   21.44    1.94   1
  -1  -6  -3   20.70    1.73   1
  -1  -6  -2   83.54    2.92   1
  -1  -6  -1   80.82    2.88   1
  -1  -6   0   94.87    3.31   1
  -1  -6   1  133.17    4.15   1
  -1  -6   2    1.69    1.20   1
  -1  -6   3  139.95    4.73   1
  -1  -6   4    3.10    1.20   1
  -1  -6   5    1.99    1.49   1
  -1  -6   6    3.61    1.22   1
  -1  -6   7    2.79    1.00   1
  -1  -6   8    3.31    2.29   1
  -1  -6   9    2.69    4.69   1
  -1  -6  10   -1.90    5.30   1
  -1  -5 -11    4.80    3.68   1
  -1  -5 -10    1.99    2.48   1
  -1  -5  -9    1.21    3.81   1
  -1  -5  -8   24.01    1.96   1
  -1  -5  -7  518.47   15.48   1
  -1  -5  -6   19.18    1.66   1
  -1  -5  -5  306.60    7.70   1
  -1  -5  -4  527.16   15.61   1
  -1  -5  -3 2376.56   45.83   1
  -1  -5  -2  205.35    5.16   1
  -1  -5  -1  199.37    4.80   1
  -1  -5   0   82.08    2.72   1
  -1  -5   1   60.06    2.63   1
  -1  -5   2   45.43    1.89   1
  -1  -5   3  490.62   11.52   1
  -1  -5   4   44.62    2.67   1
  -1  -5   5   49.28    2.81   1
  -1  -5   6   18.49    1.29   1
  -1  -5   7  186.87    7.66   1
  -1  -5   8   28.52    2.78   1
  -1  -5   9    0.71    2.40   1
  -1  -5  10   -2.10    3.60   1
  -1  -5  11    0.40    5.38   1
  -1  -4 -12    0.59    3.57   1
  -1  -4 -11    7.40    3.37   1
  -1  -4 -10   31.02    3.56   1
  -1  -4  -9   23.52    3.98   1
  -1  -4  -8    1.39    1.60   1
  -1  -4  -7    2.40    1.12   1
  -1  -4  -6   36.12    2.04   1
  -1  -4  -5   52.85    2.18   1
  -1  -4  -4  538.24   15.31   1
  -1  -4  -3 2046.66   50.67   1
  -1  -4  -2   17.89    1.61   1
  -1  -4  -1  117.07    3.46   1
  -1  -4   0  381.42    8.98   1
  -1  -4   1  315.06    7.81   1
  -1  -4   2   12.11    0.97   1
  -1  -4   3   31.14    2.12   1
  -1  -4   4   19.27    2.28   1
  -1  -4   5   69.72    2.34   1
  -1  -4   6   77.26    3.34   1
  -1  -4   7  446.48   16.06   1
  -1  -4   8   19.71    2.31   1
  -1  -4   9    2.19    1.89   1
  -1  -4  10    2.89    3.50   1
  -1  -4  11   23.43    5.81   1
  -1  -3 -12   -0.40    3.19   1
  -1  -3 -11   -0.30    2.51   1
  -1  -3 -10    1.30    2.10   1
  -1  -3  -9    0.71    1.81   1
  -1  -3  -8   45.16    2.96   1
  -1  -3  -7   72.42    3.23   1
  -1  -3  -6  176.09    5.57   1
  -1  -3  -5  121.00    3.52   1
  -1  -3  -4  142.09    4.05   1
  -1  -3  -3  128.60    4.31   1
  -1  -3  -2    1.30    0.80   1
  -1  -3  -1   66.26    2.12   1
  -1  -3   0  312.23    8.84   1
  -1  -3   1  226.20    5.72   1
  -1  -3   2   58.22    2.90   1
  -1  -3   3  145.44    3.62   1
  -1  -3   4  302.41    8.00   1
  -1  -3   5   54.61    1.77   1
  -1  -3   6   62.73    3.64   1
  -1  -3   7    0.40    1.40   1
  -1  -3   8    8.70    1.89   1
  -1  -3   9    7.40    2.01   1
  -1  -3  10   -1.90    1.79   1
  -1  -3  11   -4.00    3.52   1
  -1  -3  12   -0.10    3.95   1
  -1  -2 -12    4.80    3.20   1
  -1  -2 -11    4.20    2.30   1
  -1  -2 -10   17.98    2.37   1
  -1  -2  -9    4.41    2.90   1
  -1  -2  -8  305.20    9.78   1
  -1  -2  -7  215.21   12.32   1
  -1  -2  -6   77.44    4.58   1
  -1  -2  -5  288.66    9.85   1
  -1  -2  -4    4.41    0.59   1
  -1  -2  -3    5.02    0.58   1
  -1  -2  -2  104.86    3.48   1
  -1  -2  -1   12.32    0.77   1
  -1  -2   0  547.09   11.69   1
  -1  -2   1  260.82    6.14   1
  -1  -2   2  935.75   17.74   1
  -1  -2   3  196.00    5.60   1
  -1  -2   4  119.25    3.06   1
  -1  -2   5  212.28    6.99   1
  -1  -2   6    9.49    1.29   1
  -1  -2   7    2.19    1.39   1
  -1  -2   8   27.56    2.10   1
  -1  -2   9    3.61    1.79   1
  -1  -2  10   10.69    2.42   1
  -1  -2  11    2.19    6.90   1
  -1  -2  12    2.10    4.00   1
  -1  -1 -12   -2.10    3.51   1
  -1  -1 -11   -0.79    1.50   1
  -1  -1 -10    6.20    1.89   1
  -1  -1  -9   18.40    2.23   1
  -1  -1  -8  416.98   12.25   1
  -1  -1  -7  262.44    8.75   1
  -1  -1  -6   90.82    3.62   1
  -1  -1  -5   10.63    1.70   1
  -1  -1  -4 1068.64   39.23   1
  -1  -1  -3  827.14   29.34   1
  -1  -1  -2  227.71    9.05   1
  -1  -1  -1   -0.50    0.60   1
  -1  -1   0   -0.50    0.30   1
  -1  -1   1   19.18    0.61   1
  -1  -1   2 1880.96   39.90   1
  -1  -1   3 1359.40   33.92   1
  -1  -1   4   72.76    5.12   1
  -1  -1   5    4.80    0.92   1
  -1  -1   6 1143.79   25.70   1
  -1  -1   7  407.64   10.90   1
  -1  -1   8   34.93    2.48   1
  -1  -1   9    0.59    1.89   1
  -1  -1  10    0.20    2.11   1
  -1  -1  11    8.18    3.32   1
  -1  -1  12    7.08    3.67   1
  -1   0 -12    6.71    3.99   1
  -1   0 -11    2.79    1.40   1
  -1   0 -10    9.92    1.39   1
  -1   0  -9    0.00    1.00   1
  -1   0  -8   21.62    2.05   1
  -1   0  -7   27.98    2.01   1
  -1   0  -6  227.41    7.24   1
  -1   0  -5   66.42    3.10   1
  -1   0  -4  391.25   11.08   1
  -1   0  -3  752.95   21.95   1
  -1   0  -1   -0.50    0.30   1
  -1   0   1   -0.50    0.20   1
  -1   0   2  294.81    5.84   1
  -1   0   3   15.29    0.94   1
  -1   0   4   40.96    2.05   1
  -1   0   5    3.50    1.01   1
  -1   0   6  766.74   19.94   1
  -1   0   7  278.89    7.68   1
  -1   0   8  138.53    4.71   1
  -1   0   9    4.88    2.08   1
  -1   0  10   92.74    4.43   1
  -1   0  11   22.66    3.81   1
  -1   0  12    2.50    4.30   1
  -1   1 -12   -2.79    2.71   1
  -1   1 -11    8.70    2.42   1
  -1   1 -10   24.01    1.47   1
  -1   1  -9    1.59    1.01   1
  -1   1  -8    2.50    0.79   1
  -1   1  -7   80.82    2.52   1
  -1   1  -6  114.49    3.00   1
  -1   1  -5  144.48    3.85   1
  -1   1  -4  125.89    4.26   1
  -1   1  -3   31.36    1.34   1
  -1   1  -2    8.41    0.70   1
  -1   1  -1   13.32    1.10   1
  -1   1   0    3.10    0.39   1
  -1   1   1   -0.59    0.40   1
  -1   1   2  188.79    4.67   1
  -1   1   3  252.49    6.67   1
  -1   1   4  170.56    5.49   1
  -1   1   5  253.13    8.59   1
  -1   1   6   79.57    3.57   1
  -1   1   7   71.23    2.87   1
  -1   1   8   16.56    1.87   1
  -1   1   9    1.49    1.90   1
  -1   1  10   -1.10    2.50   1
  -1   1  11    5.38    2.88   1
  -1   1  12    7.08    3.62   1
  -1   2 -12    8.29    3.23   1
  -1   2 -11    2.69    2.20   1
  -1   2 -10    7.62    2.43   1
  -1   2  -9  113.64    4.90   1
  -1   2  -8  402.80   10.84   1
  -1   2  -7   12.32    1.47   1
  -1   2  -6   60.37    2.95   1
  -1   2  -5  177.69    5.87   1
  -1   2  -4    4.00    0.88   1
  -1   2  -3   12.53    1.63   1
  -1   2  -2  224.10    6.89   1
  -1   2  -1   56.55    1.50   1
  -1   2   0 1011.24   37.52   1
  -1   2   1 1063.41   20.87   1
  -1   2   2 5136.59  118.97   1
  -1   2   3  135.96    4.90   1
  -1   2   4  177.16    5.32   1
  -1   2   5    1.69    0.99   1
  -1   2   6   37.33    3.06   1
  -1   2   7   15.37    1.72   1
  -1   2   8    9.00    1.80   1
  -1   2   9    2.89    2.11   1
  -1   2  10   26.63    2.99   1
  -1   2  11   -3.69    3.38   1
  -1   2  12    3.39    5.19   1
  -1   3 -12    4.80    4.12   1
  -1   3 -11   -5.29    3.82   1
  -1   3 -10    2.10    1.80   1
  -1   3  -9   52.56    3.04   1
  -1   3  -8  127.92    4.30   1
  -1   3  -7   21.62    1.77   1
  -1   3  -6   29.05    1.72   1
  -1   3  -5 1020.80   23.64   1
  -1   3  -4 1386.07   26.06   1
  -1   3  -3   88.92    2.45   1
  -1   3  -2    1.49    0.59   1
  -1   3  -1   57.61    1.97   1
  -1   3   0   47.33    1.65   1
  -1   3   1  699.07   14.28   1
  -1   3   2 2041.23   71.38   1
  -1   3   3    6.10    1.28   1
  -1   3   4  412.90   14.22   1
  -1   3   5 1162.13   36.14   1
  -1   3   6 1718.10   54.71   1
  -1   3   7   14.29    2.27   1
  -1   3   8    8.41    2.61   1
  -1   3   9    3.10    2.89   1
  -1   3  10   -1.59    3.98   1
  -1   3  11    0.30    5.22   1
  -1   3  12   25.81    7.21   1
  -1   4 -11    3.31    3.09   1
  -1   4 -10    1.99    2.00   1
  -1   4  -9    3.31    3.20   1
  -1   4  -8    7.40    1.69   1
  -1   4  -7   15.60    1.74   1
  -1   4  -6    0.79    1.19   1
  -1   4  -5   62.41    2.53   1
  -1   4  -4  166.67    4.39   1
  -1   4  -3   31.81    1.58   1
  -1   4  -2   21.34    1.39   1
  -1   4  -1   33.76    1.74   1
  -1   4   0   17.22    1.16   1
  -1   4   1   26.42    1.44   1
  -1   4   2  335.26    9.15   1
  -1   4   3  393.23   11.50   1
  -1   4   4  327.25   10.85   1
  -1   4   5  320.41   11.10   1
  -1   4   6  240.87    9.93   1
  -1   4   7   30.69    2.88   1
  -1   4   8    5.38    2.69   1
  -1   4   9   20.79    3.56   1
  -1   4  10    6.10    4.20   1
  -1   5 -11    0.71    3.61   1
  -1   5 -10    1.99    2.59   1
  -1   5  -9    3.31    2.00   1
  -1   5  -8    0.50    1.51   1
  -1   5  -7    1.49    1.59   1
  -1   5  -6   15.60    1.58   1
  -1   5  -5  162.82    4.85   1
  -1   5  -4   17.64    1.60   1
  -1   5  -3   61.47    2.67   1
  -1   5  -2   11.22    1.41   1
  -1   5  -1  179.83    5.10   1
  -1   5   0  103.84    3.46   1
  -1   5   1   75.17    2.77   1
  -1   5   2   71.06    2.53   1
  -1   5   3  246.49    7.85   1
  -1   5   4  263.09    9.41   1
  -1   5   5  214.92    8.50   1
  -1   5   6   69.56    4.34   1
  -1   5   7   18.58    2.76   1
  -1   5   8    2.50    3.00   1
  -1   5   9    0.59    3.37   1
  -1   5  10    3.39    3.97   1
  -1   5  11   10.63    6.32   1
  -1   6 -11    0.20    3.42   1
  -1   6 -10    4.08    3.11   1
  -1   6  -9  123.88    6.46   1
  -1   6  -8   19.36    2.73   1
  -1   6  -7    8.12    2.11   1
  -1   6  -6   -0.10    1.41   1
  -1   6  -5   54.76    3.26   1
  -1   6  -4    5.62    1.71   1
  -1   6  -3   54.46    2.80   1
  -1   6  -2   34.11    2.45   1
  -1   6  -1  245.55    7.21   1
  -1   6   0   54.02    2.65   1
  -1   6   1 1707.34   35.54   1
  -1   6   2  600.74   17.16   1
  -1   6   3  175.30    9.27   1
  -1   6   4    0.50    1.70   1
  -1   6   5  142.56    5.97   1
  -1   6   6    6.50    2.60   1
  -1   6   7    2.89    3.09   1
  -1   6   8    9.80    3.00   1
  -1   6   9    6.40    4.40   1
  -1   6  10    0.90    4.90   1
  -1   6  11   36.00    8.28   1
  -1   7 -10    0.90    3.61   1
  -1   7  -9    8.88    2.68   1
  -1   7  -8    0.00    1.00   1
  -1   7  -7   11.97    2.49   1
  -1   7  -6   11.90    2.48   1
  -1   7  -5  217.86    7.38   1
  -1   7  -4   30.25    2.75   1
  -1   7  -3   79.74    3.75   1
  -1   7  -2   14.06    2.03   1
  -1   7  -1   39.94    2.53   1
  -1   7   0    6.40    1.82   1
  -1   7   1  437.65   11.30   1
  -1   7   2   64.32    4.01   1
  -1   7   3   68.06    3.96   1
  -1   7   4   65.77    5.68   1
  -1   7   5  647.19   22.39   1
  -1   7   6   34.34    4.10   1
  -1   7   7   13.69    3.18   1
  -1   7   8    1.90    5.41   1
  -1   7   9    2.50    5.69   1
  -1   7  10    5.11    5.51   1
  -1   8  -9    5.71    3.68   1
  -1   8  -8   -1.30    3.31   1
  -1   8  -7    8.12    3.59   1
  -1   8  -6    6.50    2.81   1
  -1   8  -5   -1.21    2.20   1
  -1   8  -4    2.79    2.61   1
  -1   8  -3    8.18    2.29   1
  -1   8  -2   20.07    2.42   1
  -1   8  -1   11.97    2.28   1
  -1   8   0  153.26    5.20   1
  -1   8   1  127.92    5.20   1
  -1   8   2   43.96    3.45   1
  -1   8   3   28.41    3.41   1
  -1   8   4    0.90    2.30   1
  -1   8   5   16.16    3.14   1
  -1   8   6   -0.50    2.71   1
  -1   8   7   11.97    4.22   1
  -1   8   8   -0.90    5.41   1
  -1   8   9   -1.21    6.34   1
  -1   8  10    9.49    6.41   1
  -1   9  -8   -3.69    3.61   1
  -1   9  -7    2.31    3.10   1
  -1   9  -6   11.70    3.83   1
  -1   9  -5    2.31    2.40   1
  -1   9  -4   23.43    3.29   1
  -1   9  -3   72.08    4.75   1
  -1   9  -2   -0.10    2.84   1
  -1   9  -1    2.50    2.31   1
  -1   9   0   15.68    2.69   1
  -1   9   1    5.71    2.49   1
  -1   9   2    3.20    2.29   1
  -1   9   3    9.99    2.72   1
  -1   9   4    6.50    2.91   1
  -1   9   5   22.66    3.90   1
  -1   9   6    2.31    3.80   1
  -1   9   7   29.16    6.05   1
  -1   9   8   -2.31    5.20   1
  -1   9   9    7.67    6.70   1
  -1  10  -7    2.31    4.41   1
  -1  10  -6    3.50    4.30   1
  -1  10  -5    3.10    4.29   1
  -1  10  -4   13.69    3.33   1
  -1  10  -3   11.70    3.63   1
  -1  10  -2    1.39    3.09   1
  -1  10  -1    0.59    2.59   1
  -1  10   0  249.01   10.73   1
  -1  10   1  253.45   11.14   1
  -1  10   2   -0.59    3.48   1
  -1  10   3   13.47    3.38   1
  -1  10   4   12.67    3.49   1
  -1  10   5    4.28    5.17   1
  -1  10   6   -5.62    5.92   1
  -1  10   7   19.98    7.96   1
  -1  10   8    6.10    7.11   1
  -1  11  -5   -4.41    4.41   1
  -1  11  -4    1.80    4.21   1
  -1  11  -3    1.69    3.69   1
  -1  11  -2    0.30    3.11   1
  -1  11  -1    5.71    3.39   1
  -1  11   0    4.28    3.68   1
  -1  11   1   16.97    4.61   1
  -1  11   2    3.50    4.41   1
  -1  11   3    3.88    4.57   1
  -1  11   4   63.36    8.44   1
  -1  11   5   13.76    6.08   1
  -1  11   6   16.81    8.04   1
  -1  12  -3   -9.61    6.20   1
  -1  12  -2   -1.59    6.48   1
  -1  12  -1   -2.59    5.60   1
  -1  12   0   13.40    5.93   1
  -1  12   1    7.08    7.08   1
  -1  12   2    4.58    5.91   1
  -1  12   3    1.39    6.99   1
  -1  12   4   -2.99    5.99   1
   0 -12  -4    1.99    6.09   1
   0 -12  -3   -2.31    5.20   1
   0 -12  -2   -3.20    6.01   1
   0 -12  -1    0.20    7.05   1
   0 -12   0    4.80    7.10   1
   0 -12   1   -2.59    7.28   1
   0 -12   2    5.52    7.43   1
   0 -12   3    4.41    7.31   1
   0 -11  -6    4.71    8.42   1
   0 -11  -5   56.25    6.30   1
   0 -11  -4  108.78    7.93   1
   0 -11  -3   -0.59    4.37   1
   0 -11  -2   12.82    4.87   1
   0 -11  -1    5.62    4.79   1
   0 -11   0    3.20    3.29   1
   0 -11   1    4.08    4.28   1
   0 -11   2   41.86    5.05   1
   0 -11   3    1.99    4.99   1
   0 -11   4    7.78    6.70   1
   0 -11   5   11.09    6.19   1
   0 -11   6   14.29    6.73   1
   0 -10  -8    6.40    7.39   1
   0 -10  -7    2.50    4.90   1
   0 -10  -6    5.02    4.30   1
   0 -10  -5   43.69    5.02   1
   0 -10  -4   46.24    5.17   1
   0 -10  -3    1.49    2.68   1
   0 -10  -2   10.69    2.68   1
   0 -10  -1   16.81    3.12   1
   0 -10   0   26.42    3.39   1
   0 -10   1    3.39    2.28   1
   0 -10   2    5.02    3.23   1
   0 -10   3    6.10    3.90   1
   0 -10   4   -2.99    4.50   1
   0 -10   5    3.31    5.61   1
   0 -10   6   15.68    6.49   1
   0 -10   7   -1.80    6.49   1
   0  -9  -9    5.02    8.74   1
   0  -9  -8    4.28    3.81   1
   0  -9  -7    6.50    2.70   1
   0  -9  -6   13.10    3.40   1
   0  -9  -5   20.07    2.78   1
   0  -9  -4   23.72    2.82   1
   0  -9  -3   -0.10    1.92   1
   0  -9  -2    9.49    1.97   1
   0  -9  -1    2.69    1.90   1
   0  -9   0    4.58    2.01   1
   0  -9   1    1.80    1.90   1
   0  -9   2   11.22    2.08   1
   0  -9   3    5.90    2.28   1
   0  -9   4    4.88    2.92   1
   0  -9   5    7.62    2.82   1
   0  -9   6    2.99    4.71   1
   0  -9   7    2.59    5.28   1
   0  -9   8    4.58    5.91   1
   0  -8 -10   -4.00    3.80   1
   0  -8  -9  131.79    8.95   1
   0  -8  -8   52.85    3.63   1
   0  -8  -7   33.52    2.55   1
   0  -8  -6    0.20    1.91   1
   0  -8  -5   33.76    2.67   1
   0  -8  -4   -1.21    1.72   1
   0  -8  -3   16.40    2.11   1
   0  -8  -2   41.60    2.84   1
   0  -8  -1   90.63    3.81   1
   0  -8   0   10.11    1.91   1
   0  -8   1  593.90   16.08   1
   0  -8   2  254.08    6.69   1
   0  -8   3   44.36    3.06   1
   0  -8   4    6.81    2.19   1
   0  -8   5    0.30    2.11   1
   0  -8   6   -1.21    2.11   1
   0  -8   7   -1.00    1.30   1
   0  -8   8   -2.31    4.80   1
   0  -8   9   -1.59    4.79   1
   0  -7 -10    4.71    3.69   1
   0  -7  -9   86.86    3.54   1
   0  -7  -8    7.40    1.90   1
   0  -7  -7   61.47    2.82   1
   0  -7  -6   46.65    2.46   1
   0  -7  -5  663.58   19.58   1
   0  -7  -4   65.45    3.07   1
   0  -7  -3   55.35    2.83   1
   0  -7  -2    3.39    1.58   1
   0  -7  -1   14.52    1.83   1
   0  -7   0    1.00    1.60   1
   0  -7   1  490.18   10.18   1
   0  -7   2  168.74    5.20   1
   0  -7   3   76.39    2.97   1
   0  -7   4   16.16    2.33   1
   0  -7   5  396.01   12.74   1
   0  -7   6   83.54    4.57   1
   0  -7   7    2.31    0.91   1
   0  -7   8    2.69    4.40   1
   0  -7   9    1.80    4.40   1
   0  -7  10    6.10    4.79   1
   0  -6 -11   -5.11    3.48   1
   0  -6 -10    5.81    2.41   1
   0  -6  -9    3.80    1.60   1
   0  -6  -8   21.34    1.85   1
   0  -6  -7   25.20    1.91   1
   0  -6  -6   19.10    1.66   1
   0  -6  -5   76.91    3.16   1
   0  -6  -4    1.39    1.30   1
   0  -6  -3   68.72    2.82   1
   0  -6  -2   18.49    2.06   1
   0  -6  -1   22.37    1.80   1
   0  -6   0  120.56    3.95   1
   0  -6   1   62.73    2.69   1
   0  -6   2   59.44    2.47   1
   0  -6   3  185.23    5.44   1
   0  -6   4    3.69    1.50   1
   0  -6   5  115.35    5.37   1
   0  -6   6   18.92    1.31   1
   0  -6   7   22.00    2.72   1
   0  -6   8    1.59    2.19   1
   0  -6   9    1.10    4.01   1
   0  -6  10    9.12    5.19   1
   0  -6  11    2.99    4.60   1
   0  -5 -12   -1.30    3.81   1
   0  -5 -11   20.79    4.29   1
   0  -5 -10    6.60    2.21   1
   0  -5  -9   12.11    2.58   1
   0  -5  -8    5.81    1.59   1
   0  -5  -7    5.02    1.61   1
   0  -5  -6    5.20    1.41   1
   0  -5  -5  187.14    4.65   1
   0  -5  -4   28.84    1.72   1
   0  -5  -3  509.40   13.54   1
   0  -5  -2    4.00    1.00   1
   0  -5  -1  104.45    3.27   1
   0  -5   0    9.92    1.20   1
   0  -5   1    2.59    1.09   1
   0  -5   2  285.61    7.44   1
   0  -5   3  135.49    3.49   1
   0  -5   4   82.45    3.45   1
   0  -5   5  152.28    5.92   1
   0  -5   6    2.10    0.70   1
   0  -5   7    2.99    2.49   1
   0  -5   8    1.59    2.09   1
   0  -5   9    5.20    2.28   1
   0  -5  10   -3.20    3.62   1
   0  -5  11    2.69    4.49   1
   0  -4 -12    6.30    4.32   1
   0  -4 -11    6.92    4.21   1
   0  -4 -10  195.16    8.10   1
   0  -4  -9  311.88   10.95   1
   0  -4  -8    2.69    1.51   1
   0  -4  -7    7.08    1.22   1
   0  -4  -6  166.67    4.91   1
   0  -4  -5   26.63    1.65   1
   0  -4  -4   10.50    1.23   1
   0  -4  -3  100.80    3.41   1
   0  -4  -2   73.96    2.24   1
   0  -4  -1  118.59    3.27   1
   0  -4   0  780.64   16.76   1
   0  -4   1  919.91   19.41   1
   0  -4   2   13.47    1.03   1
   0  -4   3  130.64    3.89   1
   0  -4   4  145.20    7.71   1
   0  -4   5  131.79    4.82   1
   0  -4   6   72.42    3.23   1
   0  -4   7   26.32    2.46   1
   0  -4   8    9.92    1.89   1
   0  -4   9    4.00    2.00   1
   0  -4  10   11.09    4.40   1
   0  -4  11   36.48    4.95   1
   0  -4  12   -0.79    6.18   1
   0  -3 -12   -1.00    2.60   1
   0  -3 -11    2.59    2.29   1
   0  -3 -10   46.24    3.26   1
   0  -3  -9   26.52    2.47   1
   0  -3  -8   91.97    4.22   1
   0  -3  -7    1.99    1.18   1
   0  -3  -6  805.99   17.03   1
   0  -3  -5  186.60    5.74   1
   0  -3  -4   95.26    2.93   1
   0  -3  -3  139.48    5.67   1
   0  -3  -2   19.98    1.07   1
   0  -3  -1   92.54    2.50   1
   0  -3   0  612.07   13.85   1
   0  -3   1 1572.12   39.65   1
   0  -3   2   49.42    1.55   1
   0  -3   3  132.48    4.60   1
   0  -3   4  770.06   17.20   1
   0  -3   5 1286.66   34.44   1
   0  -3   6    0.71    1.31   1
   0  -3   7   11.49    1.70   1
   0  -3   8    6.20    2.59   1
   0  -3   9    2.31    1.70   1
   0  -3  10    7.02    2.23   1
   0  -3  11   14.98    3.87   1
   0  -3  12    8.18    5.38   1
   0  -2 -12    3.10    2.11   1
   0  -2 -11    7.08    1.92   1
   0  -2 -10    8.70    2.01   1
   0  -2  -9   39.94    3.54   1
   0  -2  -8   56.25    3.15   1
   0  -2  -7   28.52    2.35   1
   0  -2  -6   18.32    1.54   1
   0  -2  -5    9.42    0.92   1
   0  -2  -4   12.39    0.99   1
   0  -2  -3    3.80    0.70   1
   0  -2  -2   85.75    3.89   1
   0  -2  -1    0.30    1.00   1
   0  -2   0    0.10    0.81   1
   0  -2   1  676.00   14.56   1
   0  -2   2  441.00   10.50   1
   0  -2   3    2.89    0.51   1
   0  -2   4   23.62    1.36   1
   0  -2   5   26.21    2.66   1
   0  -2   6   30.36    1.87   1
   0  -2   7   21.53    1.86   1
   0  -2   8    6.71    1.71   1
   0  -2   9   -0.50    2.00   1
   0  -2  10    2.19    1.60   1
   0  -2  11    9.42    6.08   1
   0  -2  12    4.00    3.60   1
   0  -1 -12    5.71    2.92   1
   0  -1 -11    1.21    1.61   1
   0  -1 -10   67.08    2.78   1
   0  -1  -9    1.30    1.60   1
   0  -1  -8   22.56    2.57   1
   0  -1  -7    4.00    1.40   1
   0  -1  -6  207.07    8.35   1
   0  -1  -5  102.82    4.66   1
   0  -1  -4  576.00   17.28   1
   0  -1  -3  819.68   17.75   1
   0  -1  -2  844.48   28.48   1
   0  -1  -1   -0.10    0.51   1
   0  -1   1    0.20    0.31   1
   0  -1   2  472.19   13.04   1
   0  -1   3  208.51    7.22   1
   0  -1   4   70.73    3.53   1
   0  -1   5   63.20    3.02   1
   0  -1   6  163.07    5.62   1
   0  -1   7   37.82    1.97   1
   0  -1   8   76.56    3.15   1
   0  -1   9   11.42    2.10   1
   0  -1  10    2.79    2.30   1
   0  -1  11    2.79    3.01   1
   0  -1  12   -0.90    5.02   1
   0   0 -12    6.50    2.70   1
   0   0 -11   30.25    2.42   1
   0   0 -10  239.63    6.50   1
   0   0  -9   -0.20    1.11   1
   0   0  -8  120.12    3.29   1
   0   0  -7  139.00    3.54   1
   0   0  -6   55.65    2.83   1
   0   0  -5    2.50    0.79   1
   0   0  -4  386.91   12.59   1
   0   0  -3  192.93    6.67   1
   0   0  -2   -0.30    0.41   1
   0   0   2    0.10    0.81   1
   0   0   3  194.88    7.26   1
   0   0   4  454.12   12.36   1
   0   0   5    1.49    0.71   1
   0   0   6   49.56    2.39   1
   0   0   7  136.89    4.45   1
   0   0   8  131.79    4.59   1
   0   0   9   -0.90    1.90   1
   0   0  10  263.74    9.09   1
   0   0  11   27.14    3.75   1
   0   0  12    2.10    4.09   1
   0   1 -12   -1.00    2.50   1
   0   1 -11    0.10    2.12   1
   0   1 -10    4.58    1.41   1
   0   1  -9    8.58    1.11   1
   0   1  -8   70.90    2.36   1
   0   1  -7   32.04    1.36   1
   0   1  -6  157.00    4.01   1
   0   1  -5   55.35    2.08   1
   0   1  -4   68.39    1.82   1
   0   1  -3  211.41    4.36   1
   0   1  -2  499.97   13.42   1
   0   1  -1   -0.50    0.20   1
   0   1   1   -0.71    0.40   1
   0   1   2  992.25   24.57   1
   0   1   3  842.16   19.15   1
   0   1   4  618.02   15.91   1
   0   1   5   99.20    3.98   1
   0   1   6  192.10    6.10   1
   0   1   7    0.10    1.32   1
   0   1   8   20.98    2.02   1
   0   1   9    3.31    1.82   1
   0   1  10   67.24    4.10   1
   0   1  11    0.50    3.01   1
   0   1  12    7.08    3.88   1
   0   2 -12    6.10    2.52   1
   0   2 -11    7.67    3.71   1
   0   2 -10    3.10    1.80   1
   0   2  -9    2.31    1.40   1
   0   2  -8    6.50    1.48   1
   0   2  -7   19.98    1.52   1
   0   2  -6   30.91    1.89   1
   0   2  -5   27.14    1.46   1
   0   2  -4   23.04    1.34   1
   0   2  -3    0.59    0.60   1
   0   2  -2  433.47    8.74   1
   0   2  -1  647.19   24.42   1
   0   2   0   -0.30    0.51   1
   0   2   1    0.79    0.89   1
   0   2   2   88.92    4.15   1
   0   2   3    4.49    1.02   1
   0   2   4   11.70    1.30   1
   0   2   5    8.41    0.99   1
   0   2   6   21.16    1.56   1
   0   2   7   30.91    2.11   1
   0   2   8   57.46    2.88   1
   0   2   9   37.70    2.82   1
   0   2  10    6.20    2.29   1
   0   2  11    6.40    2.88   1
   0   2  12    1.39    5.19   1
   0   3 -12    4.88    4.99   1
   0   3 -11   22.66    2.86   1
   0   3 -10   14.67    3.68   1
   0   3  -9    1.00    1.50   1
   0   3  -8    1.10    2.20   1
   0   3  -7    8.01    1.30   1
   0   3  -6    1.90    1.21   1
   0   3  -5 1318.42   29.77   1
   0   3  -4  786.24   15.14   1
   0   3  -3  130.42    3.20   1
   0   3  -2   45.70    1.49   1
   0   3  -1 1531.16   38.35   1
   0   3   0  597.80   13.20   1
   0   3   1   88.92    2.45   1
   0   3   2   16.89    1.32   1
   0   3   3  161.29    5.59   1
   0   3   4   89.11    4.34   1
   0   3   5  181.98    7.82   1
   0   3   6  832.90   28.28   1
   0   3   7    1.59    1.59   1
   0   3   8   91.58    4.98   1
   0   3   9   24.50    3.17   1
   0   3  10   42.38    4.17   1
   0   3  11    5.11    4.02   1
   0   3  12    5.62    5.69   1
   0   4 -12   -5.11    5.20   1
   0   4 -11   19.36    4.75   1
   0   4 -10   17.31    2.58   1
   0   4  -9    5.62    1.99   1
   0   4  -8    8.70    1.59   1
   0   4  -7   29.16    2.16   1
   0   4  -6   69.56    3.50   1
   0   4  -5  120.34    3.73   1
   0   4  -4  143.04    3.83   1
   0   4  -3  117.72    3.26   1
   0   4  -2   12.67    1.07   1
   0   4  -1  873.20   18.32   1
   0   4   0  766.74   16.06   1
   0   4   1  109.83    3.14   1
   0   4   2   63.84    2.88   1
   0   4   3   99.60    4.39   1
   0   4   4   14.06    1.88   1
   0   4   5   23.81    2.24   1
   0   4   6  167.18    6.21   1
   0   4   7    9.12    2.11   1
   0   4   8    3.39    2.21   1
   0   4   9  283.25   12.45   1
   0   4  10  177.69   12.80   1
   0   4  11   -1.39    4.79   1
   0   4  12    1.00    5.80   1
   0   5 -11   -0.90    2.60   1
   0   5 -10    0.20    2.11   1
   0   5  -9    1.21    1.91   1
   0   5  -8   -0.20    1.81   1
   0   5  -7    3.88    2.40   1
   0   5  -6    3.39    1.29   1
   0   5  -5  152.77    4.70   1
   0   5  -4   72.25    2.72   1
   0   5  -3  121.00    4.18   1
   0   5  -2  264.06    7.15   1
   0   5  -1   -0.71    1.11   1
   0   5   0   10.50    1.23   1
   0   5   1   95.45    3.13   1
   0   5   2    3.61    1.29   1
   0   5   3  502.66   13.90   1
   0   5   4   28.84    2.15   1
   0   5   5  191.82    7.76   1
   0   5   6    6.20    2.29   1
   0   5   7    8.53    2.69   1
   0   5   8    8.01    2.89   1
   0   5   9    7.29    3.67   1
   0   5  10   -0.50    4.71   1
   0   5  11   19.62    6.29   1
   0   6 -11   -2.31    3.10   1
   0   6 -10   -2.40    2.60   1
   0   6  -9   10.37    2.77   1
   0   6  -8    0.90    2.11   1
   0   6  -7   21.34    2.40   1
   0   6  -6   21.07    2.11   1
   0   6  -5  106.92    4.55   1
   0   6  -4    2.69    1.41   1
   0   6  -3  162.05    5.09   1
   0   6  -2   50.69    2.56   1
   0   6  -1   53.44    2.63   1
   0   6   0  117.07    3.68   1
   0   6   1   14.67    1.61   1
   0   6   2   25.20    2.41   1
   0   6   3   65.77    3.41   1
   0   6   4   -0.10    1.92   1
   0   6   5   75.86    4.18   1
   0   6   6   16.48    2.68   1
   0   6   7   27.25    3.65   1
   0   6   8   16.81    3.20   1
   0   6   9    7.08    4.47   1
   0   6  10   19.10    6.64   1
   0   6  11   -0.79    5.57   1
   0   7 -10    1.80    3.99   1
   0   7  -9   -0.50    2.61   1
   0   7  -8    3.61    2.70   1
   0   7  -7    6.20    2.39   1
   0   7  -6   74.13    4.13   1
   0   7  -5  377.91   11.66   1
   0   7  -4   20.34    2.35   1
   0   7  -3   70.22    3.35   1
   0   7  -2  155.25    5.48   1
   0   7  -1  442.68   11.78   1
   0   7   0    1.90    1.71   1
   0   7   1    7.18    1.72   1
   0   7   2    5.29    1.98   1
   0   7   3   56.85    3.47   1
   0   7   4   60.53    3.73   1
   0   7   5  705.96   21.79   1
   0   7   6   44.22    3.86   1
   0   7   7   55.95    4.64   1
   0   7   8   11.49    3.73   1
   0   7   9   92.16    9.98   1
   0   7  10    4.00    5.40   1
   0   7  11    5.71    6.21   1
   0   8  -9    7.18    3.81   1
   0   8  -8   -1.59    3.18   1
   0   8  -7    3.20    2.61   1
   0   8  -6   -0.59    2.09   1
   0   8  -5    3.61    2.20   1
   0   8  -4   10.30    2.12   1
   0   8  -3   36.84    2.91   1
   0   8  -2  232.87    7.94   1
   0   8  -1  548.50   14.99   1
   0   8   0    7.08    1.92   1
   0   8   1   88.36    4.51   1
   0   8   2   42.38    3.39   1
   0   8   3   21.34    2.77   1
   0   8   4    0.71    2.50   1
   0   8   5   25.60    3.34   1
   0   8   6   -0.40    2.68   1
   0   8   7   31.70    4.28   1
   0   8   8   57.61    7.59   1
   0   8   9  131.10   12.82   1
   0   8  10    6.10    6.22   1
   0   9  -8   -1.90    4.00   1
   0   9  -7    4.80    3.50   1
   0   9  -6    1.69    3.20   1
   0   9  -5   13.03    2.82   1
   0   9  -4    8.18    2.80   1
   0   9  -3    5.20    2.42   1
   0   9  -2    9.92    2.58   1
   0   9  -1    1.99    2.28   1
   0   9   0    3.88    2.29   1
   0   9   1    1.49    2.10   1
   0   9   2   13.10    2.68   1
   0   9   3    3.10    2.50   1
   0   9   4   19.18    3.77   1
   0   9   5   24.90    3.79   1
   0   9   6    9.00    3.48   1
   0   9   7    9.30    5.00   1
   0   9   8   -5.62    5.12   1
   0   9   9   -2.89    7.17   1
   0  10  -7   13.03    8.23   1
   0  10  -6   15.13    3.97   1
   0  10  -5   11.97    4.71   1
   0  10  -4   -0.90    3.00   1
   0  10  -3    2.19    2.78   1
   0  10  -2    4.71    3.08   1
   0  10  -1    2.19    2.99   1
   0  10   0   24.01    3.53   1
   0  10   1   16.08    3.37   1
   0  10   2   13.10    3.48   1
   0  10   3    2.31    3.22   1
   0  10   4   58.68    5.36   1
   0  10   5   32.95    4.94   1
   0  10   6   -2.79    5.38   1
   0  10   7   18.84    7.38   1
   0  10   8    7.78    6.81   1
   0  11  -6   24.40    5.73   1
   0  11  -5    1.49    4.17   1
   0  11  -4    4.49    4.28   1
   0  11  -3   -2.59    3.28   1
   0  11  -2   44.49    4.27   1
   0  11  -1    3.20    4.01   1
   0  11   0    2.10    3.10   1
   0  11   1   -1.39    3.89   1
   0  11   2   13.62    4.28   1
   0  11   3   -1.00    4.50   1
   0  11   4  124.99   11.40   1
   0  11   5   71.91    8.99   1
   0  11   6   22.00    7.69   1
   0  12  -3    6.60    6.22   1
   0  12  -2   12.18    6.49   1
   0  12  -1    1.99    5.89   1
   0  12   0   11.22    6.83   1
   0  12   1    6.20    6.62   1
   0  12   2    2.50    5.09   1
   0  12   3   -2.10    6.90   1
   0  12   4   -1.90    5.52   1
   1 -12  -4    0.71    6.13   1
   1 -12  -3   12.39   11.26   1
   1 -12  -2   -7.62    5.69   1
   1 -12  -1    1.80    7.40   1
   1 -12   0   -3.80    5.42   1
   1 -12   1    0.10    6.07   1
   1 -12   2    0.71    5.73   1
   1 -12   3    2.59    7.08   1
   1 -11  -6   10.30    8.22   1
   1 -11  -5   20.07    8.69   1
   1 -11  -4   39.06    8.00   1
   1 -11  -3    6.10    5.38   1
   1 -11  -2    2.31    5.32   1
   1 -11  -1   19.36    6.95   1
   1 -11   0    1.00    3.80   1
   1 -11   1    4.20    3.20   1
   1 -11   2   12.53    6.51   1
   1 -11   3    6.10    5.98   1
   1 -11   4    7.18    6.81   1
   1 -11   5    6.30    5.82   1
   1 -11   6    0.00    1.00   1
   1 -10  -8   -2.19    5.18   1
   1 -10  -7   21.62    5.39   1
   1 -10  -6    0.20    3.82   1
   1 -10  -5    1.21    5.92   1
   1 -10  -4   -4.49    5.22   1
   1 -10  -3   14.06    3.08   1
   1 -10  -2    3.39    3.39   1
   1 -10  -1  253.45   10.51   1
   1 -10   0  238.70    7.72   1
   1 -10   1    2.31    2.10   1
   1 -10   2    5.81    2.80   1
   1 -10   3    9.67    4.66   1
   1 -10   4    8.18    4.80   1
   1 -10   5    0.90    5.70   1
   1 -10   6    3.80    5.69   1
   1 -10   7    5.29    5.29   1
   1  -9  -9    1.80    4.58   1
   1  -9  -8    3.88    3.98   1
   1  -9  -7   27.46    4.19   1
   1  -9  -6    0.40    2.19   1
   1  -9  -5   28.62    2.78   1
   1  -9  -4    3.31    2.11   1
   1  -9  -3    6.60    1.90   1
   1  -9  -2    2.19    1.89   1
   1  -9  -1   11.09    2.73   1
   1  -9   0   16.56    2.69   1
   1  -9   1    4.00    1.72   1
   1  -9   2   -1.10    2.71   1
   1  -9   3   72.42    4.77   1
   1  -9   4   24.60    3.27   1
   1  -9   5   -1.21    3.41   1
   1  -9   6    3.50    4.71   1
   1  -9   7   -1.30    4.31   1
   1  -9   8    4.80    4.91   1
   1  -8 -10    1.80    3.30   1
   1  -8  -9    1.21    4.22   1
   1  -8  -8   -0.20    3.73   1
   1  -8  -7   12.11    2.78   1
   1  -8  -6    0.71    1.71   1
   1  -8  -5   20.07    2.06   1
   1  -8  -4    0.40    1.50   1
   1  -8  -3   25.30    2.41   1
   1  -8  -2   39.82    2.65   1
   1  -8  -1  147.38    5.10   1
   1  -8   0  152.52    4.94   1
   1  -8   1   12.39    1.83   1
   1  -8   2   24.80    2.09   1
   1  -8   3   12.67    2.42   1
   1  -8   5    0.50    2.10   1
   1  -8   6    6.30    2.61   1
   1  -8   7    4.00    4.60   1
   1  -8   8   -5.29    5.01   1
   1  -8   9   -2.31    4.71   1
   1  -7 -10   -0.90    3.10   1
   1  -7  -9    5.11    2.98   1
   1  -7  -8    1.90    2.40   1
   1  -7  -7    8.29    2.07   1
   1  -7  -6   32.60    2.06   1
   1  -7  -5  659.98   16.96   1
   1  -7  -4   62.09    3.15   1
   1  -7  -3   71.91    3.05   1
   1  -7  -2   62.41    2.84   1
   1  -7  -1  454.12   11.51   1
   1  -7   0    6.10    1.58   1
   1  -7   1   45.43    2.16   1
   1  -7   2   15.68    1.66   1
   1  -7   3   90.63    4.19   1
   1  -7   4   36.97    3.04   1
   1  -7   5  222.31    8.95   1
   1  -7   6   10.11    2.48   1
   1  -7   7   10.18    2.42   1
   1  -7   8    3.80    4.72   1
   1  -7   9   10.37    4.57   1
   1  -7  10   -3.69    4.80   1
   1  -6 -11   46.92    6.44   1
   1  -6 -10    6.30    2.71   1
   1  -6  -9    5.38    1.90   1
   1  -6  -8    6.81    2.09   1
   1  -6  -7    5.62    1.71   1
   1  -6  -6    9.12    1.51   1
   1  -6  -5  135.96    3.73   1
   1  -6  -4    1.49    1.29   1
   1  -6  -3  211.12    5.81   1
   1  -6  -2  610.58   17.30   1
   1  -6  -1 1799.46   38.18   1
   1  -6   0   61.15    2.66   1
   1  -6   1  257.28    8.66   1
   1  -6   2   39.82    2.15   1
   1  -6   3   56.40    2.85   1
   1  -6   4    6.10    1.68   1
   1  -6   5   57.61    3.49   1
   1  -6   6    2.31    0.70   1
   1  -6   7    7.29    2.38   1
   1  -6   8   14.59    2.98   1
   1  -6   9  106.09    8.86   1
   1  -6  10    2.31    5.93   1
   1  -5 -11    1.30    3.99   1
   1  -5 -10    7.40    2.50   1
   1  -5  -9    2.40    1.89   1
   1  -5  -8    7.62    0.99   1
   1  -5  -7   22.00    1.50   1
   1  -5  -6   65.45    2.43   1
   1  -5  -5  228.92    5.45   1
   1  -5  -4  256.64    6.73   1
   1  -5  -3  279.89    6.69   1
   1  -5  -2   69.06    2.66   1
   1  -5  -1   68.56    2.65   1
   1  -5   0  113.42    3.41   1
   1  -5   1  181.98    5.94   1
   1  -5   2   12.11    1.18   1
   1  -5   3   67.40    3.12   1
   1  -5   4   19.80    1.78   1
   1  -5   5  172.40    6.30   1
   1  -5   6   17.47    1.92   1
   1  -5   7    2.40    1.80   1
   1  -5   8    1.00    1.70   1
   1  -5   9   -1.69    2.18   1
   1  -5  10    1.69    4.68   1
   1  -5  11    5.52    5.73   1
   1  -4 -12   -1.80    3.99   1
   1  -4 -11    8.12    3.08   1
   1  -4 -10    5.20    1.92   1
   1  -4  -9   23.62    2.24   1
   1  -4  -8    6.10    1.58   1
   1  -4  -7   29.48    1.63   1
   1  -4  -6  230.13    6.98   1
   1  -4  -5  330.88    7.28   1
   1  -4  -4  329.79    6.54   1
   1  -4  -3  377.91    8.55   1
   1  -4  -2  324.00    9.36   1
   1  -4  -1   29.05    1.51   1
   1  -4   0   18.23    1.28   1
   1  -4   1   39.69    1.51   1
   1  -4   2   25.40    1.71   1
   1  -4   3   32.83    2.06   1
   1  -4   4  171.87    5.77   1
   1  -4   5   72.25    3.91   1
   1  -4   6   -1.21    1.30   1
   1  -4   7   11.49    1.83   1
   1  -4   8   10.18    1.91   1
   1  -4   9    8.12    2.62   1
   1  -4  10    4.20    3.61   1
   1  -4  11    2.69    5.08   1
   1  -3 -12   29.48    3.26   1
   1  -3 -11   19.62    2.57   1
   1  -3 -10    5.02    3.09   1
   1  -3  -9   11.09    1.93   1
   1  -3  -8    7.02    1.33   1
   1  -3  -7   13.69    1.63   1
   1  -3  -6 1592.81   38.31   1
   1  -3  -5 1071.91   24.88   1
   1  -3  -4  396.41    9.56   1
   1  -3  -3    6.81    0.68   1
   1  -3  -2 1949.22   45.03   1
   1  -3  -1  677.04   17.17   1
   1  -3   0   45.83    2.03   1
   1  -3   1   59.14    1.85   1
   1  -3   2    1.10    0.69   1
   1  -3   3   88.92    3.58   1
   1  -3   4 1380.87   36.42   1
   1  -3   5 1013.79   36.93   1
   1  -3   6   27.25    2.09   1
   1  -3   7   23.91    2.05   1
   1  -3   8  126.34    5.84   1
   1  -3   9   54.32    3.54   1
   1  -3  10   -2.40    2.79   1
   1  -3  11    1.99    3.38   1
   1  -3  12   -1.90    3.89   1
   1  -2 -12    4.20    2.21   1
   1  -2 -11    1.90    2.01   1
   1  -2 -10   29.05    2.05   1
   1  -2  -9    0.50    1.51   1
   1  -2  -8   12.39    1.48   1
   1  -2  -7   14.59    1.38   1
   1  -2  -6   48.44    3.06   1
   1  -2  -5    3.39    0.81   1
   1  -2  -4  170.56    4.70   1
   1  -2  -3  136.42    3.74   1
   1  -2  -2 5014.06  116.13   1
   1  -2  -1 1032.34   25.70   1
   1  -2   0  967.21   36.70   1
   1  -2   1   55.95    2.24   1
   1  -2   2  223.20    7.17   1
   1  -2   3   12.60    1.28   1
   1  -2   4    3.10    0.81   1
   1  -2   5  178.22    5.87   1
   1  -2   6   61.62    3.14   1
   1  -2   7   14.52    1.68   1
   1  -2   8  406.43   13.71   1
   1  -2   9  130.19    8.22   1
   1  -2  10    9.00    2.10   1
   1  -2  11   -0.71    2.70   1
   1  -2  12    4.58    3.68   1
   1  -1 -12    9.61    1.98   1
   1  -1 -11    8.58    1.70   1
   1  -1 -10    1.30    1.89   1
   1  -1  -9    4.20    1.19   1
   1  -1  -8   19.27    1.32   1
   1  -1  -7   71.57    2.88   1
   1  -1  -6   81.54    3.07   1
   1  -1  -5  241.49    6.53   1
   1  -1  -4  163.07    3.83   1
   1  -1  -3  236.54    4.92   1
   1  -1  -2  194.04    5.57   1
   1  -1  -1   -0.59    0.40   1
   1  -1   0    4.00    0.48   1
   1  -1   1    8.82    0.42   1
   1  -1   2    7.62    0.72   1
   1  -1   3   31.25    1.45   1
   1  -1   4  121.88    4.42   1
   1  -1   5  148.35    7.55   1
   1  -1   6  125.22    4.70   1
   1  -1   7   85.19    3.88   1
   1  -1   8   -0.10    1.22   1
   1  -1   9    2.50    1.71   1
   1  -1  10   28.84    2.79   1
   1  -1  11    9.92    3.02   1
   1  -1  12   -3.39    3.50   1
   1   0 -12   -1.21    2.82   1
   1   0 -11   26.11    2.35   1
   1   0 -10   85.75    3.15   1
   1   0  -9    2.50    1.20   1
   1   0  -8  139.00    3.77   1
   1   0  -7  272.25    5.94   1
   1   0  -6  791.86   16.32   1
   1   0  -5    3.69    0.61   1
   1   0  -4   43.69    1.45   1
   1   0  -3   14.59    0.61   1
   1   0  -2  281.23    5.37   1
   1   0  -1    0.40    0.20   1
   1   0   1   -0.10    0.30   1
   1   0   3  769.51   24.41   1
   1   0   4  385.73   11.00   1
   1   0   5   62.88    3.17   1
   1   0   6  237.47    6.16   1
   1   0   7   29.70    1.96   1
   1   0   8   16.97    1.81   1
   1   0   9    2.59    1.80   1
   1   0  10   10.63    2.22   1
   1   0  11    4.71    3.08   1
   1   0  12    9.30    4.09   1
   1   1 -12    8.82    2.73   1
   1   1 -11    3.69    2.00   1
   1   1 -10    3.80    1.72   1
   1   1  -9    3.88    0.99   1
   1   1  -8   38.94    1.75   1
   1   1  -7  382.98    7.83   1
   1   1  -6 1136.36   21.57   1
   1   1  -5    4.71    0.61   1
   1   1  -4   79.39    2.14   1
   1   1  -3 1532.72   32.10   1
   1   1  -2 1875.76   33.78   1
   1   1  -1   19.98    0.98   1
   1   1   0    0.00    1.00   1
   1   1   1    0.00    1.00   1
   1   1   2  234.09    7.04   1
   1   1   3  965.97   19.89   1
   1   1   4 1106.23   27.27   1
   1   1   5   12.18    0.98   1
   1   1   6   95.06    3.12   1
   1   1   7  258.24    6.75   1
   1   1   8  423.12   10.70   1
   1   1   9   14.06    2.10   1
   1   1  10    1.00    1.90   1
   1   1  11    3.31    2.69   1
   1   1  12    2.79    3.51   1
   1   2 -12    4.41    3.19   1
   1   2 -11    8.88    3.87   1
   1   2 -10   13.10    1.88   1
   1   2  -9    6.10    2.72   1
   1   2  -8   30.03    1.97   1
   1   2  -7    5.29    1.79   1
   1   2  -6    8.18    0.97   1
   1   2  -5  212.28    5.54   1
   1   2  -4  123.65    3.34   1
   1   2  -3  208.22    6.06   1
   1   2  -2  919.30   20.01   1
   1   2  -1  254.72    5.75   1
   1   2   0  511.21   13.11   1
   1   2   1   11.90    0.83   1
   1   2   2  105.27    3.69   1
   1   2   3    4.08    0.89   1
   1   2   4    3.50    1.08   1
   1   2   5  293.09   10.27   1
   1   2   6   81.54    2.71   1
   1   2   7  228.31    6.65   1
   1   2   8  305.90    8.40   1
   1   2   9    3.20    1.90   1
   1   2  10   11.02    2.92   1
   1   2  11    3.20    3.69   1
   1   2  12    2.50    4.20   1
   1   3 -12   -0.90    3.10   1
   1   3 -11    3.88    2.09   1
   1   3 -10   -0.10    1.62   1
   1   3  -9    9.92    1.70   1
   1   3  -8    9.30    1.52   1
   1   3  -7    3.80    1.29   1
   1   3  -6   54.76    2.07   1
   1   3  -5   60.68    2.18   1
   1   3  -4  289.34    8.51   1
   1   3  -3  140.19    3.55   1
   1   3  -2   47.47    1.79   1
   1   3  -1  214.62    5.27   1
   1   3   0  302.76    8.35   1
   1   3   1   66.26    2.44   1
   1   3   2    1.59    0.91   1
   1   3   3  129.73    4.56   1
   1   3   4  149.82    5.14   1
   1   3   5  113.21    4.26   1
   1   3   6  168.22    7.52   1
   1   3   7   68.72    3.65   1
   1   3   8   38.19    3.46   1
   1   3   9   -2.89    2.21   1
   1   3  10    0.71    2.91   1
   1   3  11    2.69    4.89   1
   1   3  12    6.00    4.90   1
   1   4 -11   28.09    3.60   1
   1   4 -10    1.10    1.91   1
   1   4  -9    5.71    1.63   1
   1   4  -8   13.99    2.02   1
   1   4  -7  412.90   10.57   1
   1   4  -6   80.64    3.05   1
   1   4  -5   67.08    3.28   1
   1   4  -4   18.84    2.52   1
   1   4  -3   32.04    1.92   1
   1   4  -2   12.32    1.12   1
   1   4  -1  294.47    7.21   1
   1   4   0  367.87    8.82   1
   1   4   1  110.04    3.78   1
   1   4   2   20.34    1.53   1
   1   4   3 1926.33   46.52   1
   1   4   4  544.76   16.34   1
   1   4   5   56.85    3.17   1
   1   4   6   40.83    2.94   1
   1   4   7    1.39    1.70   1
   1   4   8   -1.90    2.40   1
   1   4   9   17.22    3.32   1
   1   4  10   22.56    5.60   1
   1   4  11    0.71    4.22   1
   1   4  12    6.30    5.12   1
   1   5 -11    1.21    4.73   1
   1   5 -10   -0.59    1.99   1
   1   5  -9    3.20    2.11   1
   1   5  -8   29.38    2.38   1
   1   5  -7  170.30    5.48   1
   1   5  -6   23.43    1.84   1
   1   5  -5   49.56    2.25   1
   1   5  -4   47.33    2.34   1
   1   5  -3  456.25   10.68   1
   1   5  -2   39.19    2.00   1
   1   5  -1   64.32    2.57   1
   1   5   0   75.52    2.78   1
   1   5   1  186.05    5.73   1
   1   5   2  193.77    6.40   1
   1   5   3 2389.25   55.72   1
   1   5   4  509.40   14.44   1
   1   5   5  323.28   11.15   1
   1   5   6   21.62    2.51   1
   1   5   7  479.61   18.40   1
   1   5   8   24.70    3.28   1
   1   5   9    3.31    3.09   1
   1   5  10    1.10    4.60   1
   1   5  11    3.39    5.70   1
   1   6 -11    4.00    3.52   1
   1   6 -10    1.00    3.40   1
   1   6  -9    2.79    2.40   1
   1   6  -8    0.59    1.99   1
   1   6  -7    2.89    1.80   1
   1   6  -6    2.10    1.51   1
   1   6  -5    1.49    1.49   1
   1   6  -4    2.19    1.18   1
   1   6  -3  129.73    4.33   1
   1   6  -2    2.79    1.30   1
   1   6  -1  118.37    3.70   1
   1   6   0   87.42    3.18   1
   1   6   1   76.21    3.32   1
   1   6   2   80.28    3.58   1
   1   6   3   19.18    2.28   1
   1   6   4   20.34    2.44   1
   1   6   5   22.28    2.45   1
   1   6   6    7.51    2.41   1
   1   6   7   85.01    4.98   1
   1   6   8   -1.59    2.90   1
   1   6   9    9.18    3.51   1
   1   6  10    2.40    4.99   1
   1   6  11   -2.79    6.18   1
   1   7 -10   -3.69    3.80   1
   1   7  -9    4.41    2.81   1
   1   7  -8    0.79    2.88   1
   1   7  -7   -1.00    1.80   1
   1   7  -6   -2.19    1.89   1
   1   7  -5   -0.50    1.80   1
   1   7  -4   52.13    3.03   1
   1   7  -3   61.94    3.93   1
   1   7  -2  135.02    4.88   1
   1   7  -1  242.74    6.86   1
   1   7   0   11.49    1.83   1
   1   7   1  155.25    5.73   1
   1   7   2   22.00    2.35   1
   1   7   3   39.69    3.02   1
   1   7   4    3.88    2.21   1
   1   7   5    2.10    2.09   1
   1   7   6   12.18    2.58   1
   1   7   7   13.69    3.11   1
   1   7   8   -3.20    3.01   1
   1   7   9    2.59    5.89   1
   1   7  10    5.62    5.50   1
   1   7  11   -2.50    5.78   1
   1   8  -9    1.69    3.48   1
   1   8  -8   48.58    4.32   1
   1   8  -7   32.04    3.74   1
   1   8  -6    1.21    2.11   1
   1   8  -5    7.62    2.59   1
   1   8  -4    1.80    1.90   1
   1   8  -3    0.30    1.61   1
   1   8  -2  131.10    5.27   1
   1   8  -1  261.15    8.08   1
   1   8   0   55.35    3.12   1
   1   8   1    5.81    2.22   1
   1   8   2  613.55   19.32   1
   1   8   3  375.58   13.57   1
   1   8   4    7.78    2.51   1
   1   8   5   11.02    2.99   1
   1   8   6    1.39    2.69   1
   1   8   7    2.50    3.19   1
   1   8   8   21.44    5.37   1
   1   8   9   49.56    8.59   1
   1   8  10    0.00    1.00   1
   1   9  -8    9.49    4.87   1
   1   9  -7   13.76    2.97   1
   1   9  -6   10.50    3.30   1
   1   9  -5    4.80    2.72   1
   1   9  -4   24.60    3.17   1
   1   9  -3   12.89    2.73   1
   1   9  -2    9.49    2.53   1
   1   9  -1    6.60    2.31   1
   1   9   0   24.70    2.98   1
   1   9   1    5.52    2.40   1
   1   9   2  167.18    8.53   1
   1   9   3  132.94    6.23   1
   1   9   4    9.18    3.27   1
   1   9   5    7.02    3.13   1
   1   9   6   61.15    5.16   1
   1   9   7    8.88    5.48   1
   1   9   8   -2.50    6.00   1
   1   9   9   -3.31    5.61   1
   1  10  -7   -1.30    3.99   1
   1  10  -6    3.10    3.31   1
   1  10  -5    5.90    3.40   1
   1  10  -4    1.90    2.90   1
   1  10  -3    5.11    2.80   1
   1  10  -2   -2.31    2.71   1
   1  10  -1    0.40    2.89   1
   1  10   0    3.39    2.91   1
   1  10   1   32.38    3.76   1
   1  10   2   27.35    3.35   1
   1  10   3   23.72    3.80   1
   1  10   4    4.41    3.70   1
   1  10   5    2.19    3.58   1
   1  10   6    2.31    4.20   1
   1  10   7   -0.79    5.18   1
   1  10   8    6.30    8.38   1
   1  11  -5   -2.99    4.98   1
   1  11  -4    7.29    3.62   1
   1  11  -3   -1.59    4.59   1
   1  11  -2   93.12    6.37   1
   1  11  -1   10.89    4.09   1
   1  11   0    2.79    3.31   1
   1  11   1    3.31    3.82   1
   1  11   2    3.10    4.01   1
   1  11   3    6.92    3.63   1
   1  11   4   -5.38    3.99   1
   1  11   5    8.82    6.53   1
   1  11   6   12.11    5.92   1
   1  12  -3    5.11    6.01   1
   1  12  -2   16.16    4.82   1
   1  12  -1    5.71    4.30   1
   1  12   0   15.29    4.69   1
   1  12   1    7.18    5.57   1
   1  12   2   95.84   11.16   1
   1  12   3    1.49    4.98   1
   1  12   4    9.00    7.32   1
   2 -12  -3   14.98    8.28   1
   2 -12  -2   19.10    7.17   1
   2 -12  -1    1.90    8.11   1
   2 -12   0   -2.69    7.08   1
   2 -12   1   -6.40    6.88   1
   2 -12   2    2.19    6.99   1
   2 -12   3   10.18    7.21   1
   2 -11  -6    6.10    4.99   1
   2 -11  -5   -3.69    5.61   1
   2 -11  -4    1.39    5.78   1
   2 -11  -3    1.21    4.82   1
   2 -11  -2   -1.90    6.10   1
   2 -11  -1    4.20    6.81   1
   2 -11   0    3.69    2.80   1
   2 -11   1   -2.31    6.02   1
   2 -11   2    3.61    4.60   1
   2 -11   3    7.62    6.40   1
   2 -11   4   15.13    7.31   1
   2 -11   5    2.50    6.70   1
   2 -10  -7   80.64    7.54   1
   2 -10  -6   11.09    4.40   1
   2 -10  -5   10.69    6.08   1
   2 -10  -4   -0.40    5.38   1
   2 -10  -3    1.69    3.30   1
   2 -10  -2    3.20    3.01   1
   2 -10  -1   31.25    4.25   1
   2 -10   0   13.91    2.24   1
   2 -10   1   14.90    3.01   1
   2 -10   2   -3.10    4.79   1
   2 -10   3   57.15    7.56   1
   2 -10   4    2.89    5.58   1
   2 -10   5    2.69    4.49   1
   2 -10   6    6.30    5.22   1
   2 -10   7    3.69    5.30   1
   2  -9  -9    0.00    1.00   1
   2  -9  -8    6.40    4.40   1
   2  -9  -7  143.28   10.05   1
   2  -9  -6   12.82    2.72   1
   2  -9  -5   32.72    3.78   1
   2  -9  -4   10.30    2.89   1
   2  -9  -3  135.02    6.97   1
   2  -9  -2   16.00    2.80   1
   2  -9  -1    2.10    2.29   1
   2  -9   0    3.10    2.29   1
   2  -9   1   27.25    1.88   1
   2  -9   2    2.31    2.31   1
   2  -9   3  212.87   14.59   1
   2  -9   4   51.98    4.47   1
   2  -9   5    5.38    4.69   1
   2  -9   6   -4.58    4.49   1
   2  -9   7    9.80    4.38   1
   2  -9   8   -1.39    5.10   1
   2  -8  -9    0.71    4.52   1
   2  -8  -8    5.62    2.99   1
   2  -8  -7    2.40    2.29   1
   2  -8  -6   10.37    2.51   1
   2  -8  -5   32.15    3.18   1
   2  -8  -4   24.90    2.99   1
   2  -8  -3   82.81    4.91   1
   2  -8  -2    4.41    2.10   1
   2  -8  -1   98.80    4.77   1
   2  -8   0   12.39    2.18   1
   2  -8   1    3.39    1.29   1
   2  -8   2   10.37    2.19   1
   2  -8   3    1.90    2.10   1
   2  -8   4   -1.21    1.80   1
   2  -8   5   12.39    2.89   1
   2  -8   6   -2.79    2.50   1
   2  -8   7   20.52    5.35   1
   2  -8   8    9.30    5.43   1
   2  -8   9    1.69    4.78   1
   2  -7 -10   -3.10    2.71   1
   2  -7  -9    7.67    3.10   1
   2  -7  -8    2.10    2.61   1
   2  -7  -7    6.92    2.31   1
   2  -7  -6   42.64    2.87   1
   2  -7  -5   14.06    1.80   1
   2  -7  -4    6.40    1.82   1
   2  -7  -3   91.58    4.59   1
   2  -7  -2    1.69    1.69   1
   2  -7  -1   92.35    4.61   1
   2  -7   0    2.10    1.51   1
   2  -7   1   60.53    2.18   1
   2  -7   2    3.20    1.79   1
   2  -7   3    3.80    1.60   1
   2  -7   4    5.38    2.88   1
   2  -7   5    9.61    1.92   1
   2  -7   6   14.59    2.90   1
   2  -7   7    1.21    2.42   1
   2  -7   8    4.58    3.89   1
   2  -7   9    0.50    5.13   1
   2  -7  10    3.20    5.01   1
   2  -6 -11   51.27    6.59   1
   2  -6 -10    3.20    2.61   1
   2  -6  -9    1.90    2.59   1
   2  -6  -8  252.81    8.90   1
   2  -6  -7  389.67   15.79   1
   2  -6  -6    0.50    1.60   1
   2  -6  -5   12.67    1.71   1
   2  -6  -4    0.10    1.62   1
   2  -6  -3    4.00    1.52   1
   2  -6  -2  255.68    7.99   1
   2  -6  -1  711.29   21.87   1
   2  -6   0   17.64    2.10   1
   2  -6   1  106.09    4.33   1
   2  -6   2  473.93   13.93   1
   2  -6   3  606.64   27.59   1
   2  -6   4   -2.79    2.30   1
   2  -6   5    2.69    1.71   1
   2  -6   6    2.50    1.80   1
   2  -6   7    0.00    1.00   1
   2  -6   8    3.61    2.20   1
   2  -6   9    4.71    3.60   1
   2  -6  10    2.69    4.49   1
   2  -5 -11    1.49    3.29   1
   2  -5 -10    7.90    2.59   1
   2  -5  -9    1.90    1.71   1
   2  -5  -8  188.51    6.86   1
   2  -5  -7  132.71    5.30   1
   2  -5  -6   67.57    3.12   1
   2  -5  -5    8.01    1.53   1
   2  -5  -4  534.07   12.48   1
   2  -5  -3  197.68    6.47   1
   2  -5  -2   78.15    3.54   1
   2  -5  -1   22.66    1.81   1
   2  -5   0   14.06    1.80   1
   2  -5   1   46.24    2.58   1
   2  -5   2  541.49   15.36   1
   2  -5   3  989.10   27.05   1
   2  -5   4   14.36    3.18   1
   2  -5   5   47.06    2.74   1
   2  -5   6  153.51    5.95   1
   2  -5   7  204.49    8.87   1
   2  -5   8    1.69    1.90   1
   2  -5   9    3.39    3.20   1
   2  -5  10    4.71    5.21   1
   2  -5  11   -6.20    5.58   1
   2  -4 -12    0.10    4.25   1
   2  -4 -11   -0.40    2.39   1
   2  -4 -10    6.10    2.42   1
   2  -4  -9   11.83    2.13   1
   2  -4  -8   28.41    2.13   1
   2  -4  -7   89.87    3.98   1
   2  -4  -6   46.24    2.45   1
   2  -4  -5   25.00    1.80   1
   2  -4  -4   96.83    3.15   1
   2  -4  -3  176.09    5.57   1
   2  -4  -2   37.45    2.33   1
   2  -4  -1  370.18   11.16   1
   2  -4   0  247.43    9.12   1
   2  -4   1  186.05    6.00   1
   2  -4   2   78.32    3.36   1
   2  -4   3   87.24    3.55   1
   2  -4   4   58.06    2.74   1
   2  -4   5   71.74    3.05   1
   2  -4   6   13.76    1.78   1
   2  -4   7   61.47    3.76   1
   2  -4   8    1.49    1.68   1
   2  -4   9    7.40    2.39   1
   2  -4  10   -5.02    3.72   1
   2  -4  11    0.59    4.28   1
   2  -3 -12   22.47    3.13   1
   2  -3 -11    1.21    1.91   1
   2  -3 -10   18.06    1.78   1
   2  -3  -9    0.10    1.41   1
   2  -3  -8   18.92    1.48   1
   2  -3  -7    0.40    0.89   1
   2  -3  -6   -0.20    1.31   1
   2  -3  -5    1.30    1.09   1
   2  -3  -4  603.68   13.76   1
   2  -3  -3  164.35    4.10   1
   2  -3  -2 2530.09   62.37   1
   2  -3  -1   40.45    2.42   1
   2  -3   0   54.91    2.67   1
   2  -3   1   61.15    2.97   1
   2  -3   2    7.02    1.11   1
   2  -3   3  363.28   10.67   1
   2  -3   4   79.39    3.03   1
   2  -3   5    2.19    1.01   1
   2  -3   6  174.77    6.08   1
   2  -3   7   -0.10    1.32   1
   2  -3   8   17.14    2.73   1
   2  -3   9   -1.30    1.71   1
   2  -3  10   17.64    4.37   1
   2  -3  11    3.39    2.98   1
   2  -3  12   -0.90    4.50   1
   2  -2 -12   43.30    3.29   1
   2  -2 -11    1.30    1.60   1
   2  -2 -10   29.59    2.28   1
   2  -2  -9  108.58    3.13   1
   2  -2  -8  707.56   14.90   1
   2  -2  -7    5.90    1.22   1
   2  -2  -6   44.76    1.74   1
   2  -2  -5   16.32    0.97   1
   2  -2  -4   69.56    2.34   1
   2  -2  -3   68.06    2.14   1
   2  -2  -2 2181.82   42.97   1
   2  -2  -1  850.31   18.08   1
   2  -2   0  826.56   23.57   1
   2  -2   1 1158.72   34.04   1
   2  -2   2 3262.69   81.11   1
   2  -2   3   95.26    3.71   1
   2  -2   4  377.14   15.15   1
   2  -2   5    3.39    1.51   1
   2  -2   6    3.10    1.20   1
   2  -2   7   25.70    2.03   1
   2  -2   8  224.10    9.28   1
   2  -2   9   30.80    3.00   1
   2  -2  10   14.90    2.32   1
   2  -2  11    2.99    3.39   1
   2  -2  12   29.48    5.97   1
   2  -1 -12    1.49    2.20   1
   2  -1 -11   19.98    2.06   1
   2  -1 -10    3.69    1.38   1
   2  -1  -9   34.46    2.00   1
   2  -1  -8  161.80    5.09   1
   2  -1  -7   37.70    1.72   1
   2  -1  -6   86.86    2.61   1
   2  -1  -5  315.77    6.04   1
   2  -1  -4   10.69    0.72   1
   2  -1  -3    9.30    0.79   1
   2  -1  -2  114.70    2.36   1
   2  -1  -1  202.21    3.70   1
   2  -1   0 1031.05   21.19   1
   2  -1   1  247.43    6.29   1
   2  -1   2 2957.18   72.87   1
   2  -1   3   80.64    3.41   1
   2  -1   4  103.23    3.86   1
   2  -1   5   56.40    2.85   1
   2  -1   6  203.06    7.12   1
   2  -1   7    1.21    1.30   1
   2  -1   8    1.80    1.39   1
   2  -1   9    0.00    1.00   1
   2  -1  10    2.19    1.69   1
   2  -1  11    5.71    2.82   1
   2  -1  12   22.09    5.73   1
   2   0 -12   -2.99    2.49   1
   2   0 -11    6.92    1.68   1
   2   0 -10    6.30    1.81   1
   2   0  -9    7.90    1.18   1
   2   0  -8   32.95    1.61   1
   2   0  -7    1.69    0.81   1
   2   0  -6    8.29    0.81   1
   2   0  -5   57.76    1.98   1
   2   0  -4  156.75    3.51   1
   2   0  -3   11.02    0.73   1
   2   0  -2   58.37    1.53   1
   2   0  -1  658.95   13.35   1
   2   0   0  919.30   21.83   1
   2   0   1  664.61   17.53   1
   2   0   2  385.73   11.39   1
   2   0   3   12.39    0.92   1
   2   0   4   15.37    1.18   1
   2   0   5   24.80    1.49   1
   2   0   6    1.21    0.90   1
   2   0   7   28.09    1.70   1
   2   0   8   81.90    2.72   1
   2   0   9   20.70    2.28   1
   2   0  10    2.50    1.99   1
   2   0  11   -3.80    2.61   1
   2   0  12    1.80    4.80   1
   2   1 -12   14.06    2.92   1
   2   1 -11    5.71    1.91   1
   2   1 -10    4.28    1.78   1
   2   1  -9   10.50    1.23   1
   2   1  -8    0.71    0.91   1
   2   1  -7    2.40    0.81   1
   2   1  -6  156.75    3.76   1
   2   1  -5  176.09    4.25   1
   2   1  -4   26.73    1.14   1
   2   1  -3 1738.89   36.70   1
   2   1  -2 2545.20   62.56   1
   2   1  -1  216.97    7.07   1
   2   1   0  258.57    6.43   1
   2   1   1  148.60    4.39   1
   2   1   2   38.69    3.36   1
   2   1   3    2.40    0.71   1
   2   1   4    8.70    0.71   1
   2   1   5  210.25    5.51   1
   2   1   6  128.37    5.44   1
   2   1   7  193.49    5.01   1
   2   1   8  230.74    6.38   1
   2   1   9    2.89    1.70   1
   2   1  10   13.18    2.18   1
   2   1  11    1.59    2.90   1
   2   1  12    2.59    4.38   1
   2   2 -12   -2.99    3.18   1
   2   2 -11    6.10    3.70   1
   2   2 -10    2.50    1.71   1
   2   2  -9  107.74    5.40   1
   2   2  -8   45.29    2.42   1
   2   2  -7   29.81    1.75   1
   2   2  -6    0.59    0.80   1
   2   2  -5    9.92    1.32   1
   2   2  -4  217.86    5.31   1
   2   2  -3 1805.40   46.74   1
   2   2  -2  704.90   13.27   1
   2   2  -1  204.78    5.44   1
   2   2   0    7.18    0.70   1
   2   2   1 5409.60  175.05   1
   2   2   2 1248.21   31.80   1
   2   2   3    5.02    1.21   1
   2   2   4    3.31    1.20   1
   2   2   5    4.58    1.28   1
   2   2   6   13.91    2.01   1
   2   2   7  227.10    8.14   1
   2   2   8  330.88   12.01   1
   2   2   9    4.88    2.48   1
   2   2  10    1.00    2.60   1
   2   2  11   96.04    8.62   1
   2   2  12   27.25    7.20   1
   2   3 -12    0.59    3.28   1
   2   3 -11    1.10    2.50   1
   2   3 -10    6.60    3.19   1
   2   3  -9    3.31    1.71   1
   2   3  -8   -0.20    1.31   1
   2   3  -7    7.18    1.18   1
   2   3  -6   19.18    1.40   1
   2   3  -5    5.52    0.99   1
   2   3  -4   48.44    1.81   1
   2   3  -3  205.64    4.88   1
   2   3  -2  192.65    5.00   1
   2   3  -1  159.52    4.04   1
   2   3   0   11.90    0.90   1
   2   3   1  451.99   11.91   1
   2   3   2   12.53    1.27   1
   2   3   3  301.37    9.03   1
   2   3   4   14.21    1.58   1
   2   3   5   80.46    3.77   1
   2   3   6   -0.10    1.72   1
   2   3   7   71.06    4.05   1
   2   3   8    1.80    1.90   1
   2   3   9    7.51    2.69   1
   2   3  10    0.90    2.70   1
   2   3  11   26.11    5.11   1
   2   4 -11   -1.21    3.10   1
   2   4 -10   13.18    2.18   1
   2   4  -9   10.11    1.97   1
   2   4  -8    2.50    1.49   1
   2   4  -7   61.62    3.77   1
   2   4  -6    8.82    1.78   1
   2   4  -5   67.08    2.46   1
   2   4  -4   13.69    1.48   1
   2   4  -3   38.94    1.75   1
   2   4  -2   38.07    1.73   1
   2   4  -1  240.56    6.20   1
   2   4   0   55.20    2.23   1
   2   4   1  245.55    7.21   1
   2   4   2  208.22    6.64   1
   2   4   3   27.25    1.88   1
   2   4   4   24.50    1.98   1
   2   4   5   38.69    2.74   1
   2   4   6    4.41    1.89   1
   2   4   7    4.88    1.99   1
   2   4   8    6.40    2.38   1
   2   4   9   13.69    2.89   1
   2   4  10    5.02    3.58   1
   2   4  11    1.90    4.11   1
   2   4  12    8.12    6.21   1
   2   5 -11   -1.39    3.40   1
   2   5 -10    4.80    2.50   1
   2   5  -9   27.35    3.66   1
   2   5  -8   23.81    2.24   1
   2   5  -7   24.50    1.98   1
   2   5  -6    3.50    1.20   1
   2   5  -5   53.14    2.33   1
   2   5  -4  556.96   13.69   1
   2   5  -3 1510.88   31.87   1
   2   5  -2   33.18    1.84   1
   2   5  -1  326.16    7.95   1
   2   5   0   78.15    3.18   1
   2   5   1   68.39    2.81   1
   2   5   2   18.92    1.74   1
   2   5   3  201.07    6.52   1
   2   5   4   18.84    2.17   1
   2   5   5  186.60    7.10   1
   2   5   6   62.25    3.63   1
   2   5   7  684.35   21.45   1
   2   5   8   24.70    2.98   1
   2   5   9   37.45    4.04   1
   2   5  10    2.10    3.60   1
   2   5  11   10.69    6.47   1
   2   6 -10    9.12    3.62   1
   2   6  -9   31.81    3.05   1
   2   6  -8   -1.21    1.80   1
   2   6  -7    7.29    1.67   1
   2   6  -6    3.50    1.50   1
   2   6  -5   38.44    2.36   1
   2   6  -4    1.10    1.30   1
   2   6  -3  292.75    8.21   1
   2   6  -2   11.63    1.50   1
   2   6  -1  126.79    4.05   1
   2   6   0  534.07   14.33   1
   2   6   1  790.17   19.68   1
   2   6   2   23.33    2.13   1
   2   6   3  107.74    4.36   1
   2   6   4   17.98    2.12   1
   2   6   5    7.90    2.08   1
   2   6   6    9.00    2.40   1
   2   6   7  234.09   10.10   1
   2   6   8    2.40    2.91   1
   2   6   9   36.84    4.13   1
   2   6  10   13.10    4.49   1
   2   6  11   77.79    9.88   1
   2   7 -10   -4.28    3.81   1
   2   7  -9    2.79    2.91   1
   2   7  -8   -0.71    2.50   1
   2   7  -7    3.31    2.00   1
   2   7  -6    3.88    1.81   1
   2   7  -5    7.67    1.77   1
   2   7  -4  120.34    4.83   1
   2   7  -3  108.58    4.17   1
   2   7  -2   56.70    3.01   1
   2   7  -1   58.37    2.75   1
   2   7   0   22.09    2.07   1
   2   7   1   66.26    3.42   1
   2   7   2    3.50    1.91   1
   2   7   3    1.49    1.78   1
   2   7   4   10.69    2.29   1
   2   7   5    1.30    2.10   1
   2   7   6   32.49    3.65   1
   2   7   7    5.20    2.42   1
   2   7   8   36.12    4.33   1
   2   7   9   11.42    5.00   1
   2   7  10    7.02    4.93   1
   2   8  -9   -1.00    4.00   1
   2   8  -8   22.56    3.61   1
   2   8  -7    6.20    2.69   1
   2   8  -6    8.18    2.52   1
   2   8  -5    1.59    2.09   1
   2   8  -4   35.40    2.86   1
   2   8  -3    1.99    1.61   1
   2   8  -2   22.47    2.28   1
   2   8  -1   35.52    2.74   1
   2   8   0  117.07    5.19   1
   2   8   1   11.63    2.32   1
   2   8   2  162.05    6.87   1
   2   8   3  103.23    5.49   1
   2   8   4    1.21    2.11   1
   2   8   5    5.90    2.92   1
   2   8   6    9.00    3.42   1
   2   8   7    5.11    3.39   1
   2   8   8   -1.80    5.39   1
   2   8   9   13.62    5.83   1
   2   8  10    6.40    5.52   1
   2   9  -8    2.99    4.50   1
   2   9  -7   -0.79    3.08   1
   2   9  -6   13.99    2.69   1
   2   9  -5   12.89    3.30   1
   2   9  -4  236.54    9.23   1
   2   9  -3   75.34    4.34   1
   2   9  -2   21.72    2.89   1
   2   9  -1    0.50    1.80   1
   2   9   0   31.58    3.26   1
   2   9   1    1.21    3.01   1
   2   9   2   18.23    2.99   1
   2   9   3    8.41    2.61   1
   2   9   4   27.25    3.34   1
   2   9   5    1.49    2.88   1
   2   9   6  318.27   12.84   1
   2   9   7  120.56    9.66   1
   2   9   8   11.09    5.73   1
   2   9   9    4.88    5.70   1
   2  10  -7   10.69    5.17   1
   2  10  -6    4.71    4.38   1
   2  10  -5    1.21    3.32   1
   2  10  -4    5.02    3.32   1
   2  10  -3   -1.69    2.39   1
   2  10  -2    3.20    2.79   1
   2  10  -1   13.76    3.19   1
   2  10   0  130.87    7.09   1
   2  10   1    1.99    2.79   1
   2  10   2   27.88    5.07   1
   2  10   3   14.59    3.59   1
   2  10   4    8.82    3.39   1
   2  10   5   -0.79    3.68   1
   2  10   6   25.40    5.44   1
   2  10   7    0.30    5.72   1
   2  10   8   11.42    6.02   1
   2  11  -5   -1.21    4.82   1
   2  11  -4   -2.89    3.91   1
   2  11  -3    1.59    3.48   1
   2  11  -2   -0.71    3.61   1
   2  11  -1    7.40    3.70   1
   2  11   0    5.11    3.39   1
   2  11   1   10.18    3.76   1
   2  11   2   -1.90    3.81   1
   2  11   3    4.49    4.41   1
   2  11   4    1.00    3.80   1
   2  11   5    4.58    6.21   1
   2  11   6    1.49    6.37   1
   2  12  -3    7.78    6.08   1
   2  12  -2    0.00    1.00   1
   2  12  -1   10.82    5.72   1
   2  12   0   13.76    4.38   1
   2  12   1   12.32    4.91   1
   2  12   2   55.95    6.13   1
   2  12   3    2.89    6.90   1
   2  12   4   15.37    8.00   1
   3 -12  -3   14.98    9.60   1
   3 -12  -2    0.59    6.85   1
   3 -12  -1    4.08    8.77   1
   3 -12   0   -6.71    6.22   1
   3 -12   1   23.14    6.83   1
   3 -12   2   24.01    8.33   1
   3 -11  -6   -5.71    7.70   1
   3 -11  -5   19.71    7.73   1
   3 -11  -4   -7.40    6.20   1
   3 -11  -3    4.00    5.20   1
   3 -11  -2   15.13    6.22   1
   3 -11  -1   11.97    6.50   1
   3 -11   0   -2.31    6.32   1
   3 -11   1   12.53    5.73   1
   3 -11   2   13.47    5.36   1
   3 -11   3    5.71    6.02   1
   3 -11   4   -4.71    6.81   1
   3 -11   5   11.90    7.52   1
   3 -10  -7   -6.81    5.48   1
   3 -10  -6    0.50    4.42   1
   3 -10  -5    0.90    4.71   1
   3 -10  -4    1.99    4.48   1
   3 -10  -3   -0.30    3.01   1
   3 -10  -2    8.82    3.39   1
   3 -10  -1    6.20    2.89   1
   3 -10   0    5.20    3.42   1
   3 -10   1   19.62    3.19   1
   3 -10   2   -1.99    5.19   1
   3 -10   3    1.30    5.49   1
   3 -10   4    5.81    6.22   1
   3 -10   5    8.58    5.68   1
   3 -10   6    0.10    5.66   1
   3 -10   7    5.90    5.49   1
   3  -9  -8   -6.00    4.80   1
   3  -9  -7    3.80    4.09   1
   3  -9  -6    1.10    2.79   1
   3  -9  -5   32.15    3.52   1
   3  -9  -4   19.27    3.07   1
   3  -9  -3  243.67   10.93   1
   3  -9  -2   11.97    2.91   1
   3  -9  -1   19.98    3.04   1
   3  -9   0    5.81    2.51   1
   3  -9   1    4.08    2.38   1
   3  -9   2   -3.61    2.32   1
   3  -9   3    6.40    2.48   1
   3  -9   4    1.90    2.40   1
   3  -9   5    5.81    5.01   1
   3  -9   6    1.10    3.91   1
   3  -9   8   -5.29    5.98   1
   3  -8  -9   45.16    6.05   1
   3  -8  -8   -0.30    2.92   1
   3  -8  -7    6.20    2.59   1
   3  -8  -6    3.39    2.21   1
   3  -8  -5    5.90    2.28   1
   3  -8  -4   48.86    4.05   1
   3  -8  -3  290.02   12.26   1
   3  -8  -2   -0.71    2.20   1
   3  -8  -1   21.90    2.62   1
   3  -8   0  203.06    8.84   1
   3  -8   1  570.25   30.57   1
   3  -8   2   19.10    2.53   1
   3  -8   3    4.41    2.02   1
   3  -8   4    2.79    2.30   1
   3  -8   5    0.71    3.21   1
   3  -8   6    7.90    4.72   1
   3  -8   7   24.40    5.14   1
   3  -8   8   -2.69    4.40   1
   3  -8   9   -4.28    5.09   1
   3  -7 -10   13.62    3.39   1
   3  -7  -9    3.31    3.20   1
   3  -7  -8    8.70    2.60   1
   3  -7  -7    1.00    2.10   1
   3  -7  -6    2.59    1.80   1
   3  -7  -5   14.67    1.99   1
   3  -7  -4   56.55    3.91   1
   3  -7  -3   13.47    2.13   1
   3  -7  -2   73.10    3.93   1
   3  -7  -1   11.97    2.08   1
   3  -7   0   13.47    2.13   1
   3  -7   1  100.60    4.61   1
   3  -7   2    8.41    2.78   1
   3  -7   3   26.52    2.37   1
   3  -7   4    1.59    2.09   1
   3  -7   5    1.99    0.70   1
   3  -7   6   -1.30    2.01   1
   3  -7   7    4.28    2.69   1
   3  -7   8   -1.00    3.60   1
   3  -7   9   -8.01    5.09   1
   3  -7  10    1.21    5.02   1
   3  -6 -10    5.38    3.99   1
   3  -6  -9   11.70    2.87   1
   3  -6  -8   13.10    2.53   1
   3  -6  -7  108.78    4.80   1
   3  -6  -6   11.70    1.98   1
   3  -6  -5  118.59    4.36   1
   3  -6  -4    6.50    1.38   1
   3  -6  -3    3.80    1.40   1
   3  -6  -2  161.29    7.11   1
   3  -6  -1  102.82    5.07   1
   3  -6   0  164.10    6.66   1
   3  -6   1  129.96    5.24   1
   3  -6   2   16.16    1.93   1
   3  -6   3    2.10    1.71   1
   3  -6   4   36.84    2.67   1
   3  -6   5    4.20    0.70   1
   3  -6   6    4.20    3.40   1
   3  -6   7   11.42    2.30   1
   3  -6   8   17.14    4.47   1
   3  -6   9   -0.90    3.61   1
   3  -6  10    3.20    5.41   1
   3  -5 -11   -0.90    2.70   1
   3  -5 -10   36.36    3.86   1
   3  -5  -9    4.41    1.89   1
   3  -5  -8   48.30    3.34   1
   3  -5  -7   66.26    3.42   1
   3  -5  -6   32.15    2.27   1
   3  -5  -5    1.30    1.21   1
   3  -5  -4 2057.53   42.64   1
   3  -5  -3  995.40   28.39   1
   3  -5  -2  160.78    5.83   1
   3  -5  -1    9.18    1.27   1
   3  -5   0  458.39   13.70   1
   3  -5   1   45.83    2.71   1
   3  -5   2   31.14    2.23   1
   3  -5   3  208.22    6.93   1
   3  -5   4   41.09    1.54   1
   3  -5   5    2.31    2.40   1
   3  -5   6  383.77   12.93   1
   3  -5   7  121.88    7.73   1
   3  -5   8    9.42    3.50   1
   3  -5   9    9.80    4.07   1
   3  -5  10   10.11    4.52   1
   3  -5  11   -3.50    4.90   1
   3  -4 -11    2.40    2.51   1
   3  -4 -10   54.76    3.26   1
   3  -4  -9   -1.21    1.61   1
   3  -4  -8   10.37    1.67   1
   3  -4  -7    1.21    1.61   1
   3  -4  -6   15.29    1.72   1
   3  -4  -5   22.37    1.89   1
   3  -4  -4  565.49   12.37   1
   3  -4  -3  363.28    8.39   1
   3  -4  -2  412.50   12.19   1
   3  -4  -1   19.36    1.58   1
   3  -4   0 1627.32   45.99   1
   3  -4   1  299.64   10.04   1
   3  -4   2  310.46    9.51   1
   3  -4   3   16.48    1.14   1
   3  -4   4    2.79    1.30   1
   3  -4   5    0.59    1.19   1
   3  -4   6  210.83    7.55   1
   3  -4   7  107.12    5.18   1
   3  -4   8   14.90    2.32   1
   3  -4   9    3.69    2.19   1
   3  -4  10   43.43    6.46   1
   3  -4  11    7.08    5.37   1
   3  -3 -12    1.39    4.30   1
   3  -3 -11    3.69    2.11   1
   3  -3 -10   17.72    2.02   1
   3  -3  -9    7.51    1.59   1
   3  -3  -8   -0.20    1.01   1
   3  -3  -7    1.21    1.01   1
   3  -3  -6   90.25    3.61   1
   3  -3  -5  140.90    4.51   1
   3  -3  -4  299.64    7.27   1
   3  -3  -3  458.39    8.99   1
   3  -3  -2  416.98    9.39   1
   3  -3  -1  191.27    5.26   1
   3  -3   0   27.88    1.80   1
   3  -3   1   94.67    3.89   1
   3  -3   2  159.52    5.30   1
   3  -3   3    9.42    0.98   1
   3  -3   4    8.53    1.93   1
   3  -3   5   55.95    2.69   1
   3  -3   6   83.72    3.66   1
   3  -3   7   14.36    2.43   1
   3  -3   8   16.89    2.22   1
   3  -3   9    5.71    3.01   1
   3  -3  10    2.69    4.00   1
   3  -3  11   -0.30    4.02   1
   3  -3  12    7.40    5.28   1
   3  -2 -12   -3.31    3.02   1
   3  -2 -11    2.69    2.00   1
   3  -2 -10   21.72    2.14   1
   3  -2  -9   33.52    1.85   1
   3  -2  -8  252.17    6.67   1
   3  -2  -7    1.10    0.90   1
   3  -2  -6  192.10    4.44   1
   3  -2  -5  372.88    7.34   1
   3  -2  -4  333.43    6.94   1
   3  -2  -3  306.60    6.65   1
   3  -2  -2   22.28    1.04   1
   3  -2  -1   35.28    1.19   1
   3  -2   0  240.87    6.52   1
   3  -2   1    6.00    0.59   1
   3  -2   2 1184.05   26.15   1
   3  -2   3   61.47    2.82   1
   3  -2   4  288.66    8.83   1
   3  -2   5   46.24    2.45   1
   3  -2   6   68.39    3.14   1
   3  -2   7    5.62    1.42   1
   3  -2   8   12.82    1.93   1
   3  -2   9    1.10    1.60   1
   3  -2  10    4.28    3.31   1
   3  -2  11   -1.00    3.00   1
   3  -2  12   -1.49    4.98   1
   3  -1 -12   -1.00    2.30   1
   3  -1 -11    9.18    1.88   1
   3  -1 -10    4.28    1.70   1
   3  -1  -9   29.81    1.75   1
   3  -1  -8   86.30    2.79   1
   3  -1  -7   14.59    1.07   1
   3  -1  -6   22.94    1.25   1
   3  -1  -5 2004.35   43.87   1
   3  -1  -4 3051.46   53.03   1
   3  -1  -3   85.38    2.03   1
   3  -1  -2   30.69    1.00   1
   3  -1  -1  538.24   10.67   1
   3  -1   0  531.76   11.99   1
   3  -1   1  145.20    8.44   1
   3  -1   2  114.28    4.49   1
   3  -1   3   79.21    3.03   1
   3  -1   4  260.82    9.04   1
   3  -1   5  663.06   19.06   1
   3  -1   6 1297.44   34.58   1
   3  -1   7   25.00    3.40   1
   3  -1   8    6.92    1.58   1
   3  -1   9   22.56    1.99   1
   3  -1  10   37.45    2.82   1
   3  -1  11    9.61    3.22   1
   3  -1  12    6.81    4.70   1
   3   0 -12    3.20   15.61   1
   3   0 -11    0.30    1.51   1
   3   0 -10   -0.40    1.30   1
   3   0  -9   15.29    1.41   1
   3   0  -8   10.30    1.09   1
   3   0  -7   39.94    1.64   1
   3   0  -6   47.75    1.80   1
   3   0  -5  155.50    4.24   1
   3   0  -4   39.06    2.50   1
   3   0  -3  219.63    5.93   1
   3   0  -2   15.29    0.70   1
   3   0  -1 1246.80   24.01   1
   3   0   0  738.21   15.76   1
   3   0   1  247.12    7.55   1
   3   0   2   14.06    0.97   1
   3   0   3   83.36    3.10   1
   3   0   4  112.36    3.82   1
   3   0   5   24.11    2.45   1
   3   0   6  201.92    7.11   1
   3   0   7    3.20    1.29   1
   3   0   8   82.08    3.08   1
   3   0   9   57.46    2.88   1
   3   0  10   88.17    4.32   1
   3   0  11   -0.20    2.21   1
   3   0  12    4.08    4.69   1
   3   1 -12   18.66   12.79   1
   3   1 -11    8.18    2.17   1
   3   1 -10    8.01    1.92   1
   3   1  -9    6.60    1.59   1
   3   1  -8   -0.50    0.91   1
   3   1  -7   31.47    1.80   1
   3   1  -6  158.00    3.77   1
   3   1  -5  170.04    3.91   1
   3   1  -4  281.23    7.04   1
   3   1  -3   58.06    4.88   1
   3   1  -2   79.74    5.54   1
   3   1   0   12.18    0.70   1
   3   1   1  181.71    5.12   1
   3   1   2   28.73    1.29   1
   3   1   3  110.25    3.78   1
   3   1   4  132.94    4.38   1
   3   1   5  115.56    3.01   1
   3   1   6  194.32    4.74   1
   3   1   7  108.37    3.12   1
   3   1   8   38.56    1.99   1
   3   1   9    1.21    1.41   1
   3   1  10   -0.40    2.09   1
   3   1  11    1.21    2.20   1
   3   1  12    4.00    5.92   1
   3   2 -12    1.00    3.20   1
   3   2 -11    0.50    2.00   1
   3   2 -10   15.37    2.12   1
   3   2  -9  165.89    5.41   1
   3   2  -8  101.40    3.63   1
   3   2  -7   39.94    2.02   1
   3   2  -6   32.95    1.61   1
   3   2  -5  712.36   13.88   1
   3   2  -4  187.42    4.38   1
   3   2  -3   18.92    0.87   1
   3   2  -2  231.65    8.22   1
   3   2  -1   18.32    0.94   1
   3   2   0    1.49    0.49   1
   3   2   1 1288.09   31.58   1
   3   2   2  599.76   15.67   1
   3   2   3  372.49   10.81   1
   3   2   4    5.62    1.18   1
   3   2   5  397.20   12.36   1
   3   2   6   62.09    3.15   1
   3   2   7   43.03    2.89   1
   3   2   8    1.39    2.10   1
   3   2   9    4.20    2.50   1
   3   2  10   -0.50    2.71   1
   3   2  11   14.67    5.13   1
   3   2  12    5.71    4.83   1
   3   3 -11    4.71    2.91   1
   3   3 -10   13.69    2.07   1
   3   3  -9   10.37    1.67   1
   3   3  -8    0.30    1.21   1
   3   3  -7   55.95    2.24   1
   3   3  -6  117.51    3.47   1
   3   3  -5 1434.14   25.75   1
   3   3  -4  127.01    3.38   1
   3   3  -3  438.48   10.47   1
   3   3  -2    5.20    0.68   1
   3   3  -1   23.91    1.47   1
   3   3   0  109.83    3.14   1
   3   3   1  218.15    6.50   1
   3   3   2  428.08   12.00   1
   3   3   3  357.97   10.60   1
   3   3   4   75.34    3.12   1
   3   3   5 1940.40   48.46   1
   3   3   6  305.55    9.79   1
   3   3   7  197.68    7.59   1
   3   3   8   -0.30    2.21   1
   3   3   9  127.69    6.55   1
   3   3  10    4.71    3.08   1
   3   3  12    0.50    4.71   1
   3   4 -11   -5.52    2.82   1
   3   4 -10    5.02    2.02   1
   3   4  -9   12.82    1.93   1
   3   4  -8   29.59    3.05   1
   3   4  -7   73.96    2.75   1
   3   4  -6    7.67    1.22   1
   3   4  -5    4.08    0.89   1
   3   4  -4    3.61    0.91   1
   3   4  -3   45.02    1.74   1
   3   4  -2   35.52    1.67   1
   3   4  -1  171.87    4.98   1
   3   4   0  179.83    5.36   1
   3   4   1  374.81   10.07   1
   3   4   2  156.50    5.00   1
   3   4   3  235.93    7.37   1
   3   4   4   28.09    2.01   1
   3   4   5   74.48    3.45   1
   3   4   6    2.79    1.50   1
   3   4   7   80.10    4.47   1
   3   4   8    3.61    2.70   1
   3   4   9   58.06    4.57   1
   3   4  10   -3.31    3.31   1
   3   4  11   10.37    5.28   1
   3   4  12    5.38    6.17   1
   3   5 -11    1.30    3.31   1
   3   5 -10  -10.18    9.57   1
   3   5  -9    9.67    2.18   1
   3   5  -8    1.59    1.59   1
   3   5  -7   28.52    2.24   1
   3   5  -6    0.40    1.00   1
   3   5  -5   25.20    1.71   1
   3   5  -4    0.50    1.11   1
   3   5  -3   31.14    1.67   1
   3   5  -2   11.42    1.42   1
   3   5  -1    6.50    1.22   1
   3   5   0   99.20    4.58   1
   3   5   1  276.89    7.65   1
   3   5   2   66.10    3.25   1
   3   5   3  158.26    5.54   1
   3   5   4   94.09    4.07   1
   3   5   5   32.15    2.49   1
   3   5   6    3.61    2.01   1
   3   5   7    3.50    2.28   1
   3   5   8   -1.21    2.42   1
   3   5   9   13.47    3.08   1
   3   5  10   -4.49    4.58   1
   3   5  11    8.29    5.01   1
   3   6 -10   40.96    4.74   1
   3   6  -9   26.63    2.89   1
   3   6  -8   11.09    2.13   1
   3   6  -7    1.80    1.69   1
   3   6  -6  100.80    4.02   1
   3   6  -5   34.57    2.23   1
   3   6  -4   18.49    1.81   1
   3   6  -3   -0.20    1.21   1
   3   6  -2   94.09    3.69   1
   3   6  -1   80.10    3.22   1
   3   6   0  660.49   17.99   1
   3   6   1 1236.93   29.54   1
   3   6   2   18.49    1.98   1
   3   6   3   99.00    4.18   1
   3   6   4  360.24   11.01   1
   3   6   5  192.10    7.76   1
   3   6   6    1.69    2.11   1
   3   6   7   -0.20    2.52   1
   3   6   8    0.40    2.39   1
   3   6   9   12.60    3.69   1
   3   6  10   12.32    5.41   1
   3   6  11   35.28    7.01   1
   3   7  -9   -1.30    3.31   1
   3   7  -8   10.37    2.51   1
   3   7  -7    0.40    1.89   1
   3   7  -6   49.00    3.36   1
   3   7  -5   29.59    2.50   1
   3   7  -4   16.89    1.89   1
   3   7  -3   16.00    1.92   1
   3   7  -2   30.36    2.53   1
   3   7  -1    1.59    1.49   1
   3   7   0    5.52    1.69   1
   3   7   1    0.10    1.62   1
   3   7   2   54.76    3.26   1
   3   7   3    2.40    1.89   1
   3   7   4  553.19   17.88   1
   3   7   5  268.30   10.48   1
   3   7   6   33.41    3.35   1
   3   7   7    8.12    3.19   1
   3   7   8   12.11    3.20   1
   3   7   9    3.31    3.71   1
   3   7  10    3.50    5.80   1
   3   8  -9    1.99    3.98   1
   3   8  -8   -0.30    3.31   1
   3   8  -7    1.00    2.30   1
   3   8  -6    2.79    2.20   1
   3   8  -5   -0.79    1.89   1
   3   8  -4    6.20    1.89   1
   3   8  -3    1.80    1.80   1
   3   8  -2   18.49    2.24   1
   3   8  -1    4.58    1.88   1
   3   8   0   13.99    2.09   1
   3   8   1   24.60    2.48   1
   3   8   2   29.05    2.80   1
   3   8   3   13.62    2.44   1
   3   8   4    5.11    2.98   1
   3   8   5   -2.89    2.69   1
   3   8   6    7.02    2.81   1
   3   8   7    0.20    3.22   1
   3   8   8   16.48    5.68   1
   3   8   9    2.89    5.88   1
   3   9  -8   -1.39    4.08   1
   3   9  -7   -0.10    3.54   1
   3   9  -6    6.71    2.90   1
   3   9  -5    4.49    2.71   1
   3   9  -4   25.40    3.12   1
   3   9  -3    0.71    2.40   1
   3   9  -2   45.97    3.80   1
   3   9  -1   16.08    2.49   1
   3   9   0  209.96    8.69   1
   3   9   1   17.98    2.71   1
   3   9   2   27.77    3.16   1
   3   9   3   11.22    2.41   1
   3   9   4    6.71    3.32   1
   3   9   5    9.18    3.09   1
   3   9   6    5.38    3.48   1
   3   9   7   13.10    4.27   1
   3   9   8    6.20    5.18   1
   3  10  -6   14.29    4.76   1
   3  10  -5   -1.80    3.81   1
   3  10  -4    0.20    3.01   1
   3  10  -3    4.88    2.48   1
   3  10  -2    4.80    2.98   1
   3  10  -1   28.84    3.54   1
   3  10   0  242.11   10.27   1
   3  10   1    1.39    2.69   1
   3  10   2   22.56    3.52   1
   3  10   3   19.89    3.39   1
   3  10   4   96.04    6.66   1
   3  10   5   -2.69    3.38   1
   3  10   6    6.00    4.31   1
   3  10   7   -2.89    5.88   1
   3  11  -5    0.90    6.31   1
   3  11  -4    5.29    5.20   1
   3  11  -3    4.71    3.60   1
   3  11  -2    0.10    3.34   1
   3  11  -1    6.00    3.09   1
   3  11   0    1.90    3.09   1
   3  11   1    8.01    3.62   1
   3  11   2    6.00    3.92   1
   3  11   3   31.81    4.62   1
   3  11   4   61.78    6.60   1
   3  11   5    1.99    5.70   1
   3  11   6    6.40    5.52   1
   3  12  -2    2.99    5.19   1
   3  12  -1    7.18    5.57   1
   3  12   0   14.52    5.87   1
   3  12   1   -4.80    6.39   1
   3  12   2   -9.67    5.91   1
   3  12   3    5.29    6.21   1
   4 -12  -1    6.71    9.43   1
   4 -12   0    4.88    6.81   1
   4 -11  -5   61.47    7.84   1
   4 -11  -4   26.83    7.87   1
   4 -11  -3   -0.40    5.48   1
   4 -11  -2   12.60    6.32   1
   4 -11  -1    9.80    6.32   1
   4 -11   0    8.58    7.09   1
   4 -11   1    7.18    5.68   1
   4 -11   2    7.29    6.37   1
   4 -11   3    3.31    6.70   1
   4 -11   4   -3.50    5.50   1
   4 -10  -7    9.12    7.91   1
   4 -10  -6    0.10    5.66   1
   4 -10  -5    4.00    3.60   1
   4 -10  -4    4.08    3.88   1
   4 -10  -3    3.31    2.80   1
   4 -10  -2   -0.90    2.20   1
   4 -10  -1   26.01    3.67   1
   4 -10   0   -5.02    3.09   1
   4 -10   1   11.90    5.11   1
   4 -10   2   11.02    5.98   1
   4 -10   3    2.79    5.48   1
   4 -10   4    0.59    4.67   1
   4 -10   5    3.69    4.88   1
   4 -10   6    3.50    6.21   1
   4  -9  -8    0.79    4.88   1
   4  -9  -7   14.67    4.52   1
   4  -9  -6    2.50    3.19   1
   4  -9  -5    9.67    2.80   1
   4  -9  -4    7.90    3.20   1
   4  -9  -3    2.40    2.51   1
   4  -9  -2    3.80    2.18   1
   4  -9  -1    6.60    2.72   1
   4  -9   0    2.59    2.29   1
   4  -9   1   -2.69    3.90   1
   4  -9   2    7.18    2.57   1
   4  -9   3   -2.59    2.51   1
   4  -9   4    1.80    4.10   1
   4  -9   5    7.67    5.21   1
   4  -9   6    0.00    1.00   1
   4  -9   7    3.61    4.90   1
   4  -8  -9   70.06    6.36   1
   4  -8  -8   -1.00    3.40   1
   4  -8  -7    5.20    2.60   1
   4  -8  -6  109.83    5.45   1
   4  -8  -5   55.65    3.73   1
   4  -8  -4    2.79    2.61   1
   4  -8  -3    0.50    1.90   1
   4  -8  -2    0.30    1.71   1
   4  -8  -1   24.11    2.06   1
   4  -8   0   93.51    5.61   1
   4  -8   1  240.56    9.93   1
   4  -8   2    1.69    2.11   1
   4  -8   3   12.11    2.51   1
   4  -8   4   45.16    3.63   1
   4  -8   5   13.18    1.52   1
   4  -8   6    1.59    4.59   1
   4  -8   7    1.39    3.80   1
   4  -8   8   -1.30    4.99   1
   4  -7 -10    6.30    3.71   1
   4  -7  -9    4.71    3.30   1
   4  -7  -8    9.61    2.73   1
   4  -7  -7   -2.10    2.41   1
   4  -7  -6  380.64   12.10   1
   4  -7  -5  217.56    9.44   1
   4  -7  -4   37.70    2.70   1
   4  -7  -3    8.82    2.08   1
   4  -7  -2   76.21    3.32   1
   4  -7  -1   16.40    1.70   1
   4  -7   0    9.30    2.20   1
   4  -7   1   38.81    2.87   1
   4  -7   2    2.99    2.01   1
   4  -7   3    9.18    2.00   1
   4  -7   4  166.93    8.01   1
   4  -7   5  240.87    9.62   1
   4  -7   6   -3.69    3.88   1
   4  -7   7    8.58    3.87   1
   4  -7   8    4.49    3.90   1
   4  -7   9    4.80    4.91   1
   4  -6 -10    2.79    2.91   1
   4  -6  -9   10.63    3.13   1
   4  -6  -8   32.72    3.09   1
   4  -6  -7   17.64    2.44   1
   4  -6  -6    7.18    1.98   1
   4  -6  -5   37.21    2.56   1
   4  -6  -4  119.46    4.15   1
   4  -6  -3    1.21    1.41   1
   4  -6  -2   47.06    2.61   1
   4  -6  -1    3.88    1.30   1
   4  -6   0   78.15    3.89   1
   4  -6   1  171.61    6.81   1
   4  -6   2   24.40    3.66   1
   4  -6   3   30.03    1.75   1
   4  -6   4    0.40    0.79   1
   4  -6   5   18.06    3.40   1
   4  -6   6    2.69    1.80   1
   4  -6   7   25.70    3.35   1
   4  -6   8   -1.80    3.48   1
   4  -6   9    6.50    5.20   1
   4  -6  10    2.99    4.81   1
   4  -5 -11    1.59    3.88   1
   4  -5 -10   40.45    3.31   1
   4  -5  -9   -0.30    1.61   1
   4  -5  -8   27.25    2.71   1
   4  -5  -7    6.71    2.02   1
   4  -5  -6   37.58    2.45   1
   4  -5  -5  104.04    3.47   1
   4  -5  -4   13.32    1.53   1
   4  -5  -3    5.62    1.18   1
   4  -5  -2  202.49    6.26   1
   4  -5  -1   44.36    2.26   1
   4  -5   0  582.74   19.79   1
   4  -5   1   11.22    2.48   1
   4  -5   2  177.42    6.39   1
   4  -5   3   39.94    2.53   1
   4  -5   4   30.91    1.45   1
   4  -5   5   35.16    2.73   1
   4  -5   6    1.39    1.49   1
   4  -5   7    1.10    1.70   1
   4  -5   8   35.40    3.21   1
   4  -5   9    1.21    3.41   1
   4  -5  10   -2.50    3.98   1
   4  -4 -11   20.70    3.37   1
   4  -4 -10  185.78   10.90   1
   4  -4  -9    4.00    1.72   1
   4  -4  -8   33.99    2.33   1
   4  -4  -7  114.28    3.63   1
   4  -4  -6  586.61   12.59   1
   4  -4  -5   32.60    1.94   1
   4  -4  -4    5.29    1.10   1
   4  -4  -3   43.82    1.99   1
   4  -4  -2  161.80    5.09   1
   4  -4  -1  281.90    8.06   1
   4  -4   0 3297.06   87.28   1
   4  -4   1  473.50   16.54   1
   4  -4   2  129.96    5.02   1
   4  -4   3   82.45    2.54   1
   4  -4   4  502.21   14.79   1
   4  -4   5    5.71    1.72   1
   4  -4   6    1.30    2.90   1
   4  -4   7    3.39    2.10   1
   4  -4   8    0.20    2.92   1
   4  -4   9    0.00    1.00   1
   4  -4  10   42.12    6.23   1
   4  -4  11   14.67    7.81   1
   4  -3 -11    3.61    2.81   1
   4  -3 -10   -0.20    2.31   1
   4  -3  -9   13.47    1.91   1
   4  -3  -8   20.61    1.73   1
   4  -3  -7  212.58    5.54   1
   4  -3  -6  387.30    7.87   1
   4  -3  -5   27.56    1.37   1
   4  -3  -4  175.30    3.71   1
   4  -3  -3    2.79    0.70   1
   4  -3  -2    4.41    0.71   1
   4  -3  -1   67.08    2.13   1
   4  -3   0   45.83    2.03   1
   4  -3   1   38.44    1.86   1
   4  -3   2  365.57   12.24   1
   4  -3   3  335.26   16.48   1
   4  -3   4 1310.44   34.03   1
   4  -3   5   28.30    2.13   1
   4  -3   6   62.88    4.44   1
   4  -3   7   -1.49    1.39   1
   4  -3   8   16.97    2.22   1
   4  -3   9    5.20    3.19   1
   4  -3  10   12.82    4.01   1
   4  -3  11    1.90    4.20   1
   4  -2 -12   11.29    3.83   1
   4  -2 -11    2.40    1.89   1
   4  -2 -10   11.02    1.93   1
   4  -2  -9   18.06    1.70   1
   4  -2  -8    6.30    1.31   1
   4  -2  -7   10.30    1.09   1
   4  -2  -6    0.10    0.91   1
   4  -2  -5    1.59    0.81   1
   4  -2  -4   41.60    1.68   1
   4  -2  -3   13.62    0.89   1
   4  -2  -2    5.38    0.60   1
   4  -2  -1   37.58    1.59   1
   4  -2   0  196.84    5.89   1
   4  -2   1  335.26    9.52   1
   4  -2   2  396.41   13.14   1
   4  -2   3   78.85    3.02   1
   4  -2   4    2.31    1.22   1
   4  -2   5    6.00    1.32   1
   4  -2   6   32.95    2.18   1
   4  -2   7   21.62    2.14   1
   4  -2   8    1.30    1.60   1
   4  -2   9    0.59    2.09   1
   4  -2  11    5.90    3.11   1
   4  -1 -12   -0.40    3.49   1
   4  -1 -11   48.58    3.07   1
   4  -1 -10   40.45    2.54   1
   4  -1  -9    6.10    1.38   1
   4  -1  -8   12.89    1.36   1
   4  -1  -7    0.40    0.89   1
   4  -1  -6   26.11    1.43   1
   4  -1  -5  306.95    6.31   1
   4  -1  -4  671.85   13.48   1
   4  -1  -3   71.57    2.37   1
   4  -1  -2   56.70    1.51   1
   4  -1  -1  541.96   10.71   1
   4  -1   0  435.97   10.86   1
   4  -1   1    7.29    0.59   1
   4  -1   2  398.40   13.17   1
   4  -1   3   73.27    3.08   1
   4  -1   4  105.88    3.91   1
   4  -1   5    6.00    1.32   1
   4  -1   6   56.25    2.85   1
   4  -1   7   18.66    1.81   1
   4  -1   8    0.59    1.49   1
   4  -1   9   25.70    2.84   1
   4  -1  10    4.71    2.08   1
   4  -1  11    3.10    4.01   1
   4  -1  12    4.88    6.10   1
   4   0 -12   23.52   13.10   1
   4   0 -11   76.91   13.86   1
   4   0 -10   13.10    2.32   1
   4   0  -9    6.92    1.42   1
   4   0  -8    0.79    1.09   1
   4   0  -7  297.56    8.97   1
   4   0  -6   61.62    2.20   1
   4   0  -5    1.99    0.59   1
   4   0  -4   10.37    1.03   1
   4   0  -3   63.52    1.59   1
   4   0  -2    7.67    0.50   1
   4   0  -1  752.95   15.37   1
   4   0   1  127.01    4.51   1
   4   0   2   19.10    0.87   1
   4   0   3  925.38   26.16   1
   4   0   4  392.44   16.64   1
   4   0   5    0.40    1.10   1
   4   0   6    7.02    1.38   1
   4   0   7    0.79    1.30   1
   4   0   8    0.50    1.11   1
   4   0   9  145.20    4.34   1
   4   0  10  114.06    4.70   1
   4   0  11    6.10    3.61   1
   4   0  12    8.01    5.09   1
   4   1 -12   -0.59    3.28   1
   4   1 -11   -0.71    2.50   1
   4   1 -10   19.01    3.14   1
   4   1  -9    8.01    1.53   1
   4   1  -8    0.59    1.09   1
   4   1  -7   71.74    2.54   1
   4   1  -6    4.08    0.89   1
   4   1  -5  149.08    4.88   1
   4   1  -4   76.04    2.27   1
   4   1  -3   80.46    3.05   1
   4   1   0   47.75    2.35   1
   4   1   1  120.78    3.30   1
   4   1   2   83.54    2.38   1
   4   1   3  553.19   22.11   1
   4   1   4  352.31   10.51   1
   4   1   5   93.51    3.67   1
   4   1   6   62.73    2.53   1
   4   1   7   23.43    3.39   1
   4   1   8    0.20    2.31   1
   4   1   9   -1.10    2.39   1
   4   1  10    2.50    3.10   1
   4   1  11    2.89    4.69   1
   4   1  12    5.90    6.03   1
   4   2 -11   -1.49    2.59   1
   4   2 -10    1.90    1.71   1
   4   2  -9    2.69    1.41   1
   4   2  -8   10.18    1.40   1
   4   2  -7   50.98    2.14   1
   4   2  -6    1.49    0.81   1
   4   2  -5  171.09    4.45   1
   4   2  -4   15.68    0.79   1
   4   2  -3  219.63    6.52   1
   4   2  -1  123.88    4.23   1
   4   2   0  227.10    6.03   1
   4   2   1  176.62    5.05   1
   4   2   2  258.57    7.40   1
   4   2   3  228.31    7.25   1
   4   2   4   25.70    1.83   1
   4   2   5   21.16    2.48   1
   4   2   6    0.59    1.39   1
   4   2   7    1.69    1.79   1
   4   2   8    8.53    2.39   1
   4   2   9    9.00    2.88   1
   4   2  10    6.30    3.21   1
   4   2  11    2.50    3.79   1
   4   2  12   -0.20    4.63   1
   4   3 -11   29.27    3.79   1
   4   3 -10    7.51    3.12   1
   4   3  -9    2.10    1.39   1
   4   3  -8    0.00    1.00   1
   4   3  -7   24.11    1.57   1
   4   3  -6    4.49    1.02   1
   4   3  -5  380.25    8.19   1
   4   3  -4   14.82    1.08   1
   4   3  -3  118.16    4.57   1
   4   3  -2  611.57   19.78   1
   4   3  -1 1879.22   42.48   1
   4   3   0   53.00    2.04   1
   4   3   1  178.22    5.07   1
   4   3   2   72.42    2.72   1
   4   3   3   20.43    1.63   1
   4   3   4   19.80    1.69   1
   4   3   5  322.92   10.06   1
   4   3   6    0.90    1.80   1
   4   3   7  136.42    6.07   1
   4   3   8   10.50    2.27   1
   4   3   9  181.98    8.36   1
   4   3  10   -2.69    2.79   1
   4   3  11    9.61    4.59   1
   4   3  12    7.78    5.97   1
   4   4 -11    7.51    3.12   1
   4   4 -10    4.41    2.31   1
   4   4  -9    4.88    2.39   1
   4   4  -8   27.14    1.98   1
   4   4  -7   15.21    1.48   1
   4   4  -6   37.21    2.44   1
   4   4  -5   -0.50    0.91   1
   4   4  -4   98.80    3.18   1
   4   4  -3   46.51    1.77   1
   4   4  -2  914.46   30.24   1
   4   4  -1 1675.26   39.29   1
   4   4   0   13.99    1.27   1
   4   4   1  200.79    5.95   1
   4   4   2  701.72   18.54   1
   4   4   3  522.58   14.63   1
   4   4   4    0.10    1.22   1
   4   4   5    2.31    1.49   1
   4   4   6   23.43    2.42   1
   4   4   7   22.66    2.57   1
   4   4   8   50.55    4.27   1
   4   4   9  244.92   10.95   1
   4   4  10   -1.10    3.40   1
   4   4  11    5.20    4.38   1
   4   5 -10    2.31    2.80   1
   4   5  -9    1.00    1.80   1
   4   5  -8   -0.10    2.23   1
   4   5  -7    0.10    1.22   1
   4   5  -6    0.59    1.09   1
   4   5  -5   16.40    1.38   1
   4   5  -4   20.98    1.47   1
   4   5  -3   66.59    2.77   1
   4   5  -2  104.65    3.48   1
   4   5  -1   31.70    1.69   1
   4   5   0   84.64    3.13   1
   4   5   1    8.12    1.31   1
   4   5   2  154.75    5.22   1
   4   5   3   65.45    3.24   1
   4   5   4   10.89    1.78   1
   4   5   5   47.06    3.02   1
   4   5   6   10.82    2.17   1
   4   5   7    8.29    2.71   1
   4   5   8    2.50    2.40   1
   4   5   9    1.90    2.90   1
   4   5  10    5.52    4.79   1
   4   5  11   -2.99    5.40   1
   4   6 -10    3.50    3.81   1
   4   6  -9   -1.39    2.69   1
   4   6  -8    6.40    1.92   1
   4   6  -7    1.90    1.49   1
   4   6  -6  110.46    4.20   1
   4   6  -5   58.22    2.75   1
   4   6  -4   18.23    1.71   1
   4   6  -3    2.40    1.12   1
   4   6  -2    1.39    1.20   1
   4   6  -1   24.01    1.76   1
   4   6   0    6.60    1.39   1
   4   6   1    6.10    1.58   1
   4   6   2   56.85    2.87   1
   4   6   3    5.62    1.61   1
   4   6   4  206.21    7.75   1
   4   6   5   88.55    4.52   1
   4   6   6    3.10    2.18   1
   4   6   7    9.61    2.73   1
   4   6   8   -0.59    2.68   1
   4   6   9    3.31    3.09   1
   4   6  10    1.00    4.00   1
   4   7  -9   -2.59    3.90   1
   4   7  -8   -4.08    2.71   1
   4   7  -7   10.50    2.20   1
   4   7  -6   56.40    3.15   1
   4   7  -5   14.29    1.97   1
   4   7  -4   27.25    2.19   1
   4   7  -3   42.12    2.73   1
   4   7  -2  631.01   17.58   1
   4   7  -1  187.42    6.30   1
   4   7   0   54.76    2.96   1
   4   7   1   42.12    2.60   1
   4   7   2    8.70    1.89   1
   4   7   3   -4.00    1.88   1
   4   7   4  140.66    5.93   1
   4   7   5   96.04    5.10   1
   4   7   6   31.25    3.35   1
   4   7   7    1.49    3.10   1
   4   7   8  148.11    8.28   1
   4   7   9   37.33    5.87   1
   4   7  10    5.62    6.02   1
   4   8  -8    8.70    4.13   1
   4   8  -7   -1.10    3.00   1
   4   8  -6    7.90    2.98   1
   4   8  -5   20.88    4.02   1
   4   8  -4   13.91    2.31   1
   4   8  -3    3.88    1.81   1
   4   8  -2  182.25    6.75   1
   4   8  -1   38.44    2.85   1
   4   8   0   30.03    2.52   1
   4   8   1    2.50    1.90   1
   4   8   2   62.09    3.62   1
   4   8   3   -1.99    2.09   1
   4   8   4   10.89    2.71   1
   4   8   5    0.00    1.00   1
   4   8   6   24.80    3.49   1
   4   8   7   -1.39    2.69   1
   4   8   8   99.60    7.58   1
   4   8   9    6.40    5.72   1
   4   9  -7    1.90    4.20   1
   4   9  -6    2.89    3.40   1
   4   9  -5    4.49    2.59   1
   4   9  -4   13.91    3.51   1
   4   9  -3   24.01    3.04   1
   4   9  -2   18.23    2.73   1
   4   9  -1    4.00    2.48   1
   4   9   0    5.38    2.41   1
   4   9   1   12.53    2.62   1
   4   9   2    8.01    2.60   1
   4   9   3   -1.00    2.20   1
   4   9   4    6.20    2.89   1
   4   9   5   -0.90    2.60   1
   4   9   6    1.10    3.30   1
   4   9   7   13.91    4.70   1
   4   9   8    9.18    6.42   1
   4  10  -6   28.41    5.33   1
   4  10  -5   -6.10    4.40   1
   4  10  -4   11.29    4.37   1
   4  10  -3   -0.10    2.63   1
   4  10  -2    0.30    2.82   1
   4  10  -1    4.49    2.71   1
   4  10   0    1.69    2.78   1
   4  10   1    7.51    2.79   1
   4  10   2   18.49    3.44   1
   4  10   3   31.14    4.13   1
   4  10   4  105.88    7.00   1
   4  10   5    3.39    3.79   1
   4  10   6    9.42    4.42   1
   4  10   7    2.19    5.00   1
   4  11  -4   -3.80    4.72   1
   4  11  -3   40.07    5.95   1
   4  11  -2   48.30    6.25   1
   4  11  -1    5.90    3.11   1
   4  11   0   17.89    3.89   1
   4  11   1    5.62    3.41   1
   4  11   2    3.31    4.00   1
   4  11   3   20.88    4.75   1
   4  11   4   31.36    5.04   1
   4  11   5   -8.70    5.61   1
   4  12   0    6.71    6.01   1
   4  12   1   17.39    6.59   1
   5 -11  -4   -5.81    6.60   1
   5 -11  -3   -0.50    6.63   1
   5 -11  -2    6.50    7.80   1
   5 -11  -1   43.96    9.68   1
   5 -11   0    3.88    6.07   1
   5 -11   1    3.20    5.69   1
   5 -11   2    3.20    5.80   1
   5 -11   3    2.10    5.51   1
   5 -10  -6   -5.29    4.28   1
   5 -10  -5    1.90    4.11   1
   5 -10  -4    4.20    3.89   1
   5 -10  -3   -3.10    3.70   1
   5 -10  -2   14.06    3.90   1
   5 -10  -1  143.28    7.90   1
   5 -10   0   -4.20    5.62   1
   5 -10   1    9.42    5.71   1
   5 -10   2   11.22    6.43   1
   5 -10   3   44.22    7.71   1
   5 -10   4    0.40    4.78   1
   5 -10   5   -0.90    4.81   1
   5  -9  -7   -1.90    4.20   1
   5  -9  -6    9.30    3.11   1
   5  -9  -5   10.69    3.07   1
   5  -9  -4    2.10    2.41   1
   5  -9  -3    8.41    2.49   1
   5  -9  -2    0.30    2.31   1
   5  -9  -1    2.19    2.60   1
   5  -9   0   13.91    3.28   1
   5  -9   1   12.32    3.23   1
   5  -9   2    8.18    2.97   1
   5  -9   3   23.04    2.30   1
   5  -9   4   -1.30    4.10   1
   5  -9   5    7.78    5.41   1
   5  -9   6   -0.50    4.42   1
   5  -9   7    3.61    6.92   1
   5  -8  -8    7.18    3.70   1
   5  -8  -7   24.70    3.48   1
   5  -8  -6   10.63    2.67   1
   5  -8  -5   14.36    2.58   1
   5  -8  -4   11.63    2.32   1
   5  -8  -3    5.38    2.27   1
   5  -8  -2   -0.59    1.79   1
   5  -8  -1   22.47    2.65   1
   5  -8   0   18.66    2.94   1
   5  -8   1    3.20    2.11   1
   5  -8   2   15.52    4.41   1
   5  -8   3   -1.30    1.39   1
   5  -8   4    3.61    1.41   1
   5  -8   5   -1.90    2.40   1
   5  -8   6   13.40    4.47   1
   5  -8   7   -2.79    5.08   1
   5  -8   8    5.71    5.11   1
   5  -7  -9    1.21    3.41   1
   5  -7  -8    1.59    3.00   1
   5  -7  -7    1.39    2.19   1
   5  -7  -6  103.84    4.48   1
   5  -7  -5   72.25    3.74   1
   5  -7  -4   64.96    3.22   1
   5  -7  -3   -0.90    1.80   1
   5  -7  -2  552.25   14.57   1
   5  -7  -1  125.22    6.04   1
   5  -7   0   35.05    2.84   1
   5  -7   1    1.00    1.80   1
   5  -7   2    2.10    1.19   1
   5  -7   3    0.00    1.00   1
   5  -7   4   37.45    2.20   1
   5  -7   5   36.72    3.39   1
   5  -7   6    8.41    2.61   1
   5  -7   7    0.00    1.00   1
   5  -7   8    9.00    4.80   1
   5  -7   9   -0.50    5.92   1
   5  -6 -10   11.02    3.39   1
   5  -6  -9    8.82    2.91   1
   5  -6  -8   31.36    3.02   1
   5  -6  -7    1.10    2.31   1
   5  -6  -6    6.30    1.81   1
   5  -6  -5    0.50    1.60   1
   5  -6  -4   45.16    2.55   1
   5  -6  -3   13.91    1.79   1
   5  -6  -2  635.04   16.63   1
   5  -6  -1  191.27    8.30   1
   5  -6   0    0.40    1.30   1
   5  -6   1    8.58    1.17   1
   5  -6   2  262.44   12.96   1
   5  -6   3   34.22    1.75   1
   5  -6   4    0.40    1.00   1
   5  -6   5    6.00    1.91   1
   5  -6   6    0.20    3.12   1
   5  -6   7    1.69    2.70   1
   5  -6   8   46.65    5.74   1
   5  -6   9   25.10    7.21   1
   5  -5 -10    0.71    2.81   1
   5  -5  -9    1.21    1.80   1
   5  -5  -8    5.81    1.88   1
   5  -5  -7    8.18    2.12   1
   5  -5  -6   16.56    1.71   1
   5  -5  -5   17.47    1.50   1
   5  -5  -4   26.11    1.94   1
   5  -5  -3   82.08    3.08   1
   5  -5  -2   44.89    2.41   1
   5  -5  -1   35.40    1.90   1
   5  -5   0    2.40    0.90   1
   5  -5   1    2.40    1.12   1
   5  -5   2   33.52    2.43   1
   5  -5   3   11.49    1.08   1
   5  -5   4   52.27    3.04   1
   5  -5   5   60.06    3.57   1
   5  -5   6    9.67    2.18   1
   5  -5   7    2.79    2.30   1
   5  -5   8    2.31    2.49   1
   5  -5  10   -2.89    4.39   1
   5  -4 -11   -0.79    2.79   1
   5  -4 -10    6.60    2.52   1
   5  -4  -9   -0.10    1.72   1
   5  -4  -8   46.38    2.59   1
   5  -4  -7   39.44    2.26   1
   5  -4  -6  355.32    7.92   1
   5  -4  -5    2.31    1.00   1
   5  -4  -4  100.60    2.61   1
   5  -4  -3   20.52    1.27   1
   5  -4  -2    3.31    0.91   1
   5  -4  -1  120.56    3.95   1
   5  -4   0    4.28    0.91   1
   5  -4   1   35.76    1.79   1
   5  -4   2  142.09    5.24   1
   5  -4   3   11.70    1.09   1
   5  -4   4   78.85    3.73   1
   5  -4   5   27.14    2.19   1
   5  -4   6   55.80    3.44   1
   5  -4   7    1.10    1.81   1
   5  -4   8   -0.50    1.90   1
   5  -4   9    2.50    3.60   1
   5  -4  10    1.10    4.09   1
   5  -4  11   -1.00    4.50   1
   5  -3 -11   -4.00    2.60   1
   5  -3 -10    1.99    2.40   1
   5  -3  -9    5.11    2.31   1
   5  -3  -8   -0.71    1.21   1
   5  -3  -7  163.84    4.61   1
   5  -3  -6  436.39    9.19   1
   5  -3  -5   -0.50    1.01   1
   5  -3  -4   35.52    1.55   1
   5  -3  -3 1529.59   25.03   1
   5  -3  -2 1370.48   22.95   1
   5  -3  -1   17.89    1.44   1
   5  -3   0    1.49    0.81   1
   5  -3   1    5.81    0.92   1
   5  -3   2   13.91    1.19   1
   5  -3   3  129.28    4.78   1
   5  -3   4  461.39   12.89   1
   5  -3   5    1.21    1.10   1
   5  -3   6   27.25    2.30   1
   5  -3   7  192.93    7.22   1
   5  -3   8  208.22    8.37   1
   5  -3   9    1.69    2.18   1
   5  -3  10   -6.60    4.68   1
   5  -3  11    1.99    4.68   1
   5  -2 -11    8.88    3.28   1
   5  -2 -10   -1.00    1.70   1
   5  -2  -9    6.81    1.62   1
   5  -2  -8    2.79    1.40   1
   5  -2  -7   -0.90    0.89   1
   5  -2  -6    9.18    1.27   1
   5  -2  -5  124.10    3.34   1
   5  -2  -4   71.74    2.03   1
   5  -2  -3  362.90    7.24   1
   5  -2  -2  461.82    8.60   1
   5  -2  -1  212.28    4.95   1
   5  -2   0  118.59    4.57   1
   5  -2   1  239.01    9.59   1
   5  -2   2   79.39    5.88   1
   5  -2   3   31.25    1.79   1
   5  -2   4   20.88    1.74   1
   5  -2   5   28.94    2.04   1
   5  -2   6   21.44    2.96   1
   5  -2   7   55.80    4.48   1
   5  -2   8  151.29    6.89   1
   5  -2   9    2.31    2.10   1
   5  -2  10    9.49    3.82   1
   5  -2  11    4.00    4.48   1
   5  -1 -11   -0.71    2.70   1
   5  -1 -10    9.67    1.80   1
   5  -1  -9    5.52    1.50   1
   5  -1  -8    7.90    1.29   1
   5  -1  -7    0.40    0.89   1
   5  -1  -6    3.61    0.80   1
   5  -1  -5  307.30    6.66   1
   5  -1  -4  115.99    2.80   1
   5  -1  -3   71.91    2.04   1
   5  -1  -2  424.77    9.07   1
   5  -1  -1   39.44    1.38   1
   5  -1   0   30.69    1.44   1
   5  -1   1    3.69    0.69   1
   5  -1   2    5.81    1.11   1
   5  -1   3   13.10    1.23   1
   5  -1   4   49.28    2.39   1
   5  -1   5  124.32    4.46   1
   5  -1   6   32.15    2.15   1
   5  -1   7   39.94    2.65   1
   5  -1   8    6.50    1.68   1
   5  -1   9    0.59    2.19   1
   5  -1  10    7.90    2.42   1
   5  -1  11    2.59    4.19   1
   5   0 -11   10.89    2.97   1
   5   0 -10    1.90    1.90   1
   5   0  -9    9.00    1.38   1
   5   0  -8   23.72    1.56   1
   5   0  -7  423.54    9.47   1
   5   0  -6  111.51    3.38   1
   5   0  -5   84.09    2.93   1
   5   0  -4    0.90    0.49   1
   5   0  -3   53.14    3.64   1
   5   0  -2   39.56    1.89   1
   5   0  -1   14.06    1.12   1
   5   0   0   15.76    1.99   1
   5   0   1  248.38    6.62   1
   5   0   2   22.75    1.14   1
   5   0   3 1540.56   30.61   1
   5   0   4  331.97    7.65   1
   5   0   5  160.02    5.31   1
   5   0   6    1.21    1.30   1
   5   0   7   42.38    2.86   1
   5   0   8   -1.21    1.01   1
   5   0   9    1.10    1.20   1
   5   0  10   -1.49    1.49   1
   5   0  11    7.02    4.61   1
   5   1 -11    2.19    2.60   1
   5   1 -10    1.90    1.71   1
   5   1  -9    0.30    2.51   1
   5   1  -8   22.00    1.78   1
   5   1  -7  160.78    4.82   1
   5   1  -6   23.14    1.35   1
   5   1  -5  114.28    2.99   1
   5   1  -4  396.41   11.95   1
   5   1  -3 1821.58   69.14   1
   5   1   0   16.48    0.89   1
   5   1   1    2.50    0.51   1
   5   1   2   11.09    1.00   1
   5   1   3 1100.91   21.90   1
   5   1   4  357.21   10.58   1
   5   1   5  237.47    7.40   1
   5   1   6   14.36    1.52   1
   5   1   7  683.30   21.96   1
   5   1   8   68.72    4.48   1
   5   1   9    7.29    2.81   1
   5   1  10   -1.21    2.71   1
   5   1  11    4.00    3.92   1
   5   2 -11    1.39    2.60   1
   5   2 -10    1.69    2.11   1
   5   2  -9    5.29    1.38   1
   5   2  -8   18.66    1.56   1
   5   2  -7   47.75    3.04   1
   5   2  -6   55.35    1.93   1
   5   2  -5   46.65    2.19   1
   5   2  -4   55.35    1.49   1
   5   2   0   12.32    0.77   1
   5   2   1    5.90    0.92   1
   5   2   2  173.19    5.53   1
   5   2   3   35.52    2.03   1
   5   2   4   46.92    2.47   1
   5   2   5  109.83    4.40   1
   5   2   6    8.18    2.00   1
   5   2   7  162.31    6.88   1
   5   2   8    2.31    2.49   1
   5   2   9   47.06    4.25   1
   5   2  10    0.40    3.49   1
   5   2  11    7.62    5.19   1
   5   3 -11    7.29   12.10   1
   5   3 -10    2.79    2.00   1
   5   3  -9   16.73    2.29   1
   5   3  -8    2.79    2.00   1
   5   3  -7    6.60    1.18   1
   5   3  -6   23.23    2.02   1
   5   3  -5   29.70    1.74   1
   5   3  -4   80.82    2.16   1
   5   3  -1  239.32    8.04   1
   5   3   0   22.18    1.51   1
   5   3   1   58.22    2.44   1
   5   3   2   47.61    2.21   1
   5   3   3    7.67    1.27   1
   5   3   4  124.99    4.70   1
   5   3   5   70.06    3.35   1
   5   3   6   20.79    2.28   1
   5   3   7   17.47    2.59   1
   5   3   8    1.59    2.29   1
   5   3   9   -0.59    2.19   1
   5   3  10   -1.59    3.38   1
   5   3  11    1.10    5.10   1
   5   4 -10   11.09   10.52   1
   5   4  -9    4.41    1.81   1
   5   4  -8  179.02    8.03   1
   5   4  -7  171.87    7.60   1
   5   4  -6   39.19    1.88   1
   5   4  -5   19.18    1.23   1
   5   4  -4  130.87    5.03   1
   5   4  -3   23.62    1.46   1
   5   4  -2   78.68    3.02   1
   5   4  -1  122.10    3.32   1
   5   4   0   38.69    1.74   1
   5   4   1   80.64    2.87   1
   5   4   2  993.51   25.22   1
   5   4   3 1020.16   26.83   1
   5   4   4   12.32    1.68   1
   5   4   5   56.55    3.01   1
   5   4   6   13.40    2.27   1
   5   4   7   10.50    2.27   1
   5   4   8    0.20    2.31   1
   5   4   9    6.92    3.31   1
   5   4  10   -1.21    3.72   1
   5   4  11    4.71    4.38   1
   5   5 -10    0.50    2.91   1
   5   5  -9    2.89    2.89   1
   5   5  -8   30.03    2.30   1
   5   5  -7    6.40    1.42   1
   5   5  -6   50.84    2.42   1
   5   5  -5    1.30    1.09   1
   5   5  -4  312.23    8.48   1
   5   5  -3  124.55    3.79   1
   5   5  -2    6.40    1.32   1
   5   5  -1   16.40    1.30   1
   5   5   0   48.30    2.09   1
   5   5   1   53.58    2.34   1
   5   5   2  124.55    4.69   1
   5   5   3  149.08    5.13   1
   5   5   4   72.76    3.41   1
   5   5   5   -0.40    1.69   1
   5   5   6  295.84   10.66   1
   5   5   7  107.74    5.40   1
   5   5   8    9.61    2.91   1
   5   5   9    8.01    3.28   1
   5   5  10    1.39    4.79   1
   5   6  -9    5.29    2.99   1
   5   6  -8    6.00    2.70   1
   5   6  -7    7.40    1.80   1
   5   6  -6   12.11    2.37   1
   5   6  -5    0.00    1.00   1
   5   6  -4    4.80    1.31   1
   5   6  -3    4.20    1.19   1
   5   6  -2    3.10    1.20   1
   5   6  -1   -0.10    1.11   1
   5   6   0    3.50    1.31   1
   5   6   1   15.29    1.72   1
   5   6   2   59.75    2.94   1
   5   6   3  111.94    4.66   1
   5   6   4   88.55    3.95   1
   5   6   5    2.99    1.80   1
   5   6   6   16.89    2.63   1
   5   6   7    0.10    2.12   1
   5   6   8   12.39    2.89   1
   5   6   9    3.20    3.79   1
   5   6  10   -1.59    5.37   1
   5   7  -9    1.59    5.47   1
   5   7  -8    8.70    3.13   1
   5   7  -7    2.59    3.19   1
   5   7  -6   17.98    2.20   1
   5   7  -5    4.71    1.69   1
   5   7  -4   24.90    2.20   1
   5   7  -3    3.50    1.50   1
   5   7  -2  161.04    5.84   1
   5   7  -1   33.06    2.30   1
   5   7   0   11.49    1.70   1
   5   7   1    5.62    1.61   1
   5   7   2  198.53    7.05   1
   5   7   3    0.10    2.02   1
   5   7   4   50.98    3.57   1
   5   7   5    9.99    2.59   1
   5   7   6   24.60    3.37   1
   5   7   7    5.71    3.30   1
   5   7   8   21.16    3.50   1
   5   7   9    5.81    5.21   1
   5   8  -8   32.04    6.68   1
   5   8  -7    6.20    3.19   1
   5   8  -6    6.92    3.10   1
   5   8  -5    5.62    2.61   1
   5   8  -4    2.59    1.80   1
   5   8  -3   -0.59    1.69   1
   5   8  -2    7.90    1.91   1
   5   8  -1    6.50    1.89   1
   5   8   0   57.91    3.50   1
   5   8   1   90.06    4.37   1
   5   8   2  578.40   17.80   1
   5   8   3   19.80    2.76   1
   5   8   4   63.84    4.47   1
   5   8   5    7.62    2.70   1
   5   8   6   19.01    3.58   1
   5   8   7    1.39    3.49   1
   5   8   8    9.80    4.38   1
   5   8   9   -0.30    4.82   1
   5   9  -7    5.81    6.22   1
   5   9  -6   -0.50    4.12   1
   5   9  -5   14.52    3.89   1
   5   9  -4   22.56    2.94   1
   5   9  -3    6.10    2.22   1
   5   9  -2   40.07    3.42   1
   5   9  -1    3.88    2.48   1
   5   9   0    7.51    2.30   1
   5   9   1    2.50    2.09   1
   5   9   2   34.22    3.51   1
   5   9   3   -0.71    2.81   1
   5   9   4   23.91    3.72   1
   5   9   5   51.84    4.75   1
   5   9   6  119.25    7.43   1
   5   9   7   -2.99    4.19   1
   5   9   8   11.22    5.63   1
   5  10  -5    0.71    4.22   1
   5  10  -4    7.90    4.22   1
   5  10  -3   12.82    3.79   1
   5  10  -2   -2.59    2.38   1
   5  10  -1   -0.59    3.68   1
   5  10   0    5.71    2.92   1
   5  10   1   14.21    3.47   1
   5  10   2   11.83    3.51   1
   5  10   3    1.49    3.20   1
   5  10   4    4.20    3.61   1
   5  10   5    3.10    3.70   1
   5  10   6   -3.10    5.60   1
   5  11  -3   30.80    6.22   1
   5  11  -2   33.99    6.53   1
   5  11  -1    4.49    5.51   1
   5  11   0   -1.69    4.39   1
   5  11   1   24.80    5.58   1
   5  11   2    1.21    4.93   1
   5  11   3   -2.19    5.00   1
   5  11   4    2.99    4.29   1
   6 -11  -2    3.39    7.10   1
   6 -11  -1    4.41    8.53   1
   6 -11   0   -5.02    5.42   1
   6 -11   1    0.00    1.00   1
   6 -10  -5   -4.49    5.60   1
   6 -10  -4   11.22    5.23   1
   6 -10  -3    2.31    6.72   1
   6 -10  -2   -8.53    7.18   1
   6 -10  -1    0.10    5.77   1
   6 -10   0   -1.99    6.49   1
   6 -10   1   -0.10    3.03   1
   6 -10   2   19.27    7.02   1
   6 -10   3   14.29    6.80   1
   6 -10   4    0.71    5.22   1
   6  -9  -6    1.99    3.58   1
   6  -9  -5    2.19    2.90   1
   6  -9  -4  106.09    5.15   1
   6  -9  -3   76.74    4.38   1
   6  -9  -2    2.79    2.81   1
   6  -9  -1   -2.89    2.99   1
   6  -9   0    4.00    2.00   1
   6  -9   1    1.00    2.20   1
   6  -9   2   20.52    2.27   1
   6  -9   3   22.09    2.63   1
   6  -9   4    2.19    4.08   1
   6  -9   5   -2.69    4.59   1
   6  -9   6   26.11    6.13   1
   6  -8  -7   17.47    3.26   1
   6  -8  -6   23.81    3.32   1
   6  -8  -5    5.02    2.69   1
   6  -8  -4    3.20    2.29   1
   6  -8  -3    1.90    2.70   1
   6  -8  -2    6.81    2.40   1
   6  -8  -1    4.28    1.70   1
   6  -8   0    1.59    1.69   1
   6  -8   1    0.50    1.70   1
   6  -8   2   10.30    1.93   1
   6  -8   3    8.88    1.67   1
   6  -8   4    5.20    1.50   1
   6  -8   5    3.20    5.12   1
   6  -8   6    2.50    4.30   1
   6  -8   7    4.28    6.00   1
   6  -7  -8   11.49    3.59   1
   6  -7  -7    4.58    2.70   1
   6  -7  -6   10.18    2.62   1
   6  -7  -5    4.20    1.80   1
   6  -7  -4   36.24    2.29   1
   6  -7  -3   13.32    1.68   1
   6  -7  -2   23.04    1.82   1
   6  -7  -1    4.28    1.70   1
   6  -7   0    6.71    1.61   1
   6  -7   1    2.40    1.80   1
   6  -7   2    3.39    1.58   1
   6  -7   3   15.21    1.64   1
   6  -7   4   13.91    1.57   1
   6  -7   5    7.02    2.70   1
   6  -7   6    1.59    3.00   1
   6  -7   7    4.41    4.12   1
   6  -7   8    5.90    5.20   1
   6  -6  -9   38.44    5.08   1
   6  -6  -8  229.52    8.48   1
   6  -6  -7    7.90    2.47   1
   6  -6  -6   22.28    1.98   1
   6  -6  -5   46.24    2.45   1
   6  -6  -4   75.34    2.95   1
   6  -6  -3   -0.40    1.30   1
   6  -6  -2   45.02    2.28   1
   6  -6  -1    7.02    1.48   1
   6  -6   0   19.80    1.69   1
   6  -6   1  114.92    5.15   1
   6  -6   2  535.46   17.12   1
   6  -6   3   36.36    2.05   1
   6  -6   4   28.84    3.01   1
   6  -6   5    2.19    1.98   1
   6  -6   6   11.97    2.49   1
   6  -6   7   -2.69    2.49   1
   6  -6   8    5.29    4.19   1
   6  -6   9   -1.69    4.50   1
   6  -5 -10    1.00    3.00   1
   6  -5  -9   16.89    2.71   1
   6  -5  -8   38.69    3.36   1
   6  -5  -7    7.51    1.70   1
   6  -5  -6   19.89    1.87   1
   6  -5  -5  166.15    4.38   1
   6  -5  -4  272.58    5.94   1
   6  -5  -3    0.50    1.11   1
   6  -5  -2   12.39    1.20   1
   6  -5  -1    0.50    1.01   1
   6  -5   0   15.92    1.60   1
   6  -5   1    8.82    1.60   1
   6  -5   2  271.26   12.85   1
   6  -5   3   19.89    1.52   1
   6  -5   4   68.06    5.61   1
   6  -5   5   19.54    2.39   1
   6  -5   6  154.01    6.95   1
   6  -5   7   10.11    4.39   1
   6  -5   8    0.20    3.52   1
   6  -5   9   -3.20    3.79   1
   6  -5  10   -0.10    5.16   1
   6  -4 -10   18.49    3.87   1
   6  -4  -9    4.08    3.19   1
   6  -4  -8   20.16    2.07   1
   6  -4  -7   49.14    2.38   1
   6  -4  -6    5.02    1.52   1
   6  -4  -5    3.10    1.20   1
   6  -4  -4   20.98    1.37   1
   6  -4  -3   46.79    1.92   1
   6  -4  -2   -0.20    0.91   1
   6  -4  -1   33.64    1.74   1
   6  -4   0   79.21    3.03   1
   6  -4   1   37.21    1.95   1
   6  -4   2   93.90    3.29   1
   6  -4   3   44.76    2.94   1
   6  -4   4   81.18    3.78   1
   6  -4   5   18.66    3.37   1
   6  -4   6    2.19    2.90   1
   6  -4   7   -1.69    1.79   1
   6  -4   8   18.23    3.07   1
   6  -4   9    4.88    3.71   1
   6  -3 -10    6.71    2.90   1
   6  -3  -9   45.56    3.24   1
   6  -3  -8    7.40    1.58   1
   6  -3  -7    9.18    1.51   1
   6  -3  -6    1.30    1.21   1
   6  -3  -5    2.99    1.11   1
   6  -3  -4   27.25    1.46   1
   6  -3  -3  152.52    4.69   1
   6  -3  -2  398.40    7.98   1
   6  -3  -1   84.82    2.76   1
   6  -3   0   61.15    2.03   1
   6  -3   1  163.84    5.89   1
   6  -3   2   58.98    2.76   1
   6  -3   3   59.44    2.93   1
   6  -3   4   35.64    3.94   1
   6  -3   5   40.07    2.66   1
   6  -3   6   25.10    2.40   1
   6  -3   7   22.75    2.58   1
   6  -3   8    6.10    2.32   1
   6  -3   9   13.47    4.62   1
   6  -3  10    2.59    4.80   1
   6  -2 -11    1.69    2.89   1
   6  -2 -10    3.88    2.60   1
   6  -2  -9  221.12    6.54   1
   6  -2  -8   77.97    3.00   1
   6  -2  -7   16.40    1.38   1
   6  -2  -6    0.50    1.01   1
   6  -2  -5  110.88    3.16   1
   6  -2  -4   27.25    1.25   1
   6  -2  -3   63.04    2.06   1
   6  -2  -2  184.42    4.35   1
   6  -2  -1  162.56    4.08   1
   6  -2   0    4.08    0.81   1
   6  -2   1 1654.86   41.49   1
   6  -2   2  957.28   35.89   1
   6  -2   3   35.76    2.15   1
   6  -2   4    2.50    1.30   1
   6  -2   5  191.27    6.91   1
   6  -2   6   29.27    2.27   1
   6  -2   7   20.61    3.09   1
   6  -2   8   30.03    2.96   1
   6  -2   9   -2.79    2.00   1
   6  -2  10    0.10    4.96   1
   6  -2  11   19.18    5.69   1
   6  -1 -11    7.90    2.81   1
   6  -1 -10   -0.20    2.21   1
   6  -1  -9    5.38    2.09   1
   6  -1  -8    2.99    1.21   1
   6  -1  -7   26.73    2.07   1
   6  -1  -6    8.41    0.99   1
   6  -1  -5  113.00    3.61   1
   6  -1  -4    6.00    0.78   1
   6  -1  -3  199.09    5.08   1
   6  -1  -2   84.27    2.39   1
   6  -1  -1   78.85    2.49   1
   6  -1   0   67.24    2.30   1
   6  -1   1   87.98    3.00   1
   6  -1   2   77.97    2.65   1
   6  -1   3  143.76    4.08   1
   6  -1   4   17.31    1.58   1
   6  -1   5  243.05   11.22   1
   6  -1   6   80.28    3.76   1
   6  -1   7   12.39    1.83   1
   6  -1   8    4.80    1.88   1
   6  -1   9   -1.00    2.20   1
   6  -1  10    2.59    4.60   1
   6  -1  11   11.29    5.31   1
   6   0 -11    6.20    2.79   1
   6   0 -10    5.81    9.93   1
   6   0  -9    4.58    2.01   1
   6   0  -8    3.69    1.31   1
   6   0  -7    1.00    1.10   1
   6   0  -6    2.89    0.88   1
   6   0  -5    3.39    0.70   1
   6   0  -4   -1.99    0.79   1
   6   0  -3  110.67    7.36   1
   6   0  -2   15.21    1.33   1
   6   0  -1   75.86    2.26   1
   6   0   0  164.61    8.21   1
   6   0   1  124.99    3.58   1
   6   0   2   77.97    2.30   1
   6   0   3   64.32    1.92   1
   6   0   4    2.99    0.90   1
   6   0   5    1.10    0.80   1
   6   0   6    6.60    0.98   1
   6   0   7    1.30    1.39   1
   6   0   8    7.78    2.01   1
   6   0   9   -0.50    1.90   1
   6   0  10    0.40    4.08   1
   6   0  11   -0.50    4.32   1
   6   1 -11   -4.88   14.59   1
   6   1 -10   24.30   13.41   1
   6   1  -9   86.49    3.72   1
   6   1  -8    7.29    1.30   1
   6   1  -7   -0.50    0.91   1
   6   1  -6    4.88    0.88   1
   6   1  -5   32.04    1.70   1
   6   1  -4   70.06    7.53   1
   6   1   0  228.31    6.65   1
   6   1   1  373.26   10.05   1
   6   1   2   33.76    1.63   1
   6   1   3   32.15    1.36   1
   6   1   4   37.21    1.95   1
   6   1   5   18.84    1.56   1
   6   1   6    2.50    1.20   1
   6   1   7  171.61    7.60   1
   6   1   8   -2.59    2.00   1
   6   1   9   30.91    3.34   1
   6   1  10   -3.69    3.30   1
   6   1  11   13.76    6.38   1
   6   2 -10   36.84    3.64   1
   6   2  -9   34.34    2.34   1
   6   2  -8    2.99    1.21   1
   6   2  -7   20.43    1.90   1
   6   2  -6   33.29    7.73   1
   6   2  -5    6.00    5.29   1
   6   2   0  621.01   21.43   1
   6   2   1 1684.28   40.22   1
   6   2   2    8.58    1.29   1
   6   2   3  153.26    5.45   1
   6   2   4   87.42    3.74   1
   6   2   5   43.30    2.90   1
   6   2   6    3.20    1.90   1
   6   2   7   50.55    3.70   1
   6   2   8   -2.10    2.41   1
   6   2   9   19.62    3.01   1
   6   2  10   15.52    4.89   1
   6   2  11   88.92   10.18   1
   6   3 -10   -2.59    2.29   1
   6   3  -9   12.11    9.12   1
   6   3  -8    3.10    1.30   1
   6   3  -7   -1.39    1.30   1
   6   3  -6   24.90    1.20   1
   6   3   0    3.61    0.80   1
   6   3   1   89.68    3.41   1
   6   3   2    9.18    1.21   1
   6   3   3   24.11    1.77   1
   6   3   4  123.43    4.44   1
   6   3   5   71.23    3.54   1
   6   3   6   15.37    2.43   1
   6   3   7   15.29    2.42   1
   6   3   8    0.30    2.51   1
   6   3   9    7.18    3.27   1
   6   3  11    0.50    5.62   1
   6   4 -10    5.71    2.92   1
   6   4  -9   -1.21    2.31   1
   6   4  -8    7.40    1.52   1
   6   4  -7    3.69    1.11   1
   6   4  -6   21.34    1.20   1
   6   4  -5    1.10    0.50   1
   6   4  -1   51.27    1.58   1
   6   4   0   59.60    2.16   1
   6   4   1   66.10    2.76   1
   6   4   2    4.28    1.20   1
   6   4   3   -0.30    1.21   1
   6   4   4   20.52    1.99   1
   6   4   5   -0.50    1.70   1
   6   4   6   35.05    2.96   1
   6   4   7    5.29    2.39   1
   6   4   8   12.60    3.12   1
   6   4   9   10.37    3.22   1
   6   4  10   13.76    5.12   1
   6   5  -9    2.59    2.51   1
   6   5  -8    2.69    2.00   1
   6   5  -7    3.50    1.31   1
   6   5  -6    3.10    1.41   1
   6   5  -5   10.89    0.99   1
   6   5  -4  404.41   13.27   1
   6   5  -3  138.30    3.53   1
   6   5  -2   11.42    1.22   1
   6   5  -1   30.69    1.88   1
   6   5   0  468.29   12.12   1
   6   5   1   70.73    2.86   1
   6   5   2   48.86    2.52   1
   6   5   3   43.16    2.63   1
   6   5   4   66.59    3.43   1
   6   5   5   -2.10    1.71   1
   6   5   6  264.39    9.43   1
   6   5   7   88.36    5.83   1
   6   5   8   22.75    3.63   1
   6   5   9    5.02    3.90   1
   6   5  10   28.20    5.84   1
   6   6  -9    3.69    2.88   1
   6   6  -8    5.02    2.69   1
   6   6  -7    9.12    1.69   1
   6   6  -6   -0.71    1.11   1
   6   6  -5    0.71    1.01   1
   6   6  -4    2.50    1.11   1
   6   6  -3    2.19    1.01   1
   6   6  -2   30.36    1.65   1
   6   6  -1   81.54    3.07   1
   6   6   0  591.46   15.08   1
   6   6   1   53.44    2.92   1
   6   6   2  121.00    4.84   1
   6   6   3    6.81    1.72   1
   6   6   4    6.81    1.88   1
   6   6   5   -0.79    1.99   1
   6   6   6    2.31    2.40   1
   6   6   7    0.71    2.70   1
   6   6   8   12.60    3.90   1
   6   6   9   -4.71    3.39   1
   6   7  -8   -1.30    2.69   1
   6   7  -7    0.40    2.39   1
   6   7  -6    4.80    1.62   1
   6   7  -5    1.69    1.40   1
   6   7  -4    9.49    1.60   1
   6   7  -3   24.60    1.88   1
   6   7  -2    9.00    1.50   1
   6   7  -1    5.29    1.89   1
   6   7   0    0.20    1.91   1
   6   7   1    2.69    1.80   1
   6   7   2    4.08    1.98   1
   6   7   3    9.00    2.28   1
   6   7   4    7.51    2.19   1
   6   7   5    3.39    2.10   1
   6   7   6   17.81    3.29   1
   6   7   7    3.88    2.99   1
   6   7   8    4.28    3.97   1
   6   7   9    0.30    5.72   1
   6   8  -7   -1.49    2.98   1
   6   8  -6   -0.90    3.00   1
   6   8  -5   39.94    4.04   1
   6   8  -4   86.68    3.91   1
   6   8  -3    2.79    1.80   1
   6   8  -2   28.41    2.45   1
   6   8  -1    7.51    1.92   1
   6   8   0    6.00    1.81   1
   6   8   1    1.10    1.91   1
   6   8   2   38.94    3.49   1
   6   8   3   -1.49    2.10   1
   6   8   4   22.00    3.10   1
   6   8   5   22.47    3.51   1
   6   8   6   61.94    5.35   1
   6   8   7    2.10    3.31   1
   6   8   8    2.31    4.50   1
   6   9  -6   -2.89    3.71   1
   6   9  -5   55.20    5.20   1
   6   9  -4   69.56    5.67   1
   6   9  -3   12.11    2.51   1
   6   9  -2   12.11    2.30   1
   6   9  -1   70.73    4.37   1
   6   9   0   31.14    3.01   1
   6   9   1    4.71    2.30   1
   6   9   2    2.50    2.40   1
   6   9   3    6.92    2.79   1
   6   9   4   14.82    3.31   1
   6   9   5   45.29    4.44   1
   6   9   6  141.13    9.27   1
   6   9   7    8.01    5.38   1
   6  10  -4    4.41    3.70   1
   6  10  -3    9.18    3.82   1
   6  10  -2   -5.20    3.51   1
   6  10  -1   41.60    5.16   1
   6  10   0   30.91    4.56   1
   6  10   1    2.99    3.60   1
   6  10   2    7.90    3.88   1
   6  10   3    0.30    4.02   1
   6  10   4   -2.50    4.49   1
   6  10   5   -8.01    5.09   1
   6  11  -1   12.60    5.18   1
   6  11   0    5.52    4.42   1
   6  11   1    9.67    4.48   1
   6  11   2   11.02    5.78   1
   7 -10  -3    2.79    5.98   1
   7 -10  -2   -4.80    7.40   1
   7 -10  -1    4.88    8.09   1
   7 -10   0    1.39    6.99   1
   7 -10   1   -1.10    3.21   1
   7 -10   2    0.30    5.82   1
   7 -10   3    0.50    5.23   1
   7  -9  -5    6.81    3.50   1
   7  -9  -4   71.40    4.73   1
   7  -9  -3   47.75    4.56   1
   7  -9  -2    6.00    3.28   1
   7  -9  -1    1.99    3.19   1
   7  -9   0   43.16    3.29   1
   7  -9   1    5.20    2.42   1
   7  -9   2   -2.69    2.10   1
   7  -9   3   -5.11    5.42   1
   7  -9   4    3.88    4.89   1
   7  -9   5    4.08    4.97   1
   7  -8  -7   -0.30    6.62   1
   7  -8  -6    8.29    3.51   1
   7  -8  -5    1.21    2.62   1
   7  -8  -4    4.58    2.48   1
   7  -8  -3    7.02    4.03   1
   7  -8  -2    7.29    2.00   1
   7  -8  -1    2.40    2.11   1
   7  -8   0  190.72    8.56   1
   7  -8   1   32.38    2.73   1
   7  -8   2    6.71    2.02   1
   7  -8   3   -0.79    1.80   1
   7  -8   4    3.31    2.91   1
   7  -8   5    4.20    5.21   1
   7  -8   6    8.41    4.81   1
   7  -7  -8    4.08    5.90   1
   7  -7  -7    0.71    4.22   1
   7  -7  -6   -4.58    2.70   1
   7  -7  -5    1.80    2.20   1
   7  -7  -4   26.83    2.69   1
   7  -7  -3   28.30    2.13   1
   7  -7  -2   21.81    2.05   1
   7  -7  -1    5.81    2.22   1
   7  -7   0    1.80    1.61   1
   7  -7   1   -0.50    1.90   1
   7  -7   2    9.99    2.09   1
   7  -7   3    7.62    1.71   1
   7  -7   4    4.00    2.72   1
   7  -7   5   -0.71    3.41   1
   7  -7   6   10.30    5.20   1
   7  -7   7    8.12    5.02   1
   7  -6  -8   10.89    4.42   1
   7  -6  -7   -1.21    2.42   1
   7  -6  -6   26.63    2.89   1
   7  -6  -5   14.06    1.88   1
   7  -6  -4   61.15    2.66   1
   7  -6  -3   -0.40    1.50   1
   7  -6  -2   19.98    1.88   1
   7  -6  -1    2.50    1.39   1
   7  -6   0   11.63    1.71   1
   7  -6   1    6.10    1.88   1
   7  -6   2    0.90    1.41   1
   7  -6   3    4.80    1.40   1
   7  -6   4   13.47    2.42   1
   7  -6   5    6.00    2.40   1
   7  -6   6    3.61    4.22   1
   7  -6   7    6.92    4.00   1
   7  -6   8   -3.20    5.19   1
   7  -5  -9    4.41    3.11   1
   7  -5  -8    4.41    2.90   1
   7  -5  -7   -0.50    2.61   1
   7  -5  -6    1.00    1.70   1
   7  -5  -5  144.96    4.33   1
   7  -5  -4  322.56    7.54   1
   7  -5  -3    1.90    1.71   1
   7  -5  -2    4.49    1.40   1
   7  -5  -1  225.00    6.30   1
   7  -5   0  144.24    6.25   1
   7  -5   1    4.88    1.19   1
   7  -5   2    1.69    1.20   1
   7  -5   3    3.88    2.60   1
   7  -5   4   10.50    2.01   1
   7  -5   5   42.64    3.27   1
   7  -5   6  142.09   10.01   1
   7  -5   7    1.59    2.49   1
   7  -5   8   -0.50    3.72   1
   7  -5   9    7.67    5.87   1
   7  -4  -9    6.60    5.40   1
   7  -4  -8   -0.71    1.92   1
   7  -4  -7    1.69    1.90   1
   7  -4  -6    0.10    1.62   1
   7  -4  -5    2.50    1.39   1
   7  -4  -4    0.59    1.19   1
   7  -4  -3   39.82    1.89   1
   7  -4  -2    6.10    1.19   1
   7  -4  -1  394.82    9.14   1
   7  -4   0  319.34    8.94   1
   7  -4   1    0.50    1.11   1
   7  -4   2   19.54    3.36   1
   7  -4   3   16.16    1.93   1
   7  -4   4   11.90    1.79   1
   7  -4   5    2.40    1.71   1
   7  -4   6   12.60    4.12   1
   7  -4   7   -3.88    2.99   1
   7  -4   8    6.10    2.62   1
   7  -4   9    3.10    4.19   1
   7  -3 -10   13.76    3.49   1
   7  -3  -9    2.31    2.49   1
   7  -3  -8   12.67    1.92   1
   7  -3  -7    4.58    1.88   1
   7  -3  -6   25.30    1.91   1
   7  -3  -5    6.20    1.29   1
   7  -3  -4   41.47    1.93   1
   7  -3  -3  122.99    3.33   1
   7  -3  -2   55.65    2.24   1
   7  -3  -1   19.27    1.40   1
   7  -3   0    0.59    1.00   1
   7  -3   1    1.10    1.09   1
   7  -3   2   38.19    2.35   1
   7  -3   3    4.71    1.52   1
   7  -3   4    3.10    2.29   1
   7  -3   5   17.14    2.32   1
   7  -3   6   42.25    2.99   1
   7  -3   7   18.66    2.51   1
   7  -3   8    6.40    2.68   1
   7  -3   9    2.69    3.61   1
   7  -3  10    4.80    5.69   1
   7  -2 -10  -22.94   11.21   1
   7  -2  -9   37.95   10.96   1
   7  -2  -8   18.32    1.97   1
   7  -2  -7   15.37    1.49   1
   7  -2  -6   19.54    1.41   1
   7  -2  -5  401.60    8.82   1
   7  -2  -4   87.98    2.63   1
   7  -2  -3  102.21    3.03   1
   7  -2  -2   20.70    1.27   1
   7  -2  -1   13.76    1.19   1
   7  -2   0   39.19    2.25   1
   7  -2   1   93.12    3.28   1
   7  -2   2   18.32    1.97   1
   7  -2   3   68.72    3.32   1
   7  -2   4    7.40    1.31   1
   7  -2   5  177.16    6.92   1
   7  -2   6    4.20    1.60   1
   7  -2   7   23.62    2.62   1
   7  -2   8    1.80    2.01   1
   7  -2   9   -1.49    2.68   1
   7  -2  10    0.90    4.01   1
   7  -1 -10    0.50    2.00   1
   7  -1  -9   -0.40    1.99   1
   7  -1  -8   -2.19    1.81   1
   7  -1  -7   11.29    1.28   1
   7  -1  -6   46.79    3.97   1
   7  -1  -5  583.22   11.59   1
   7  -1  -4  111.09    2.95   1
   7  -1  -3  106.50    4.13   1
   7  -1  -2  104.04    3.88   1
   7  -1  -1  515.29   11.80   1
   7  -1   0   16.16    1.13   1
   7  -1   1    8.29    1.50   1
   7  -1   2    6.92    1.00   1
   7  -1   3    2.10    1.10   1
   7  -1   4   30.14    1.65   1
   7  -1   5  646.68   17.80   1
   7  -1   6  113.42    3.62   1
   7  -1   7   48.44    2.37   1
   7  -1   8    1.90    1.90   1
   7  -1   9   86.68    5.03   1
   7  -1  10   11.63    4.50   1
   7   0 -10    3.61    2.39   1
   7   0  -9   -0.79    1.69   1
   7   0  -8    2.59    1.38   1
   7   0  -7    9.99    1.20   1
   7   0  -6    0.79    0.80   1
   7   0  -5    1.30    0.59   1
   7   0  -4   32.15    1.47   1
   7   0  -3   80.64    2.51   1
   7   0  -2   71.06    3.03   1
   7   0  -1  325.44    9.02   1
   7   0   0    0.59    0.60   1
   7   0   1  175.30    4.50   1
   7   0   2   39.69    1.64   1
   7   0   3   23.14    1.35   1
   7   0   4    5.20    1.19   1
   7   0   5   26.52    1.55   1
   7   0   6   -0.79    1.50   1
   7   0   7   35.16    2.85   1
   7   0   8    0.79    2.08   1
   7   0   9   58.68    3.52   1
   7   0  10    3.50    5.20   1
   7   1 -10    5.38    2.27   1
   7   1  -9   22.00    2.44   1
   7   1  -8    2.50    1.11   1
   7   1  -7    9.80    1.00   1
   7   1  -6   -4.28    5.80   1
   7   1  -5   13.03    5.63   1
   7   1   0   47.75    1.80   1
   7   1   1   81.00    2.34   1
   7   1   2    3.80    0.90   1
   7   1   3   24.40    1.68   1
   7   1   4    0.90    1.01   1
   7   1   5   -0.20    1.21   1
   7   1   6   26.21    1.95   1
   7   1   7    1.80    2.09   1
   7   1   8   17.14    3.06   1
   7   1   9    4.00    2.72   1
   7   1  10   -4.58    3.89   1
   7   2 -10   21.16   13.43   1
   7   2  -9   17.98   12.72   1
   7   2  -8   13.76    1.26   1
   7   2  -7    1.59    1.18   1
   7   2  -6  164.10   15.12   1
   7   2   0  110.88    4.42   1
   7   2   1  206.78    6.04   1
   7   2   2   11.83    1.38   1
   7   2   3   11.22    1.41   1
   7   2   4  361.76   11.41   1
   7   2   5  270.93    9.22   1
   7   2   6   13.62    2.44   1
   7   2   7    8.82    2.49   1
   7   2   8    4.08    2.71   1
   7   2   9   -0.10    2.94   1
   7   2  10    9.12    4.53   1
   7   3  -9    4.49    2.08   1
   7   3  -8   12.60    1.21   1
   7   3   0    3.80    0.70   1
   7   3   1   29.92    1.64   1
   7   3   2   75.17    3.12   1
   7   3   3    4.71    1.30   1
   7   3   4  359.86   11.00   1
   7   3   5  255.04    8.94   1
   7   3   6   11.49    2.17   1
   7   3   7    9.67    2.67   1
   7   3   8   59.44    4.47   1
   7   3   9   26.83    3.94   1
   7   3  10   -1.10    4.01   1
   7   4  -8    9.61    1.18   1
   7   4   0    0.59    0.80   1
   7   4   1   25.91    1.63   1
   7   4   2    3.80    1.29   1
   7   4   3   34.57    2.35   1
   7   4   4   20.98    2.20   1
   7   4   5    4.88    1.81   1
   7   4   6   15.29    2.42   1
   7   4   7   -0.20    2.62   1
   7   4   8    8.58    3.52   1
   7   4   9    6.92    3.21   1
   7   4  10    2.79    4.11   1
   7   5  -8   13.18    1.60   1
   7   5  -1   21.72    1.49   1
   7   5   0  272.91    7.27   1
   7   5   1   41.09    2.31   1
   7   5   2   33.64    2.20   1
   7   5   3    2.69    1.51   1
   7   5   4    2.59    1.71   1
   7   5   5   23.04    2.50   1
   7   5   6    8.18    2.52   1
   7   5   7    5.38    3.11   1
   7   5   8    3.69    3.38   1
   7   5   9   -7.02    4.03   1
   7   6  -2    3.61    0.80   1
   7   6  -1   22.56    1.80   1
   7   6   0  151.29    6.64   1
   7   6   1   -0.10    1.32   1
   7   6   2   96.24    3.92   1
   7   6   3   97.02    4.53   1
   7   6   4  446.48   14.79   1
   7   6   5    5.02    2.20   1
   7   6   6   14.52    2.82   1
   7   6   7    2.69    2.89   1
   7   6   8    2.50    3.29   1
   7   6   9    4.80    4.51   1
   7   7  -6   31.70    2.25   1
   7   7  -5    1.30    0.89   1
   7   7  -4    3.61    0.91   1
   7   7  -3   15.29    1.33   1
   7   7  -2    8.41    1.91   1
   7   7  -1   13.91    1.57   1
   7   7   0   13.10    1.59   1
   7   7   1   24.21    2.26   1
   7   7   2   44.36    3.06   1
   7   7   3   34.22    3.16   1
   7   7   4  188.79    7.69   1
   7   7   5   -0.59    2.09   1
   7   7   6   24.50    3.56   1
   7   7   7   13.62    3.84   1
   7   7   8   36.97    5.35   1
   7   8  -6    3.20    2.18   1
   7   8  -5   -1.90    2.10   1
   7   8  -4   12.89    2.37   1
   7   8  -3    5.02    1.61   1
   7   8  -2    7.02    1.70   1
   7   8  -1    1.49    1.59   1
   7   8   0    3.88    1.89   1
   7   8   1   16.08    2.49   1
   7   8   2   16.16    2.57   1
   7   8   3    6.60    2.52   1
   7   8   4    5.11    2.71   1
   7   8   5    3.10    2.99   1
   7   8   6    4.88    3.32   1
   7   8   7    2.50    4.71   1
   7   9  -5    1.49    2.88   1
   7   9  -4   -0.90    2.51   1
   7   9  -3   14.82    3.08   1
   7   9  -2    0.59    2.68   1
   7   9  -1  121.22    7.93   1
   7   9   0   59.44    5.24   1
   7   9   1    3.88    2.48   1
   7   9   2    8.53    2.51   1
   7   9   3   -0.79    3.08   1
   7   9   4    0.71    3.41   1
   7   9   5   -1.69    4.29   1
   7   9   6    4.20    5.00   1
   7  10  -3    6.60    3.70   1
   7  10  -2    0.30    3.82   1
   7  10  -1   19.89    4.01   1
   7  10   0    8.12    3.93   1
   7  10   1    8.18    3.60   1
   7  10   2   -2.31    3.71   1
   7  10   3  107.33    9.32   1
   7  10   4   16.73    5.32   1
   8  -9  -4    7.29    5.08   1
   8  -9  -3    1.99    3.89   1
   8  -9  -2   11.97    3.88   1
   8  -9  -1    2.69    3.71   1
   8  -9   0    0.20    3.92   1
   8  -9   1    1.99    2.40   1
   8  -9   2   10.82    6.38   1
   8  -9   3   -2.10    5.92   1
   8  -8  -5    5.62    4.22   1
   8  -8  -4   -0.20    3.32   1
   8  -8  -3    9.18    3.39   1
   8  -8  -2   -0.71    3.31   1
   8  -8  -1    2.59    2.09   1
   8  -8   0   37.95    3.20   1
   8  -8   1    5.02    2.11   1
   8  -8   2    5.02    2.02   1
   8  -8   3    5.62    3.60   1
   8  -8   4   30.47    5.96   1
   8  -8   5   -4.58    4.41   1
   8  -7  -7    7.08    8.46   1
   8  -7  -6   44.76    5.35   1
   8  -7  -5   -0.59    2.79   1
   8  -7  -4    9.18    2.61   1
   8  -7  -3   14.06    2.62   1
   8  -7  -2   43.30    2.76   1
   8  -7  -1   -0.71    2.02   1
   8  -7   0   -1.69    2.39   1
   8  -7   1    1.21    1.80   1
   8  -7   2    8.18    1.89   1
   8  -7   3   13.10    2.90   1
   8  -7   4   99.40    6.38   1
   8  -7   5    4.41    3.02   1
   8  -7   6    1.21    4.62   1
   8  -6  -7    4.71    3.82   1
   8  -6  -6    6.00    2.70   1
   8  -6  -5   10.63    2.48   1
   8  -6  -4    1.69    2.11   1
   8  -6  -3   -1.59    1.49   1
   8  -6  -2   -1.59    1.39   1
   8  -6  -1    1.00    1.70   1
   8  -6   0   12.39    1.90   1
   8  -6   1   18.84    2.00   1
   8  -6   2    4.88    1.68   1
   8  -6   3    7.51    2.19   1
   8  -6   4    2.89    2.38   1
   8  -6   5    1.30    3.01   1
   8  -6   6   16.40    3.48   1
   8  -6   7    5.62    4.60   1
   8  -5  -8    7.78    4.18   1
   8  -5  -7    8.41    3.48   1
   8  -5  -6    0.10    2.33   1
   8  -5  -5    3.80    1.99   1
   8  -5  -4   -0.59    1.49   1
   8  -5  -3    5.29    1.52   1
   8  -5  -2    7.18    1.61   1
   8  -5  -1   45.97    2.44   1
   8  -5   0   47.75    2.76   1
   8  -5   1   17.39    1.67   1
   8  -5   2    4.28    1.78   1
   8  -5   3    2.99    1.80   1
   8  -5   4    6.00    2.20   1
   8  -5   5    7.90    2.59   1
   8  -5   6    0.00    1.00   1
   8  -5   7    4.49    3.01   1
   8  -5   8    0.90    4.41   1
   8  -4  -8    8.70    2.60   1
   8  -4  -7  199.94    7.35   1
   8  -4  -6   46.24    3.26   1
   8  -4  -5    2.19    2.49   1
   8  -4  -4    4.08    1.49   1
   8  -4  -3    8.12    1.42   1
   8  -4  -2    1.90    1.30   1
   8  -4  -1  151.29    4.43   1
   8  -4   0  167.70    4.92   1
   8  -4   1   12.67    2.49   1
   8  -4   2    3.10    2.18   1
   8  -4   3  332.70   10.94   1
   8  -4   4  154.01    6.45   1
   8  -4   5    4.28    1.99   1
   8  -4   6   -0.40    2.19   1
   8  -4   7   -1.80    4.21   1
   8  -4   8    4.08    3.88   1
   8  -4   9    5.20    5.02   1
   8  -3  -9   12.67    2.92   1
   8  -3  -8    3.20    2.40   1
   8  -3  -7   34.46    2.35   1
   8  -3  -6    0.30    1.51   1
   8  -3  -5   12.60    1.63   1
   8  -3  -4    5.20    1.32   1
   8  -3  -3   25.70    2.13   1
   8  -3  -2    2.19    1.10   1
   8  -3  -1    4.71    1.09   1
   8  -3   0    3.20    1.29   1
   8  -3   1   20.34    1.71   1
   8  -3   2    2.31    1.09   1
   8  -3   3  115.13    4.08   1
   8  -3   4   88.55    4.33   1
   8  -3   5   22.28    2.36   1
   8  -3   6    6.60    3.80   1
   8  -3   7   23.04    3.07   1
   8  -3   8    3.20    2.51   1
   8  -3   9    2.79    5.18   1
   8  -2  -9    7.02    2.38   1
   8  -2  -8    2.89    2.01   1
   8  -2  -7   36.36    2.29   1
   8  -2  -6   34.46    1.76   1
   8  -2  -5    1.69    1.20   1
   8  -2  -4    2.69    0.98   1
   8  -2  -3    9.80    1.13   1
   8  -2  -2    5.02    1.12   1
   8  -2  -1    3.69    1.88   1
   8  -2   0   94.09    6.21   1
   8  -2   1   85.93    3.89   1
   8  -2   2   25.70    2.54   1
   8  -2   3   36.60    2.06   1
   8  -2   4    5.11    1.40   1
   8  -2   5    7.18    1.50   1
   8  -2   6   16.89    1.81   1
   8  -2   7    3.88    1.69   1
   8  -2   8   -2.19    2.19   1
   8  -2   9   -0.90    4.71   1
   8  -1  -9    4.00    1.80   1
   8  -1  -8   10.18    1.98   1
   8  -1  -7    4.20    1.89   1
   8  -1  -6    0.90    0.89   1
   8  -1  -5    2.19    0.80   1
   8  -1  -4    0.71    1.31   1
   8  -1  -3   67.08    3.11   1
   8  -1  -2  155.75    4.49   1
   8  -1  -1  789.61   20.79   1
   8  -1   0    6.10    1.68   1
   8  -1   1   78.15    2.83   1
   8  -1   2   49.56    2.25   1
   8  -1   3   31.58    1.80   1
   8  -1   4    4.58    1.20   1
   8  -1   5   -0.50    1.21   1
   8  -1   6    1.90    1.49   1
   8  -1   7   29.48    1.95   1
   8  -1   8    3.39    1.69   1
   8  -1   9   14.82    3.23   1
   8  -1  10    2.10    4.49   1
   8   0  -9    3.50    1.91   1
   8   0  -8   38.19    3.09   1
   8   0  -7   47.89   12.18   1
   8   0  -6    2.19    0.89   1
   8   0  -3    8.18    3.32   1
   8   0  -2   61.31    1.57   1
   8   0  -1  372.10   10.42   1
   8   0   0    8.82    0.89   1
   8   0   1   31.02    1.45   1
   8   0   2  451.99   10.63   1
   8   0   3  478.30   11.37   1
   8   0   4    0.71    1.01   1
   8   0   5    4.58    1.11   1
   8   0   6    2.59    1.00   1
   8   0   7   -1.69    1.79   1
   8   0   8   27.14    4.06   1
   8   0   9   41.47    7.73   1
   8   0  10   -0.59    5.56   1
   8   1  -9    0.79    1.58   1
   8   1  -8    6.71    1.81   1
   8   1  -7    7.29    7.78   1
   8   1   0  196.28    7.85   1
   8   1   1   48.44    2.37   1
   8   1   2   82.08    3.08   1
   8   1   3  111.72    4.02   1
   8   1   4    4.58    1.28   1
   8   1   5   25.81    1.83   1
   8   1   6    1.49    1.90   1
   8   1   7    7.67    2.77   1
   8   1   8    1.69    2.99   1
   8   1   9    4.88    3.80   1
   8   1  10   -4.49    5.30   1
   8   2  -9    9.49   12.01   1
   8   2  -8   -1.49    9.66   1
   8   2   0   87.61    2.62   1
   8   2   1   59.29    2.46   1
   8   2   2   20.34    1.80   1
   8   2   3   11.83    1.72   1
   8   2   4    1.90    1.60   1
   8   2   5    6.40    2.02   1
   8   2   6    4.49    2.29   1
   8   2   7   -1.99    2.40   1
   8   2   8    5.71    2.92   1
   8   2   9   12.82    4.22   1
   8   3   0   51.41    2.44   1
   8   3   1    3.39    0.99   1
   8   3   2   36.24    2.17   1
   8   3   3    2.31    1.49   1
   8   3   4    3.10    1.69   1
   8   3   5   16.40    2.27   1
   8   3   6   11.90    2.21   1
   8   3   7    5.11    2.62   1
   8   3   8  126.79    7.66   1
   8   3   9   27.35    4.29   1
   8   4   0   57.76    2.74   1
   8   4   1   23.23    1.64   1
   8   4   2  419.43   12.70   1
   8   4   3   28.73    2.25   1
   8   4   4   44.36    3.20   1
   8   4   5   -1.90    2.01   1
   8   4   6    0.71    2.30   1
   8   4   7   -0.71    2.70   1
   8   4   8   39.69    4.28   1
   8   4   9   12.11    4.18   1
   8   5   0   14.36    1.59   1
   8   5   1    4.71    1.30   1
   8   5   2   39.56    2.64   1
   8   5   3    1.69    1.59   1
   8   5   4    6.10    2.12   1
   8   5   5    2.19    2.10   1
   8   5   6   -1.39    2.50   1
   8   5   7    2.59    2.99   1
   8   5   8   -3.69    3.38   1
   8   6  -1   17.31    1.33   1
   8   6   0   23.33    2.22   1
   8   6   1   17.64    1.93   1
   8   6   2   34.11    2.57   1
   8   6   3   10.50    3.82   1
   8   6   4   78.68    4.43   1
   8   6   5   -2.79    2.30   1
   8   6   6    8.88    2.80   1
   8   6   7   11.09    3.73   1
   8   6   8   18.23    5.72   1
   8   7  -1    8.88    1.19   1
   8   7   0   18.32    1.80   1
   8   7   1   14.29    2.42   1
   8   7   2    2.50    2.31   1
   8   7   3   -1.49    2.10   1
   8   7   4    7.18    2.52   1
   8   7   5   13.18    3.12   1
   8   7   6   19.36    5.02   1
   8   7   7   54.76    7.25   1
   8   8  -2    5.02    1.70   1
   8   8  -1    6.60    1.70   1
   8   8   0    0.79    1.80   1
   8   8   1   83.17    4.56   1
   8   8   2    7.62    3.09   1
   8   8   3    9.42    3.38   1
   8   8   4   19.89    4.10   1
   8   8   5    3.61    3.99   1
   8   8   6    0.40    4.98   1
   8   9  -2    6.81    2.30   1
   8   9  -1    1.30    2.19   1
   8   9   0   -1.90    2.51   1
   8   9   1    0.50    2.91   1
   8   9   2   -3.61    3.31   1
   8   9   3    9.18    4.30   1
   8   9   4    1.80    3.99   1
   9  -8  -4    6.30    5.32   1
   9  -8  -3    3.10    4.89   1
   9  -8  -2    4.28    4.89   1
   9  -8  -1    8.88    3.52   1
   9  -8   0   -2.19    4.80   1
   9  -8   1    1.59    2.49   1
   9  -8   2    6.40    5.11   1
   9  -8   3   -3.80    6.20   1
   9  -7  -5    3.10    4.79   1
   9  -7  -4   -2.50    4.30   1
   9  -7  -3   63.84    4.47   1
   9  -7  -2  127.69    8.59   1
   9  -7  -1    0.90    3.91   1
   9  -7   0    2.10    2.49   1
   9  -7   1   15.76    2.78   1
   9  -7   2    3.80    5.42   1
   9  -7   3    2.10    3.31   1
   9  -7   4    0.40    3.59   1
   9  -7   5    1.00    5.50   1
   9  -6  -6    0.00    1.00   1
   9  -6  -5   -1.90    3.81   1
   9  -6  -4    1.00    2.50   1
   9  -6  -3   11.22    2.48   1
   9  -6  -2   23.81    2.83   1
   9  -6  -1   19.27    2.19   1
   9  -6   0    9.18    2.00   1
   9  -6   1   52.85    3.34   1
   9  -6   2   57.46    3.64   1
   9  -6   3    1.49    3.10   1
   9  -6   4    0.30    2.61   1
   9  -6   5    2.40    3.19   1
   9  -6   6    0.71    5.83   1
   9  -5  -7   -1.39    3.99   1
   9  -5  -6    5.29    3.59   1
   9  -5  -5   11.90    2.62   1
   9  -5  -4   12.60    2.41   1
   9  -5  -3    2.69    1.90   1
   9  -5  -2   28.20    2.23   1
   9  -5  -1   30.14    2.85   1
   9  -5   0   13.69    1.78   1
   9  -5   1    1.21    1.61   1
   9  -5   2    5.29    1.89   1
   9  -5   3    0.79    2.19   1
   9  -5   4   14.52    2.51   1
   9  -5   5    3.39    2.50   1
   9  -5   6    3.31    2.69   1
   9  -5   7   -1.21    4.62   1
   9  -4  -7   40.20    4.44   1
   9  -4  -6   19.18    6.13   1
   9  -4  -5   15.37    2.43   1
   9  -4  -4    2.59    1.90   1
   9  -4  -3   51.55    4.16   1
   9  -4  -2    0.30    1.41   1
   9  -4  -1   30.69    1.88   1
   9  -4   0    0.20    2.62   1
   9  -4   1    8.53    1.69   1
   9  -4   2    2.79    1.60   1
   9  -4   3   38.44    2.85   1
   9  -4   4    1.49    2.68   1
   9  -4   5   16.08    2.73   1
   9  -4   6   -0.20    4.33   1
   9  -4   7    7.29    3.67   1
   9  -4   8    8.18    6.01   1
   9  -3  -8   -0.50    2.31   1
   9  -3  -7    4.80    2.01   1
   9  -3  -6    3.80    2.11   1
   9  -3  -5   17.47    3.01   1
   9  -3  -4   49.14    2.24   1
   9  -3  -3  407.23    9.28   1
   9  -3  -2   38.07    2.34   1
   9  -3  -1   33.29    2.08   1
   9  -3   0   10.50    1.62   1
   9  -3   1   64.96    3.06   1
   9  -3   2    9.92    1.70   1
   9  -3   3   27.35    2.30   1
   9  -3   4    9.99    1.90   1
   9  -3   5   13.69    2.00   1
   9  -3   6    1.90    1.79   1
   9  -3   7  115.99    5.60   1
   9  -3   8    9.12    4.53   1
   9  -2  -8    5.20    2.01   1
   9  -2  -7    9.80    2.00   1
   9  -2  -6   21.81    1.59   1
   9  -2  -5   18.49    1.63   1
   9  -2  -4    4.49    2.29   1
   9  -2  -3   32.95    1.95   1
   9  -2  -2    0.50    1.11   1
   9  -2  -1   20.70    2.28   1
   9  -2   0   28.41    1.81   1
   9  -2   1   98.41    4.76   1
   9  -2   2    3.61    1.29   1
   9  -2   3   18.58    1.72   1
   9  -2   4    4.00    1.60   1
   9  -2   5    7.29    1.67   1
   9  -2   6   -1.49    1.49   1
   9  -2   7   31.25    2.57   1
   9  -2   8    3.20    3.01   1
   9  -1  -8   10.89   13.99   1
   9  -1  -7    9.61    1.43   1
   9  -1  -6    5.81    1.11   1
   9  -1  -5   29.38    1.19   1
   9  -1  -4   10.11    1.02   1
   9  -1  -3   12.67    1.71   1
   9  -1  -2   26.94    2.08   1
   9  -1  -1    1.30    0.80   1
   9  -1   0    1.59    0.91   1
   9  -1   1    4.58    1.20   1
   9  -1   2    9.99    1.33   1
   9  -1   3    0.30    1.21   1
   9  -1   4   15.29    1.56   1
   9  -1   5   16.48    1.71   1
   9  -1   6    5.62    1.71   1
   9  -1   7    1.90    1.90   1
   9  -1   8    6.00    2.50   1
   9  -1   9    8.53    4.79   1
   9   0  -8   64.32   21.33   1
   9   0  -2    5.71    3.39   1
   9   0  -1   -1.10    1.20   1
   9   0   0    4.00    0.88   1
   9   0   1   15.60    1.50   1
   9   0   2  108.99    3.55   1
   9   0   3  168.48    5.19   1
   9   0   4    1.21    1.21   1
   9   0   5    9.30    1.40   1
   9   0   6   41.86    3.23   1
   9   0   7   18.23    2.56   1
   9   0   8    1.21    2.11   1
   9   0   9   -0.50    4.12   1
   9   1   0   12.53    1.63   1
   9   1   1    0.20    1.21   1
   9   1   2   16.48    1.87   1
   9   1   3   21.44    2.22   1
   9   1   4   11.63    2.18   1
   9   1   5    5.52    2.40   1
   9   1   6  190.16    8.27   1
   9   1   7  133.86    7.40   1
   9   1   8    1.80    3.59   1
   9   1   9    0.59    4.87   1
   9   2   0   37.82    1.85   1
   9   2   1    7.62    1.32   1
   9   2   2   18.58    1.81   1
   9   2   3   26.63    2.27   1
   9   2   4   23.43    2.52   1
   9   2   5   11.97    2.42   1
   9   2   6    3.88    2.40   1
   9   2   7    4.71    2.91   1
   9   2   8    4.28    3.11   1
   9   2   9   11.42    5.88   1
   9   3   1   13.18    1.89   1
   9   3   2   70.90    4.88   1
   9   3   3    5.29    1.61   1
   9   3   4   19.10    2.27   1
   9   3   5    3.80    1.91   1
   9   3   6    1.30    2.30   1
   9   3   7    4.41    3.11   1
   9   3   8    1.00    3.70   1
   9   4   2  258.24    8.68   1
   9   4   3    8.01    1.58   1
   9   4   4   55.20    3.71   1
   9   4   5   29.05    3.23   1
   9   4   6  132.48    6.68   1
   9   4   7   -2.10    2.81   1
   9   4   8    0.79    4.57   1
   9   5   1    1.00    1.30   1
   9   5   2    2.19    1.69   1
   9   5   3    4.71    2.00   1
   9   5   4   42.25    3.25   1
   9   5   5   29.48    3.37   1
   9   5   6  149.82    8.08   1
   9   5   7   -1.80    3.48   1
   9   6   0    1.00    1.10   1
   9   6   1    5.52    1.69   1
   9   6   2   14.21    2.34   1
   9   6   3   13.91    2.54   1
   9   6   4   16.16    3.14   1
   9   6   5    2.89    3.60   1
   9   6   6   -2.50    3.89   1
   9   6   7    5.38    4.59   1
   9   7   0   -1.00    1.90   1
   9   7   1  109.20    6.48   1
   9   7   2   33.87    3.84   1
   9   7   4   13.40    4.10   1
   9   7   5   -0.30    3.92   1
   9   7   6    7.40    5.11   1
   9   8   1  132.71    8.29   1
   9   8   2   49.00    5.04   1
   9   8   3   10.89    4.29   1
   9   8   4   -0.90    4.81   1
  10  -7  -3    1.21    4.93   1
  10  -7  -2    5.62    5.02   1
  10  -7  -1    6.40    4.81   1
  10  -7   0    5.90    4.71   1
  10  -7   1    1.21    4.11   1
  10  -7   2    1.59    4.38   1
  10  -7   3   13.99    5.01   1
  10  -6  -4    9.30    4.70   1
  10  -6  -3    2.40    3.91   1
  10  -6  -2    3.69    3.99   1
  10  -6  -1    6.40    2.38   1
  10  -6   0    2.59    2.61   1
  10  -6   1   63.52    5.74   1
  10  -6   2   57.46    4.09   1
  10  -6   3    0.30    3.11   1
  10  -6   4   -0.90    2.91   1
  10  -6   5   19.89    5.62   1
  10  -5  -5   29.92    4.81   1
  10  -5  -4    3.10    3.70   1
  10  -5  -3   13.10    3.48   1
  10  -5  -2    1.39    2.19   1
  10  -5  -1    0.50    3.41   1
  10  -5   0    3.61    2.32   1
  10  -5   1    4.80    3.50   1
  10  -5   2    3.80    3.59   1
  10  -5   3    4.28    2.48   1
  10  -5   4    5.81    3.81   1
  10  -5   5   26.63    3.20   1
  10  -5   6   25.60    4.55   1
  10  -4  -6    3.31    3.89   1
  10  -4  -5    9.00    4.20   1
  10  -4  -4    3.10    3.59   1
  10  -4  -3    1.69    2.70   1
  10  -4  -2    0.40    2.60   1
  10  -4  -1   -0.40    3.19   1
  10  -4   0   -0.79    1.69   1
  10  -4   1    4.88    1.99   1
  10  -4   2   28.41    2.66   1
  10  -4   3   17.31    2.50   1
  10  -4   4    1.30    3.01   1
  10  -4   5   -0.50    2.31   1
  10  -4   6   -2.50    2.81   1
  10  -3  -7    6.60    2.31   1
  10  -3  -6    1.90    1.90   1
  10  -3  -5    4.20    7.01   1
  10  -3  -4    3.10    2.89   1
  10  -3  -3   26.52    2.06   1
  10  -3  -2   -1.59    2.49   1
  10  -3  -1    6.71    2.69   1
  10  -3   0   38.44    2.98   1
  10  -3   1  102.01    5.05   1
  10  -3   2    3.31    1.82   1
  10  -3   3   13.91    2.01   1
  10  -3   4    1.99    1.89   1
  10  -3   5   -0.59    2.19   1
  10  -3   6   -2.19    2.49   1
  10  -3   7    4.88    3.40   1
  10  -2  -5   30.14    2.20   1
  10  -2  -4   -1.21    1.21   1
  10  -2  -3    0.59    1.00   1
  10  -2  -2   -0.10    1.22   1
  10  -2  -1    2.79    1.30   1
  10  -2   0   80.64    3.23   1
  10  -2   1  249.01    7.57   1
  10  -2   2    2.19    1.51   1
  10  -2   3    9.30    1.71   1
  10  -2   4   39.44    2.76   1
  10  -2   5   52.56    3.19   1
  10  -2   6    1.00    2.20   1
  10  -2   7   17.39    5.34   1
  10  -1  -3    1.21    5.13   1
  10  -1  -2    3.10    0.81   1
  10  -1  -1    4.20    0.98   1
  10  -1   0    1.10    1.01   1
  10  -1   1    0.59    1.19   1
  10  -1   2   13.99    1.50   1
  10  -1   3   11.29    1.61   1
  10  -1   4   17.89    1.86   1
  10  -1   5   67.24    3.94   1
  10  -1   6    0.30    1.71   1
  10  -1   7   15.13    3.11   1
  10  -1   8    0.71    5.53   1
  10   0  -1    1.39    0.80   1
  10   0   0   -0.30    0.80   1
  10   0   1   17.22    1.49   1
  10   0   2   44.36    2.26   1
  10   0   3   23.43    2.13   1
  10   0   4   20.70    1.82   1
  10   0   5   -0.30    1.90   1
  10   0   6    4.08    2.18   1
  10   0   7    6.92    2.31   1
  10   0   8   12.89    4.60   1
  10   1   0  348.57    8.96   1
  10   1   1   38.69    2.36   1
  10   1   2   22.94    2.20   1
  10   1   3    3.80    1.99   1
  10   1   4   -2.69    2.69   1
  10   1   5    0.10    2.33   1
  10   1   6   20.34    3.52   1
  10   1   7    2.19    4.08   1
  10   1   8    5.71    4.11   1
  10   2   2   29.38    2.28   1
  10   2   3    2.79    1.90   1
  10   2   4   92.74    5.01   1
  10   2   5    7.51    2.58   1
  10   2   6    4.58    2.78   1
  10   3   1    6.60    1.18   1
  10   3   2    8.12    1.71   1
  10   3   3   -1.69    2.78   1
  10   3   4   14.59    4.58   1
  10   3   5    1.49    2.29   1
  10   3   6   11.22    3.89   1
  10   3   7    2.89    3.98   1
  10   4   1   11.97    1.31   1
  10   4   2   -0.30    1.51   1
  10   4   3   -0.50    1.80   1
  10   4   4    7.78    2.40   1
  10   4   5   13.03    3.97   1
  10   4   6   40.83    5.37   1
  10   4   7    1.59    4.28   1
  10   5   1    9.42    1.29   1
  10   5   2    7.08    1.81   1
  10   5   3   -2.31    2.49   1
  10   5   4    5.81    2.89   1
  10   5   5    2.59    3.38   1
  10   5   6   46.65    6.15   1
  10   6   1    2.40    1.71   1
  10   6   2    2.40    2.60   1
  10   6   3   18.23    3.50   1
  10   6   4    5.52    3.29   1
  10   6   5   -3.61    3.31   1
  10   7   1   -2.31    2.31   1
  10   7   2    4.58    2.91   1
  10   7   3    8.70    4.01   1
  11  -6  -1    1.10    5.00   1
  11  -6   0    6.60    4.63   1
  11  -6   1   -5.11    4.79   1
  11  -6   2    2.69    4.69   1
  11  -5  -3    7.18    4.50   1
  11  -5  -2   22.94    4.60   1
  11  -5  -1   98.80    6.76   1
  11  -5   0   13.40    4.03   1
  11  -5   1    0.40    3.69   1
  11  -5   2    0.79    3.88   1
  11  -5   3    7.40    4.41   1
  11  -4  -4    7.78    3.91   1
  11  -4  -3    6.60    3.50   1
  11  -4  -2    2.89    3.30   1
  11  -4  -1   32.95    4.36   1
  11  -4   0    1.69    3.30   1
  11  -4   1   11.29    3.63   1
  11  -4   2   -1.30    3.60   1
  11  -4   3    1.21    5.72   1
  11  -4   4   -1.30    3.81   1
  11  -4   5    0.30    4.02   1
  11  -3  -5    4.08    2.99   1
  11  -3  -4   15.76    3.57   1
  11  -3  -3    9.18    3.39   1
  11  -3  -2    4.80    3.20   1
  11  -3  -1    4.41    2.90   1
  11  -3   0    7.29    3.08   1
  11  -3   1    0.71    1.81   1
  11  -3   2    3.10    2.01   1
  11  -3   3    1.21    3.01   1
  11  -3   4    1.00    3.40   1
  11  -3   5    6.20    3.49   1
  11  -2  -4    3.31    6.62   1
  11  -2  -3    0.20    2.41   1
  11  -2  -2   21.81    2.99   1
  11  -2  -1    6.60    1.59   1
  11  -2   0    0.50    1.60   1
  11  -2   1    3.88    2.01   1
  11  -2   2    1.99    1.69   1
  11  -2   3    5.02    1.79   1
  11  -2   4   40.70    3.96   1
  11  -2   5   22.18    3.39   1
  11  -2   6    8.01    5.21   1
  11  -1  -2  131.56   10.09   1
  11  -1  -1   47.33    2.06   1
  11  -1   0    5.81    1.40   1
  11  -1   1   -0.10    1.41   1
  11  -1   2    0.79    1.58   1
  11  -1   3    0.90    1.71   1
  11  -1   4   23.14    3.46   1
  11  -1   5   37.95    3.82   1
  11  -1   6    5.52    5.12   1
  11   0   0    1.69    1.51   1
  11   0   1    1.30    2.01   1
  11   0   2    2.31    1.61   1
  11   0   3    1.10    1.70   1
  11   0   4    5.02    3.32   1
  11   0   5    4.71    4.12   1
  11   0   6    4.28    3.48   1
  11   1   1   -2.59    2.09   1
  11   1   2    8.70    2.12   1
  11   1   3    0.20    2.82   1
  11   1   4    8.12    3.42   1
  11   1   5    9.67    4.11   1
  11   1   6   16.56    4.72   1
  11   2   1    1.49    1.29   1
  11   2   2   26.73    2.38   1
  11   2   3   22.47    3.70   1
  11   2   4  160.28   10.63   1
  11   2   5    0.59    3.57   1
  11   2   6    8.41    4.41   1
  11   3   2    6.60    2.62   1
  11   3   4   52.13    5.05   1
  11   3   5    0.30    4.32   1
  11   4   2    1.90    2.40   1
  11   4   3    3.80    2.69   1
  11   4   4    4.41    3.32   1
  11   4   5    8.12    4.22   1
  11   5   2   -0.71    2.40   1
  11   5   3   42.12    4.80   1
  11   5   4   13.91    4.03   1
  12  -4   0    2.79    4.68   1
  12  -4   1    4.88    4.77   1
  12  -3  -2    4.20    3.32   1
  12  -3  -1    6.30    4.12   1
  12  -3   0   14.36    4.02   1
  12  -3   1   12.11    3.90   1
  12  -3   2    2.69    3.90   1
  12  -3   3   12.53    5.31   1
  12  -2  -3    5.02    5.60   1
  12  -2  -2    5.02    2.42   1
  12  -2  -1    0.40    2.99   1
  12  -2   0    3.50    3.10   1
  12  -2   1    2.99    3.29   1
  12  -2   2   -4.71    3.30   1
  12  -2   3    2.69    3.51   1
  12  -1  -1   14.52    5.49   1
  12  -1   0    6.92    2.79   1
  12  -1   1   -2.59    2.90   1
  12  -1   2   41.47    6.44   1
  12  -1   3    2.59    2.90   1
  12  -1   4    1.00    4.10   1
  12   0   0   14.90    2.16   1
  12   0   1    4.88    3.09   1
  12   0   2  124.32    8.92   1
  12   0   3   13.76    4.53   1
  12   0   4   10.37    4.38   1
  12   1   1    4.08    2.59   1
  12   1   2    6.00    3.58   1
  12   1   4    7.51    4.00   1
  12   2   2    2.99    2.70   1
  12   3   3    3.50    3.40   1
   0   0   0    0.00    0.00   0
;
_shelx_hkl_checksum              51979
#END Tags that were not found in dictionaries
loop_
_space_group_symop_operation_xyz
'x, y, z'
'-x, -y, -z'
loop_
_atom_site_label
_atom_site_type_symbol
_atom_site_fract_x
_atom_site_fract_y
_atom_site_fract_z
_atom_site_U_iso_or_equiv
_atom_site_adp_type
_atom_site_occupancy
_atom_site_site_symmetry_order
_atom_site_calc_flag
_atom_site_refinement_flags_posn
_atom_site_refinement_flags_adp
_atom_site_refinement_flags_occupancy
_atom_site_disorder_assembly
_atom_site_disorder_group
Mo1 Mo 1.05409(13) 0.29477(13) 0.69334(13) 0.0536(4) Uani 0.8333 1 d . . P A 1
Mo2 Mo 0.78897(14) 0.06190(15) 0.78926(14) 0.0615(5) Uani 0.8333 1 d . . P A 1
Mo3 Mo 0.70365(12) -0.01960(13) 0.29906(13) 0.0522(4) Uani 0.8333 1 d . . P A 1
Mo4 Mo 1.02685(14) -0.21110(14) 0.79748(14) 0.0604(4) Uani 0.8333 1 d . . P A 1
Mo5 Mo 0.76003(14) 0.27482(15) 0.49290(13) 0.0582(4) Uani 0.8333 1 d . . P A 1
Mo6 Mo 0.73229(14) -0.23182(15) 0.59710(18) 0.0674(5) Uani 0.8333 1 d . . P A 1
V1 V 1.05409(13) 0.29477(13) 0.69334(13) 0.0536(4) Uani 0.1667 1 d . . P A 2
V2 V 0.78897(14) 0.06190(15) 0.78926(14) 0.0615(5) Uani 0.1667 1 d . . P A 2
V3 V 0.70365(12) -0.01960(13) 0.29906(13) 0.0522(4) Uani 0.1667 1 d . . P A 2
V4 V 1.02685(14) -0.21110(14) 0.79748(14) 0.0604(4) Uani 0.1667 1 d . . P A 2
V5 V 0.76003(14) 0.27482(15) 0.49290(13) 0.0582(4) Uani 0.1667 1 d . . P A 2
V6 V 0.73229(14) -0.23182(15) 0.59710(18) 0.0674(5) Uani 0.1667 1 d . . P A 2
P1 P 1.0000 0.0000 0.5000 0.0345(8) Uani 1 2 d S . P A .
O1 O 0.9030(18) 0.0768(16) 0.4242(13) 0.043(4) Uani 0.5 1 d . . P . .
O2 O 0.9296(14) 0.1192(16) 0.5724(14) 0.036(3) Uani 0.5 1 d . . P A .
O3 O 0.9245(14) -0.0741(15) 0.6335(14) 0.037(3) Uani 0.5 1 d . . P . .
O4 O 1.1077(13) 0.0874(14) 0.5641(14) 0.033(3) Uani 0.5 1 d . . P . .
O5 O 0.6950(10) 0.0909(12) 0.9215(9) 0.069(3) Uani 1 1 d . . . . .
O6 O 0.6620(13) 0.1331(10) 0.4064(10) 0.073(3) Uani 1 1 d . . . . .
O7 O 1.0793(12) 0.4293(10) 0.7842(10) 0.074(3) Uani 1 1 d . . . . .
O8 O 0.8594(14) 0.3025(12) 0.3268(10) 0.082(3) Uani 1 1 d . . . . .
O9 O 0.8352(15) -0.3343(13) 0.4713(14) 0.098(4) Uani 1 1 d . U . . .
O10 O 0.7087(13) 0.1807(18) 0.6560(11) 0.104(5) Uani 1 1 d . . . . .
O11 O 0.8022(15) -0.1783(14) 0.2439(14) 0.099(4) Uani 1 1 d . U . . .
O12 O 0.9297(13) 0.1925(17) 0.8014(11) 0.105(5) Uani 1 1 d . . . . .
O13 O 0.6465(13) 0.3998(13) 0.4884(16) 0.101(5) Uani 1 1 d . . . . .
O14 O 0.9168(14) -0.0674(15) 0.8623(16) 0.110(4) Uani 1 1 d . U . . .
O15 O 0.6991(15) -0.0874(16) 0.7152(17) 0.112(4) Uani 1 1 d . U . . .
O16 O 0.5695(12) -0.0392(16) 0.2094(12) 0.091(4) Uani 1 1 d . U . . .
O17 O 1.1748(12) -0.0871(11) 0.8091(10) 0.070(3) Uani 1 1 d . U . . .
O18 O 0.6514(14) -0.1292(14) 0.4571(14) 0.099(4) Uani 1 1 d . U . . .
O19 O 0.8996(14) 0.3593(16) 0.5847(12) 0.095(4) Uani 1 1 d . U . . .
O20 O 0.6124(9) -0.3434(10) 0.6504(10) 0.060(2) Uani 1 1 d . . . . .
O21 O 0.8728(14) -0.2936(16) 0.7333(17) 0.114(5) Uani 1 1 d . U . . .
O22 O 0.9511(13) 0.3069(11) 0.0657(10) 0.077(3) Uani 1 1 d . . . . .
O23 O 0.5353(16) -0.3972(19) 0.2536(17) 0.124(5) Uani 1 1 d . . . . .
O24 O 0.7717(17) 0.479(2) 0.9053(19) 0.136(6) Uani 1 1 d . . . . .
O26 O 0.374(2) -0.409(2) 0.880(2) 0.163(8) Uani 1 1 d . . . . .
O25A O 0.734(8) -0.330(8) 0.982(7) 0.125(7) Uiso 0.23(2) 1 d . . P B 3
O25B O 0.563(2) -0.235(2) 0.961(2) 0.125(7) Uiso 0.77(2) 1 d . . P B 4
loop_
_atom_site_aniso_label
_atom_site_aniso_U_11
_atom_site_aniso_U_22
_atom_site_aniso_U_33
_atom_site_aniso_U_23
_atom_site_aniso_U_13
_atom_site_aniso_U_12
Mo1 0.0598(8) 0.0464(7) 0.0553(7) -0.0178(5) 0.0074(6) -0.0101(6)
Mo2 0.0493(8) 0.0716(10) 0.0651(9) -0.0313(7) 0.0111(6) -0.0057(6)
Mo3 0.0426(7) 0.0548(8) 0.0596(8) -0.0041(6) -0.0095(5) -0.0031(5)
Mo4 0.0611(8) 0.0531(8) 0.0682(9) -0.0080(6) -0.0163(6) 0.0028(6)
Mo5 0.0553(8) 0.0695(9) 0.0503(7) -0.0105(6) -0.0020(6) 0.0201(6)
Mo6 0.0514(8) 0.0531(8) 0.0979(11) -0.0134(7) 0.0086(7) -0.0158(6)
V1 0.0598(8) 0.0464(7) 0.0553(7) -0.0178(5) 0.0074(6) -0.0101(6)
V2 0.0493(8) 0.0716(10) 0.0651(9) -0.0313(7) 0.0111(6) -0.0057(6)
V3 0.0426(7) 0.0548(8) 0.0596(8) -0.0041(6) -0.0095(5) -0.0031(5)
V4 0.0611(8) 0.0531(8) 0.0682(9) -0.0080(6) -0.0163(6) 0.0028(6)
V5 0.0553(8) 0.0695(9) 0.0503(7) -0.0105(6) -0.0020(6) 0.0201(6)
V6 0.0514(8) 0.0531(8) 0.0979(11) -0.0134(7) 0.0086(7) -0.0158(6)
P1 0.0314(19) 0.035(2) 0.038(2) -0.0121(16) 0.0030(15) -0.0045(16)
O1 0.064(10) 0.039(8) 0.025(7) -0.007(6) -0.004(7) -0.009(7)
O2 0.026(7) 0.049(9) 0.035(7) 0.002(6) 0.002(6) -0.008(6)
O3 0.032(7) 0.040(8) 0.039(8) -0.011(6) 0.002(6) -0.001(6)
O4 0.025(7) 0.037(8) 0.038(7) -0.013(6) 0.011(6) -0.003(6)
O5 0.068(6) 0.090(7) 0.047(5) 0.000(5) 0.022(4) 0.002(5)
O6 0.111(9) 0.052(6) 0.056(5) -0.011(4) 0.015(5) -0.023(6)
O7 0.107(9) 0.054(6) 0.064(6) -0.016(5) -0.024(6) -0.011(6)
O8 0.124(10) 0.075(7) 0.048(5) -0.017(5) 0.016(6) -0.026(7)
O9 0.114(8) 0.073(6) 0.104(7) 0.013(6) 0.049(6) 0.022(6)
O10 0.073(7) 0.182(14) 0.056(6) -0.015(7) 0.003(5) -0.066(9)
O11 0.102(7) 0.088(7) 0.103(7) 0.023(6) 0.045(6) 0.025(6)
O12 0.088(8) 0.174(14) 0.051(6) 0.024(7) -0.014(6) -0.062(9)
O13 0.077(8) 0.060(7) 0.169(14) -0.038(8) -0.020(8) 0.019(6)
O14 0.085(7) 0.098(7) 0.152(9) -0.061(7) -0.038(6) 0.009(6)
O15 0.093(7) 0.099(7) 0.150(9) -0.051(7) -0.037(7) 0.005(6)
O16 0.065(6) 0.132(8) 0.079(6) -0.036(6) -0.010(5) -0.003(6)
O17 0.085(6) 0.065(5) 0.063(5) -0.023(4) 0.006(5) -0.015(5)
O18 0.096(7) 0.088(7) 0.107(7) 0.018(6) 0.049(6) 0.017(6)
O19 0.092(7) 0.128(8) 0.065(5) 0.012(6) -0.008(5) -0.030(6)
O20 0.054(5) 0.055(5) 0.070(6) -0.009(4) 0.006(4) -0.002(4)
O21 0.086(7) 0.110(8) 0.151(9) -0.056(7) -0.038(7) 0.023(6)
O22 0.113(9) 0.058(6) 0.059(6) 0.007(5) 0.021(6) -0.006(6)
O23 0.104(11) 0.131(14) 0.137(13) -0.026(11) 0.003(10) -0.008(10)
O24 0.107(12) 0.140(15) 0.158(15) 0.012(12) 0.046(11) 0.016(10)
O26 0.136(15) 0.174(19) 0.172(17) 0.038(15) 0.069(13) 0.011(13)
loop_
_atom_type_symbol
_atom_type_description
_atom_type_scat_dispersion_real
_atom_type_scat_dispersion_imag
_atom_type_scat_source
Mo Mo -1.6832 0.6857 'International Tables Vol C Tables 4.2.6.8 and 6.1.1.4'
P P 0.1023 0.0942 'International Tables Vol C Tables 4.2.6.8 and 6.1.1.4'
O O 0.0106 0.0060 'International Tables Vol C Tables 4.2.6.8 and 6.1.1.4'
V V 0.3005 0.5294 'International Tables Vol C Tables 4.2.6.8 and 6.1.1.4'
H H 0.0000 0.0000 'International Tables Vol C Tables 4.2.6.8 and 6.1.1.4'
loop_
_geom_angle_atom_site_label_1
_geom_angle_atom_site_label_2
_geom_angle_atom_site_label_3
_geom_angle
_geom_angle_site_symmetry_1
_geom_angle_site_symmetry_3
O7 Mo1 O12 102.5(6) . .
O7 Mo1 O11 100.3(6) . 2_756
O12 Mo1 O11 89.1(6) . 2_756
O7 Mo1 O9 103.1(6) . 2_756
O12 Mo1 O9 154.2(6) . 2_756
O11 Mo1 O9 88.6(6) 2_756 2_756
O7 Mo1 O19 100.4(6) . .
O12 Mo1 O19 88.3(6) . .
O11 Mo1 O19 159.2(6) 2_756 .
O9 Mo1 O19 84.8(6) 2_756 .
O7 Mo1 O2 159.1(5) . .
O12 Mo1 O2 65.5(5) . .
O11 Mo1 O2 96.8(6) 2_756 .
O9 Mo1 O2 89.3(6) 2_756 .
O19 Mo1 O2 63.5(6) . .
O7 Mo1 O4 159.0(5) . .
O12 Mo1 O4 89.3(6) . .
O11 Mo1 O4 62.2(6) 2_756 .
O9 Mo1 O4 67.1(5) 2_756 .
O19 Mo1 O4 97.1(5) . .
O2 Mo1 O4 41.9(5) . .
O5 Mo2 O15 102.3(7) . .
O5 Mo2 O12 102.2(6) . .
O15 Mo2 O12 155.4(6) . .
O5 Mo2 O10 101.9(6) . .
O15 Mo2 O10 89.3(6) . .
O12 Mo2 O10 87.7(6) . .
O5 Mo2 O14 100.9(6) . .
O15 Mo2 O14 87.3(6) . .
O12 Mo2 O14 86.1(6) . .
O10 Mo2 O14 157.2(6) . .
O5 Mo2 O3 156.5(5) . .
O15 Mo2 O3 63.8(6) . .
O12 Mo2 O3 92.3(6) . .
O10 Mo2 O3 97.0(6) . .
O14 Mo2 O3 61.5(6) . .
O16 Mo3 O17 105.9(6) . 2_756
O16 Mo3 O6 104.7(6) . .
O17 Mo3 O6 90.5(4) 2_756 .
O16 Mo3 O11 98.0(7) . .
O17 Mo3 O11 88.4(5) 2_756 .
O6 Mo3 O11 156.7(6) . .
O16 Mo3 O18 99.8(7) . .
O17 Mo3 O18 154.2(6) 2_756 .
O6 Mo3 O18 85.7(5) . .
O11 Mo3 O18 85.3(5) . .
O16 Mo3 O4 157.1(6) . 2_756
O17 Mo3 O4 88.5(5) 2_756 2_756
O6 Mo3 O4 92.7(5) . 2_756
O11 Mo3 O4 64.0(6) . 2_756
O18 Mo3 O4 66.3(5) . 2_756
O22 Mo4 O21 99.5(7) 2_756 .
O22 Mo4 O8 100.4(6) 2_756 2_756
O21 Mo4 O8 91.4(6) . 2_756
O22 Mo4 O14 102.5(7) 2_756 .
O21 Mo4 O14 89.7(6) . .
O8 Mo4 O14 156.5(6) 2_756 .
O22 Mo4 O17 100.5(5) 2_756 .
O21 Mo4 O17 160.0(7) . .
O8 Mo4 O17 85.4(5) 2_756 .
O14 Mo4 O17 85.5(5) . .
O22 Mo4 O3 161.4(6) 2_756 .
O21 Mo4 O3 68.8(6) . .
O8 Mo4 O3 94.4(5) 2_756 .
O14 Mo4 O3 64.3(6) . .
O17 Mo4 O3 91.8(5) . .
O13 Mo5 O19 100.0(7) . .
O13 Mo5 O10 101.4(8) . .
O19 Mo5 O10 88.7(5) . .
O13 Mo5 O8 102.8(7) . .
O19 Mo5 O8 90.2(5) . .
O10 Mo5 O8 155.6(7) . .
O13 Mo5 O6 100.9(6) . .
O19 Mo5 O6 159.1(6) . .
O10 Mo5 O6 85.2(5) . .
O8 Mo5 O6 87.1(5) . .
O13 Mo5 O2 161.3(6) . .
O19 Mo5 O2 66.7(6) . .
O10 Mo5 O2 66.5(6) . .
O8 Mo5 O2 90.7(5) . .
O6 Mo5 O2 92.6(5) . .
O13 Mo5 O1 161.2(6) . .
O19 Mo5 O1 94.8(6) . .
O10 Mo5 O1 90.4(6) . .
O8 Mo5 O1 65.4(5) . .
O6 Mo5 O1 65.3(5) . .
O2 Mo5 O1 37.5(5) . .
O20 Mo6 O18 104.8(5) . .
O20 Mo6 O15 101.2(6) . .
O18 Mo6 O15 89.8(7) . .
O20 Mo6 O9 102.1(5) . .
O18 Mo6 O9 91.3(6) . .
O15 Mo6 O9 155.6(7) . .
O20 Mo6 O21 95.5(6) . .
O18 Mo6 O21 159.6(7) . .
O15 Mo6 O21 84.7(6) . .
O9 Mo6 O21 85.9(6) . .
O20 Mo6 O3 153.0(5) . .
O18 Mo6 O3 97.1(6) . .
O15 Mo6 O3 62.8(6) . .
O9 Mo6 O3 92.9(6) . .
O21 Mo6 O3 63.0(6) . .
O1 P1 O1 180.0(15) . 2_756
O1 P1 O4 113.8(8) . .
O1 P1 O4 66.2(8) 2_756 .
O1 P1 O4 66.2(8) . 2_756
O1 P1 O4 113.8(8) 2_756 2_756
O4 P1 O4 180.0 . 2_756
O1 P1 O2 116.3(8) . 2_756
O1 P1 O2 63.7(8) 2_756 2_756
O4 P1 O2 109.5(7) . 2_756
O4 P1 O2 70.5(7) 2_756 2_756
O1 P1 O2 63.7(8) . .
O1 P1 O2 116.3(8) 2_756 .
O4 P1 O2 70.5(7) . .
O4 P1 O2 109.5(7) 2_756 .
O2 P1 O2 180.0 2_756 .
O1 P1 O3 70.0(8) . 2_756
O1 P1 O3 110.0(8) 2_756 2_756
O4 P1 O3 78.1(7) . 2_756
O4 P1 O3 101.9(7) 2_756 2_756
O2 P1 O3 76.2(7) 2_756 2_756
O2 P1 O3 103.8(7) . 2_756
O1 P1 O3 110.1(8) . .
O1 P1 O3 69.9(8) 2_756 .
O4 P1 O3 101.9(7) . .
O4 P1 O3 78.1(7) 2_756 .
O2 P1 O3 103.8(7) 2_756 .
O2 P1 O3 76.2(7) . .
O3 P1 O3 180.0 2_756 .
P1 O1 O2 61.8(8) . .
P1 O1 O4 59.9(8) . 2_756
O2 O1 O4 103.9(11) . 2_756
P1 O1 O3 60.9(8) . 2_756
O2 O1 O3 97.4(11) . 2_756
O4 O1 O3 93.4(11) 2_756 2_756
P1 O1 Mo5 129.3(8) . .
O2 O1 Mo5 67.5(8) . .
O4 O1 Mo5 136.7(10) 2_756 .
O3 O1 Mo5 129.1(9) 2_756 .
P1 O2 O1 54.5(8) . .
P1 O2 O4 54.3(6) . .
O1 O2 O4 95.3(11) . .
P1 O2 Mo5 129.5(8) . .
O1 O2 Mo5 75.1(8) . .
O4 O2 Mo5 142.0(9) . .
P1 O2 Mo1 123.7(7) . .
O1 O2 Mo1 139.6(10) . .
O4 O2 Mo1 69.5(6) . .
Mo5 O2 Mo1 94.0(5) . .
P1 O3 O1 49.1(6) . 2_756
P1 O3 Mo4 126.8(8) . .
O1 O3 Mo4 77.7(7) 2_756 .
P1 O3 Mo2 119.9(8) . .
O1 O3 Mo2 135.8(9) 2_756 .
Mo4 O3 Mo2 96.2(5) . .
P1 O3 Mo6 118.1(7) . .
O1 O3 Mo6 131.3(8) 2_756 .
Mo4 O3 Mo6 95.6(5) . .
Mo2 O3 Mo6 92.7(5) . .
P1 O4 O1 53.9(7) . 2_756
P1 O4 O2 55.2(7) . .
O1 O4 O2 96.3(10) 2_756 .
P1 O4 V3 129.7(8) . 2_756
O1 O4 V3 75.8(8) 2_756 2_756
O2 O4 V3 142.2(8) . 2_756
P1 O4 Mo3 129.7(8) . 2_756
O1 O4 Mo3 75.8(8) 2_756 2_756
O2 O4 Mo3 142.2(8) . 2_756
P1 O4 Mo1 123.9(7) . .
O1 O4 Mo1 141.3(9) 2_756 .
O2 O4 Mo1 68.6(6) . .
Mo3 O4 Mo1 94.4(5) 2_756 .
Mo3 O6 Mo5 137.7(7) . .
Mo4 O8 Mo5 142.0(7) 2_756 .
Mo6 O9 Mo1 136.5(7) . 2_756
Mo5 O10 Mo2 138.8(8) . .
Mo1 O11 Mo3 139.0(9) 2_756 .
Mo1 O12 Mo2 141.3(7) . .
Mo4 O14 Mo2 137.0(8) . .
Mo6 O15 Mo2 140.7(9) . .
Mo3 O17 Mo4 141.7(6) 2_756 .
Mo6 O18 Mo3 139.7(8) . .
Mo5 O19 Mo1 135.1(9) . .
Mo4 O21 Mo6 132.7(10) . .
loop_
_geom_bond_atom_site_label_1
_geom_bond_atom_site_label_2
_geom_bond_distance
_geom_bond_site_symmetry_2
Mo1 O7 1.638(9) .
Mo1 O12 1.864(11) .
Mo1 O11 1.906(13) 2_756
Mo1 O9 1.955(12) 2_756
Mo1 O19 1.964(13) .
Mo1 O2 2.463(14) .
Mo1 O4 2.477(13) .
Mo2 O5 1.608(9) .
Mo2 O15 1.882(13) .
Mo2 O12 1.886(12) .
Mo2 O10 1.907(16) .
Mo2 O14 1.909(14) .
Mo2 O3 2.428(14) .
Mo3 O16 1.615(11) .
Mo3 O17 1.870(11) 2_756
Mo3 O6 1.896(10) .
Mo3 O11 1.909(13) .
Mo3 O18 1.920(12) .
Mo3 O4 2.391(14) 2_756
Mo4 O22 1.636(10) 2_756
Mo4 O21 1.844(13) .
Mo4 O8 1.879(11) 2_756
Mo4 O14 1.883(13) .
Mo4 O17 1.895(10) .
Mo4 O3 2.311(15) .
Mo5 O13 1.646(11) .
Mo5 O19 1.865(12) .
Mo5 O10 1.884(12) .
Mo5 O8 1.895(10) .
Mo5 O6 1.920(10) .
Mo5 O2 2.374(15) .
Mo5 O1 2.483(17) .
Mo6 O20 1.664(9) .
Mo6 O18 1.870(14) .
Mo6 O15 1.882(14) .
Mo6 O9 1.888(12) .
Mo6 O21 2.023(14) .
Mo6 O3 2.471(14) .
P1 O1 1.420(16) .
P1 O1 1.420(16) 2_756
P1 O4 1.520(13) .
P1 O4 1.520(13) 2_756
P1 O2 1.537(15) 2_756
P1 O2 1.538(15) .
P1 O3 1.641(15) 2_756
P1 O3 1.641(15) .
O1 O2 1.563(19) .
O1 O4 1.61(2) 2_756
O1 O3 1.76(2) 2_756
O2 O4 1.765(19) .
O3 O1 1.76(2) 2_756
O4 O1 1.61(2) 2_756
O4 V3 2.391(14) 2_756
O4 Mo3 2.391(14) 2_756
O8 V4 1.879(11) 2_756
O8 Mo4 1.879(11) 2_756
O9 V1 1.955(12) 2_756
O9 Mo1 1.955(12) 2_756
O11 V1 1.906(13) 2_756
O11 Mo1 1.906(13) 2_756
O17 V3 1.870(11) 2_756
O17 Mo3 1.870(11) 2_756
O22 V4 1.636(10) 2_756
O22 Mo4 1.636(10) 2_756
