#------------------------------------------------------------------------------
#$Date: 2016-03-24 00:14:39 +0200 (Thu, 24 Mar 2016) $
#$Revision: 179528 $
#$URL: svn://www.crystallography.net/cod/cif/4/34/25/4342582.cif $
#------------------------------------------------------------------------------
#
# This file is available in the Crystallography Open Database (COD),
# http://www.crystallography.net/
#
# All data on this site have been placed in the public domain by the
# contributors.
#
data_4342582
loop_
_publ_author_name
'Oliynyk, Anton O.'
'Stoyko, Stanislav S.'
'Mar, Arthur'
_publ_section_title
;
 Many Metals Make the Cut: Quaternary Rare-Earth Germanides RE4M2InGe4 (M
 = Fe, Co, Ni, Ru, Rh, Ir) and RE4RhInGe4 Derived from Excision of Slabs
 in RE2InGe2.
;
_journal_issue                   6
_journal_name_full               'Inorganic chemistry'
_journal_page_first              2780
_journal_page_last               2792
_journal_paper_doi               10.1021/ic502955h
_journal_volume                  54
_journal_year                    2015
_chemical_formula_structural     'Pr4 Fe2 In Ge4'
_chemical_formula_sum            'Fe2 Ge4 In Pr4'
_chemical_formula_weight         1080.52
_chemical_name_common
'praseodymium iron indium germanide (4/2/1/4)'
_chemical_name_systematic
'praseodymium iron indium germanide (4/2/1/4)'
_space_group_crystal_system      monoclinic
_space_group_IT_number           12
_space_group_name_Hall           '-C 2y'
_space_group_name_H-M_alt        'C 1 2/m 1'
_symmetry_space_group_name_Hall  '-C 2y'
_symmetry_space_group_name_H-M   'C 1 2/m 1'
_atom_sites_solution_primary     direct
_atom_sites_solution_secondary   difmap
_audit_creation_method           SHELXL-2013
_cell_angle_alpha                90
_cell_angle_beta                 106.8770(10)
_cell_angle_gamma                90
_cell_formula_units_Z            2
_cell_length_a                   16.0089(12)
_cell_length_b                   4.3242(3)
_cell_length_c                   7.2282(5)
_cell_measurement_reflns_used    1984
_cell_measurement_temperature    173(2)
_cell_measurement_theta_max      32.03
_cell_measurement_theta_min      4.90
_cell_volume                     478.83(6)
_computing_cell_refinement       'Bruker SAINT 8.27B (Bruker, 2011)'
_computing_data_collection       'Bruker APEX 2 (Bruker, 2008)'
_computing_data_reduction        'Bruker SAINT 8.27B'
_computing_molecular_graphics    'ATOMS 5.1 (Dowty, 1999)'
_computing_publication_material  'Bruker SHELXTL'
_computing_structure_refinement  'Bruker SHELXTL'
_computing_structure_solution    'Bruker SHELXTL'
_diffrn_ambient_temperature      173(2)
_diffrn_measured_fraction_theta_full 1.000
_diffrn_measured_fraction_theta_max 0.977
_diffrn_measurement_device_type  'Bruker PLATFORM/SMART APEX II CCD'
_diffrn_measurement_method       '\w and \f scans'
_diffrn_radiation_type           MoK\a
_diffrn_radiation_wavelength     0.71073
_diffrn_reflns_av_R_equivalents  0.0344
_diffrn_reflns_av_unetI/netI     0.0304
_diffrn_reflns_Laue_measured_fraction_full 1.000
_diffrn_reflns_Laue_measured_fraction_max 0.977
_diffrn_reflns_limit_h_max       24
_diffrn_reflns_limit_h_min       -24
_diffrn_reflns_limit_k_max       6
_diffrn_reflns_limit_k_min       -6
_diffrn_reflns_limit_l_max       10
_diffrn_reflns_limit_l_min       -10
_diffrn_reflns_number            3440
_diffrn_reflns_point_group_measured_fraction_full 1.000
_diffrn_reflns_point_group_measured_fraction_max 0.977
_diffrn_reflns_theta_full        25.242
_diffrn_reflns_theta_max         33.240
_diffrn_reflns_theta_min         2.659
_diffrn_source                   'fine-focus sealed tube'
_exptl_absorpt_coefficient_mu    37.479
_exptl_absorpt_correction_T_max  0.4345
_exptl_absorpt_correction_T_min  0.2636
_exptl_absorpt_correction_type   numerical
_exptl_absorpt_process_details   'Bruker SHELXTL (Sheldrick, 2013)'
_exptl_crystal_colour            grey
_exptl_crystal_density_diffrn    7.494
_exptl_crystal_density_method    'not measured'
_exptl_crystal_description       irregular
_exptl_crystal_F_000             930
_exptl_crystal_size_max          0.056
_exptl_crystal_size_mid          0.033
_exptl_crystal_size_min          0.030
_refine_diff_density_max         2.188
_refine_diff_density_min         -1.698
_refine_diff_density_rms         0.345
_refine_ls_extinction_coef       0.00078(6)
_refine_ls_extinction_expression Fc^*^=kFc[1+0.001xFc^2^\l^3^/sin(2\q)]^-1/4^
_refine_ls_extinction_method     SHELXL
_refine_ls_goodness_of_fit_ref   1.006
_refine_ls_hydrogen_treatment    undef
_refine_ls_matrix_type           full
_refine_ls_number_parameters     37
_refine_ls_number_reflns         1000
_refine_ls_number_restraints     0
_refine_ls_restrained_S_all      1.006
_refine_ls_R_factor_all          0.0282
_refine_ls_R_factor_gt           0.0202
_refine_ls_shift/su_max          0.000
_refine_ls_shift/su_mean         0.000
_refine_ls_structure_factor_coef Fsqd
_refine_ls_weighting_details
'w=1/[\s^2^(Fo^2^)+(0.0154P)^2^] where P=(Fo^2^+2Fc^2^)/3'
_refine_ls_weighting_scheme      calc
_refine_ls_wR_factor_gt          0.0370
_refine_ls_wR_factor_ref         0.0390
_reflns_Friedel_coverage         0.000
_reflns_number_gt                847
_reflns_number_total             1000
_reflns_threshold_expression     'I > 2\s(I)'
_cod_data_source_file            ic502955h_si_002.cif
_cod_data_source_block           Pr4Fe2InGe4
_cod_depositor_comments
'Adding full bibliography for 4342570--4342590.cif.'
_cod_database_code               4342582
#BEGIN Tags that were not found in dictionaries:
_shelx_space_group_comment
;
The symmetry employed for this shelxl refinement is uniquely defined
by the following loop, which should always be used as a source of
symmetry information in preference to the above space-group names.
They are only intended as comments.
;
_shelx_estimated_absorpt_t_min   0.228
_shelx_estimated_absorpt_t_max   0.399
_shelxl_version_number           2013-4
_shelx_res_file
;
TITL Pr4Fe2InGe4 C2/m lsf final refinement
CELL 0.71073  16.00890   4.32420   7.22820  90.0000 106.8770  90.0000
ZERR    2.00   0.00120   0.00030   0.00050   0.0000   0.0010   0.0000
LATT  7
SYMM -X, Y, -Z
SFAC FE GE IN PR
UNIT 4 8 2 8
TEMP -100
SIZE 0.03 0.033 0.056

L.S. 4
ACTA

WGHT    0.015400
EXTI    0.000785
FVAR       0.04862
PR1   4    0.347766    0.000000    0.060930    10.50000    0.00690    0.00668 =
         0.00621    0.00000    0.00149    0.00000
PR2   4    0.588125    0.000000    0.376527    10.50000    0.00621    0.00592 =
         0.00741    0.00000    0.00268    0.00000
FE    1    0.217187    0.000000    0.627085    10.50000    0.00627    0.00589 =
         0.00776    0.00000    0.00177    0.00000
IN    3    0.000000    0.000000    0.000000     0.24339    0.00952    0.00773 =
         0.00924    0.00000    0.00372    0.00000
GE1   2    0.065851    0.000000    0.653607    10.50000    0.00648    0.00617 =
         0.00686    0.00000    0.00182    0.00000
GE2   2    0.210723    0.000000    0.278111    10.50000    0.00971    0.00523 =
         0.00836    0.00000    0.00390    0.00000
HKLF 4

REM  Pr4Fe2InGe4 C2/m lsf final refinement
REM R1 =  0.0202 for     847 Fo > 4sig(Fo)  and  0.0282 for all    1000 data
REM     37 parameters refined using      0 restraints

END

WGHT      0.0154      0.0000

REM Highest difference peak  2.188,  deepest hole -1.698,  1-sigma level  0.345
Q1    1  -0.0001  0.0000  0.0962  10.50000  0.05    2.19
Q2    1   0.6722  0.0000  0.3603  10.50000  0.05    2.06
Q3    1   0.5892  0.0000  0.4749  10.50000  0.05    1.88
Q4    1   0.5820  0.0000  0.2610  10.50000  0.05    1.49
Q5    1   0.4291  0.0000  0.1824  10.50000  0.05    1.41
Q6    1   0.2883  0.0000  0.5443  10.50000  0.05    1.34
Q7    1   0.2965  0.0000  0.3264  10.50000  0.05    1.23
Q8    1   0.5630 -0.1609  0.3349  11.00000  0.05    1.22
Q9    1   0.2763  0.0000 -0.1278  10.50000  0.05    1.22
Q10   1   0.0655  0.0000 -0.0225  10.50000  0.05    1.19
Q11   1   0.0000  0.1408  0.0000  10.50000  0.05    1.19
Q12   1   0.4923  0.0000  0.3749  10.50000  0.05    1.16
Q13   1   0.5428  0.0000  0.3405  10.50000  0.05    1.16
Q14   1   0.5206  0.0000  0.0860  10.50000  0.05    1.13
Q15   1   0.5440  0.0000  0.5441  10.50000  0.05    1.13
Q16   1   0.6047 -0.2065  0.2567  11.00000  0.05    1.12
Q17   1  -0.0364  0.0000  0.5829  10.50000  0.05    1.11
Q18   1   0.2054  0.0000  0.4799  10.50000  0.05    1.11
Q19   1   0.4807  0.0000  0.0321  10.50000  0.05    1.07
Q20   1   0.0414  0.0000  0.0357  10.50000  0.05    1.05
;
_shelx_res_checksum              64888
_shelx_hkl_file
;
   0  -2 -10    9.44    2.50
   2  -2 -10    0.44    1.29
   4  -2 -10    0.51    0.99
   6  -2 -10    1.95    1.14
   8  -2 -10   66.97    3.31
  10  -2 -10   62.55    3.03
  12  -2 -10   14.67    2.55
  -1  -1 -10    2.14    1.35
   1  -1 -10    0.54    1.14
   3  -1 -10   -0.16    1.16
   5  -1 -10   35.41    2.81
   7  -1 -10    0.45    1.12
   9  -1 -10   13.92    1.63
  11  -1 -10    0.30    0.81
  13  -1 -10   53.15    3.99
  15  -1 -10    0.38    1.21
  -2   0 -10    5.88    1.35
   0   0 -10    8.74    1.47
   2   0 -10    0.45    1.30
   4   0 -10   -0.01    1.05
  10   0 -10   76.61    4.83
  12   0 -10   15.49    1.84
  14   0 -10    7.21    1.40
  16   0 -10   -0.18    1.12
  -1   1 -10    4.00    1.26
   1   1 -10    0.27    0.82
   3   1 -10    1.30    1.01
   5   1 -10   43.47    3.24
   9   1 -10   10.38    3.01
  11   1 -10    2.06    1.29
  13   1 -10   50.94    3.75
  15   1 -10    0.69    1.74
   2   2 -10    0.88    1.23
   4   2 -10   -0.18    0.97
   8   2 -10   69.25    6.21
  10   2 -10   71.90    6.55
  12   2 -10   11.41    1.98
  -1  -3  -9   90.53    6.01
   1  -3  -9    6.39    1.21
   3  -3  -9    8.53    1.44
   5  -3  -9   26.92    2.32
   7  -3  -9   24.60    2.15
   9  -3  -9    1.89    0.99
  11  -3  -9   32.33    2.53
  13  -3  -9   42.53    4.15
  -4  -2  -9   11.12    2.00
  -2  -2  -9    5.93    1.52
   0  -2  -9   39.26    3.13
   2  -2  -9   43.43    2.47
   4  -2  -9   29.17    2.41
   6  -2  -9    5.07    1.17
   8  -2  -9   -0.16    0.51
  10  -2  -9    1.86    0.83
  12  -2  -9    1.19    0.83
  14  -2  -9    1.04    0.78
  16  -2  -9  120.80    4.21
  -7  -1  -9    7.49    1.97
  -5  -1  -9    8.52    1.32
  -3  -1  -9    5.76    1.11
  -1  -1  -9  119.24    4.72
   1  -1  -9   10.81    1.74
   3  -1  -9   13.65    1.32
   5  -1  -9   41.79    2.82
   7  -1  -9   33.38    1.82
   9  -1  -9    0.88    0.69
  11  -1  -9   40.85    1.95
  13  -1  -9   67.74    2.47
  15  -1  -9   21.99    1.70
  17  -1  -9    0.79    1.07
  -6   0  -9   10.11    1.57
  -4   0  -9   16.24    1.97
  -2   0  -9    6.53    1.26
   0   0  -9   51.54    2.36
   2   0  -9   52.28    2.29
   4   0  -9   31.89    1.93
   6   0  -9    6.85    0.94
   8   0  -9    0.54    0.66
  10   0  -9    3.02    0.82
  12   0  -9    1.76    0.89
  14   0  -9    0.63    0.85
  16   0  -9  135.32    4.77
  18   0  -9    0.43    0.93
  -5   1  -9    5.57    1.37
  -3   1  -9    4.11    1.18
  -1   1  -9  116.59    4.16
   1   1  -9    7.40    1.27
   3   1  -9   15.96    1.62
   5   1  -9   35.11    2.28
   7   1  -9   29.94    3.87
   9   1  -9    0.35    0.77
  11   1  -9   39.26    3.01
  13   1  -9   56.43    3.49
  15   1  -9   20.80    1.79
  17   1  -9    0.81    0.94
  19   1  -9    3.30    1.61
  -4   2  -9   13.15    2.47
  -2   2  -9    8.13    1.91
   0   2  -9   32.48    3.43
   2   2  -9   43.90    3.35
   4   2  -9   29.85    2.41
   6   2  -9    8.07    2.35
   8   2  -9    1.45    1.68
  10   2  -9    2.90    1.24
  12   2  -9    2.75    1.27
  14   2  -9    1.22    1.21
  16   2  -9  112.38    4.98
  -1   3  -9   97.59    5.57
   1   3  -9    4.70    1.60
   3   3  -9   12.60    1.71
   5   3  -9   34.40    4.36
   7   3  -9   24.25    3.72
   9   3  -9   -0.06    1.80
  11   3  -9   26.99    2.76
  13   3  -9   51.21    5.34
  -2  -4  -8    1.56    2.05
   0  -4  -8    6.31    1.15
   2  -4  -8   19.09    2.06
   4  -4  -8    8.09    1.33
   6  -4  -8   10.73    1.52
   8  -4  -8   11.32    1.57
  10  -4  -8   62.02    3.03
  12  -4  -8    0.97    1.40
  -5  -3  -8   17.07    2.25
  -3  -3  -8    6.78    1.54
  -1  -3  -8    2.80    1.16
   1  -3  -8   14.02    1.41
   3  -3  -8    8.91    1.17
   5  -3  -8   73.50    3.06
   7  -3  -8   55.24    2.60
   9  -3  -8    5.74    0.90
  11  -3  -8   34.69    2.00
  13  -3  -8   -0.10    0.65
  15  -3  -8   16.23    1.84
  -8  -2  -8    0.83    0.90
  -6  -2  -8   93.50    5.83
  -4  -2  -8    5.24    1.41
  -2  -2  -8    0.97    0.99
   0  -2  -8   12.02    1.34
   2  -2  -8   36.96    2.14
   4  -2  -8   21.80    1.56
   6  -2  -8   12.84    1.18
   8  -2  -8   19.74    1.44
  10  -2  -8   88.41    2.62
  12  -2  -8    0.05    0.58
  14  -2  -8   -0.63    0.54
  16  -2  -8    3.91    1.04
  18  -2  -8   -0.39    0.69
  -9  -1  -8    0.56    0.90
  -7  -1  -8   22.64    1.86
  -5  -1  -8   19.54    1.73
  -3  -1  -8   11.90    1.34
  -1  -1  -8    4.38    0.88
   1  -1  -8   20.80    1.31
   3  -1  -8   10.61    1.13
   5  -1  -8  118.49    2.55
   7  -1  -8   77.78    2.33
   9  -1  -8   10.28    0.92
  11  -1  -8   46.10    1.94
  13  -1  -8    0.33    0.51
  15  -1  -8   24.63    1.74
  17  -1  -8    3.00    0.83
  19  -1  -8   76.27    2.87
 -10   0  -8   69.92    4.91
  -8   0  -8    2.95    1.08
  -6   0  -8   96.78    3.82
  -4   0  -8    5.57    1.17
  -2   0  -8    0.52    0.57
   0   0  -8   14.45    1.35
   2   0  -8   40.09    1.84
   4   0  -8   26.07    0.98
   6   0  -8   17.16    0.82
   8   0  -8   21.38    1.24
  10   0  -8  107.78    2.49
  12   0  -8    0.99    0.67
  14   0  -8   -0.35    0.67
  16   0  -8    4.05    1.09
  18   0  -8   -0.35    0.86
  20   0  -8   -0.05    1.09
  -9   1  -8   -0.14    0.82
  -7   1  -8   25.57    2.44
  -5   1  -8   20.68    2.14
  -3   1  -8   12.02    1.56
  -1   1  -8    5.00    1.03
   1   1  -8   18.46    1.69
   3   1  -8   12.89    1.17
   5   1  -8  117.51    2.97
   7   1  -8   75.09    3.08
   9   1  -8   11.18    1.13
  11   1  -8   43.89    2.07
  13   1  -8    0.72    0.61
  15   1  -8   24.63    1.88
  17   1  -8    2.54    0.88
  19   1  -8   79.72    3.79
  -8   2  -8    1.53    1.27
  -6   2  -8   78.86    5.07
  -4   2  -8    3.33    1.38
  -2   2  -8    0.19    0.89
   0   2  -8    9.26    1.76
   2   2  -8   36.87    2.28
   4   2  -8   18.90    1.80
   6   2  -8   22.20    3.20
   8   2  -8   16.74    1.91
  10   2  -8   91.69    3.86
  12   2  -8   -0.46    0.81
  14   2  -8   -0.38    0.92
  16   2  -8    3.80    1.38
  18   2  -8   -0.34    0.79
  20   2  -8    0.11    1.27
  -5   3  -8   17.48    2.84
  -3   3  -8   11.88    2.23
  -1   3  -8    0.01    0.94
   1   3  -8   15.52    1.77
   3   3  -8    7.51    1.34
   5   3  -8   74.69    4.97
   7   3  -8   57.23    4.44
   9   3  -8    6.50    1.42
  11   3  -8   35.77    2.96
  13   3  -8    0.67    1.04
  15   3  -8   16.89    2.28
   0   4  -8    8.34    1.50
   2   4  -8   27.93    3.92
   4   4  -8   15.39    3.12
   6   4  -8    8.83    2.48
   8   4  -8    7.37    2.43
  10   4  -8   55.71    3.80
  12   4  -8    1.61    1.99
   1  -5  -7   45.45    5.30
   3  -5  -7    2.05    1.36
   5  -5  -7    1.53    1.20
  -6  -4  -7    2.59    1.96
  -4  -4  -7   61.36    3.59
  -2  -4  -7   17.99    1.71
   0  -4  -7   29.61    2.03
   2  -4  -7   26.45    1.89
   4  -4  -7   14.09    1.60
   6  -4  -7   11.44    1.47
   8  -4  -7   12.73    1.56
  10  -4  -7   61.53    2.33
  12  -4  -7   11.67    1.25
  14  -4  -7   27.79    1.90
  -9  -3  -7    3.41    1.45
  -7  -3  -7   24.92    2.57
  -5  -3  -7    4.03    1.25
  -3  -3  -7   35.62    2.80
  -1  -3  -7    1.81    0.71
   1  -3  -7   68.62    2.44
   3  -3  -7    1.74    0.59
   5  -3  -7   -0.16    0.46
   7  -3  -7    4.90    0.79
   9  -3  -7   -0.29    0.43
  11  -3  -7    1.62    0.58
  13  -3  -7   61.15    2.21
  15  -3  -7   10.07    1.45
  17  -3  -7   60.05    3.03
 -12  -2  -7   16.36    2.77
 -10  -2  -7    0.98    0.87
  -8  -2  -7    2.35    0.87
  -6  -2  -7    1.23    0.70
  -4  -2  -7   89.62    2.87
  -2  -2  -7   30.62    2.48
   0  -2  -7   46.09    2.01
   2  -2  -7   42.71    1.80
   4  -2  -7   22.51    1.48
   6  -2  -7   20.86    1.35
   8  -2  -7   20.38    1.31
  10  -2  -7  101.66    2.61
  12  -2  -7   13.78    1.14
  14  -2  -7   34.02    2.08
  16  -2  -7    5.21    1.05
  18  -2  -7   27.97    2.23
  20  -2  -7    0.09    0.78
 -11  -1  -7   10.74    1.60
  -9  -1  -7    3.07    0.92
  -7  -1  -7   35.71    2.21
  -5  -1  -7    6.31    1.02
  -3  -1  -7   48.56    2.13
  -1  -1  -7    4.07    0.77
   1  -1  -7   93.30    2.16
   3  -1  -7    2.55    0.46
   5  -1  -7   -0.01    0.32
   7  -1  -7    8.08    0.75
   9  -1  -7    0.74    0.38
  11  -1  -7    3.85    0.66
  13  -1  -7   84.97    2.51
  15  -1  -7   16.75    1.38
  17  -1  -7   79.99    2.70
  19  -1  -7   -0.28    0.60
  21  -1  -7    7.57    1.24
 -12   0  -7   18.59    2.05
 -10   0  -7    3.04    1.06
  -8   0  -7    1.60    0.83
  -6   0  -7    1.06    0.74
  -4   0  -7  100.94    3.04
  -2   0  -7   34.21    1.82
   0   0  -7   61.89    2.16
   2   0  -7   54.95    1.30
   4   0  -7   31.84    0.90
   6   0  -7   27.28    0.87
   8   0  -7   27.54    1.10
  10   0  -7  132.90    2.65
  12   0  -7   16.91    1.11
  14   0  -7   42.19    1.80
  16   0  -7    5.02    1.15
  18   0  -7   33.42    2.68
  20   0  -7    1.47    1.03
  22   0  -7   -0.32    1.69
 -13   1  -7    4.08    1.94
 -11   1  -7   13.25    1.81
  -9   1  -7    5.22    1.21
  -7   1  -7   32.64    2.58
  -5   1  -7    5.59    1.12
  -3   1  -7   51.01    2.49
  -1   1  -7    4.33    0.87
   1   1  -7   94.11    2.53
   3   1  -7    2.23    0.46
   5   1  -7    0.45    0.33
   7   1  -7    8.30    0.89
   9   1  -7    1.11    0.54
  11   1  -7    3.50    0.74
  13   1  -7   83.07    2.68
  15   1  -7   17.26    1.52
  17   1  -7   80.79    2.90
  19   1  -7   -0.40    0.83
  21   1  -7    4.18    1.37
 -10   2  -7    1.28    1.07
  -8   2  -7    2.57    1.09
  -6   2  -7    1.88    0.88
  -4   2  -7   90.66    4.77
  -2   2  -7   33.48    2.32
   0   2  -7   48.55    2.29
   2   2  -7   41.60    2.24
   4   2  -7   24.71    1.49
   6   2  -7   25.17    2.05
   8   2  -7   18.02    1.88
  10   2  -7  100.54    3.84
  12   2  -7   13.26    1.26
  14   2  -7   32.51    2.00
  16   2  -7    4.76    0.98
  18   2  -7   27.70    2.06
  20   2  -7    1.64    0.99
  -9   3  -7    0.26    1.23
  -7   3  -7   24.41    3.17
  -5   3  -7    3.13    1.33
  -3   3  -7   40.47    2.69
  -1   3  -7    1.94    0.78
   1   3  -7   69.73    2.97
   3   3  -7    2.49    0.84
   5   3  -7    3.10    1.45
   7   3  -7    3.97    1.12
   9   3  -7    0.75    0.86
  11   3  -7    3.97    1.20
  13   3  -7   65.41    3.41
  15   3  -7   15.79    2.07
  17   3  -7   60.93    3.65
  -6   4  -7   -0.06    1.09
  -4   4  -7   60.67    3.13
  -2   4  -7   19.79    2.06
   0   4  -7   33.46    2.59
   2   4  -7   32.34    4.00
   4   4  -7   17.69    3.03
   6   4  -7   12.14    2.55
   8   4  -7   12.44    1.82
  10   4  -7   61.84    3.68
  12   4  -7   11.58    1.93
  14   4  -7   22.72    2.64
   9   5  -7   -0.25    1.97
  -3  -5  -6    1.86    1.08
  -1  -5  -6   53.24    2.44
   1  -5  -6    1.56    0.79
   3  -5  -6    2.30    0.91
   5  -5  -6   40.69    2.73
   7  -5  -6   33.31    2.51
   9  -5  -6   25.86    2.22
  11  -5  -6    6.12    1.33
 -10  -4  -6   23.17    3.80
  -8  -4  -6    6.28    1.58
  -6  -4  -6   -0.45    0.92
  -4  -4  -6   11.86    1.74
  -2  -4  -6   29.55    1.94
   0  -4  -6    0.13    0.51
   2  -4  -6    8.77    1.05
   4  -4  -6  114.86    3.08
   6  -4  -6   22.99    1.92
   8  -4  -6   18.33    1.74
  10  -4  -6    2.16    0.70
  12  -4  -6   55.51    2.18
  14  -4  -6    5.66    0.97
  16  -4  -6   23.69    2.16
 -11  -3  -6   10.36    1.40
  -9  -3  -6   96.26    3.27
  -7  -3  -6    0.16    0.63
  -5  -3  -6   46.64    2.86
  -3  -3  -6    3.95    0.77
  -1  -3  -6   79.54    2.55
   1  -3  -6    3.31    0.70
   3  -3  -6    4.70    0.76
   5  -3  -6   72.33    2.28
   7  -3  -6   60.07    1.98
   9  -3  -6   41.88    1.66
  11  -3  -6   10.52    1.03
  13  -3  -6   38.00    1.73
  15  -3  -6    0.73    0.67
  17  -3  -6    0.41    0.75
  19  -3  -6    4.27    1.15
 -14  -2  -6    1.37    1.03
 -12  -2  -6   22.43    1.93
 -10  -2  -6   37.78    2.35
  -8  -2  -6   10.60    1.20
  -6  -2  -6    1.20    0.61
  -4  -2  -6   22.34    1.59
  -2  -2  -6   58.04    1.72
   0  -2  -6    1.02    0.38
   2  -2  -6   14.76    1.16
   4  -2  -6  185.96    3.12
   6  -2  -6   48.12    1.42
   8  -2  -6   28.94    1.28
  10  -2  -6    5.04    0.68
  12  -2  -6   84.59    2.25
  14  -2  -6    9.70    1.20
  16  -2  -6   33.92    2.31
  18  -2  -6   18.14    1.79
  20  -2  -6   92.85    3.78
 -15  -1  -6   21.86    3.14
 -13  -1  -6   25.27    2.35
 -11  -1  -6   14.09    1.74
  -9  -1  -6  127.37    3.64
  -7  -1  -6    0.79    0.60
  -5  -1  -6   69.00    2.39
  -3  -1  -6    5.15    0.81
  -1  -1  -6  131.96    2.58
   1  -1  -6    4.32    0.55
   3  -1  -6    3.62    0.41
   5  -1  -6  114.60    1.70
   7  -1  -6   90.78    1.67
   9  -1  -6   70.85    1.69
  11  -1  -6   16.74    0.99
  13  -1  -6   54.78    1.94
  15  -1  -6    2.67    0.64
  17  -1  -6    0.42    0.54
  19  -1  -6    5.59    0.98
  21  -1  -6   41.60    2.32
  23  -1  -6    4.87    1.39
 -16   0  -6   36.43    3.94
 -14   0  -6    1.77    0.92
 -12   0  -6   23.99    2.21
 -10   0  -6   45.78    2.55
  -8   0  -6   10.35    1.41
  -6   0  -6    0.25    0.63
  -4   0  -6   24.72    1.64
  -2   0  -6   67.63    2.21
   0   0  -6    0.73    0.38
   2   0  -6   20.29    0.72
   4   0  -6  233.15    2.53
   6   0  -6   61.95    1.12
   8   0  -6   33.67    0.92
  10   0  -6    7.16    0.68
  12   0  -6  109.31    2.36
  14   0  -6   15.45    1.19
  16   0  -6   40.85    1.77
  18   0  -6   23.43    1.63
  20   0  -6  114.04    4.51
  22   0  -6   -0.04    1.01
 -15   1  -6   16.15    2.80
 -13   1  -6   27.69    2.44
 -11   1  -6   13.22    1.72
  -9   1  -6  138.54    4.49
  -7   1  -6    1.53    0.71
  -5   1  -6   70.95    2.86
  -3   1  -6    4.52    0.88
  -1   1  -6  129.32    2.92
   1   1  -6    5.86    0.59
   3   1  -6    4.98    0.46
   5   1  -6  115.31    1.85
   7   1  -6   96.06    1.89
   9   1  -6   71.79    2.14
  11   1  -6   16.65    1.29
  13   1  -6   54.89    2.06
  15   1  -6    1.40    0.61
  17   1  -6    0.29    0.65
  19   1  -6    6.74    1.44
  21   1  -6   51.92    3.64
  23   1  -6    3.41    2.16
 -14   2  -6    2.93    1.65
 -12   2  -6   21.84    2.27
 -10   2  -6   37.17    2.84
  -8   2  -6   13.43    1.71
  -6   2  -6    0.65    0.67
  -4   2  -6   22.84    1.52
  -2   2  -6   55.14    2.33
   0   2  -6    0.02    0.52
   2   2  -6   16.27    1.13
   4   2  -6  190.63    3.67
   6   2  -6   48.28    2.30
   8   2  -6   29.58    1.45
  10   2  -6    6.89    0.85
  12   2  -6   84.80    2.55
  14   2  -6   13.04    1.26
  16   2  -6   36.76    2.17
  18   2  -6   23.69    1.85
  20   2  -6   98.48    3.38
 -11   3  -6   13.37    2.54
  -9   3  -6   98.13    5.53
  -7   3  -6    0.15    0.91
  -5   3  -6   46.23    2.39
  -3   3  -6    2.88    0.83
  -1   3  -6   80.31    3.03
   1   3  -6    3.45    0.83
   3   3  -6    3.77    0.71
   5   3  -6   72.72    3.07
   7   3  -6   62.98    2.91
   9   3  -6   40.91    2.58
  11   3  -6   12.46    1.71
  13   3  -6   34.34    2.82
  15   3  -6    1.48    0.99
  17   3  -6    0.68    0.75
  19   3  -6    5.25    1.16
  -8   4  -6    7.36    1.96
  -6   4  -6    0.14    0.82
  -4   4  -6   15.65    1.75
  -2   4  -6   34.52    2.50
   0   4  -6    0.34    0.63
   2   4  -6    6.08    1.87
   4   4  -6  113.29    5.99
   6   4  -6   25.33    2.42
   8   4  -6   17.48    2.06
  10   4  -6    2.15    0.99
  12   4  -6   50.77    3.56
  14   4  -6    5.32    1.45
  16   4  -6   23.82    2.68
  -5   5  -6   29.55    3.51
  -3   5  -6    2.57    1.81
  -1   5  -6   39.91    4.54
   1   5  -6    1.86    1.52
   3   5  -6    4.27    1.80
   5   5  -6   39.89    4.42
   7   5  -6   39.57    3.31
   9   5  -6   27.72    2.84
  11   5  -6    8.30    1.82
  -7  -5  -5   16.45    2.80
  -5  -5  -5   13.24    1.86
  -3  -5  -5    8.17    1.13
  -1  -5  -5   63.53    2.47
   1  -5  -5   46.82    2.14
   3  -5  -5   21.73    1.66
   5  -5  -5   13.06    1.55
   7  -5  -5   34.73    2.43
   9  -5  -5    5.90    1.16
  11  -5  -5   35.29    2.56
  13  -5  -5   -0.45    0.74
 -10  -4  -5    3.00    1.33
  -8  -4  -5   22.53    2.31
  -6  -4  -5   82.19    3.50
  -4  -4  -5    1.20    0.86
  -2  -4  -5   61.50    2.23
   0  -4  -5    6.66    0.87
   2  -4  -5    0.31    0.46
   4  -4  -5    0.87    0.53
   6  -4  -5   14.22    1.45
   8  -4  -5    9.24    0.98
  10  -4  -5   53.15    1.98
  12  -4  -5   15.45    1.29
  14  -4  -5   42.38    1.96
  16  -4  -5    1.39    0.75
 -13  -3  -5    7.20    1.50
 -11  -3  -5    2.29    0.88
  -9  -3  -5    2.00    0.79
  -7  -3  -5   36.65    2.12
  -5  -3  -5   22.12    1.55
  -3  -3  -5   12.45    1.14
  -1  -3  -5  120.48    2.93
   1  -3  -5   87.39    2.40
   3  -3  -5   40.62    1.58
   5  -3  -5   25.35    1.18
   7  -3  -5   65.79    1.98
   9  -3  -5   10.14    0.92
  11  -3  -5   54.69    1.84
  13  -3  -5    0.97    0.48
  15  -3  -5  100.12    2.73
  17  -3  -5    4.21    1.12
  19  -3  -5    0.65    0.81
  21  -3  -5    4.08    2.04
 -16  -2  -5    0.93    1.70
 -14  -2  -5   36.17    2.81
 -12  -2  -5   17.47    1.61
 -10  -2  -5    3.17    0.84
  -8  -2  -5   32.07    2.02
  -6  -2  -5  129.65    3.28
  -4  -2  -5   -0.51    0.37
  -2  -2  -5  107.00    2.24
   0  -2  -5   11.96    0.82
   2  -2  -5    0.58    0.28
   4  -2  -5    2.14    0.43
   6  -2  -5   31.53    1.10
   8  -2  -5   13.99    0.97
  10  -2  -5   91.77    2.21
  12  -2  -5   26.08    1.29
  14  -2  -5   62.12    1.91
  16  -2  -5    0.49    0.53
  18  -2  -5   23.74    2.04
  20  -2  -5   26.45    2.34
  22  -2  -5    7.70    1.59
 -17  -1  -5   24.88    3.24
 -15  -1  -5   34.81    3.80
 -13  -1  -5   11.21    1.58
 -11  -1  -5    2.98    0.91
  -9  -1  -5    2.52    0.72
  -7  -1  -5   50.95    2.04
  -5  -1  -5   31.15    1.65
  -3  -1  -5   21.10    1.36
  -1  -1  -5  184.02    2.97
   1  -1  -5  143.54    2.39
   3  -1  -5   63.71    1.23
   5  -1  -5   45.85    0.92
   7  -1  -5  102.52    1.66
   9  -1  -5   16.84    0.88
  11  -1  -5   81.32    1.77
  13  -1  -5    2.41    0.55
  15  -1  -5  142.77    3.34
  17  -1  -5    5.04    0.85
  19  -1  -5    0.27    0.59
  21  -1  -5   10.11    1.24
  23  -1  -5    7.30    1.49
 -16   0  -5    1.17    0.94
 -14   0  -5   48.50    2.85
 -12   0  -5   21.77    2.02
 -10   0  -5    4.11    0.99
  -8   0  -5   39.33    2.32
  -6   0  -5  157.25    3.57
  -4   0  -5    0.49    0.48
  -2   0  -5  123.66    2.34
   0   0  -5   15.27    0.66
   2   0  -5    0.67    0.20
   4   0  -5    2.63    0.28
   6   0  -5   40.44    0.81
   8   0  -5   20.05    0.80
  10   0  -5  116.12    2.26
  12   0  -5   31.44    1.27
  14   0  -5   74.70    2.19
  16   0  -5    2.39    0.61
  18   0  -5   23.93    1.62
  20   0  -5   31.32    1.94
  22   0  -5    7.43    1.51
 -15   1  -5   40.00    2.93
 -13   1  -5   12.00    1.59
 -11   1  -5    2.88    0.94
  -9   1  -5    4.99    1.10
  -7   1  -5   51.41    2.43
  -5   1  -5   29.45    1.45
  -3   1  -5   18.37    1.19
  -1   1  -5  189.01    2.77
   1   1  -5  143.89    2.00
   3   1  -5   62.20    1.08
   5   1  -5   47.03    1.02
   7   1  -5  104.74    1.90
   9   1  -5   16.53    0.83
  11   1  -5   81.43    1.79
  13   1  -5    2.33    0.65
  15   1  -5  142.99    3.52
  17   1  -5    3.92    0.84
  19   1  -5    1.36    0.92
  21   1  -5   10.53    1.79
  23   1  -5    7.77    1.61
 -16   2  -5    1.82    1.39
 -14   2  -5   33.96    3.93
 -12   2  -5   19.49    2.02
 -10   2  -5    5.71    1.20
  -8   2  -5   36.04    2.54
  -6   2  -5  128.49    3.10
  -4   2  -5    0.19    0.37
  -2   2  -5  105.58    3.09
   0   2  -5   12.15    0.90
   2   2  -5    0.22    0.35
   4   2  -5    1.89    0.48
   6   2  -5   33.65    1.32
   8   2  -5   16.97    1.15
  10   2  -5   91.45    2.47
  12   2  -5   23.20    1.52
  14   2  -5   64.18    2.27
  16   2  -5    0.98    0.62
  18   2  -5   21.09    1.74
  20   2  -5   23.30    1.91
  22   2  -5    6.94    1.50
 -13   3  -5   10.00    2.25
 -11   3  -5    1.79    1.27
  -9   3  -5    1.00    0.95
  -7   3  -5   39.87    2.33
  -5   3  -5   21.53    1.80
  -3   3  -5   15.65    1.51
  -1   3  -5  120.51    3.55
   1   3  -5   92.34    2.48
   3   3  -5   41.66    2.42
   5   3  -5   27.00    2.16
   7   3  -5   69.57    3.00
   9   3  -5    9.98    1.43
  11   3  -5   59.78    2.11
  13   3  -5    1.15    0.61
  15   3  -5  102.53    3.15
  17   3  -5    2.85    0.87
  19   3  -5    0.11    0.75
  21   3  -5    5.32    1.98
 -10   4  -5    4.05    1.71
  -8   4  -5   22.68    2.13
  -6   4  -5   84.31    3.36
  -4   4  -5   -0.20    0.60
  -2   4  -5   60.69    2.66
   0   4  -5    7.28    1.89
   2   4  -5   -0.16    0.75
   4   4  -5    0.11    0.75
   6   4  -5   14.07    1.82
   8   4  -5    8.54    1.47
  10   4  -5   48.74    3.05
  12   4  -5   12.10    1.83
  14   4  -5   42.01    3.19
  16   4  -5    1.08    1.06
  18   4  -5   13.72    2.61
  -7   5  -5   19.81    3.21
  -5   5  -5   13.68    1.78
  -3   5  -5    3.92    1.83
  -1   5  -5   71.68    4.92
   1   5  -5   36.52    4.21
   3   5  -5   21.30    3.12
   5   5  -5   12.20    1.94
   7   5  -5   30.71    2.84
   9   5  -5    4.78    1.47
  11   5  -5   34.87    3.09
  13   5  -5    1.32    1.30
  -2  -6  -4    5.86    1.95
   0  -6  -4    9.18    1.62
   2  -6  -4   24.43    2.39
   4  -6  -4   16.74    2.71
  -9  -5  -4    0.22    1.64
  -7  -5  -4    1.92    1.02
  -5  -5  -4   11.01    1.58
  -3  -5  -4    3.39    1.08
  -1  -5  -4    0.26    0.55
   1  -5  -4   62.57    2.24
   3  -5  -4    0.94    0.57
   5  -5  -4   38.82    2.26
   7  -5  -4    0.63    0.69
   9  -5  -4   41.81    2.26
  11  -5  -4   21.56    1.99
  13  -5  -4    1.39    0.90
  15  -5  -4   13.82    1.76
 -14  -4  -4    4.91    1.88
 -12  -4  -4   46.69    3.40
 -10  -4  -4    7.22    1.17
  -8  -4  -4   74.36    3.26
  -6  -4  -4   26.30    2.14
  -4  -4  -4   17.58    1.36
  -2  -4  -4   12.03    1.10
   0  -4  -4   26.10    1.53
   2  -4  -4   53.06    1.83
   4  -4  -4   22.63    1.39
   6  -4  -4  140.24    3.09
   8  -4  -4    1.65    0.52
  10  -4  -4    5.76    0.81
  12  -4  -4    2.48    0.66
  14  -4  -4    9.40    1.09
  16  -4  -4    7.53    1.33
  18  -4  -4   26.92    3.31
 -15  -3  -4   31.32    2.86
 -13  -3  -4    6.42    1.45
 -11  -3  -4   57.14    2.44
  -9  -3  -4    0.22    0.57
  -7  -3  -4    4.07    0.76
  -5  -3  -4   21.20    1.42
  -3  -3  -4    5.54    0.64
  -1  -3  -4    1.41    0.44
   1  -3  -4  120.44    2.63
   3  -3  -4    0.83    0.38
   5  -3  -4   77.78    1.75
   7  -3  -4    2.40    0.43
   9  -3  -4   79.71    2.11
  11  -3  -4   44.28    1.58
  13  -3  -4    2.40    0.59
  15  -3  -4   22.04    1.46
  17  -3  -4   64.60    2.89
  19  -3  -4   13.38    1.72
 -16  -2  -4   22.32    2.23
 -14  -2  -4    5.62    1.25
 -12  -2  -4   67.73    2.58
 -10  -2  -4   10.68    1.19
  -8  -2  -4  121.54    3.14
  -6  -2  -4   46.30    1.77
  -4  -2  -4   36.03    1.51
  -2  -2  -4   23.74    1.00
   0  -2  -4   44.41    1.17
   2  -2  -4   97.44    1.54
   4  -2  -4   38.27    1.11
   6  -2  -4  253.65    3.42
   8  -2  -4    1.92    0.42
  10  -2  -4   11.51    0.87
  12  -2  -4    5.56    0.65
  14  -2  -4   13.95    1.04
  16  -2  -4    9.52    1.09
  18  -2  -4   30.31    2.30
  20  -2  -4    3.72    1.14
  22  -2  -4   38.78    3.07
 -17  -1  -4   -0.16    0.73
 -15  -1  -4   38.17    2.71
 -13  -1  -4    7.86    1.25
 -11  -1  -4   86.18    2.70
  -9  -1  -4    1.41    0.59
  -7  -1  -4    3.97    0.74
  -5  -1  -4   32.41    1.56
  -3  -1  -4    7.35    0.77
  -1  -1  -4    1.07    0.30
   1  -1  -4  193.09    2.39
   3  -1  -4    0.93    0.21
   5  -1  -4  123.85    1.51
   7  -1  -4    5.83    0.41
   9  -1  -4  123.58    2.09
  11  -1  -4   73.67    1.58
  13  -1  -4    3.79    0.59
  15  -1  -4   28.89    1.54
  17  -1  -4   92.55    2.75
  19  -1  -4   20.67    1.67
  21  -1  -4   65.41    2.61
  23  -1  -4   24.89    2.47
 -18   0  -4    0.28    1.19
 -16   0  -4   25.08    2.20
 -14   0  -4    6.85    1.10
 -12   0  -4   92.87    3.40
 -10   0  -4   12.29    1.43
  -8   0  -4  148.29    4.09
  -6   0  -4   59.50    2.02
  -4   0  -4   41.00    1.19
  -2   0  -4   33.02    1.05
   0   0  -4   56.02    0.99
   2   0  -4  122.27    1.42
   4   0  -4   50.37    0.81
   6   0  -4  341.59    3.26
   8   0  -4    3.09    0.34
  10   0  -4   17.25    0.67
  12   0  -4    6.12    0.72
  14   0  -4   18.72    1.26
  16   0  -4   10.70    1.06
  18   0  -4   33.71    1.81
  20   0  -4    4.69    0.89
  22   0  -4   39.94    2.36
 -17   1  -4    0.37    1.14
 -15   1  -4   45.02    2.73
 -13   1  -4    9.84    1.39
 -11   1  -4   79.33    3.17
  -9   1  -4    1.59    0.69
  -7   1  -4    5.60    0.71
  -5   1  -4   30.73    1.31
  -3   1  -4   10.39    0.50
  -1   1  -4    0.88    0.25
   1   1  -4  196.18    2.30
   3   1  -4    1.04    0.21
   5   1  -4  121.32    1.88
   7   1  -4    6.32    0.48
   9   1  -4  124.36    2.10
  11   1  -4   71.68    1.62
  13   1  -4    4.11    0.54
  15   1  -4   32.73    1.33
  17   1  -4   82.90    3.49
  19   1  -4   17.71    1.96
  21   1  -4   70.03    3.48
  23   1  -4   23.48    2.47
 -18   2  -4    1.60    1.41
 -16   2  -4   20.06    3.09
 -14   2  -4    7.40    1.87
 -12   2  -4   71.77    3.14
 -10   2  -4   11.41    1.50
  -8   2  -4  121.63    2.94
  -6   2  -4   45.37    1.68
  -4   2  -4   33.84    1.66
  -2   2  -4   24.35    1.08
   0   2  -4   42.37    1.40
   2   2  -4   95.54    1.63
   4   2  -4   37.47    1.22
   6   2  -4  255.38    4.15
   8   2  -4    2.32    0.51
  10   2  -4   12.89    1.06
  12   2  -4    4.78    0.77
  14   2  -4   14.98    1.29
  16   2  -4    9.83    1.06
  18   2  -4   31.15    2.04
  20   2  -4    2.98    1.17
  22   2  -4   34.84    2.94
 -15   3  -4   32.93    3.74
 -13   3  -4    3.57    1.50
 -11   3  -4   68.93    4.25
  -9   3  -4    1.66    0.75
  -7   3  -4    4.79    0.95
  -5   3  -4   20.54    1.62
  -3   3  -4    4.77    0.82
  -1   3  -4    0.71    0.42
   1   3  -4  121.39    2.82
   3   3  -4    0.61    0.57
   5   3  -4   74.03    2.98
   7   3  -4    2.82    0.88
   9   3  -4   80.83    2.31
  11   3  -4   44.92    1.88
  13   3  -4    1.85    0.67
  15   3  -4   21.27    1.67
  17   3  -4   67.40    2.63
  19   3  -4   18.43    2.24
  21   3  -4   46.21    3.43
 -10   4  -4    9.46    1.47
  -8   4  -4   75.37    3.12
  -6   4  -4   27.04    2.10
  -4   4  -4   18.68    1.73
  -2   4  -4   12.29    1.37
   0   4  -4   21.11    2.00
   2   4  -4   51.47    2.83
   4   4  -4   22.22    2.11
   6   4  -4  141.42    4.61
   8   4  -4    0.02    0.79
  10   4  -4    5.90    1.27
  12   4  -4    1.51    0.87
  14   4  -4   12.46    1.77
  16   4  -4    7.63    1.23
  18   4  -4   22.47    2.49
  -9   5  -4   -0.02    1.47
  -7   5  -4    4.26    1.79
  -5   5  -4    6.74    2.15
  -3   5  -4    2.50    1.56
  -1   5  -4    0.61    1.27
   1   5  -4   59.47    3.45
   3   5  -4   -0.20    0.83
   5   5  -4   39.67    3.12
   7   5  -4    0.97    1.03
   9   5  -4   42.20    3.26
  11   5  -4   26.26    2.67
  13   5  -4    0.96    1.24
   2   6  -4   29.52    3.90
   4   6  -4   11.28    2.14
   6   6  -4   74.97    7.44
  -4  -6  -3   36.89    2.82
  -2  -6  -3   11.76    1.71
   0  -6  -3   85.15    3.59
   2  -6  -3    2.12    1.00
   4  -6  -3   28.58    2.42
   6  -6  -3    5.43    1.70
 -11  -5  -3    4.71    2.31
  -9  -5  -3   23.48    3.54
  -7  -5  -3   24.89    2.19
  -5  -5  -3  131.75    4.22
  -3  -5  -3    9.08    1.36
  -1  -5  -3    3.71    0.96
   1  -5  -3    1.77    0.79
   3  -5  -3    6.53    0.88
   5  -5  -3    2.92    0.73
   7  -5  -3    0.58    0.63
   9  -5  -3   90.04    3.23
  11  -5  -3   36.41    2.48
  13  -5  -3   -0.44    0.72
  15  -5  -3   10.63    1.59
 -14  -4  -3   22.90    2.44
 -12  -4  -3    4.77    1.34
 -10  -4  -3   27.70    2.43
  -8  -4  -3    8.48    1.07
  -6  -4  -3   -0.36    0.46
  -4  -4  -3   67.93    2.08
  -2  -4  -3   27.39    1.41
   0  -4  -3  171.86    3.40
   2  -4  -3    0.56    0.43
   4  -4  -3   67.49    1.96
   6  -4  -3   24.45    1.38
   8  -4  -3   40.26    1.56
  10  -4  -3    0.28    0.44
  12  -4  -3   97.14    3.31
  14  -4  -3   58.55    2.61
  16  -4  -3   13.09    1.63
  18  -4  -3   15.55    1.85
 -17  -3  -3   34.20    2.96
 -15  -3  -3   39.79    3.09
 -13  -3  -3   -0.48    0.72
 -11  -3  -3    5.59    0.94
  -9  -3  -3   45.72    1.88
  -7  -3  -3   54.31    1.91
  -5  -3  -3  244.81    4.35
  -3  -3  -3   18.29    0.99
  -1  -3  -3   12.00    0.77
   1  -3  -3    2.98    0.50
   3  -3  -3   16.22    1.00
   5  -3  -3    4.44    0.51
   7  -3  -3    2.79    0.44
   9  -3  -3  167.75    3.20
  11  -3  -3   78.05    2.08
  13  -3  -3   -0.08    0.38
  15  -3  -3   20.96    1.43
  17  -3  -3   31.88    1.89
  19  -3  -3    2.86    1.41
  21  -3  -3    0.57    1.42
 -18  -2  -3    7.77    2.08
 -16  -2  -3    1.97    0.87
 -14  -2  -3   37.74    2.73
 -12  -2  -3    6.25    0.95
 -10  -2  -3   47.05    1.92
  -8  -2  -3   11.03    1.05
  -6  -2  -3    1.06    0.47
  -4  -2  -3  122.35    2.21
  -2  -2  -3   52.39    1.28
   0  -2  -3  349.11    4.12
   2  -2  -3    3.17    0.29
   4  -2  -3  136.59    2.08
   6  -2  -3   46.47    1.07
   8  -2  -3   68.74    1.35
  10  -2  -3    2.65    0.45
  12  -2  -3  175.90    3.21
  14  -2  -3   98.87    2.41
  16  -2  -3   19.58    1.74
  18  -2  -3   23.00    2.09
  20  -2  -3   22.85    2.24
  22  -2  -3    1.76    1.08
 -19  -1  -3   10.02    2.24
 -17  -1  -3   39.05    3.99
 -15  -1  -3   54.62    2.64
 -13  -1  -3   -0.22    0.52
 -11  -1  -3    9.11    1.04
  -9  -1  -3   60.23    2.09
  -7  -1  -3   77.19    2.22
  -5  -1  -3  396.24    5.79
  -3  -1  -3   27.17    0.93
  -1  -1  -3   22.90    0.77
   1  -1  -3    4.63    0.33
   3  -1  -3   28.62    0.61
   5  -1  -3    6.44    0.39
   7  -1  -3    3.28    0.27
   9  -1  -3  271.08    3.50
  11  -1  -3  115.11    2.03
  13  -1  -3    0.12    0.29
  15  -1  -3   29.52    1.65
  17  -1  -3   46.43    2.00
  19  -1  -3    6.73    1.01
  21  -1  -3    0.58    0.89
  23  -1  -3    1.63    1.07
 -20   0  -3   60.70    4.49
 -18   0  -3    7.88    1.92
 -16   0  -3    0.65    0.88
 -14   0  -3   47.89    2.38
 -12   0  -3    8.58    1.22
 -10   0  -3   57.83    2.46
  -8   0  -3   12.64    1.30
  -6   0  -3   -0.15    0.24
  -4   0  -3  157.59    2.36
  -2   0  -3   74.66    1.42
   0   0  -3  481.25    3.83
   2   0  -3    5.36    0.28
   4   0  -3  192.73    1.78
   6   0  -3   60.87    1.02
   8   0  -3   91.90    1.37
  10   0  -3    2.26    0.29
  12   0  -3  216.21    3.87
  14   0  -3  126.53    2.94
  16   0  -3   26.76    1.63
  18   0  -3   34.35    2.00
  20   0  -3   31.68    1.99
  22   0  -3    1.75    1.02
  24   0  -3   27.75    2.64
 -19   1  -3   12.78    2.45
 -17   1  -3   35.64    3.86
 -15   1  -3   49.65    3.76
 -13   1  -3    0.43    0.70
 -11   1  -3   13.77    1.51
  -9   1  -3   62.78    1.88
  -7   1  -3   75.39    1.97
  -5   1  -3  394.85    5.50
  -3   1  -3   28.57    0.70
  -1   1  -3   24.51    0.72
   1   1  -3    4.03    0.28
   3   1  -3   28.68    0.62
   5   1  -3    7.40    0.41
   7   1  -3    3.38    0.34
   9   1  -3  277.51    3.63
  11   1  -3  118.37    2.17
  13   1  -3    0.25    0.34
  15   1  -3   28.85    1.31
  17   1  -3   44.98    1.90
  19   1  -3    6.41    0.95
  21   1  -3    0.97    1.00
  23   1  -3   -0.68    1.34
 -18   2  -3    7.65    2.07
 -16   2  -3    0.42    1.13
 -14   2  -3   40.60    3.97
 -12   2  -3    8.70    1.75
 -10   2  -3   45.02    1.73
  -8   2  -3    9.71    1.09
  -6   2  -3    0.19    0.41
  -4   2  -3  124.01    2.38
  -2   2  -3   55.33    1.53
   0   2  -3  344.69    4.98
   2   2  -3    3.52    0.34
   4   2  -3  137.66    2.52
   6   2  -3   42.15    1.40
   8   2  -3   68.43    1.91
  10   2  -3    3.17    0.61
  12   2  -3  175.90    3.68
  14   2  -3  102.88    2.82
  16   2  -3   22.06    1.63
  18   2  -3   24.55    1.77
  20   2  -3   22.29    2.27
  22   2  -3    1.05    0.99
 -13   3  -3   -0.45    0.70
 -11   3  -3    6.41    1.10
  -9   3  -3   42.85    2.11
  -7   3  -3   50.11    2.17
  -5   3  -3  250.33    5.25
  -3   3  -3   20.47    1.25
  -1   3  -3   13.87    1.06
   1   3  -3    1.86    0.68
   3   3  -3   19.57    1.67
   5   3  -3    5.63    0.66
   7   3  -3    2.37    0.58
   9   3  -3  169.11    3.59
  11   3  -3   77.53    2.41
  13   3  -3    0.16    0.50
  15   3  -3   20.21    1.61
  17   3  -3   35.85    2.84
  19   3  -3    4.31    1.33
  21   3  -3    2.20    1.18
 -14   4  -3   27.19    3.49
 -12   4  -3    3.04    1.53
 -10   4  -3   27.42    3.37
  -8   4  -3    7.82    1.19
  -6   4  -3    0.36    0.52
  -4   4  -3   70.35    2.63
  -2   4  -3   26.77    2.15
   0   4  -3  172.52    4.90
   2   4  -3    0.74    0.76
   4   4  -3   65.88    2.92
   6   4  -3   21.40    2.00
   8   4  -3   40.89    2.51
  10   4  -3    0.29    0.69
  12   4  -3  103.95    3.10
  14   4  -3   58.68    2.48
  16   4  -3   10.84    1.75
  18   4  -3   14.66    2.08
 -11   5  -3    0.23    1.58
  -9   5  -3   29.39    3.75
  -7   5  -3   24.01    3.47
  -5   5  -3  124.67    6.53
  -3   5  -3    9.32    2.09
  -1   5  -3    4.29    1.31
   1   5  -3    0.88    0.92
   3   5  -3    5.65    1.33
   5   5  -3    1.46    1.00
   7   5  -3   -0.14    0.82
   9   5  -3   86.07    3.92
  11   5  -3   47.83    3.06
  13   5  -3    1.31    2.06
  15   5  -3    6.76    2.85
  -2   6  -3    7.06    2.21
   0   6  -3   84.59    5.51
   2   6  -3   -0.39    1.08
   4   6  -3   34.56    3.13
   6   6  -3    8.73    1.79
   8   6  -3   22.07    2.62
  -6  -6  -2    0.38    1.58
  -4  -6  -2    2.38    1.60
  -2  -6  -2   34.92    2.63
   0  -6  -2    3.90    1.12
   2  -6  -2    8.23    1.37
   4  -6  -2    4.52    1.18
   6  -6  -2   60.82    4.09
   8  -6  -2    6.70    1.95
 -13  -5  -2    3.97    1.88
 -11  -5  -2   62.97    3.35
  -9  -5  -2   30.30    3.70
  -7  -5  -2    6.44    1.83
  -5  -5  -2    0.44    0.74
  -3  -5  -2    0.11    0.64
  -1  -5  -2   67.15    2.71
   1  -5  -2   27.88    2.05
   3  -5  -2  165.80    4.44
   5  -5  -2    0.48    0.67
   7  -5  -2   -0.11    0.51
   9  -5  -2   -0.05    0.57
  11  -5  -2    1.28    0.78
  13  -5  -2    0.84    0.77
  15  -5  -2   47.26    2.94
 -16  -4  -2    1.15    1.16
 -14  -4  -2   53.99    3.60
 -12  -4  -2   38.73    2.87
 -10  -4  -2   32.79    2.50
  -8  -4  -2   17.27    1.31
  -6  -4  -2    0.51    0.46
  -4  -4  -2    6.08    0.65
  -2  -4  -2   75.14    2.02
   0  -4  -2    5.42    0.68
   2  -4  -2   14.45    1.02
   4  -4  -2    7.19    0.76
   6  -4  -2  129.76    2.79
   8  -4  -2   20.67    1.09
  10  -4  -2    0.25    0.50
  12  -4  -2    9.24    1.23
  14  -4  -2   33.18    2.35
  16  -4  -2   12.74    1.67
  18  -4  -2   42.68    3.07
 -17  -3  -2   34.77    2.96
 -15  -3  -2   39.21    2.95
 -13  -3  -2    6.20    1.28
 -11  -3  -2  106.59    3.75
  -9  -3  -2   53.94    1.91
  -7  -3  -2   18.59    1.20
  -5  -3  -2    2.87    0.53
  -3  -3  -2    0.68    0.30
  -1  -3  -2  148.94    2.30
   1  -3  -2   58.97    1.26
   3  -3  -2  344.40    4.84
   5  -3  -2    2.45    0.37
   7  -3  -2    0.45    0.28
   9  -3  -2    0.89    0.37
  11  -3  -2    3.37    0.57
  13  -3  -2    1.36    0.50
  15  -3  -2   80.11    2.41
  17  -3  -2   18.58    1.86
  19  -3  -2   25.58    3.49
  21  -3  -2    3.61    1.65
 -20  -2  -2    0.43    1.18
 -18  -2  -2   32.26    3.87
 -16  -2  -2    3.36    1.09
 -14  -2  -2   77.03    3.26
 -12  -2  -2   67.85    2.28
 -10  -2  -2   51.02    1.84
  -8  -2  -2   33.30    1.39
  -6  -2  -2    0.40    0.38
  -4  -2  -2   11.07    0.67
  -2  -2  -2  145.60    2.13
   0  -2  -2   11.08    0.57
   2  -2  -2   23.31    0.58
   4  -2  -2   13.72    0.58
   6  -2  -2  269.11    3.21
   8  -2  -2   36.54    0.91
  10  -2  -2    0.39    0.31
  12  -2  -2   18.75    1.12
  14  -2  -2   56.92    1.83
  16  -2  -2   20.31    1.40
  18  -2  -2   58.95    2.92
  20  -2  -2   90.55    3.94
  22  -2  -2    0.45    1.30
 -21  -1  -2    1.70    1.40
 -19  -1  -2   -0.27    1.00
 -17  -1  -2   48.30    3.76
 -15  -1  -2   67.15    2.88
 -13  -1  -2    9.23    1.16
 -11  -1  -2  159.05    3.44
  -9  -1  -2   74.92    2.19
  -7  -1  -2   30.87    1.30
  -5  -1  -2    6.95    0.67
  -3  -1  -2    0.66    0.23
  -1  -1  -2  269.16    3.11
   1  -1  -2  122.56    1.45
   3  -1  -2  602.73    5.93
   5  -1  -2    5.04    0.30
   7  -1  -2    0.62    0.22
   9  -1  -2    0.47    0.25
  11  -1  -2    3.75    0.46
  13  -1  -2    3.36    0.48
  15  -1  -2  106.74    2.76
  17  -1  -2   20.14    1.48
  19  -1  -2   34.23    2.56
  21  -1  -2    4.93    1.31
  23  -1  -2   19.43    2.33
 -20   0  -2    2.35    1.38
 -18   0  -2   34.44    3.70
 -16   0  -2    5.13    1.43
 -14   0  -2   90.69    3.19
 -12   0  -2   88.60    2.99
 -10   0  -2   62.00    1.70
  -8   0  -2   48.28    1.36
  -6   0  -2    1.46    0.33
  -4   0  -2   15.11    0.62
  -2   0  -2  207.31    2.87
   0   0  -2   17.63    0.38
   2   0  -2   34.27    0.51
   4   0  -2   19.46    0.40
   6   0  -2  380.21    4.31
   8   0  -2   51.59    0.92
  10   0  -2    0.10    0.19
  12   0  -2   24.64    0.90
  14   0  -2   71.14    2.16
  16   0  -2   22.40    1.51
  18   0  -2   65.85    2.37
  20   0  -2  106.38    3.96
  22   0  -2    0.08    0.87
  24   0  -2    1.80    1.19
 -21   1  -2    5.71    1.86
 -19   1  -2    0.28    1.12
 -17   1  -2   45.40    3.50
 -15   1  -2   59.85    3.91
 -13   1  -2    9.79    1.32
 -11   1  -2  158.19    3.19
  -9   1  -2   84.42    2.08
  -7   1  -2   31.76    1.19
  -5   1  -2    6.05    0.56
  -3   1  -2    0.62    0.20
  -1   1  -2  269.04    3.09
   1   1  -2  124.50    1.62
   3   1  -2  592.36    5.99
   5   1  -2    5.12    0.33
   7   1  -2    0.74    0.23
   9   1  -2    1.20    0.31
  11   1  -2    3.86    0.50
  13   1  -2    3.44    0.54
  15   1  -2  102.62    2.71
  17   1  -2   25.10    1.59
  19   1  -2   28.52    1.83
  21   1  -2    4.31    1.16
  23   1  -2   19.06    3.22
 -18   2  -2   37.25    3.74
 -16   2  -2    2.75    1.30
 -14   2  -2   81.53    2.97
 -12   2  -2   64.39    2.53
 -10   2  -2   45.36    1.99
  -8   2  -2   33.74    1.61
  -6   2  -2    1.06    0.36
  -4   2  -2   10.88    0.74
  -2   2  -2  144.45    2.54
   0   2  -2   11.37    0.76
   2   2  -2   23.02    0.87
   4   2  -2   11.62    0.79
   6   2  -2  261.09    4.20
   8   2  -2   37.95    1.02
  10   2  -2    0.44    0.30
  12   2  -2   18.73    0.98
  14   2  -2   53.66    2.00
  16   2  -2   20.00    1.51
  18   2  -2   58.43    2.99
  20   2  -2  102.98    4.00
  22   2  -2    1.11    1.43
 -15   3  -2   45.80    3.56
 -13   3  -2    6.54    1.76
 -11   3  -2  111.47    3.47
  -9   3  -2   54.23    2.27
  -7   3  -2   21.05    1.54
  -5   3  -2    3.91    0.60
  -3   3  -2    0.44    0.35
  -1   3  -2  151.14    2.94
   1   3  -2   59.73    1.60
   3   3  -2  344.00    5.23
   5   3  -2    1.86    0.53
   7   3  -2   -0.15    0.42
   9   3  -2    0.78    0.49
  11   3  -2    2.18    0.68
  13   3  -2    1.91    0.66
  15   3  -2   74.32    3.46
  17   3  -2   17.67    2.10
  19   3  -2   25.93    2.50
  21   3  -2    2.54    1.66
 -16   4  -2    3.39    1.78
 -14   4  -2   63.63    4.61
 -12   4  -2   36.67    3.88
 -10   4  -2   32.37    3.60
  -8   4  -2   20.61    2.79
  -6   4  -2    0.24    0.49
  -4   4  -2    5.53    0.77
  -2   4  -2   77.18    3.04
   0   4  -2    5.76    1.10
   2   4  -2   12.07    1.48
   4   4  -2    7.67    1.25
   6   4  -2  130.64    4.09
   8   4  -2   20.84    1.55
  10   4  -2   -0.18    0.57
  12   4  -2   11.48    1.25
  14   4  -2   32.16    2.83
  16   4  -2   16.23    2.16
  18   4  -2   44.34    3.47
 -13   5  -2    6.09    2.25
 -11   5  -2   50.07    5.09
  -9   5  -2   34.91    4.13
  -7   5  -2    9.04    2.25
  -5   5  -2    0.05    1.27
  -3   5  -2    0.23    0.91
  -1   5  -2   72.50    3.32
   1   5  -2   25.20    2.35
   3   5  -2  164.27    5.18
   5   5  -2    0.33    0.85
   7   5  -2   -0.14    0.84
   9   5  -2    1.23    0.96
  11   5  -2    0.78    1.69
  13   5  -2   -0.55    1.87
  15   5  -2   48.75    5.87
  -4   6  -2    1.21    1.60
  -2   6  -2   34.98    4.14
   0   6  -2    0.84    1.19
   2   6  -2    3.95    1.43
   4   6  -2    3.98    1.37
   6   6  -2   60.40    3.62
   8   6  -2   11.25    3.54
  -6  -6  -1   62.66    4.60
  -4  -6  -1    2.10    1.43
  -2  -6  -1    0.50    0.85
   0  -6  -1    0.75    0.79
   2  -6  -1    0.36    0.77
   4  -6  -1    0.60    0.83
   6  -6  -1   66.68    4.29
   8  -6  -1   -0.54    1.23
 -13  -5  -1   -0.13    0.96
 -11  -5  -1   29.12    2.50
  -9  -5  -1    0.46    0.79
  -7  -5  -1   20.97    1.93
  -5  -5  -1    4.15    0.95
  -3  -5  -1  127.48    3.74
  -1  -5  -1    0.04    0.60
   1  -5  -1    1.15    0.65
   3  -5  -1    0.45    0.64
   5  -5  -1   46.54    2.26
   7  -5  -1    1.05    0.73
   9  -5  -1   70.71    4.28
  11  -5  -1   80.08    3.22
  13  -5  -1   14.43    1.77
  15  -5  -1    0.13    0.90
 -16  -4  -1    0.20    0.97
 -14  -4  -1   -0.22    0.82
 -12  -4  -1    7.61    1.33
 -10  -4  -1   29.54    2.22
  -8  -4  -1  126.39    3.80
  -6  -4  -1  132.84    2.86
  -4  -4  -1    1.34    0.45
  -2  -4  -1    2.00    0.44
   0  -4  -1    0.68    0.38
   2  -4  -1   -0.03    0.32
   4  -4  -1    0.00    0.32
   6  -4  -1  151.76    3.01
   8  -4  -1    0.88    0.44
  10  -4  -1   29.71    1.80
  12  -4  -1   39.03    2.23
  14  -4  -1    9.67    1.36
  16  -4  -1    7.91    1.39
  18  -4  -1   -0.16    1.01
 -19  -3  -1    8.11    2.36
 -17  -3  -1   10.35    2.34
 -15  -3  -1   -0.16    0.77
 -13  -3  -1    0.48    0.68
 -11  -3  -1   44.33    2.25
  -9  -3  -1    0.45    0.41
  -7  -3  -1   36.83    1.33
  -5  -3  -1    9.51    0.77
  -3  -3  -1  273.78    3.46
  -1  -3  -1    0.46    0.23
   1  -3  -1    0.32    0.22
   3  -3  -1    0.90    0.25
   5  -3  -1  102.56    1.48
   7  -3  -1    3.70    0.44
   9  -3  -1  143.73    2.37
  11  -3  -1  161.47    3.17
  13  -3  -1   21.59    1.77
  15  -3  -1    0.77    0.70
  17  -3  -1   -0.20    0.76
  19  -3  -1   19.35    3.19
 -20  -2  -1   74.06    5.21
 -18  -2  -1   27.35    3.49
 -16  -2  -1    0.55    0.79
 -14  -2  -1   -0.28    0.58
 -12  -2  -1   17.47    1.65
 -10  -2  -1   46.67    1.60
  -8  -2  -1  237.38    3.84
  -6  -2  -1  244.70    3.68
  -4  -2  -1    3.61    0.36
  -2  -2  -1    1.69    0.24
   0  -2  -1    0.70    0.18
   2  -2  -1   -0.05    0.11
   4  -2  -1    0.13    0.12
   6  -2  -1  290.31    3.39
   8  -2  -1    0.04    0.21
  10  -2  -1   51.39    1.20
  12  -2  -1   73.42    1.98
  14  -2  -1   17.94    1.24
  16  -2  -1    6.24    0.91
  18  -2  -1    0.33    0.74
  20  -2  -1    1.04    1.39
  22  -2  -1   27.52    3.97
 -21  -1  -1   -0.11    1.12
 -19  -1  -1   11.42    2.26
 -17  -1  -1   15.15    2.42
 -15  -1  -1   -0.13    0.59
 -13  -1  -1    0.81    0.59
 -11  -1  -1   65.28    2.46
  -9  -1  -1    1.18    0.35
  -7  -1  -1   54.29    1.12
  -5  -1  -1   18.03    0.77
  -3  -1  -1  494.19    5.89
  -1  -1  -1    1.85    0.22
   1  -1  -1    0.65    0.13
   3  -1  -1    4.12    0.27
   5  -1  -1  190.02    1.98
   7  -1  -1    7.73    0.35
   9  -1  -1  236.32    2.63
  11  -1  -1  249.03    2.91
  13  -1  -1   32.60    1.17
  15  -1  -1    0.79    0.41
  17  -1  -1    0.19    0.66
  19  -1  -1   24.03    2.26
  21  -1  -1   60.29    3.20
  23  -1  -1   33.57    2.89
 -22   0  -1    0.47    1.16
 -20   0  -1   83.26    4.91
 -18   0  -1   30.00    3.36
 -16   0  -1    1.40    1.02
 -14   0  -1    0.06    0.54
 -12   0  -1   21.83    1.25
 -10   0  -1   58.23    1.63
  -8   0  -1  305.55    4.40
  -6   0  -1  338.09    4.50
  -4   0  -1    7.00    0.43
  -2   0  -1    2.61    0.27
   0   0  -1    1.60    0.10
   2   0  -1    0.21    0.08
   4   0  -1   -0.02    0.13
   6   0  -1  402.02    4.25
   8   0  -1   -0.06    0.18
  10   0  -1   63.53    1.36
  12   0  -1   92.71    1.84
  14   0  -1   18.09    1.27
  16   0  -1    9.65    1.05
  18   0  -1   -0.13    0.61
  20   0  -1    1.70    0.90
  22   0  -1   27.12    2.57
 -21   1  -1    0.89    1.23
 -19   1  -1    6.58    1.67
 -17   1  -1   12.97    2.13
 -15   1  -1   -0.43    0.67
 -13   1  -1    0.68    0.48
 -11   1  -1   61.88    1.83
  -9   1  -1    1.39    0.32
  -7   1  -1   51.10    1.08
  -5   1  -1   15.69    0.54
  -3   1  -1  495.11    5.05
  -1   1  -1    2.05    0.28
   1   1  -1    0.64    0.18
   3   1  -1    4.35    0.28
   5   1  -1  186.34    2.42
   7   1  -1    7.64    0.54
   9   1  -1  237.51    2.78
  11   1  -1  253.56    3.03
  13   1  -1   32.38    1.61
  15   1  -1    0.66    0.52
  17   1  -1    0.01    0.51
  19   1  -1   22.05    2.07
  21   1  -1   58.57    3.01
  23   1  -1   29.05    2.54
 -16   2  -1    2.06    0.83
 -14   2  -1   -0.05    0.59
 -12   2  -1   17.08    1.50
 -10   2  -1   47.65    1.97
  -8   2  -1  241.20    3.75
  -6   2  -1  241.50    3.65
  -4   2  -1    3.18    0.41
  -2   2  -1    1.87    0.24
   0   2  -1    0.67    0.22
   2   2  -1    0.23    0.27
   4   2  -1    0.44    0.22
   6   2  -1  286.93    3.69
   8   2  -1    0.04    0.28
  10   2  -1   51.95    1.43
  12   2  -1   73.87    1.81
  14   2  -1   15.16    1.27
  16   2  -1    8.01    1.03
  18   2  -1    0.06    0.78
  20   2  -1    3.36    1.70
  22   2  -1   31.11    3.92
 -17   3  -1   11.93    2.35
 -15   3  -1    2.76    1.52
 -13   3  -1   -0.54    0.93
 -11   3  -1   44.59    3.34
  -9   3  -1    0.85    0.56
  -7   3  -1   36.23    1.33
  -5   3  -1    7.69    0.74
  -3   3  -1  275.80    3.51
  -1   3  -1    0.89    0.40
   1   3  -1    0.09    0.36
   3   3  -1    1.47    0.47
   5   3  -1   98.72    2.45
   7   3  -1    3.86    0.67
   9   3  -1  148.85    3.27
  11   3  -1  156.49    3.50
  13   3  -1   19.71    1.98
  15   3  -1   -0.26    0.81
  17   3  -1    0.75    0.95
  19   3  -1   17.21    2.10
 -18   4  -1   17.16    3.04
 -16   4  -1    1.45    1.59
 -14   4  -1    1.79    1.52
 -12   4  -1   10.55    2.25
 -10   4  -1   23.32    3.16
  -8   4  -1  119.28    5.85
  -6   4  -1  126.18    4.01
  -4   4  -1    2.36    0.86
  -2   4  -1    2.46    0.83
   0   4  -1    0.35    0.65
   2   4  -1    0.90    0.63
   4   4  -1   -0.28    0.45
   6   4  -1  149.93    3.51
   8   4  -1    0.48    0.56
  10   4  -1   33.08    1.82
  12   4  -1   42.78    3.14
  14   4  -1   10.90    1.79
  16   4  -1    3.27    1.29
  18   4  -1   -0.04    1.09
 -13   5  -1    1.38    1.71
 -11   5  -1   24.44    3.64
  -9   5  -1    2.12    1.58
  -7   5  -1   18.65    2.98
  -5   5  -1    3.83    1.16
  -3   5  -1  129.08    4.54
  -1   5  -1    0.71    0.80
   1   5  -1   -0.38    0.72
   3   5  -1    3.07    1.00
   5   5  -1   50.66    2.86
   7   5  -1    2.34    1.00
   9   5  -1   77.89    5.92
  11   5  -1   84.40    5.37
  13   5  -1   13.80    2.16
  15   5  -1    0.04    1.17
  -6   6  -1   62.67    5.82
  -4   6  -1    2.57    1.35
  -2   6  -1    2.38    1.23
   0   6  -1   -0.33    0.98
   2   6  -1   -0.54    1.02
   4   6  -1    0.06    1.04
   6   6  -1   67.36    7.02
   8   6  -1   -0.56    2.15
  -8  -6   0    2.59    1.74
  -6  -6   0    0.61    1.32
  -4  -6   0    1.45    1.31
  -2  -6   0    0.04    0.77
   0  -6   0  204.17    5.44
   2  -6   0    0.43    0.86
   4  -6   0    3.65    1.08
   6  -6   0    0.77    0.97
   8  -6   0    2.65    1.60
 -15  -5   0   37.70    3.09
 -13  -5   0    6.30    1.35
 -11  -5   0    9.51    1.48
  -9  -5   0   21.48    1.99
  -7  -5   0   25.62    2.05
  -5  -5   0   65.87    2.65
  -3  -5   0   21.76    1.74
  -1  -5   0    4.40    0.91
   1  -5   0    3.22    0.85
   3  -5   0   26.35    1.95
   5  -5   0   64.69    2.66
   7  -5   0   27.87    2.12
   9  -5   0   20.40    2.77
  11  -5   0   10.22    2.20
  13  -5   0   13.49    2.67
 -18  -4   0    0.19    1.38
 -16  -4   0   40.15    2.99
 -14  -4   0   97.63    3.78
 -12  -4   0   27.11    2.17
 -10  -4   0    4.36    0.89
  -8  -4   0    4.24    0.83
  -6  -4   0    3.65    0.59
  -4  -4   0    7.15    0.75
  -2  -4   0   -0.18    0.31
   0  -4   0  465.68    6.39
   2  -4   0    0.55    0.34
   4  -4   0    7.06    0.67
   6  -4   0    3.65    0.57
   8  -4   0    5.92    0.73
  10  -4   0    3.74    0.82
  12  -4   0   23.78    2.00
  14  -4   0  102.94    3.86
  16  -4   0   38.87    2.98
  18  -4   0    0.18    1.12
 -19  -3   0    9.05    2.33
 -17  -3   0   87.16    5.29
 -15  -3   0   61.70    2.87
 -13  -3   0   17.96    1.66
 -11  -3   0   16.20    1.48
  -9  -3   0   39.55    1.85
  -7  -3   0   59.02    1.58
  -5  -3   0  147.37    2.62
  -3  -3   0   47.54    1.07
  -1  -3   0    5.39    0.43
   1  -3   0    5.29    0.43
   3  -3   0   49.00    1.08
   5  -3   0  145.11    2.20
   7  -3   0   57.72    1.31
   9  -3   0   44.54    1.49
  11  -3   0   17.89    1.58
  13  -3   0   17.38    1.74
  15  -3   0   66.21    3.07
  17  -3   0   77.37    3.50
  19  -3   0    7.14    1.61
 -20  -2   0   16.83    3.00
 -18  -2   0    0.30    1.06
 -16  -2   0   57.80    4.05
 -14  -2   0  168.44    4.46
 -12  -2   0   42.60    1.99
 -10  -2   0    6.66    0.66
  -8  -2   0   11.64    0.75
  -6  -2   0    7.67    0.56
  -4  -2   0   12.42    0.62
  -2  -2   0    0.00    0.13
   0  -2   0  967.80   10.77
   2  -2   0    0.05    0.13
   4  -2   0   12.31    0.53
   6  -2   0    7.78    0.47
   8  -2   0   11.89    0.65
  10  -2   0    8.18    0.63
  12  -2   0   43.28    1.61
  14  -2   0  169.98    3.64
  16  -2   0   60.24    2.75
  18  -2   0    0.61    0.86
  20  -2   0   15.13    2.77
 -23  -1   0    1.64    1.48
 -21  -1   0   38.96    4.25
 -19  -1   0    9.75    2.20
 -17  -1   0   89.39    5.01
 -15  -1   0   92.55    4.77
 -13  -1   0   23.16    1.23
 -11  -1   0   27.89    1.12
  -9  -1   0   73.11    1.74
  -7  -1   0  103.81    1.89
  -5  -1   0  272.23    4.15
  -3  -1   0   96.08    1.73
  -1  -1   0    9.80    0.31
   1  -1   0    9.60    0.32
   3  -1   0   96.49    1.24
   5  -1   0  273.91    3.01
   7  -1   0  102.12    1.63
   9  -1   0   74.59    1.50
  11  -1   0   25.08    1.03
  13  -1   0   20.29    1.32
  15  -1   0   90.38    2.58
  17  -1   0  100.47    3.67
  19  -1   0   10.84    1.58
  21  -1   0   41.57    4.42
 -22   0   0   -0.24    0.86
 -20   0   0   18.59    2.75
 -18   0   0    0.63    0.90
 -16   0   0   77.93    4.24
 -14   0   0  204.42    4.62
 -12   0   0   53.84    1.66
 -10   0   0   11.65    0.84
  -8   0   0   16.15    0.89
  -6   0   0   10.37    0.64
  -4   0   0   17.94    0.66
  -2   0   0    0.01    0.11
   2   0   0    0.16    0.11
   4   0   0   17.63    0.59
   6   0   0   10.76    0.58
   8   0   0   13.04    0.71
  10   0   0   11.09    0.72
  12   0   0   53.88    1.47
  14   0   0  200.28    3.82
  16   0   0   72.96    3.00
  18   0   0    0.26    0.72
  20   0   0   25.52    2.28
  22   0   0    0.75    0.92
 -19   1   0   16.08    2.42
 -17   1   0   95.21    3.22
 -15   1   0  102.43    3.15
 -13   1   0   21.18    1.63
 -11   1   0   27.09    1.23
  -9   1   0   77.07    1.73
  -7   1   0  103.58    1.62
  -5   1   0  270.71    3.58
  -3   1   0   95.06    1.49
  -1   1   0    9.97    0.42
   1   1   0    9.03    0.48
   3   1   0   96.66    1.40
   5   1   0  268.42    3.27
   7   1   0  104.07    1.80
   9   1   0   76.42    1.42
  11   1   0   26.44    1.16
  13   1   0   20.96    1.38
  15   1   0   97.36    2.69
  17   1   0   94.34    3.53
  19   1   0    8.31    1.35
  21   1   0   40.98    2.98
  23   1   0    2.37    1.68
 -18   2   0    0.87    1.18
 -16   2   0   63.07    3.92
 -14   2   0  165.77    4.36
 -12   2   0   42.70    1.94
 -10   2   0    7.88    0.77
  -8   2   0   12.21    0.82
  -6   2   0    7.94    0.60
  -4   2   0   13.65    0.66
  -2   2   0    0.16    0.16
   0   2   0  985.25   11.27
   2   2   0    0.41    0.28
   4   2   0   13.00    0.59
   6   2   0    8.21    0.60
   8   2   0   12.13    0.78
  10   2   0    9.23    0.74
  12   2   0   43.71    1.80
  14   2   0  172.78    3.83
  16   2   0   58.60    2.24
  18   2   0   -0.34    0.69
  20   2   0   10.73    2.34
 -19   3   0   10.89    2.50
 -17   3   0   69.37    4.72
 -15   3   0   72.76    4.59
 -13   3   0   14.53    2.55
 -11   3   0   15.68    2.40
  -9   3   0   48.00    2.26
  -7   3   0   57.87    1.62
  -5   3   0  150.89    2.75
  -3   3   0   47.22    1.44
  -1   3   0    5.22    0.61
   1   3   0    4.98    0.65
   3   3   0   46.55    1.58
   5   3   0  143.84    2.42
   7   3   0   58.69    1.56
   9   3   0   45.25    1.43
  11   3   0   11.80    1.62
  13   3   0   15.22    1.80
  15   3   0   62.79    3.21
  17   3   0   74.40    3.54
  19   3   0    6.19    2.02
 -18   4   0    0.91    1.90
 -16   4   0   41.27    4.59
 -14   4   0   98.73    5.99
 -12   4   0   19.97    3.06
 -10   4   0    5.89    1.79
  -8   4   0    8.01    1.32
  -6   4   0    3.60    1.03
  -4   4   0    8.03    1.25
  -2   4   0    0.40    0.61
   0   4   0  479.13    8.35
   2   4   0   -0.19    0.43
   4   4   0    5.73    0.85
   6   4   0    3.39    0.74
   8   4   0    6.87    1.36
  10   4   0    4.12    1.14
  12   4   0   26.38    2.50
  14   4   0  100.95    4.30
  16   4   0   48.24    3.53
  18   4   0   -0.15    1.50
 -13   5   0   11.60    2.87
 -11   5   0   12.81    2.86
  -9   5   0   19.52    3.14
  -7   5   0   25.59    2.46
  -5   5   0   65.27    3.24
  -3   5   0   26.07    2.37
  -1   5   0    4.09    1.15
   1   5   0    3.44    1.07
   3   5   0   27.18    2.28
   5   5   0   64.05    2.94
   7   5   0   23.09    2.47
   9   5   0   21.40    2.45
  11   5   0    9.33    1.82
  13   5   0    8.91    1.94
  15   5   0   34.90    3.33
  -8   6   0    0.95    1.80
  -6   6   0    0.34    1.27
  -4   6   0    3.94    1.46
  -2   6   0    0.26    1.03
   0   6   0  205.84    8.02
   2   6   0   -0.08    1.00
   4   6   0    1.95    2.12
   6   6   0    2.53    2.26
   8   6   0   -2.02    1.98
  -8  -6   1    0.55    1.35
  -6  -6   1   56.54    4.26
  -4  -6   1   -0.64    1.05
  -2  -6   1   -0.02    1.03
   0  -6   1   -0.33    0.76
   2  -6   1    0.63    0.79
   4  -6   1    1.25    0.92
   6  -6   1   64.14    3.15
 -15  -5   1   -0.64    0.86
 -13  -5   1   13.39    1.76
 -11  -5   1   84.72    3.40
  -9  -5   1   81.02    3.18
  -7  -5   1    1.00    0.64
  -5  -5   1   50.40    2.32
  -3  -5   1    0.70    0.47
  -1  -5   1    0.76    0.62
   1  -5   1    0.87    0.66
   3  -5   1  126.34    3.81
   5  -5   1    1.66    0.78
   7  -5   1   22.24    1.95
   9  -5   1    0.53    0.85
  11  -5   1   20.67    3.09
  13  -5   1    1.10    1.61
 -18  -4   1    0.61    1.32
 -16  -4   1    3.43    1.13
 -14  -4   1    9.33    1.38
 -12  -4   1   43.02    2.38
 -10  -4   1   28.63    2.00
  -8  -4   1    0.50    0.47
  -6  -4   1  151.82    2.96
  -4  -4   1    0.30    0.34
  -2  -4   1    0.05    0.32
   0  -4   1    0.23    0.33
   2  -4   1    1.11    0.38
   4  -4   1    1.75    0.46
   6  -4   1  128.17    2.79
   8  -4   1  129.71    2.93
  10  -4   1   26.20    1.61
  12  -4   1   10.06    1.46
  14  -4   1    0.49    0.87
  16  -4   1    1.35    1.11
 -19  -3   1   15.32    2.68
 -17  -3   1   -0.66    0.88
 -15  -3   1    0.21    0.64
 -13  -3   1   22.87    1.76
 -11  -3   1  160.49    3.99
  -9  -3   1  151.91    5.12
  -7  -3   1    3.05    0.44
  -5  -3   1  100.85    2.02
  -3  -3   1    0.78    0.32
  -1  -3   1    0.23    0.20
   1  -3   1    0.74    0.24
   3  -3   1  275.87    3.99
   5  -3   1    9.06    0.74
   7  -3   1   36.10    1.34
   9  -3   1    1.54    0.48
  11  -3   1   50.07    1.81
  13  -3   1   -0.25    0.61
  15  -3   1    0.60    0.87
  17  -3   1    9.26    1.60
  19  -3   1    5.71    1.54
 -22  -2   1   18.77    3.29
 -20  -2   1    0.99    1.27
 -18  -2   1    1.11    1.11
 -16  -2   1    4.95    1.48
 -14  -2   1   16.43    1.45
 -12  -2   1   72.95    2.39
 -10  -2   1   51.67    1.86
  -8  -2   1   -0.06    0.21
  -6  -2   1  291.30    3.83
  -4  -2   1   -0.02    0.17
  -2  -2   1    0.11    0.12
   0  -2   1    0.59    0.15
   2  -2   1    1.90    0.29
   4  -2   1    3.86    0.31
   6  -2   1  248.10    3.08
   8  -2   1  239.27    3.23
  10  -2   1   50.55    1.38
  12  -2   1   14.71    1.18
  14  -2   1    0.18    0.66
  16  -2   1    1.31    0.83
  18  -2   1   26.10    2.34
  20  -2   1   84.70    5.67
 -23  -1   1   31.23    3.84
 -21  -1   1   58.45    4.34
 -19  -1   1   21.65    3.02
 -17  -1   1   -0.93    0.75
 -15  -1   1    0.67    0.56
 -13  -1   1   33.44    1.29
 -11  -1   1  242.41    4.69
  -9  -1   1  238.51    4.23
  -7  -1   1    7.99    0.48
  -5  -1   1  187.49    2.39
  -3  -1   1    4.08    0.28
  -1  -1   1    0.69    0.18
   1  -1   1    1.26    0.22
   3  -1   1  506.62    5.82
   5  -1   1   17.94    0.76
   7  -1   1   52.10    1.45
   9  -1   1    0.49    0.39
  11  -1   1   64.82    1.99
  13  -1   1    0.47    0.51
  15  -1   1   -0.17    0.50
  17  -1   1   14.99    1.37
  19  -1   1    8.69    2.13
  21  -1   1   -0.53    1.07
 -22   0   1   33.96    3.72
 -20   0   1    2.93    1.36
 -18   0   1   -0.35    0.84
 -16   0   1    9.08    1.17
 -14   0   1   19.23    1.55
 -12   0   1   93.71    2.08
 -10   0   1   59.68    1.51
  -8   0   1    0.28    0.24
  -6   0   1  401.00    4.79
  -4   0   1    0.22    0.26
  -2   0   1   -0.05    0.11
   2   0   1    2.65    0.38
   4   0   1    6.05    0.44
   6   0   1  333.31    4.58
   8   0   1  307.53    4.43
  10   0   1   61.78    1.50
  12   0   1   19.05    1.29
  14   0   1    0.61    0.52
  16   0   1    0.47    0.52
  18   0   1   28.31    2.33
  20   0   1   91.63    3.75
  22   0   1    0.60    0.93
 -19   1   1   24.97    2.95
 -17   1   1    0.32    0.63
 -15   1   1    0.34    0.61
 -13   1   1   31.19    1.84
 -11   1   1  253.46    5.04
  -9   1   1  241.99    4.62
  -7   1   1    7.39    0.74
  -5   1   1  188.49    2.70
  -3   1   1    3.36    0.49
  -1   1   1    0.47    0.32
   1   1   1    1.55    0.27
   3   1   1  500.60    5.09
   5   1   1   15.95    0.58
   7   1   1   53.08    1.59
   9   1   1    1.29    0.50
  11   1   1   69.95    1.75
  13   1   1    0.44    0.49
  15   1   1   -0.41    0.62
  17   1   1   15.13    1.71
  19   1   1    7.41    1.38
  21   1   1   -0.14    0.83
 -20   2   1    2.02    1.52
 -18   2   1   -1.14    0.93
 -16   2   1    6.88    1.76
 -14   2   1   17.57    1.60
 -12   2   1   72.18    2.65
 -10   2   1   51.64    1.53
  -8   2   1   -0.03    0.25
  -6   2   1  289.97    3.99
  -4   2   1   -0.14    0.35
  -2   2   1   -0.15    0.22
   0   2   1    0.19    0.25
   2   2   1    2.25    0.37
   4   2   1    4.17    0.39
   6   2   1  249.30    3.28
   8   2   1  239.37    3.38
  10   2   1   44.51    1.79
  12   2   1   18.44    1.41
  14   2   1    0.76    0.58
  16   2   1    1.54    0.81
  18   2   1   27.33    2.34
  20   2   1   81.90    3.60
 -21   3   1   51.93    5.02
 -19   3   1   21.35    3.35
 -17   3   1    0.69    1.31
 -15   3   1    1.05    1.25
 -13   3   1   21.48    1.92
 -11   3   1  157.95    4.45
  -9   3   1  147.27    4.15
  -7   3   1    2.90    0.87
  -5   3   1   99.44    3.13
  -3   3   1    1.48    0.44
  -1   3   1   -0.26    0.32
   1   3   1    0.23    0.36
   3   3   1  272.52    4.38
   5   3   1    8.15    0.66
   7   3   1   35.72    1.68
   9   3   1    0.58    0.54
  11   3   1   43.87    2.06
  13   3   1    0.99    0.66
  15   3   1    0.46    1.22
  17   3   1   15.52    2.74
  19   3   1    3.98    1.80
 -18   4   1    0.58    1.67
 -16   4   1    4.02    2.01
 -14   4   1    6.14    2.19
 -12   4   1   34.67    4.02
 -10   4   1   31.76    2.55
  -8   4   1    0.99    0.84
  -6   4   1  150.45    4.49
  -4   4   1   -0.04    0.44
  -2   4   1   -0.19    0.44
   0   4   1   -0.06    0.42
   2   4   1    0.82    0.54
   4   4   1    1.45    0.57
   6   4   1  130.22    4.33
   8   4   1  127.65    4.45
  10   4   1   24.91    2.41
  12   4   1   11.78    1.77
  14   4   1    0.15    0.98
  16   4   1    0.10    1.39
 -15   5   1    1.56    1.92
 -13   5   1   14.79    3.13
 -11   5   1   90.86    5.87
  -9   5   1   77.64    3.74
  -7   5   1   -0.18    0.93
  -5   5   1   51.69    3.10
  -3   5   1    0.07    0.79
  -1   5   1    1.14    0.84
   1   5   1   -0.01    0.71
   3   5   1  130.57    3.47
   5   5   1    1.90    1.08
   7   5   1   19.79    2.35
   9   5   1    1.36    1.20
  11   5   1   22.19    2.56
  13   5   1   -0.44    1.21
  -8   6   1    1.09    1.39
  -6   6   1   73.70    4.16
  -4   6   1    0.72    1.12
  -2   6   1    0.16    1.03
   0   6   1   -1.41    0.89
   2   6   1    2.60    2.09
   4   6   1    1.93    2.11
   6   6   1   56.35    6.13
 -10  -6   2   -0.32    1.17
  -8  -6   2   11.83    1.64
  -6  -6   2   58.35    4.29
  -4  -6   2    2.40    1.42
  -2  -6   2    7.51    1.97
   0  -6   2    4.08    1.08
   2  -6   2   41.58    2.57
   4  -6   2    1.54    1.06
   6  -6   2    0.17    0.92
 -15  -5   2   46.34    2.84
 -13  -5   2    0.39    0.81
 -11  -5   2    0.57    0.72
  -9  -5   2    0.43    0.62
  -7  -5   2    0.31    0.59
  -5  -5   2   -0.46    0.54
  -3  -5   2  169.81    3.48
  -1  -5   2   28.01    1.57
   1  -5   2   72.23    2.19
   3  -5   2    0.29    0.68
   5  -5   2    1.54    0.74
   7  -5   2    6.20    1.25
   9  -5   2   28.88    2.54
  11  -5   2   57.82    5.52
 -18  -4   2   29.33    3.78
 -16  -4   2   13.26    2.42
 -14  -4   2   28.59    2.15
 -12  -4   2   10.01    1.23
 -10  -4   2   -0.27    0.42
  -8  -4   2   23.99    1.72
  -6  -4   2  133.47    3.55
  -4  -4   2    7.78    0.76
  -2  -4   2   13.13    0.96
   0  -4   2    5.78    0.67
   2  -4   2   76.82    2.02
   4  -4   2    5.30    0.67
   6  -4   2   -0.68    0.49
   8  -4   2   17.21    1.75
  10  -4   2   32.25    2.46
  12  -4   2   38.98    2.85
  14  -4   2   49.08    3.54
  16  -4   2    5.02    1.50
 -21  -3   2    1.74    1.50
 -19  -3   2   26.13    3.51
 -17  -3   2   15.16    2.46
 -15  -3   2   76.42    4.25
 -13  -3   2    1.79    0.60
 -11  -3   2    1.92    0.62
  -9  -3   2    0.46    0.44
  -7  -3   2    0.65    0.43
  -5  -3   2    1.86    0.39
  -3  -3   2  349.05    4.80
  -1  -3   2   59.49    1.52
   1  -3   2  150.81    2.19
   3  -3   2    0.42    0.33
   5  -3   2    3.61    0.55
   7  -3   2   17.94    1.19
   9  -3   2   58.45    2.02
  11  -3   2  112.37    3.07
  13  -3   2    7.28    1.33
  15  -3   2   44.82    3.19
  17  -3   2   33.29    2.90
  19  -3   2    1.15    1.81
 -22  -2   2   -0.38    1.29
 -20  -2   2  105.09    5.75
 -18  -2   2   64.49    4.25
 -16  -2   2   18.33    2.40
 -14  -2   2   58.31    3.34
 -12  -2   2   19.02    1.34
 -10  -2   2   -0.08    0.31
  -8  -2   2   37.90    1.40
  -6  -2   2  268.49    3.54
  -4  -2   2   12.84    0.62
  -2  -2   2   22.98    0.78
   0  -2   2   12.21    0.52
   2  -2   2  146.89    2.41
   4  -2   2   10.75    0.75
   6  -2   2    0.70    0.41
   8  -2   2   34.21    1.48
  10  -2   2   47.50    1.80
  12  -2   2   62.73    2.80
  14  -2   2   67.50    3.11
  16  -2   2    7.90    1.42
  18  -2   2   33.16    2.71
  20  -2   2    2.65    1.60
 -23  -1   2   22.12    3.26
 -21  -1   2    2.83    1.43
 -19  -1   2   30.58    3.40
 -17  -1   2   20.73    1.79
 -15  -1   2  104.95    3.23
 -13  -1   2    1.51    0.57
 -11  -1   2    4.14    0.59
  -9  -1   2    0.88    0.30
  -7  -1   2    0.57    0.25
  -5  -1   2    4.59    0.26
  -3  -1   2  594.18    6.70
  -1  -1   2  124.68    1.87
   1  -1   2  264.19    4.59
   3  -1   2    0.60    0.28
   5  -1   2    5.85    0.59
   7  -1   2   30.56    1.28
   9  -1   2   79.26    2.19
  11  -1   2  158.52    3.40
  13  -1   2    9.64    1.05
  15  -1   2   70.54    2.95
  17  -1   2   46.09    2.69
  19  -1   2   -0.52    1.06
 -20   0   2  107.50    3.72
 -18   0   2   72.20    2.86
 -16   0   2   21.48    1.73
 -14   0   2   70.15    2.50
 -12   0   2   26.00    1.49
 -10   0   2    0.13    0.24
  -8   0   2   51.82    1.55
  -6   0   2  395.72    5.33
  -4   0   2   20.70    0.88
   2   0   2  212.17    2.74
   4   0   2   15.08    0.60
   6   0   2    1.01    0.29
   8   0   2   46.31    1.17
  10   0   2   64.55    2.02
  12   0   2   82.97    2.40
  14   0   2   99.49    2.71
  16   0   2    4.92    0.83
  18   0   2   42.75    2.59
  20   0   2    1.11    1.27
 -21   1   2    3.51    1.61
 -19   1   2   34.78    3.58
 -17   1   2   25.00    2.86
 -15   1   2  113.32    3.30
 -13   1   2    2.64    0.75
 -11   1   2    3.82    0.72
  -9   1   2    0.78    0.43
  -7   1   2    0.31    0.30
  -5   1   2    6.43    0.42
  -3   1   2  592.77    8.84
  -1   1   2  123.45    2.44
   1   1   2  274.39    3.46
   3   1   2    0.50    0.24
   5   1   2    5.92    0.59
   7   1   2   33.58    1.27
   9   1   2   80.32    2.15
  11   1   2  157.54    3.41
  13   1   2   11.81    1.13
  15   1   2   67.70    2.27
  17   1   2   43.89    2.67
  19   1   2    0.89    0.81
  21   1   2    3.80    1.19
 -22   2   2   -0.29    1.52
 -20   2   2   97.62    5.39
 -18   2   2   60.74    4.15
 -16   2   2   17.91    1.79
 -14   2   2   54.75    2.49
 -12   2   2   19.44    1.70
 -10   2   2    0.59    0.66
  -8   2   2   39.36    1.87
  -6   2   2  259.96    5.25
  -4   2   2   16.68    1.21
  -2   2   2   23.80    0.91
   0   2   2   12.16    0.76
   2   2   2  148.14    2.48
   4   2   2    9.71    0.54
   6   2   2    1.02    0.45
   8   2   2   35.70    1.59
  10   2   2   49.78    1.90
  12   2   2   60.90    2.78
  14   2   2   74.40    3.16
  16   2   2    5.40    1.19
  18   2   2   36.79    2.73
  20   2   2    0.51    0.95
 -21   3   2    2.25    1.99
 -19   3   2   26.48    3.49
 -17   3   2   10.95    2.43
 -15   3   2   86.25    3.46
 -13   3   2    1.45    0.83
 -11   3   2    2.42    0.89
  -9   3   2    0.83    0.73
  -7   3   2    0.42    0.64
  -5   3   2    2.45    0.79
  -3   3   2  340.85    5.21
  -1   3   2   58.47    1.71
   1   3   2  148.72    2.91
   3   3   2    0.55    0.41
   5   3   2    3.36    0.63
   7   3   2   18.26    1.34
   9   3   2   51.26    2.04
  11   3   2  110.88    3.16
  13   3   2   10.88    1.55
  15   3   2   48.69    2.72
  17   3   2   32.39    3.92
 -18   4   2   34.66    4.45
 -16   4   2   11.96    2.81
 -14   4   2   35.22    4.29
 -12   4   2    7.77    1.48
 -10   4   2    0.61    0.87
  -8   4   2   24.11    1.59
  -6   4   2  133.11    3.17
  -4   4   2    6.81    0.86
  -2   4   2   13.97    1.17
   0   4   2    5.49    0.79
   2   4   2   78.86    2.30
   4   4   2    6.86    0.87
   6   4   2    0.93    0.57
   8   4   2   15.29    1.83
  10   4   2   30.76    2.66
  12   4   2   39.20    3.07
  14   4   2   55.91    5.29
  16   4   2    0.55    1.58
 -15   5   2   42.80    5.22
 -13   5   2    0.82    1.70
 -11   5   2    2.43    1.26
  -9   5   2    0.32    1.00
  -7   5   2    0.22    0.91
  -5   5   2    1.30    0.91
  -3   5   2  165.03    5.07
  -1   5   2   26.43    1.80
   1   5   2   73.48    3.35
   3   5   2    0.46    0.91
   5   5   2    1.46    1.08
   7   5   2    7.47    1.59
   9   5   2   29.12    2.82
  11   5   2   57.17    4.02
  13   5   2    5.41    2.52
 -10   6   2    0.46    2.43
  -8   6   2   11.35    2.16
  -6   6   2   65.20    3.90
  -4   6   2    3.15    1.41
  -2   6   2    9.53    1.77
   0   6   2    4.01    2.12
   2   6   2   41.60    5.13
   4   6   2    5.18    2.32
   6   6   2   -0.20    1.83
  -8  -6   3   22.95    3.06
  -6  -6   3    4.39    1.19
  -4  -6   3   29.26    3.46
  -2  -6   3    0.45    1.14
   0  -6   3   82.28    5.03
   2  -6   3   10.97    1.63
   4  -6   3   35.39    2.75
 -15  -5   3    6.97    1.95
 -13  -5   3    0.71    0.82
 -11  -5   3   38.91    2.59
  -9  -5   3   88.12    3.32
  -7  -5   3    1.41    0.73
  -5  -5   3    1.50    0.69
  -3  -5   3    6.63    1.06
  -1  -5   3    0.93    0.51
   1  -5   3    3.68    0.66
   3  -5   3    8.00    0.99
   5  -5   3  129.34    4.27
   7  -5   3   23.03    2.25
   9  -5   3   21.93    2.33
  11  -5   3    0.73    1.77
 -18  -4   3   11.71    2.38
 -16  -4   3   12.34    2.20
 -14  -4   3   54.84    2.53
 -12  -4   3  106.44    3.37
 -10  -4   3    1.50    0.61
  -8  -4   3   37.29    1.87
  -6  -4   3   22.04    1.64
  -4  -4   3   65.08    1.85
  -2  -4   3    0.83    0.40
   0  -4   3  171.92    3.33
   2  -4   3   27.37    1.39
   4  -4   3   73.69    2.80
   6  -4   3   -0.16    0.61
   8  -4   3    5.80    1.20
  10  -4   3   28.71    2.44
  12  -4   3    1.98    1.65
  14  -4   3   25.19    3.89
 -21  -3   3    1.02    1.43
 -19  -3   3    7.41    1.93
 -17  -3   3   31.68    3.34
 -15  -3   3   22.24    2.57
 -13  -3   3   -0.33    0.42
 -11  -3   3   77.50    2.52
  -9  -3   3  170.54    3.91
  -7  -3   3    1.35    0.49
  -5  -3   3    4.50    0.54
  -3  -3   3   16.46    0.95
  -1  -3   3    2.69    0.46
   1  -3   3   12.95    1.13
   3  -3   3   20.17    1.49
   5  -3   3  255.40    4.30
   7  -3   3   53.08    1.92
   9  -3   3   42.19    1.95
  11  -3   3    6.85    1.01
  13  -3   3   -0.13    0.71
  15  -3   3   37.60    3.03
  17  -3   3   35.21    4.23
 -22  -2   3   -0.16    1.26
 -20  -2   3   32.42    3.75
 -18  -2   3   27.16    2.18
 -16  -2   3   18.77    2.38
 -14  -2   3   97.73    4.26
 -12  -2   3  169.07    3.71
 -10  -2   3    1.53    0.49
  -8  -2   3   66.87    1.94
  -6  -2   3   43.72    1.06
  -4  -2   3  134.58    2.25
  -2  -2   3    2.69    0.40
   0  -2   3  350.73    4.63
   2  -2   3   54.76    1.50
   4  -2   3  122.83    2.64
   6  -2   3    0.11    0.55
   8  -2   3    7.34    1.14
  10  -2   3   46.05    2.37
  12  -2   3    7.89    1.25
  14  -2   3   40.52    2.83
  16  -2   3    1.79    1.02
  18  -2   3    6.44    1.48
 -23  -1   3   -1.14    1.12
 -21  -1   3    2.68    1.48
 -19  -1   3    6.03    1.15
 -17  -1   3   45.61    2.24
 -15  -1   3   31.91    1.84
 -13  -1   3    0.72    0.61
 -11  -1   3  120.18    2.54
  -9  -1   3  279.04    4.56
  -7  -1   3    2.96    0.41
  -5  -1   3    6.81    0.44
  -3  -1   3   29.11    1.07
  -1  -1   3    4.10    0.55
   1  -1   3   24.79    0.80
   3  -1   3   28.35    1.08
   5  -1   3  391.29    5.66
   7  -1   3   81.78    2.15
   9  -1   3   61.13    1.97
  11  -1   3   10.22    1.34
  13  -1   3    0.71    0.69
  15  -1   3   53.92    2.67
  17  -1   3   39.19    2.73
  19  -1   3   14.63    2.63
 -22   0   3    2.20    1.55
 -20   0   3   24.57    3.05
 -18   0   3   33.81    2.31
 -16   0   3   27.09    1.94
 -14   0   3  129.58    3.43
 -12   0   3  222.32    4.53
 -10   0   3    2.62    0.53
  -8   0   3   89.10    2.77
  -6   0   3   62.91    1.31
   2   0   3   75.63    1.39
   4   0   3  153.44    3.35
   6   0   3    0.01    0.35
   8   0   3   10.85    1.01
  10   0   3   58.50    2.01
  12   0   3   10.46    1.07
  14   0   3   52.78    2.01
  16   0   3    0.97    0.63
  18   0   3    7.46    1.85
  20   0   3   56.34    4.35
 -23   1   3    2.88    1.72
 -21   1   3    1.75    1.50
 -19   1   3    8.92    2.02
 -17   1   3   40.92    3.23
 -15   1   3   27.38    2.95
 -13   1   3    0.35    0.50
 -11   1   3  119.70    2.94
  -9   1   3  281.02    4.88
  -7   1   3    3.59    0.40
  -5   1   3    6.12    0.41
  -3   1   3   25.91    1.21
  -1   1   3    3.31    0.50
   1   1   3   24.54    0.77
   3   1   3   28.35    0.99
   5   1   3  395.03    5.47
   7   1   3   78.21    2.00
   9   1   3   59.72    2.52
  11   1   3    9.48    1.04
  13   1   3   -0.09    0.51
  15   1   3   55.13    2.15
  17   1   3   41.46    2.81
  19   1   3   10.63    1.59
 -22   2   3   -0.90    1.28
 -20   2   3   21.36    3.16
 -18   2   3   28.63    2.40
 -16   2   3   20.37    2.02
 -14   2   3   98.36    3.62
 -12   2   3  170.78    4.74
 -10   2   3    2.38    0.80
  -8   2   3   68.51    2.61
  -6   2   3   42.78    1.91
  -4   2   3  141.68    3.37
  -2   2   3    3.38    0.50
   0   2   3  350.83    4.83
   2   2   3   53.98    1.35
   4   2   3  123.25    2.58
   6   2   3    0.19    0.41
   8   2   3   10.44    0.98
  10   2   3   43.05    2.44
  12   2   3    7.77    1.33
  14   2   3   39.67    2.80
  16   2   3    0.85    0.88
  18   2   3    5.62    1.32
 -21   3   3    0.41    1.69
 -19   3   3    3.70    1.86
 -17   3   3   27.70    2.46
 -15   3   3   18.40    2.01
 -13   3   3   -0.23    0.66
 -11   3   3   73.60    3.15
  -9   3   3  172.92    4.75
  -7   3   3    2.18    0.76
  -5   3   3    2.58    0.81
  -3   3   3   14.28    1.05
  -1   3   3    2.42    0.52
   1   3   3   12.79    0.95
   3   3   3   16.82    1.54
   5   3   3  252.17    4.54
   7   3   3   51.01    1.97
   9   3   3   41.78    1.99
  11   3   3    7.44    1.33
  13   3   3    0.08    0.83
  15   3   3   38.91    2.94
  17   3   3   32.20    2.77
 -18   4   3   17.47    3.46
 -16   4   3   19.57    3.51
 -14   4   3   55.48    3.71
 -12   4   3   94.97    4.07
 -10   4   3    0.75    0.91
  -8   4   3   41.47    1.98
  -6   4   3   23.83    1.57
  -4   4   3   62.10    2.13
  -2   4   3    0.75    0.54
   0   4   3  175.34    3.65
   2   4   3   24.82    2.09
   4   4   3   70.34    2.31
   6   4   3    0.81    0.58
   8   4   3    6.60    1.08
  10   4   3   27.23    2.02
  12   4   3    4.66    1.99
  14   4   3   20.02    3.33
 -13   5   3   -0.35    1.26
 -11   5   3   39.28    3.33
  -9   5   3   96.26    4.23
  -7   5   3    2.84    1.20
  -5   5   3    2.33    0.80
  -3   5   3    6.48    0.98
  -1   5   3    1.93    1.02
   1   5   3    1.19    0.94
   3   5   3    9.45    1.64
   5   5   3  129.56    4.89
   7   5   3   28.16    2.75
   9   5   3   20.05    2.45
  11   5   3    3.39    1.49
  -8   6   3   23.77    2.74
  -6   6   3    7.12    1.81
  -4   6   3   22.36    3.92
  -2   6   3    0.94    1.97
   2   6   3   11.98    3.00
   4   6   3   39.89    3.50
   6   6   3    0.62    1.89
  -6  -6   4   69.15    4.44
  -4  -6   4   10.91    2.15
  -2  -6   4   19.37    2.89
 -13  -5   4    2.07    0.90
 -11  -5   4   23.37    2.06
  -9  -5   4   42.37    2.47
  -7  -5   4    1.35    0.71
  -5  -5   4   39.29    2.30
  -3  -5   4    0.01    0.56
  -1  -5   4   62.91    2.68
   1  -5   4    0.09    0.46
   3  -5   4    1.98    0.73
   5  -5   4    9.54    1.57
   7  -5   4    2.94    1.26
   9  -5   4    0.67    1.26
 -18  -4   4   17.92    2.72
 -16  -4   4    4.91    1.55
 -14  -4   4    8.22    1.72
 -12  -4   4    2.20    0.74
 -10  -4   4    7.44    1.08
  -8  -4   4    1.67    0.64
  -6  -4   4  138.03    3.80
  -4  -4   4   23.05    1.72
  -2  -4   4   52.47    1.73
   0  -4   4   24.38    1.45
   2  -4   4    9.53    0.98
   4  -4   4   19.16    1.80
   6  -4   4   22.72    2.10
   8  -4   4   79.59    3.52
  10  -4   4    9.50    1.56
  12  -4   4   43.46    3.38
 -21  -3   4   53.67    4.88
 -19  -3   4   14.82    2.47
 -17  -3   4   65.36    4.03
 -15  -3   4   16.18    2.19
 -13  -3   4    3.65    0.73
 -11  -3   4   42.88    1.90
  -9  -3   4   82.77    2.56
  -7  -3   4    3.54    0.67
  -5  -3   4   76.81    1.84
  -3  -3   4    0.28    0.32
  -1  -3   4  117.71    2.51
   1  -3   4    0.57    0.51
   3  -3   4    4.81    0.95
   5  -3   4   21.27    1.85
   7  -3   4    3.53    0.81
   9  -3   4    0.89    0.66
  11  -3   4   59.73    2.55
  13  -3   4    5.98    1.15
  15  -3   4   31.61    2.88
 -22  -2   4   43.22    4.54
 -20  -2   4    3.21    1.11
 -18  -2   4   36.06    2.51
 -16  -2   4   10.65    1.72
 -14  -2   4   13.56    1.85
 -12  -2   4    4.88    0.71
 -10  -2   4   12.46    1.03
  -8  -2   4    1.60    0.46
  -6  -2   4  258.47    3.64
  -4  -2   4   39.08    1.16
  -2  -2   4   96.44    2.52
   0  -2   4   40.54    1.38
   2  -2   4   21.37    1.29
   4  -2   4   33.94    2.05
   6  -2   4   43.49    2.43
   8  -2   4  116.72    3.92
  10  -2   4   12.62    1.60
  12  -2   4   72.92    3.23
  14  -2   4    6.97    1.37
  16  -2   4   24.32    2.38
  18  -2   4   -0.59    1.45
 -21  -1   4   70.01    3.21
 -19  -1   4   22.32    2.00
 -17  -1   4   92.15    3.20
 -15  -1   4   34.00    1.89
 -13  -1   4    6.10    1.18
 -11  -1   4   68.34    2.96
  -9  -1   4  121.58    2.58
  -7  -1   4    6.70    0.49
  -5  -1   4  123.19    2.18
  -3  -1   4    0.88    0.82
  -1  -1   4  183.05    3.90
   1  -1   4    1.74    0.36
   3  -1   4    9.70    0.79
   5  -1   4   36.25    1.46
   7  -1   4    6.47    1.08
   9  -1   4    1.36    0.73
  11  -1   4   86.59    3.26
  13  -1   4    8.20    1.29
  15  -1   4   43.74    2.63
  17  -1   4   -0.30    0.79
  19  -1   4   10.73    2.28
 -22   0   4   41.01    4.13
 -20   0   4    7.05    1.93
 -18   0   4   37.38    3.69
 -16   0   4   11.21    1.25
 -14   0   4   20.89    1.56
 -12   0   4    6.82    0.87
 -10   0   4   17.49    1.11
  -8   0   4    3.01    0.37
  -6   0   4  342.41    7.44
   0   0   4   56.14    1.59
   2   0   4   30.15    0.94
   4   0   4   40.65    1.70
   6   0   4   56.16    1.89
   8   0   4  148.07    3.32
  10   0   4   12.96    1.18
  12   0   4   90.43    2.67
  14   0   4    7.51    1.27
  16   0   4   23.08    2.08
  18   0   4   -0.65    1.05
 -23   1   4   25.32    3.60
 -21   1   4   66.82    4.52
 -19   1   4   19.30    2.81
 -17   1   4   96.01    5.05
 -15   1   4   31.42    3.29
 -13   1   4    6.16    1.56
 -11   1   4   70.35    3.97
  -9   1   4  119.39    2.67
  -7   1   4    6.19    0.58
  -5   1   4  121.88    4.73
  -3   1   4    0.68    0.41
  -1   1   4  192.74    3.08
   1   1   4    1.69    0.34
   3   1   4    9.64    0.74
   5   1   4   32.79    1.28
   7   1   4    6.67    1.05
   9   1   4    0.31    0.59
  11   1   4   85.00    2.67
  13   1   4    7.18    0.97
  15   1   4   41.65    2.29
  17   1   4    0.74    0.84
 -22   2   4   34.60    4.18
 -20   2   4    3.72    1.28
 -18   2   4   31.01    2.67
 -16   2   4   11.64    1.67
 -14   2   4   15.79    1.73
 -12   2   4    6.11    1.12
 -10   2   4   14.27    1.53
  -8   2   4    3.44    0.89
  -6   2   4  255.13    5.46
  -4   2   4   39.04    1.76
  -2   2   4   97.31    2.17
   0   2   4   41.26    1.29
   2   2   4   21.48    1.50
   4   2   4   32.48    1.36
   6   2   4   45.76    1.71
   8   2   4  123.14    3.94
  10   2   4   13.55    1.60
  12   2   4   69.45    3.23
  14   2   4    8.58    1.20
  16   2   4   21.46    2.23
 -21   3   4   48.05    4.92
 -19   3   4   15.73    2.07
 -17   3   4   71.16    3.57
 -15   3   4   20.67    2.21
 -13   3   4    2.24    1.07
 -11   3   4   45.94    2.73
  -9   3   4   72.37    3.09
  -7   3   4    3.25    0.92
  -5   3   4   78.27    2.21
  -3   3   4    0.64    0.45
  -1   3   4  121.29    2.71
   1   3   4    2.69    0.73
   3   3   4    5.73    1.06
   5   3   4   21.08    1.43
   7   3   4    2.96    0.72
   9   3   4    2.19    0.90
  11   3   4   63.32    3.20
  13   3   4    7.74    1.58
  15   3   4   31.84    2.82
 -18   4   4   25.55    3.98
 -16   4   4    4.48    1.49
 -14   4   4    4.70    1.46
 -12   4   4    2.16    1.05
 -10   4   4    5.21    1.25
  -8   4   4    0.72    0.60
  -6   4   4  134.38    3.39
  -4   4   4   24.26    1.60
  -2   4   4   53.39    1.96
   0   4   4   20.79    1.88
   2   4   4   12.86    1.56
   4   4   4   21.46    1.54
   6   4   4   19.53    1.61
   8   4   4   71.21    2.75
  10   4   4    8.85    1.62
  12   4   4   50.57    5.11
 -15   5   4    9.13    2.97
 -13   5   4    3.63    1.64
 -11   5   4   24.47    2.70
  -9   5   4   41.02    2.50
  -7   5   4    0.63    0.78
  -5   5   4   41.52    2.35
  -3   5   4    0.65    0.86
  -1   5   4   62.32    3.18
   1   5   4    0.02    0.88
   3   5   4    1.11    0.99
   5   5   4   10.92    1.86
   7   5   4    1.06    1.19
   9   5   4    0.32    1.19
  -8   6   4    1.42    2.03
   0   6   4   14.77    3.00
   2   6   4    7.78    2.58
 -13  -5   5    1.10    0.85
 -11  -5   5   35.52    2.57
  -9  -5   5    4.77    1.08
  -7  -5   5   33.99    2.44
  -5  -5   5   12.65    1.54
  -3  -5   5   20.03    1.84
  -1  -5   5   42.83    2.47
   1  -5   5   60.75    2.31
   3  -5   5    7.44    1.09
   5  -5   5   13.95    1.52
   7  -5   5   19.42    2.46
 -16  -4   5    0.37    0.98
 -14  -4   5   42.29    3.26
 -12  -4   5   20.53    1.76
 -10  -4   5   57.69    2.44
  -8  -4   5    5.36    1.01
  -6  -4   5   15.29    1.49
  -4  -4   5    0.32    0.49
  -2  -4   5    0.25    0.42
   0  -4   5    5.71    0.78
   2  -4   5   65.68    2.81
   4  -4   5    0.05    0.69
   6  -4   5   77.13    3.49
   8  -4   5   21.24    2.34
  10  -4   5    2.20    1.29
  12  -4   5   12.48    2.89
 -19  -3   5    0.86    1.09
 -17  -3   5    2.60    1.19
 -15  -3   5   98.67    4.73
 -13  -3   5    1.38    0.79
 -11  -3   5   54.60    2.16
  -9  -3   5    9.81    1.08
  -7  -3   5   71.50    2.43
  -5  -3   5   27.68    1.63
  -3  -3   5   44.10    1.49
  -1  -3   5   91.43    2.87
   1  -3   5  122.21    3.63
   3  -3   5   13.95    1.56
   5  -3   5   22.00    2.06
   7  -3   5   36.64    2.73
   9  -3   5    1.77    1.02
  11  -3   5    2.83    1.21
  13  -3   5    4.21    1.39
 -22  -2   5    9.74    1.68
 -20  -2   5   20.29    2.06
 -18  -2   5   22.49    2.71
 -16  -2   5    1.87    0.96
 -14  -2   5   63.80    3.37
 -12  -2   5   22.76    2.24
 -10  -2   5   93.63    2.58
  -8  -2   5   16.29    1.20
  -6  -2   5   34.28    1.48
  -4  -2   5    2.35    0.44
  -2  -2   5    1.67    0.58
   0  -2   5   10.50    1.18
   2  -2   5   98.59    3.29
   4  -2   5    0.20    0.63
   6  -2   5  132.58    4.16
   8  -2   5   33.45    2.49
  10  -2   5    6.83    1.31
  12  -2   5   19.75    2.06
  14  -2   5   44.73    3.05
  16  -2   5    0.50    1.00
 -23  -1   5   10.18    2.57
 -21  -1   5    9.96    2.29
 -19  -1   5    1.91    0.83
 -17  -1   5    5.32    0.99
 -15  -1   5  149.09    5.20
 -13  -1   5    0.77    0.64
 -11  -1   5   81.43    3.28
  -9  -1   5   16.80    0.98
  -7  -1   5  103.11    2.08
  -5  -1   5   44.20    1.36
  -3  -1   5   63.76    2.03
  -1  -1   5  147.33    2.66
   1  -1   5  189.72    3.32
   3  -1   5   25.10    1.95
   5  -1   5   30.33    2.21
   7  -1   5   53.51    2.55
   9  -1   5    4.08    1.02
  11  -1   5    5.25    1.08
  13  -1   5    8.37    1.37
  15  -1   5   42.57    4.10
  17  -1   5   27.42    3.38
 -24   0   5   18.49    3.25
 -22   0   5    8.94    2.24
 -20   0   5   30.78    3.67
 -18   0   5   25.26    3.24
 -16   0   5    2.63    1.33
 -14   0   5   76.02    2.55
 -12   0   5   32.21    1.64
 -10   0   5  119.71    3.02
  -8   0   5   20.09    1.32
  -6   0   5   40.20    1.87
   0   0   5   15.74    0.78
   2   0   5  124.24    2.30
   4   0   5   -0.30    0.46
   6   0   5  146.97    3.36
   8   0   5   43.11    1.91
  10   0   5    4.57    1.10
  12   0   5   24.73    2.17
  14   0   5   35.45    2.60
  16   0   5    1.87    0.95
 -23   1   5    6.24    2.19
 -21   1   5    9.76    2.47
 -19   1   5    0.51    1.22
 -17   1   5    5.42    1.74
 -15   1   5  149.38    6.57
 -13   1   5    2.52    1.29
 -11   1   5   88.02    4.79
  -9   1   5   16.32    2.42
  -7   1   5  103.50    2.47
  -5   1   5   49.72    2.13
  -3   1   5   60.98    2.20
  -1   1   5  150.12    2.73
   1   1   5  192.27    3.92
   3   1   5   21.83    1.12
   5   1   5   28.92    1.97
   7   1   5   52.74    2.46
   9   1   5    3.72    0.95
  11   1   5    5.37    0.95
  13   1   5   13.32    1.42
  15   1   5   34.90    2.70
 -22   2   5    8.10    1.64
 -20   2   5   19.63    2.39
 -18   2   5   25.03    2.54
 -16   2   5    2.62    1.07
 -14   2   5   63.97    3.15
 -12   2   5   28.31    2.37
 -10   2   5   94.53    3.51
  -8   2   5   13.92    1.56
  -6   2   5   29.47    1.86
  -4   2   5    1.81    0.66
  -2   2   5    0.07    0.39
   0   2   5   12.10    1.18
   2   2   5  106.68    3.10
   4   2   5   -0.29    0.36
   6   2   5  126.45    3.96
   8   2   5   39.10    2.69
  10   2   5    7.40    1.36
  12   2   5   23.46    2.31
  14   2   5   38.92    2.42
  16   2   5    2.52    1.65
 -19   3   5    1.48    1.24
 -17   3   5    1.47    1.19
 -15   3   5  101.53    4.36
 -13   3   5    1.44    1.01
 -11   3   5   56.98    2.97
  -9   3   5   10.90    1.56
  -7   3   5   66.32    2.88
  -5   3   5   23.62    1.47
  -3   3   5   38.44    1.57
  -1   3   5   91.63    3.10
   1   3   5  128.92    3.79
   3   3   5   13.00    1.16
   5   3   5   22.89    1.57
   7   3   5   39.41    2.75
   9   3   5    3.10    1.16
  11   3   5    2.90    1.19
  13   3   5    6.82    1.62
 -18   4   5    7.93    2.76
 -16   4   5    0.78    1.31
 -14   4   5   40.24    3.35
 -12   4   5   15.08    2.05
 -10   4   5   47.70    3.27
  -8   4   5    7.65    1.09
  -6   4   5   14.98    1.39
  -4   4   5    0.89    0.70
  -2   4   5    0.91    0.69
   0   4   5    4.88    1.09
   2   4   5   64.74    3.05
   4   4   5   -0.21    0.54
   6   4   5   78.66    2.87
   8   4   5   17.75    2.12
  10   4   5    0.58    1.07
  12   4   5   12.78    2.86
 -13   5   5    0.88    1.51
 -11   5   5   33.11    2.38
  -9   5   5    6.73    1.25
  -7   5   5   29.86    2.14
  -5   5   5   13.37    1.81
  -3   5   5   20.59    2.14
  -1   5   5   44.15    3.16
   1   5   5   65.32    3.47
   3   5   5    7.13    1.19
   5   5   5   12.05    1.98
   7   5   5   24.55    3.84
 -11  -5   6    6.81    1.89
  -9  -5   6   27.97    2.31
  -7  -5   6   37.36    2.62
  -5  -5   6   38.86    2.66
  -3  -5   6    1.90    0.86
  -1  -5   6    1.79    0.84
   1  -5   6   47.99    2.86
   3  -5   6    2.79    0.95
 -16  -4   6   20.68    2.85
 -14  -4   6    5.65    1.54
 -12  -4   6   53.08    3.62
 -10  -4   6    2.75    0.83
  -8  -4   6   14.47    1.54
  -6  -4   6   26.56    2.01
  -4  -4   6  109.21    3.61
  -2  -4   6    8.68    1.25
   0  -4   6    0.70    0.53
   2  -4   6   34.95    2.55
   4  -4   6   13.05    1.81
   6  -4   6    1.24    1.15
   8  -4   6    8.48    1.85
 -19  -3   6    3.64    1.47
 -17  -3   6    0.14    0.91
 -15  -3   6    2.99    1.21
 -13  -3   6   34.08    3.17
 -11  -3   6   11.11    1.19
  -9  -3   6   45.21    2.03
  -7  -3   6   62.01    2.40
  -5  -3   6   73.91    2.63
  -3  -3   6    3.76    0.65
  -1  -3   6    3.97    0.87
   1  -3   6   91.06    3.35
   3  -3   6    2.43    0.95
   5  -3   6   45.28    3.10
   7  -3   6    0.99    0.94
   9  -3   6   95.95    4.23
  11  -3   6    9.31    1.76
 -22  -2   6    0.11    1.04
 -20  -2   6  101.21    3.91
 -18  -2   6   30.30    3.05
 -16  -2   6   37.43    2.80
 -14  -2   6   12.09    1.86
 -12  -2   6   87.02    3.91
 -10  -2   6    4.40    0.75
  -8  -2   6   24.82    1.44
  -6  -2   6   46.38    1.87
  -4  -2   6  186.99    4.29
  -2  -2   6   14.90    1.41
   0  -2   6    1.30    0.64
   2  -2   6   51.80    3.80
   4  -2   6   21.41    1.91
   6  -2   6    2.03    0.91
   8  -2   6   13.45    1.72
  10  -2   6   41.06    2.91
  12  -2   6   21.58    2.19
  14  -2   6    1.12    1.49
 -23  -1   6    4.51    2.29
 -21  -1   6   57.08    5.20
 -19  -1   6    5.20    1.89
 -17  -1   6    0.56    0.67
 -15  -1   6    3.63    1.08
 -13  -1   6   57.12    2.94
 -11  -1   6   16.43    1.84
  -9  -1   6   66.08    2.03
  -7  -1   6   91.22    2.48
  -5  -1   6  113.64    5.11
  -3  -1   6    3.89    0.76
  -1  -1   6    3.50    0.84
   1  -1   6  133.17    3.93
   3  -1   6    3.22    0.88
   5  -1   6   69.40    2.99
   7  -1   6    0.65    0.76
   9  -1   6  135.25    4.40
  11  -1   6   14.00    1.74
  13  -1   6   28.12    2.42
  15  -1   6   14.21    1.85
 -22   0   6   -0.69    1.34
 -20   0   6  117.76    6.45
 -18   0   6   25.16    3.38
 -16   0   6   40.72    4.13
 -14   0   6   12.99    2.30
 -12   0   6  109.10    3.11
 -10   0   6    7.31    1.09
  -8   0   6   31.20    1.83
   0   0   6    0.30    0.31
   2   0   6   73.06    2.43
   4   0   6   22.95    1.49
   6   0   6    0.23    0.63
   8   0   6   11.57    1.59
  10   0   6   49.12    2.87
  12   0   6   27.56    2.39
  14   0   6    3.96    1.22
 -21   1   6   51.30    5.05
 -19   1   6    2.92    1.67
 -17   1   6    1.28    1.42
 -15   1   6    4.38    1.72
 -13   1   6   57.96    4.34
 -11   1   6   12.50    2.40
  -9   1   6   65.53    4.40
  -7   1   6   81.03    4.80
  -5   1   6  112.93    3.46
  -3   1   6    6.10    0.73
  -1   1   6    5.13    0.77
   1   1   6  131.33    2.73
   3   1   6    5.48    0.93
   5   1   6   64.81    2.75
   7   1   6   -0.01    0.72
   9   1   6  136.67    3.69
  11   1   6   13.95    1.47
  13   1   6   26.50    2.45
  15   1   6   18.81    3.03
 -22   2   6    0.11    1.75
 -20   2   6   92.32    4.42
 -18   2   6   19.95    2.38
 -16   2   6   34.16    2.94
 -14   2   6   12.93    1.85
 -12   2   6   73.85    3.43
 -10   2   6    4.55    1.18
  -8   2   6   25.59    2.18
  -6   2   6   47.93    2.33
  -4   2   6  187.15    3.64
  -2   2   6   13.82    1.28
   0   2   6    0.73    0.57
   2   2   6   56.69    1.91
   4   2   6   20.27    1.78
   6   2   6    0.36    0.63
   8   2   6   13.09    1.71
  10   2   6   36.62    2.89
  12   2   6   23.17    2.00
  14   2   6    4.16    1.49
 -19   3   6    4.77    1.70
 -17   3   6   -1.00    1.18
 -15   3   6    1.30    1.20
 -13   3   6   32.42    2.92
 -11   3   6   10.66    1.61
  -9   3   6   40.25    2.87
  -7   3   6   60.18    2.84
  -5   3   6   79.17    2.39
  -3   3   6    1.92    0.74
  -1   3   6    1.93    0.77
   1   3   6   83.38    3.15
   3   3   6    4.03    0.81
   5   3   6   48.63    2.78
   7   3   6   -0.98    0.74
   9   3   6   96.75    4.26
  11   3   6   10.34    1.84
 -16   4   6   16.84    2.58
 -14   4   6   11.84    2.15
 -12   4   6   50.46    3.70
 -10   4   6    4.16    0.96
  -8   4   6   20.16    1.65
  -6   4   6   24.64    2.20
  -4   4   6  107.74    3.97
  -2   4   6    8.08    1.34
   0   4   6    0.66    0.77
   2   4   6   31.71    2.01
   4   4   6   11.81    1.35
   6   4   6   -0.19    0.84
   8   4   6    6.11    1.57
 -11   5   6    5.04    1.27
  -9   5   6   24.17    2.50
  -7   5   6   33.34    2.88
  -5   5   6   36.55    2.96
  -3   5   6    0.94    1.07
  -1   5   6    0.86    1.11
   1   5   6   43.52    2.58
   3   5   6    0.92    0.84
   5   5   6   27.75    3.70
  -7  -5   7    1.44    1.42
 -14  -4   7   25.65    3.23
 -12  -4   7   12.14    2.24
 -10  -4   7   63.90    2.85
  -8  -4   7   11.98    1.45
  -6  -4   7   14.12    1.57
  -4  -4   7   13.60    1.58
  -2  -4   7   27.72    2.20
   0  -4   7   32.13    2.43
   2  -4   7   18.97    2.15
   4  -4   7   56.06    3.45
   6  -4   7    1.74    2.04
 -19  -3   7    0.22    0.99
 -17  -3   7   69.51    4.24
 -15  -3   7   13.50    2.25
 -13  -3   7   59.46    3.74
 -11  -3   7    2.30    1.10
  -9  -3   7    1.99    0.68
  -7  -3   7    4.40    0.86
  -5  -3   7    0.00    0.51
  -3  -3   7    1.71    0.71
  -1  -3   7   65.05    2.89
   1  -3   7    1.54    0.87
   3  -3   7   33.78    2.73
   5  -3   7    5.12    1.34
   7  -3   7   27.81    2.70
   9  -3   7    3.43    1.36
 -20  -2   7    1.27    1.00
 -18  -2   7   26.30    3.02
 -16  -2   7    6.93    1.59
 -14  -2   7   35.80    2.70
 -12  -2   7   14.80    2.05
 -10  -2   7  103.18    4.48
  -8  -2   7   20.55    1.50
  -6  -2   7   20.26    1.58
  -4  -2   7   24.31    1.84
  -2  -2   7   44.88    2.41
   0  -2   7   49.92    2.63
   2  -2   7   26.39    3.36
   4  -2   7   89.03    5.29
   6  -2   7    3.11    1.68
   8  -2   7    3.03    1.65
  10  -2   7   -0.50    1.18
 -21  -1   7    4.40    2.14
 -19  -1   7   -0.04    1.33
 -17  -1   7   82.84    5.21
 -15  -1   7   18.69    2.19
 -13  -1   7   84.28    3.77
 -11  -1   7    4.63    1.15
  -9  -1   7    0.68    0.59
  -7  -1   7    7.59    0.91
  -5  -1   7    0.54    1.21
  -3  -1   7    3.20    0.75
  -1  -1   7   88.99    3.23
   1  -1   7    2.56    0.91
   3  -1   7   47.80    2.76
   5  -1   7    6.81    1.30
   7  -1   7   39.48    2.82
   9  -1   7    6.39    1.29
  11  -1   7   12.39    1.73
  13  -1   7    4.71    1.72
 -22   0   7   -0.36    1.50
 -20   0   7    3.22    1.82
 -18   0   7   27.12    3.67
 -16   0   7    2.94    1.60
 -14   0   7   47.42    4.52
 -12   0   7   15.39    2.65
 -10   0   7  119.11    6.05
  -8   0   7   26.92    1.87
  -2   0   7   58.00    2.09
   0   0   7   63.50    2.28
   2   0   7   36.49    2.29
   4   0   7  103.37    3.79
   6   0   7    3.08    1.01
   8   0   7    4.01    1.10
  10   0   7    0.51    0.84
  12   0   7   16.06    1.96
 -21   1   7    7.38    2.45
 -19   1   7   -0.53    1.38
 -17   1   7   77.59    5.42
 -15   1   7   20.70    3.36
 -13   1   7   85.05    5.57
 -11   1   7    5.31    1.98
  -9   1   7    1.05    1.37
  -7   1   7    7.67    1.23
  -5   1   7    0.33    0.59
  -3   1   7    2.43    0.68
  -1   1   7   97.35    2.89
   1   1   7    2.11    0.72
   3   1   7   50.25    2.43
   5   1   7    4.82    1.06
   7   1   7   34.32    2.21
   9   1   7    5.83    1.40
  11   1   7   13.62    1.98
  13   1   7    3.73    1.83
 -20   2   7    2.13    1.45
 -18   2   7   25.95    2.83
 -16   2   7    3.19    1.36
 -14   2   7   36.59    3.08
 -12   2   7   14.47    1.90
 -10   2   7   97.03    3.99
  -8   2   7   16.64    1.86
  -6   2   7   24.56    1.97
  -4   2   7   24.17    2.66
  -2   2   7   46.34    2.17
   0   2   7   51.17    2.30
   2   2   7   28.46    2.14
   4   2   7   95.04    3.64
   6   2   7    1.43    0.94
   8   2   7    3.93    1.29
  10   2   7    1.39    1.09
  12   2   7   21.35    3.52
 -17   3   7   62.14    4.50
 -15   3   7   11.48    2.11
 -13   3   7   60.69    4.10
 -11   3   7    3.73    1.31
  -9   3   7    1.05    1.01
  -7   3   7    5.85    1.14
  -5   3   7   -0.83    0.52
  -3   3   7    2.00    0.81
  -1   3   7   65.31    2.91
   1   3   7    1.94    0.68
   3   3   7   37.61    2.73
   5   3   7    2.85    1.07
   7   3   7   25.74    2.56
   9   3   7    3.81    1.37
 -14   4   7   29.97    3.18
 -12   4   7   10.93    1.95
 -10   4   7   63.90    3.24
  -8   4   7    9.56    1.57
  -6   4   7   14.61    1.80
  -4   4   7   19.17    2.04
  -2   4   7   25.94    2.36
   0   4   7   30.81    2.62
   2   4   7   20.07    1.76
   4   4   7   57.69    3.21
   6   4   7    0.81    1.31
 -10  -4   8   59.42    4.17
  -8  -4   8   10.22    1.49
  -6  -4   8    9.61    1.42
  -4  -4   8   10.20    1.48
  -2  -4   8   23.97    2.18
   0  -4   8    8.29    1.43
 -17  -3   8    0.69    1.14
 -15  -3   8   14.65    2.38
 -13  -3   8   -0.80    0.75
 -11  -3   8   32.88    3.46
  -9  -3   8    7.70    1.22
  -7  -3   8   52.62    2.43
  -5  -3   8   73.94    2.95
  -3  -3   8    8.27    1.26
  -1  -3   8   11.26    2.22
   1  -3   8    2.99    1.17
   3  -3   8    7.99    1.58
   5  -3   8   17.15    2.21
 -16  -2   8    5.27    1.52
 -14  -2   8    0.48    0.87
 -12  -2   8    0.26    0.80
 -10  -2   8   95.83    4.47
  -8  -2   8   18.25    1.57
  -6  -2   8   12.17    1.33
  -4  -2   8   17.12    2.30
  -2  -2   8   37.35    2.59
   0  -2   8   13.39    1.65
   2  -2   8    2.18    1.56
   4  -2   8    4.60    1.94
   6  -2   8   85.25    5.47
   8  -2   8    1.10    1.59
 -19  -1   8   75.92    5.50
 -17  -1   8    1.93    1.50
 -15  -1   8   15.93    2.88
 -13  -1   8   -0.63    0.65
 -11  -1   8   47.35    2.91
  -9  -1   8   10.73    1.64
  -7  -1   8   75.42    2.57
  -5  -1   8  120.56    5.86
  -3  -1   8   12.41    2.32
  -1  -1   8   22.78    3.13
   1  -1   8    3.23    1.59
   3  -1   8   12.10    1.65
   5  -1   8   21.13    2.15
   7  -1   8   23.90    2.30
   9  -1   8   -0.46    0.88
 -20   0   8    1.87    1.83
 -18   0   8    0.99    1.73
 -16   0   8    4.08    1.96
 -14   0   8   -0.74    1.15
 -12   0   8    0.75    1.32
 -10   0   8  108.97    6.06
  -8   0   8   18.33    2.95
  -4   0   8   25.81    1.74
  -2   0   8   51.11    3.20
   0   0   8   13.09    1.63
   2   0   8    1.57    0.90
   4   0   8    8.33    1.46
   6   0   8   92.44    3.96
   8   0   8    2.46    1.18
  10   0   8   62.72    3.31
 -19   1   8   86.98    6.14
 -17   1   8    4.67    2.03
 -15   1   8   20.27    3.55
 -13   1   8    0.57    1.63
 -11   1   8   45.35    2.89
  -9   1   8   11.06    1.57
  -7   1   8   75.57    3.17
  -5   1   8  116.74    5.11
  -3   1   8   10.92    1.79
  -1   1   8   21.82    1.74
   1   1   8    4.55    1.00
   3   1   8   12.81    1.60
   5   1   8   18.88    3.01
   7   1   8   17.45    2.20
   9   1   8   -0.03    1.08
 -18   2   8    0.42    1.35
 -16   2   8    4.33    1.53
 -14   2   8   -0.15    1.00
 -12   2   8    0.19    1.06
 -10   2   8   92.37    3.96
  -8   2   8   13.92    2.28
  -6   2   8   12.57    1.47
  -4   2   8   20.99    1.80
  -2   2   8   40.61    2.34
   0   2   8   12.71    1.54
   2   2   8    0.59    0.74
   4   2   8    6.76    1.43
   6   2   8   87.39    4.00
   8   2   8    1.30    1.16
 -15   3   8   15.83    2.48
 -13   3   8   -0.66    1.06
 -11   3   8   35.81    3.11
  -9   3   8    7.80    1.39
  -7   3   8   48.87    2.83
  -5   3   8   84.47    4.82
  -3   3   8    7.84    1.36
  -1   3   8   15.39    2.60
   1   3   8    2.82    0.94
   3   3   8    7.02    1.43
   5   3   8   17.22    2.22
 -10   4   8   53.40    3.28
  -8   4   8   10.68    1.68
  -6   4   8    6.49    1.49
  -4   4   8    8.28    1.56
  -2   4   8   23.42    2.36
   0   4   8    9.55    1.56
 -13  -3   9   51.93    3.83
 -11  -3   9   32.63    3.52
  -9  -3   9    0.69    1.02
  -7  -3   9   18.39    1.83
  -5  -3   9   29.64    2.31
  -3  -3   9   10.68    1.52
  -1  -3   9    6.34    1.94
   1  -3   9   90.15    5.78
   3  -3   9    6.41    2.26
 -14  -2   9    0.54    1.00
 -12  -2   9    1.31    1.12
 -10  -2   9    5.31    1.48
  -8  -2   9    0.27    0.89
  -6  -2   9    7.02    1.17
  -4  -2   9   28.98    2.22
  -2  -2   9   44.58    3.54
   0  -2   9   42.64    3.03
   2  -2   9    3.26    1.20
   4  -2   9   11.44    2.66
 -17  -1   9    0.54    1.67
 -15  -1   9   20.21    3.42
  -9  -1   9    1.37    0.92
  -7  -1   9   28.07    2.75
  -3  -1   9   12.02    2.52
  -1  -1   9    8.48    2.24
   1  -1   9  124.60    6.39
   3  -1   9    5.90    2.03
   5  -1   9    7.48    2.20
 -18   0   9    0.92    1.78
 -16   0   9  123.92    7.36
 -14   0   9    0.21    1.56
 -12   0   9    0.47    1.67
 -10   0   9    3.33    1.90
  -8   0   9    0.32    1.52
  -4   0   9   38.81    3.01
  -2   0   9   54.83    3.06
   0   0   9   52.65    3.10
   2   0   9    8.09    1.54
   4   0   9   16.01    2.10
   6   0   9    7.92    1.60
 -17   1   9    0.47    1.28
 -15   1   9   14.82    2.21
 -13   1   9   60.50    3.69
 -11   1   9   44.38    2.94
  -9   1   9    2.50    1.34
  -7   1   9   26.86    3.10
  -5   1   9   45.53    3.19
  -3   1   9   16.34    1.66
  -1   1   9    9.51    1.39
   3   1   9    3.88    1.75
   5   1   9    6.60    1.63
 -16   2   9  105.50    5.14
 -14   2   9    2.14    1.37
 -12   2   9    1.90    1.20
 -10   2   9    3.00    1.52
  -8   2   9    1.42    0.83
  -6   2   9    7.36    1.29
  -4   2   9   29.46    3.27
  -2   2   9   44.81    2.53
   0   2   9   46.62    2.84
   2   2   9    5.35    1.31
   4   2   9   14.12    2.01
 -11   3   9   32.54    2.70
  -9   3   9    0.80    0.94
  -7   3   9   17.34    1.99
  -5   3   9   34.06    2.69
  -3   3   9   10.71    2.36
  -1   3   9    6.46    1.29
   1   3   9   89.98    5.84
 -12  -2  10    9.85    2.11
 -10  -2  10   59.18    3.88
  -8  -2  10   65.97    4.13
  -6  -2  10    1.54    1.21
  -4  -2  10   -0.10    0.68
  -2  -2  10    0.45    1.26
 -15  -1  10    1.27    1.93
 -13  -1  10   51.08    5.45
  -5  -1  10   40.11    2.38
  -1  -1  10    2.10    1.82
   1  -1  10    2.28    1.71
 -14   0  10    7.35    2.81
 -12   0  10   11.63    2.93
 -10   0  10   62.86    4.37
  -4   0  10   -0.48    1.70
  -2   0  10    2.37    1.82
   0   0  10    6.50    2.38
   2   0  10    6.62    1.58
   4   0  10   56.27    5.56
 -15   1  10    1.40    1.28
 -13   1  10   47.32    3.63
 -11   1  10    2.00    1.55
  -9   1  10   13.30    1.68
  -7   1  10    3.69    1.54
  -5   1  10   39.20    2.68
  -3   1  10    1.43    1.22
  -1   1  10    2.47    1.41
   1   1  10    0.96    1.23
 -12   2  10    7.14    2.16
 -10   2  10   65.35    3.23
  -8   2  10   70.63    3.32
  -6   2  10    4.20    1.77
  -4   2  10    1.84    0.96
  -2   2  10    1.39    0.97
   0   2  10    8.13    2.36
   0   0   0    0.00    0.00
;
_shelx_hkl_checksum              17404
#END Tags that were not found in dictionaries
loop_
_space_group_symop_operation_xyz
'x, y, z'
'-x, y, -z'
'x+1/2, y+1/2, z'
'-x+1/2, y+1/2, -z'
'-x, -y, -z'
'x, -y, z'
'-x+1/2, -y+1/2, -z'
'x+1/2, -y+1/2, z'
loop_
_atom_site_label
_atom_site_type_symbol
_atom_site_fract_x
_atom_site_fract_y
_atom_site_fract_z
_atom_site_U_iso_or_equiv
_atom_site_adp_type
_atom_site_occupancy
_atom_site_site_symmetry_order
_atom_site_calc_flag
_atom_site_refinement_flags_posn
_atom_site_refinement_flags_adp
_atom_site_refinement_flags_occupancy
Pr1 Pr 0.34777(2) 0.0000 0.06093(4) 0.00669(8) Uani 1 2 d S T P
Pr2 Pr 0.58812(2) 0.0000 0.37653(4) 0.00636(8) Uani 1 2 d S T P
Fe Fe 0.21719(5) 0.0000 0.62709(11) 0.00670(16) Uani 1 2 d S T P
In In 0.0000 0.0000 0.0000 0.00862(17) Uani 0.974(3) 4 d S T .
Ge1 Ge 0.06585(4) 0.0000 0.65361(8) 0.00653(12) Uani 1 2 d S T P
Ge2 Ge 0.21072(4) 0.0000 0.27811(9) 0.00749(13) Uani 1 2 d S T P
loop_
_atom_site_aniso_label
_atom_site_aniso_U_11
_atom_site_aniso_U_22
_atom_site_aniso_U_33
_atom_site_aniso_U_23
_atom_site_aniso_U_13
_atom_site_aniso_U_12
Pr1 0.00690(15) 0.00668(14) 0.00621(14) 0.000 0.00149(10) 0.000
Pr2 0.00621(15) 0.00592(14) 0.00741(14) 0.000 0.00268(10) 0.000
Fe 0.0063(4) 0.0059(4) 0.0078(4) 0.000 0.0018(3) 0.000
In 0.0095(3) 0.0077(3) 0.0092(3) 0.000 0.0037(2) 0.000
Ge1 0.0065(3) 0.0062(3) 0.0069(3) 0.000 0.0018(2) 0.000
Ge2 0.0097(3) 0.0052(3) 0.0084(3) 0.000 0.0039(2) 0.000
loop_
_atom_type_symbol
_atom_type_description
_atom_type_scat_dispersion_real
_atom_type_scat_dispersion_imag
_atom_type_scat_source
Fe Fe 0.3463 0.8444 'International Tables Vol C Tables 4.2.6.8 and 6.1.1.4'
Ge Ge 0.1547 1.8001 'International Tables Vol C Tables 4.2.6.8 and 6.1.1.4'
In In -0.7276 1.3100 'International Tables Vol C Tables 4.2.6.8 and 6.1.1.4'
Pr Pr -0.2180 2.8214 'International Tables Vol C Tables 4.2.6.8 and 6.1.1.4'
loop_
_geom_angle_atom_site_label_1
_geom_angle_atom_site_label_2
_geom_angle_atom_site_label_3
_geom_angle
_geom_angle_site_symmetry_1
_geom_angle_site_symmetry_3
Ge1 Pr1 Ge1 91.007(18) 7_556 7_546
Ge1 Pr1 Ge2 84.474(16) 7_556 .
Ge1 Pr1 Ge2 84.474(16) 7_546 .
Ge1 Pr1 Ge2 168.021(19) 7_556 7_545
Ge1 Pr1 Ge2 90.781(12) 7_546 7_545
Ge2 Pr1 Ge2 107.489(14) . 7_545
Ge1 Pr1 Ge2 90.781(12) 7_556 7
Ge1 Pr1 Ge2 168.021(19) 7_546 7
Ge2 Pr1 Ge2 107.489(14) . 7
Ge2 Pr1 Ge2 85.088(17) 7_545 7
Ge1 Pr1 Fe 134.496(9) 7_556 1_554
Ge1 Pr1 Fe 134.496(9) 7_546 1_554
Ge2 Pr1 Fe 98.08(2) . 1_554
Ge2 Pr1 Fe 44.907(10) 7_545 1_554
Ge2 Pr1 Fe 44.907(10) 7 1_554
Ge1 Pr1 In 55.170(12) 7_556 3
Ge1 Pr1 In 109.946(15) 7_546 3
Ge2 Pr1 In 136.172(7) . 3
Ge2 Pr1 In 113.224(13) 7_545 3
Ge2 Pr1 In 61.936(11) 7 3
Fe Pr1 In 99.301(13) 1_554 3
Ge1 Pr1 In 109.946(15) 7_556 3_545
Ge1 Pr1 In 55.170(12) 7_546 3_545
Ge2 Pr1 In 136.172(7) . 3_545
Ge2 Pr1 In 61.936(11) 7_545 3_545
Ge2 Pr1 In 113.224(13) 7 3_545
Fe Pr1 In 99.301(13) 1_554 3_545
In Pr1 In 79.506(9) 3 3_545
Ge1 Pr1 Fe 44.074(17) 7_556 7_556
Ge1 Pr1 Fe 99.470(17) 7_546 7_556
Ge2 Pr1 Fe 43.393(12) . 7_556
Ge2 Pr1 Fe 146.87(2) 7_545 7_556
Ge2 Pr1 Fe 90.026(14) 7 7_556
Fe Pr1 Fe 113.415(16) 1_554 7_556
In Pr1 Fe 92.820(11) 3 7_556
In Pr1 Fe 147.224(16) 3_545 7_556
Ge1 Pr1 Fe 99.470(17) 7_556 7_546
Ge1 Pr1 Fe 44.074(17) 7_546 7_546
Ge2 Pr1 Fe 43.393(12) . 7_546
Ge2 Pr1 Fe 90.026(14) 7_545 7_546
Ge2 Pr1 Fe 146.87(2) 7 7_546
Fe Pr1 Fe 113.415(16) 1_554 7_546
In Pr1 Fe 147.224(16) 3 7_546
In Pr1 Fe 92.820(11) 3_545 7_546
Fe Pr1 Fe 76.477(18) 7_556 7_546
Ge1 Pr1 Pr2 114.093(14) 7_556 5_655
Ge1 Pr1 Pr2 114.093(14) 7_546 5_655
Ge2 Pr1 Pr2 152.274(17) . 5_655
Ge2 Pr1 Pr2 54.621(11) 7_545 5_655
Ge2 Pr1 Pr2 54.621(11) 7 5_655
Fe Pr1 Pr2 54.189(17) 1_554 5_655
In Pr1 Pr2 59.005(6) 3 5_655
In Pr1 Pr2 59.005(6) 3_545 5_655
Fe Pr1 Pr2 141.438(9) 7_556 5_655
Fe Pr1 Pr2 141.438(9) 7_546 5_655
Ge1 Pr1 Pr1 140.113(18) 7_556 7_545
Ge1 Pr1 Pr1 86.123(12) 7_546 7_545
Ge2 Pr1 Pr1 55.643(12) . 7_545
Ge2 Pr1 Pr1 51.846(12) 7_545 7_545
Ge2 Pr1 Pr1 100.002(15) 7 7_545
Fe Pr1 Pr1 60.193(14) 1_554 7_545
In Pr1 Pr1 159.407(14) 3 7_545
In Pr1 Pr1 100.812(7) 3_545 7_545
Fe Pr1 Pr1 97.224(16) 7_556 7_545
Fe Pr1 Pr1 53.222(14) 7_546 7_545
Pr2 Pr1 Pr1 103.219(12) 5_655 7_545
Ge1 Pr2 Ge1 90.755(18) 3 3_545
Ge1 Pr2 Fe 108.291(17) 3 5_656
Ge1 Pr2 Fe 108.291(17) 3_545 5_656
Ge1 Pr2 Ge2 81.946(13) 3 3
Ge1 Pr2 Ge2 147.23(2) 3_545 3
Fe Pr2 Ge2 46.124(11) 5_656 3
Ge1 Pr2 Ge2 147.23(2) 3 3_545
Ge1 Pr2 Ge2 81.946(13) 3_545 3_545
Fe Pr2 Ge2 46.124(11) 5_656 3_545
Ge2 Pr2 Ge2 87.123(17) 3 3_545
Ge1 Pr2 Fe 47.136(18) 3 3
Ge1 Pr2 Fe 106.891(19) 3_545 3
Fe Pr2 Fe 61.218(19) 5_656 3
Ge2 Pr2 Fe 46.583(18) 3 3
Ge2 Pr2 Fe 104.635(19) 3_545 3
Ge1 Pr2 Fe 106.891(19) 3 3_545
Ge1 Pr2 Fe 47.136(18) 3_545 3_545
Fe Pr2 Fe 61.218(19) 5_656 3_545
Ge2 Pr2 Fe 104.635(19) 3 3_545
Ge2 Pr2 Fe 46.583(18) 3_545 3_545
Fe Pr2 Fe 86.00(2) 3 3_545
Ge1 Pr2 Ge1 106.666(12) 3 7_546
Ge1 Pr2 Ge1 48.42(2) 3_545 7_546
Fe Pr2 Ge1 137.828(9) 5_656 7_546
Ge2 Pr2 Ge1 163.522(18) 3 7_546
Ge2 Pr2 Ge1 92.218(12) 3_545 7_546
Fe Pr2 Ge1 148.308(19) 3 7_546
Fe Pr2 Ge1 86.571(15) 3_545 7_546
Ge1 Pr2 Ge1 48.42(2) 3 7_556
Ge1 Pr2 Ge1 106.666(12) 3_545 7_556
Fe Pr2 Ge1 137.828(9) 5_656 7_556
Ge2 Pr2 Ge1 92.218(12) 3 7_556
Ge2 Pr2 Ge1 163.522(18) 3_545 7_556
Fe Pr2 Ge1 86.571(15) 3 7_556
Fe Pr2 Ge1 148.308(19) 3_545 7_556
Ge1 Pr2 Ge1 83.776(17) 7_546 7_556
Ge1 Pr2 In 150.338(16) 3 3_545
Ge1 Pr2 In 88.545(11) 3_545 3_545
Fe Pr2 In 100.038(14) 5_656 3_545
Ge2 Pr2 In 113.170(14) 3 3_545
Ge2 Pr2 In 61.805(12) 3_545 3_545
Fe Pr2 In 158.405(17) 3 3_545
Fe Pr2 In 94.178(12) 3_545 3_545
Ge1 Pr2 In 52.990(11) 7_546 3_545
Ge1 Pr2 In 103.710(13) 7_556 3_545
Ge1 Pr2 In 88.545(11) 3 3
Ge1 Pr2 In 150.338(16) 3_545 3
Fe Pr2 In 100.038(14) 5_656 3
Ge2 Pr2 In 61.805(12) 3 3
Ge2 Pr2 In 113.170(14) 3_545 3
Fe Pr2 In 94.178(12) 3 3
Fe Pr2 In 158.405(17) 3_545 3
Ge1 Pr2 In 103.710(13) 7_546 3
Ge1 Pr2 In 52.990(11) 7_556 3
In Pr2 In 77.846(8) 3_545 3
Ge1 Pr2 Ge2 77.690(15) 3 5_656
Ge1 Pr2 Ge2 77.690(15) 3_545 5_656
Fe Pr2 Ge2 44.207(18) 5_656 5_656
Ge2 Pr2 Ge2 69.548(16) 3 5_656
Ge2 Pr2 Ge2 69.548(16) 3_545 5_656
Fe Pr2 Ge2 43.198(11) 3 5_656
Fe Pr2 Ge2 43.198(11) 3_545 5_656
Ge1 Pr2 Ge2 125.470(13) 7_546 5_656
Ge1 Pr2 Ge2 125.470(13) 7_556 5_656
In Pr2 Ge2 130.814(9) 3_545 5_656
In Pr2 Ge2 130.814(9) 3 5_656
Ge2 Fe Ge2 123.63(4) 7_556 7_546
Ge2 Fe Ge1 111.63(2) 7_556 .
Ge2 Fe Ge1 111.63(2) 7_546 .
Ge2 Fe Ge2 99.24(3) 7_556 .
Ge2 Fe Ge2 99.24(3) 7_546 .
Ge1 Fe Ge2 108.83(4) . .
Ge2 Fe Pr2 67.22(2) 7_556 5_656
Ge2 Fe Pr2 67.22(2) 7_546 5_656
Ge1 Fe Pr2 176.22(4) . 5_656
Ge2 Fe Pr2 74.94(3) . 5_656
Ge2 Fe Pr2 159.46(3) 7_556 3_445
Ge2 Fe Pr2 74.585(16) 7_546 3_445
Ge1 Fe Pr2 63.629(18) . 3_445
Ge2 Fe Pr2 66.013(19) . 3_445
Pr2 Fe Pr2 118.782(19) 5_656 3_445
Ge2 Fe Pr2 74.585(16) 7_556 3_455
Ge2 Fe Pr2 159.46(3) 7_546 3_455
Ge1 Fe Pr2 63.629(18) . 3_455
Ge2 Fe Pr2 66.013(19) . 3_455
Pr2 Fe Pr2 118.782(19) 5_656 3_455
Pr2 Fe Pr2 86.00(2) 3_445 3_455
Ge2 Fe Pr1 66.97(2) 7_556 1_556
Ge2 Fe Pr1 66.97(2) 7_546 1_556
Ge1 Fe Pr1 107.23(3) . 1_556
Ge2 Fe Pr1 143.93(4) . 1_556
Pr2 Fe Pr1 68.993(19) 5_656 1_556
Pr2 Fe Pr1 133.357(14) 3_445 1_556
Pr2 Fe Pr1 133.357(14) 3_455 1_556
Ge2 Fe Pr1 58.546(18) 7_556 7_556
Ge2 Fe Pr1 124.70(3) 7_546 7_556
Ge1 Fe Pr1 58.039(17) . 7_556
Ge2 Fe Pr1 136.062(18) . 7_556
Pr2 Fe Pr1 119.34(2) 5_656 7_556
Pr2 Fe Pr1 121.61(3) 3_445 7_556
Pr2 Fe Pr1 71.332(13) 3_455 7_556
Pr1 Fe Pr1 66.584(16) 1_556 7_556
Ge2 Fe Pr1 124.70(3) 7_556 7_546
Ge2 Fe Pr1 58.546(18) 7_546 7_546
Ge1 Fe Pr1 58.039(17) . 7_546
Ge2 Fe Pr1 136.062(18) . 7_546
Pr2 Fe Pr1 119.34(2) 5_656 7_546
Pr2 Fe Pr1 71.332(13) 3_445 7_546
Pr2 Fe Pr1 121.61(3) 3_455 7_546
Pr1 Fe Pr1 66.584(16) 1_556 7_546
Pr1 Fe Pr1 76.477(18) 7_556 7_546
Ge1 In Ge1 180.000(19) 5_556 1_554
Ge1 In Pr1 56.452(9) 5_556 3_445
Ge1 In Pr1 123.548(9) 1_554 3_445
Ge1 In Pr1 123.548(9) 5_556 7
Ge1 In Pr1 56.452(9) 1_554 7
Pr1 In Pr1 180.0 3_445 7
Ge1 In Pr1 123.548(9) 5_556 7_545
Ge1 In Pr1 56.452(9) 1_554 7_545
Pr1 In Pr1 100.495(9) 3_445 7_545
Pr1 In Pr1 79.505(9) 7 7_545
Ge1 In Pr1 56.452(9) 5_556 3_455
Ge1 In Pr1 123.548(9) 1_554 3_455
Pr1 In Pr1 79.505(9) 3_445 3_455
Pr1 In Pr1 100.495(9) 7 3_455
Pr1 In Pr1 180.000(10) 7_545 3_455
Ge1 In Pr2 60.016(10) 5_556 3_455
Ge1 In Pr2 119.984(10) 1_554 3_455
Pr1 In Pr2 116.376(7) 3_445 3_455
Pr1 In Pr2 63.624(7) 7 3_455
Pr1 In Pr2 111.055(8) 7_545 3_455
Pr1 In Pr2 68.945(8) 3_455 3_455
Ge1 In Pr2 119.984(10) 5_556 7_545
Ge1 In Pr2 60.016(10) 1_554 7_545
Pr1 In Pr2 63.624(7) 3_445 7_545
Pr1 In Pr2 116.376(7) 7 7_545
Pr1 In Pr2 68.945(8) 7_545 7_545
Pr1 In Pr2 111.055(8) 3_455 7_545
Pr2 In Pr2 180.0 3_455 7_545
Ge1 In Pr2 60.016(10) 5_556 3_445
Ge1 In Pr2 119.984(10) 1_554 3_445
Pr1 In Pr2 68.945(8) 3_445 3_445
Pr1 In Pr2 111.055(8) 7 3_445
Pr1 In Pr2 63.624(7) 7_545 3_445
Pr1 In Pr2 116.376(7) 3_455 3_445
Pr2 In Pr2 77.846(8) 3_455 3_445
Pr2 In Pr2 102.154(8) 7_545 3_445
Ge1 In Pr2 119.984(10) 5_556 7
Ge1 In Pr2 60.016(10) 1_554 7
Pr1 In Pr2 111.055(8) 3_445 7
Pr1 In Pr2 68.945(8) 7 7
Pr1 In Pr2 116.376(7) 7_545 7
Pr1 In Pr2 63.624(7) 3_455 7
Pr2 In Pr2 102.154(8) 3_455 7
Pr2 In Pr2 77.846(8) 7_545 7
Pr2 In Pr2 180.0 3_445 7
Fe Ge1 Ge1 120.33(4) . 5_556
Fe Ge1 In 130.86(3) . 1_556
Ge1 Ge1 In 108.81(3) 5_556 1_556
Fe Ge1 Pr1 77.888(19) . 7_556
Ge1 Ge1 Pr1 133.091(12) 5_556 7_556
In Ge1 Pr1 68.377(13) 1_556 7_556
Fe Ge1 Pr1 77.888(19) . 7_546
Ge1 Ge1 Pr1 133.091(12) 5_556 7_546
In Ge1 Pr1 68.377(13) 1_556 7_546
Pr1 Ge1 Pr1 91.007(18) 7_556 7_546
Fe Ge1 Pr2 69.235(18) . 3_445
Ge1 Ge1 Pr2 69.854(19) 5_556 3_445
In Ge1 Pr2 133.675(10) 1_556 3_445
Pr1 Ge1 Pr2 147.01(2) 7_556 3_445
Pr1 Ge1 Pr2 79.830(10) 7_546 3_445
Fe Ge1 Pr2 69.235(18) . 3_455
Ge1 Ge1 Pr2 69.854(19) 5_556 3_455
In Ge1 Pr2 133.675(10) 1_556 3_455
Pr1 Ge1 Pr2 79.830(10) 7_556 3_455
Pr1 Ge1 Pr2 147.01(2) 7_546 3_455
Pr2 Ge1 Pr2 90.755(18) 3_445 3_455
Fe Ge1 Pr2 137.299(10) . 7_546
Ge1 Ge1 Pr2 61.724(18) 5_556 7_546
In Ge1 Pr2 66.994(12) 1_556 7_546
Pr1 Ge1 Pr2 135.23(2) 7_556 7_546
Pr1 Ge1 Pr2 75.966(10) 7_546 7_546
Pr2 Ge1 Pr2 73.334(12) 3_445 7_546
Pr2 Ge1 Pr2 131.58(2) 3_455 7_546
Fe Ge1 Pr2 137.299(10) . 7_556
Ge1 Ge1 Pr2 61.724(18) 5_556 7_556
In Ge1 Pr2 66.994(12) 1_556 7_556
Pr1 Ge1 Pr2 75.966(10) 7_556 7_556
Pr1 Ge1 Pr2 135.23(2) 7_546 7_556
Pr2 Ge1 Pr2 131.58(2) 3_445 7_556
Pr2 Ge1 Pr2 73.334(12) 3_455 7_556
Pr2 Ge1 Pr2 83.774(17) 7_546 7_556
Fe Ge2 Fe 123.63(4) 7_556 7_546
Fe Ge2 Fe 80.76(3) 7_556 .
Fe Ge2 Fe 80.76(3) 7_546 .
Fe Ge2 Pr1 78.06(2) 7_556 .
Fe Ge2 Pr1 78.06(2) 7_546 .
Fe Ge2 Pr1 134.15(3) . .
Fe Ge2 Pr2 144.95(3) 7_556 3_445
Fe Ge2 Pr2 66.66(2) 7_546 3_445
Fe Ge2 Pr2 67.402(18) . 3_445
Pr1 Ge2 Pr2 135.109(10) . 3_445
Fe Ge2 Pr2 66.66(2) 7_556 3_455
Fe Ge2 Pr2 144.95(3) 7_546 3_455
Fe Ge2 Pr2 67.402(18) . 3_455
Pr1 Ge2 Pr2 135.109(10) . 3_455
Pr2 Ge2 Pr2 87.124(17) 3_445 3_455
Fe Ge2 Pr1 145.03(3) 7_556 7_545
Fe Ge2 Pr1 68.127(19) 7_546 7_545
Fe Ge2 Pr1 133.787(13) . 7_545
Pr1 Ge2 Pr1 72.510(14) . 7_545
Pr2 Ge2 Pr1 69.179(11) 3_445 7_545
Pr2 Ge2 Pr1 125.20(2) 3_455 7_545
Fe Ge2 Pr1 68.127(19) 7_556 7
Fe Ge2 Pr1 145.03(3) 7_546 7
Fe Ge2 Pr1 133.787(13) . 7
Pr1 Ge2 Pr1 72.510(14) . 7
Pr2 Ge2 Pr1 125.20(2) 3_445 7
Pr2 Ge2 Pr1 69.179(11) 3_455 7
Pr1 Ge2 Pr1 85.089(17) 7_545 7
Fe Ge2 Pr2 62.22(2) 7_556 5_656
Fe Ge2 Pr2 62.22(2) 7_546 5_656
Fe Ge2 Pr2 60.85(2) . 5_656
Pr1 Ge2 Pr2 73.300(17) . 5_656
Pr2 Ge2 Pr2 110.451(16) 3_445 5_656
Pr2 Ge2 Pr2 110.451(16) 3_455 5_656
Pr1 Ge2 Pr2 123.913(14) 7_545 5_656
Pr1 Ge2 Pr2 123.913(14) 7 5_656
loop_
_geom_bond_atom_site_label_1
_geom_bond_atom_site_label_2
_geom_bond_distance
_geom_bond_site_symmetry_2
Pr1 Ge1 3.0311(5) 7_556
Pr1 Ge1 3.0311(5) 7_546
Pr1 Ge2 3.0459(7) .
Pr1 Ge2 3.1976(5) 7_545
Pr1 Ge2 3.1976(5) 7
Pr1 Fe 3.2245(9) 1_554
Pr1 In 3.3810(3) 3
Pr1 In 3.3810(3) 3_545
Pr1 Fe 3.4933(7) 7_556
Pr1 Fe 3.4933(7) 7_546
Pr1 Pr2 3.5966(5) 5_655
Pr1 Pr1 3.6943(6) 7_545
Pr2 Ge1 3.0377(5) 3
Pr2 Ge1 3.0377(5) 3_545
Pr2 Fe 3.1244(9) 5_656
Pr2 Ge2 3.1374(5) 3
Pr2 Ge2 3.1374(5) 3_545
Pr2 Fe 3.1703(7) 3
Pr2 Fe 3.1703(7) 3_545
Pr2 Ge1 3.2383(5) 7_546
Pr2 Ge1 3.2383(5) 7_556
Pr2 In 3.4413(3) 3_545
Pr2 In 3.4413(3) 3
Pr2 Ge2 3.4545(7) 5_656
Fe Ge2 2.4529(5) 7_556
Fe Ge2 2.4529(5) 7_546
Fe Ge1 2.4852(10) .
Fe Ge2 2.4944(10) .
Fe Pr2 3.1244(9) 5_656
Fe Pr2 3.1703(7) 3_445
Fe Pr2 3.1703(7) 3_455
Fe Pr1 3.2245(9) 1_556
Fe Pr1 3.4932(7) 7_556
Fe Pr1 3.4932(7) 7_546
In Ge1 2.9854(6) 5_556
In Ge1 2.9854(6) 1_554
In Pr1 3.3811(3) 3_445
In Pr1 3.3811(3) 7
In Pr1 3.3811(3) 7_545
In Pr1 3.3811(3) 3_455
In Pr2 3.4413(3) 3_455
In Pr2 3.4413(3) 7_545
In Pr2 3.4413(3) 3_445
In Pr2 3.4413(3) 7
Ge1 Ge1 2.5803(12) 5_556
Ge1 In 2.9855(6) 1_556
Ge1 Pr1 3.0312(5) 7_556
Ge1 Pr1 3.0312(5) 7_546
Ge1 Pr2 3.0377(5) 3_445
Ge1 Pr2 3.0377(5) 3_455
Ge1 Pr2 3.2383(5) 7_546
Ge1 Pr2 3.2383(5) 7_556
Ge2 Fe 2.4530(5) 7_556
Ge2 Fe 2.4530(5) 7_546
Ge2 Pr2 3.1374(5) 3_445
Ge2 Pr2 3.1374(5) 3_455
Ge2 Pr1 3.1976(5) 7_545
Ge2 Pr1 3.1976(5) 7
Ge2 Pr2 3.4545(7) 5_656
