#------------------------------------------------------------------------------
#$Date: 2016-03-24 00:07:32 +0200 (Thu, 24 Mar 2016) $
#$Revision: 179524 $
#$URL: svn://www.crystallography.net/cod/cif/4/34/21/4342135.cif $
#------------------------------------------------------------------------------
#
# This file is available in the Crystallography Open Database (COD),
# http://www.crystallography.net/
#
# All data on this site have been placed in the public domain by the
# contributors.
#
data_4342135
loop_
_publ_author_name
'Prakash, Jai'
'Mesbah, Adel'
'Ward, Matthew D.'
'Leb\`egue, S\'ebastien'
'Malliakas, Christos D.'
'Lee, Minseong'
'Choi, Eun Sang'
'Ibers, James A.'
_publ_section_title
;
 Synthesis, Crystal Structure, Resistivity, Magnetic, and Theoretical
 Study of ScUS3.
;
_journal_issue                   4
_journal_name_full               'Inorganic chemistry'
_journal_page_first              1684
_journal_page_last               1689
_journal_paper_doi               10.1021/ic502656u
_journal_volume                  54
_journal_year                    2015
_chemical_formula_sum            'S3 Sc U'
_chemical_formula_weight         379.17
_chemical_name_common            ScUS3
_space_group_crystal_system      orthorhombic
_space_group_IT_number           63
_space_group_name_Hall           '-C 2c 2'
_space_group_name_H-M_alt        'C m c m'
_symmetry_space_group_name_Hall  '-C 2c 2'
_symmetry_space_group_name_H-M   'C m c m'
_atom_sites_solution_primary     direct
_atom_sites_solution_secondary   difmap
_audit_creation_method           SHELXL-2014/6
_cell_angle_alpha                90
_cell_angle_beta                 90
_cell_angle_gamma                90
_cell_formula_units_Z            4
_cell_length_a                   3.7500(8)
_cell_length_b                   12.110(2)
_cell_length_c                   9.1800(18)
_cell_measurement_reflns_used    1630
_cell_measurement_temperature    100(2)
_cell_measurement_theta_max      33.08
_cell_measurement_theta_min      3.37
_cell_volume                     416.89(14)
_computing_cell_refinement       'Bruker SAINT'
_computing_data_collection       'Bruker APEX2'
_computing_data_reduction        'Bruker SAINT'
_computing_molecular_graphics    'Bruker SHELXTL'
_computing_publication_material  'Bruker SHELXTL'
_computing_structure_refinement  'SHELXL-2014/6 (Sheldrick, 2014)'
_computing_structure_solution    'SHELXS-97 (Sheldrick 2008)'
_diffrn_ambient_temperature      100(2)
_diffrn_measured_fraction_theta_full 1.000
_diffrn_measured_fraction_theta_max 1.000
_diffrn_measurement_device_type  'Bruker APEX-II CCD'
_diffrn_measurement_method       '\f and \w scans'
_diffrn_radiation_type           MoK\a
_diffrn_radiation_wavelength     0.71073
_diffrn_reflns_av_R_equivalents  0.0698
_diffrn_reflns_av_unetI/netI     0.0394
_diffrn_reflns_Laue_measured_fraction_full 1.000
_diffrn_reflns_Laue_measured_fraction_max 1.000
_diffrn_reflns_limit_h_max       5
_diffrn_reflns_limit_h_min       -5
_diffrn_reflns_limit_k_max       18
_diffrn_reflns_limit_k_min       -18
_diffrn_reflns_limit_l_max       14
_diffrn_reflns_limit_l_min       -13
_diffrn_reflns_number            3978
_diffrn_reflns_point_group_measured_fraction_full 1.000
_diffrn_reflns_point_group_measured_fraction_max 1.000
_diffrn_reflns_theta_full        25.242
_diffrn_reflns_theta_max         33.126
_diffrn_reflns_theta_min         3.365
_diffrn_source                   'fine-focus sealed tube'
_exptl_absorpt_coefficient_mu    41.696
_exptl_absorpt_correction_T_max  0.51606
_exptl_absorpt_correction_T_min  0.29199
_exptl_absorpt_correction_type   numerical
_exptl_absorpt_process_details   'face indexed (SADABS; Sheldric, 2012/1'
_exptl_crystal_colour            Black
_exptl_crystal_density_diffrn    6.041
_exptl_crystal_density_meas      ?
_exptl_crystal_density_method    'Not measured'
_exptl_crystal_description       Needle
_exptl_crystal_F_000             644
_exptl_crystal_size_max          0.053
_exptl_crystal_size_mid          0.035
_exptl_crystal_size_min          0.030
_refine_diff_density_max         1.725
_refine_diff_density_min         -1.877
_refine_diff_density_rms         0.410
_refine_ls_extinction_coef       0.0017(3)
_refine_ls_extinction_expression Fc^*^=kFc[1+0.001xFc^2^\l^3^/sin(2\q)]^-1/4^
_refine_ls_extinction_method     SHELXL
_refine_ls_goodness_of_fit_ref   1.131
_refine_ls_hydrogen_treatment    undef
_refine_ls_matrix_type           full
_refine_ls_number_parameters     20
_refine_ls_number_reflns         471
_refine_ls_number_restraints     0
_refine_ls_restrained_S_all      1.131
_refine_ls_R_factor_all          0.0343
_refine_ls_R_factor_gt           0.0251
_refine_ls_shift/su_max          0.001
_refine_ls_shift/su_mean         0.000
_refine_ls_structure_factor_coef Fsqd
_refine_ls_weighting_details
'w=1/[\s^2^(Fo^2^)+(0.0220P)^2^] where P=(1.0000Fo^2^+0.0000Fc^2^)'
_refine_ls_weighting_scheme      calc
_refine_ls_wR_factor_gt          0.0537
_refine_ls_wR_factor_ref         0.0571
_reflns_Friedel_coverage         0.000
_reflns_number_gt                395
_reflns_number_total             471
_reflns_threshold_expression     'I > 2\s(I)'
_cod_data_source_file            ic502656u_si_001.cif
_cod_data_source_block           ScUS3
_cod_depositor_comments
;
The following automatic conversions were performed:

'_atom_sites_solution_primary' value 'Direct' changed to 'direct'
according to
/usr/data/users/saulius/crontab/automatic-downloads/rss-feeds/ACS/lib/dictionaries/cif_core.dic
dictionary named 'cif_core.dic' version 2.4.2 from 2011-04-26.

'_atom_sites_solution_secondary' value 'Difmap' changed to 'difmap'
according to
/usr/data/users/saulius/crontab/automatic-downloads/rss-feeds/ACS/lib/dictionaries/cif_core.dic
dictionary named 'cif_core.dic' version 2.4.2 from 2011-04-26.

'_exptl_crystal_density_meas' value 'Not measured' was changed to '?'
- the value is perceived as not measured.

Automatic conversion script
Id: cif_fix_values 3008 2015-01-20 13:52:24Z robertas 

 Adding full bibliography for 4342135.cif.
;
_cod_database_code               4342135
#BEGIN Tags that were not found in dictionaries:
_shelx_space_group_comment
;
The symmetry employed for this shelxl refinement is uniquely defined
by the following loop, which should always be used as a source of
symmetry information in preference to the above space-group names.
They are only intended as comments.
;
_shelxl_version_number           2014/6
_shelx_res_file
;
TITL ScUS3 in Cmcm after sadabs and structure tidy
CELL 0.71073 3.75 12.11 9.18 90 90 90
ZERR 4 0.00075 0.00242 0.00184 0 0 0
LATT 7
SYMM -X,-Y,0.5+Z
SYMM +X,-Y,-Z
SYMM -X,+Y,0.5-Z

SFAC S Sc U
UNIT 12 4 4

L.S. 4 0 0
PLAN  20
BOND
fmap 2 53
acta

WGHT    0.022000    0.000000    0.000000    0.000000    0.000000    1.000000
EXTI    0.001667
FVAR       0.07838
U1    3    0.000000    0.748404    0.250000    10.25000    0.00398    0.00363 =
         0.00463    0.00000    0.00000    0.00000
SC1   2    0.000000    0.000000    0.000000    10.25000    0.00419    0.00307 =
         0.00508    0.00021    0.00000    0.00000
S1    1    0.000000    0.358885    0.060297    10.50000    0.00456    0.00311 =
         0.00497   -0.00015    0.00000    0.00000
S2    1    0.000000    0.080257    0.250000    10.25000    0.00430    0.00345 =
         0.00501    0.00000    0.00000    0.00000
HKLF 4

REM  ScUS3 in Cmcm after sadabs and structure tidy
REM R1 =  0.0251 for     395 Fo > 4sig(Fo)  and  0.0343 for all     471 data
REM     20 parameters refined using      0 restraints

END

WGHT      0.0218      0.0000

REM Highest difference peak  1.725,  deepest hole -1.877,  1-sigma level  0.410
Q1    1   0.0000  0.1151  0.0815  10.50000  0.05    1.73
Q2    1   0.0000  0.4379  0.1492  10.50000  0.05    1.61
Q3    1   0.0000  0.3801  0.0965  10.50000  0.05    1.59
Q4    1   0.0000  0.6466  0.2500  10.25000  0.05    1.53
Q5    1  -0.5000  0.3376  0.0456  10.50000  0.05    1.43
Q6    1   0.0000  0.7124  0.3004  10.50000  0.05    1.42
Q7    1   0.0000  0.3214  0.0632  10.50000  0.05    1.26
Q8    1   0.0000  0.8403  0.2500  10.25000  0.05    1.21
Q9    1   0.0000 -0.0204  0.2500  10.25000  0.05    1.19
Q10   1   0.0000  0.3790  0.0271  10.50000  0.05    1.16
Q11   1   0.0000  0.3743 -0.0661  10.50000  0.05    1.14
Q12   1   0.2708  0.8798  0.2500  10.50000  0.05    1.12
Q13   1   0.0000  0.0453  0.1948  10.50000  0.05    1.12
Q14   1  -0.1208  0.2592  0.0059  11.00000  0.05    1.09
Q15   1   0.0000  0.2165  0.2500  10.25000  0.05    1.06
Q16   1   0.0000  0.2420  0.1473  10.50000  0.05    1.05
Q17   1  -0.1792  0.7205  0.2500  10.50000  0.05    1.03
Q18   1   0.0000  0.0598  0.1470  10.50000  0.05    0.95
Q19   1   0.0000  0.2563  0.0613  10.50000  0.05    0.94
Q20   1   0.0000  0.1968  0.1129  10.50000  0.05    0.92
;
_shelx_res_checksum              47409
_shelx_hkl_file
;
   2   0   0 1000.00   73.00
  -4   0   0  446.85   36.92
   4   0   0  481.22   34.53
   4   0   0  484.38   36.26
   1  -1   0   13.23    1.45
  -1   1   0    8.93    1.28
   1  -1   0    9.50    1.67
   3  -1   0    5.40    1.16
   3   1   0    6.32    2.34
  -3  -1   0    4.97    1.43
  -3   1   0    6.38    1.33
  -3   1   0    4.64    2.12
  -3   1   0    4.19    1.21
   3  -1   0    5.41    2.43
   3   1   0    5.99    1.29
   5   1   0    0.37    1.70
   5  -1   0    0.87    1.66
  -5  -1   0    0.93    3.20
  -5   1   0    6.51    3.73
   0   2   0  318.73   23.19
   0  -2   0  304.16   23.19
  -2  -2   0  208.77   15.00
   2  -2   0  198.23   14.20
   2  -2   0  204.45   14.75
  -2   2   0  190.28   14.75
   2  -2   0  174.78   15.04
   2   2   0  190.67   14.41
  -2   2   0  186.54   15.26
   4  -2   0   91.22    9.74
  -4   2   0  104.52   10.11
   4   2   0  110.77    9.88
   4  -2   0  105.19    8.24
   4   2   0  103.73    8.50
  -1   3   0  164.06   12.29
   1  -3   0  157.85   12.20
  -1  -3   0  160.01   12.08
   1   3   0  152.18   12.01
  -3   3   0   52.43    6.37
  -3  -3   0   57.82    5.53
  -3   3   0   59.92    5.12
   3   3   0   59.78    5.14
   3  -3   0   65.15    6.34
   3  -3   0   58.84    4.86
  -5   3   0   27.95    5.57
   5   3   0   25.49    3.80
  -5  -3   0   27.45    5.51
   5  -3   0   34.30    3.98
   0   4   0  297.45   21.53
   0  -4   0  269.46   21.54
   2   4   0  257.30   17.30
  -2  -4   0  240.30   18.63
  -2   4   0  249.99   18.07
   2  -4   0  212.38   17.67
  -2  -4   0  218.36   17.86
  -2  -4   0  229.57   17.25
  -2   4   0  227.11   17.66
   2  -4   0  197.59   17.00
   2   4   0  228.88   17.31
  -2   4   0  238.20   17.72
   2  -4   0  237.18   17.64
  -4  -4   0  124.48    9.84
   4  -4   0  114.14    9.13
   4   4   0  109.35    9.40
   4  -4   0  118.32   10.68
   4   4   0  106.18   10.41
  -4   4   0  106.17   10.64
   1   5   0    5.31    1.39
   1   5   0    5.91    1.58
   1  -5   0    8.61    1.59
  -1   5   0    5.45    1.59
   1  -5   0    5.88    1.67
  -1  -5   0    8.70    1.75
  -1   5   0    7.24    1.76
  -1  -5   0    6.47    1.75
  -3  -5   0    3.65    1.89
  -3   5   0    2.30    2.28
   3   5   0    2.52    1.74
   3  -5   0    4.02    1.56
  -3   5   0    1.69    1.54
   5  -5   0    1.19    1.94
   5   5   0    0.16    2.27
  -5   5   0    6.88    3.71
   0   6   0  223.93   16.68
   0   6   0  201.08   16.52
  -2  -6   0  179.02   13.36
  -2   6   0  172.34   13.09
   2   6   0  161.01   12.79
  -2   6   0  167.93   13.16
  -2  -6   0  168.58   13.66
  -2   6   0  136.16   13.20
   2  -6   0  175.72   12.63
   2   6   0  146.25   12.64
  -4   6   0   84.68    9.20
  -4  -6   0   93.04    8.46
   4  -6   0   82.31    7.37
   4   6   0   84.93    7.95
  -1  -7   0    9.58    2.26
   1   7   0    9.85    2.20
  -1  -7   0    9.32    1.64
   1  -7   0    8.91    1.91
  -1   7   0    8.19    1.97
   1   7   0   10.39    1.86
  -1   7   0    7.26    1.95
   3   7   0    6.92    2.18
   3  -7   0    7.66    2.18
  -3   7   0    3.70    1.88
  -3  -7   0    9.18    3.04
  -3   7   0    7.44    3.06
  -3  -7   0    7.54    2.55
  -5   7   0    0.74    3.56
   5   7   0   -1.67    2.25
   5  -7   0    5.81    2.38
   0  -8   0  446.89   37.76
   0   8   0  502.70   39.04
   0   8   0  514.95   38.80
   0  -8   0  529.11   39.07
   0  -8   0  570.96   36.60
   2   8   0  406.74   29.25
  -2  -8   0  401.96   30.97
  -2   8   0  411.00   30.14
  -2   8   0  369.67   29.81
  -2  -8   0  372.88   30.18
  -2   8   0  362.10   29.89
   2  -8   0  395.34   28.98
   4  -8   0  231.41   17.48
  -4   8   0  201.66   19.05
   4   8   0  219.99   17.94
  -4  -8   0  239.80   18.77
  -1   9   0    2.27    2.02
   1   9   0    6.22    2.39
   1   9   0    2.42    2.02
   1  -9   0    5.88    2.05
  -1   9   0    3.03    1.80
  -1  -9   0    5.66    1.68
   1   9   0    3.28    1.94
   1  -9   0    4.80    1.71
  -1  -9   0    5.90    2.34
  -3   9   0    5.26    2.24
  -3  -9   0    6.17    2.76
  -3   9   0    1.73    2.82
   3  -9   0    5.06    2.16
   3   9   0    0.09    2.17
   5  -9   0    3.26    2.72
   5   9   0    5.48    2.89
   0 -10   0  230.98   18.88
   0  10   0  238.73   18.75
   0  10   0  250.03   18.94
   0 -10   0  206.49   17.37
   0 -10   0  247.41   18.28
  -2  10   0  191.91   16.37
  -2 -10   0  187.99   14.60
  -2 -10   0  213.83   16.89
   2  10   0  200.80   16.18
   2 -10   0  212.79   15.98
   4  10   0   92.01    9.51
   4 -10   0  102.21    9.23
  -4 -10   0  104.16   10.25
  -1 -11   0   99.78    9.43
   1  11   0   90.00    9.45
  -1  11   0  103.25    9.24
   1 -11   0   95.95    8.45
  -1 -11   0   87.84    8.06
   1 -11   0  101.36    8.97
   1  11   0  116.73    9.33
  -3 -11   0   65.36    7.62
   3  11   0   64.11    7.49
   3 -11   0   64.57    6.92
  -3  11   0   65.55    6.97
   0  12   0  275.96   21.03
   0 -12   0  233.76   20.10
   0 -12   0  240.26   20.82
   0 -12   0  275.35   19.30
  -2 -12   0  185.16   19.30
  -2  12   0  230.54   19.14
   2  12   0  244.99   19.03
  -2 -12   0  262.67   17.32
   2 -12   0  233.83   18.70
  -4 -12   0  133.18   13.63
  -4  12   0  135.21   12.71
   4 -12   0  158.30   12.71
   4  12   0  151.14   13.27
   1 -13   0    2.35    2.32
   1 -13   0   -2.39    2.21
  -1  13   0   -1.15    2.28
  -1 -13   0    3.01    1.91
  -1 -13   0   -0.98    2.28
  -3  13   0    4.34    2.87
   3 -13   0   -2.45    2.72
   3  13   0    2.48    2.79
  -3 -13   0   -2.81    2.75
   0 -14   0   25.38    3.86
   0  14   0   18.25    4.50
   2 -14   0   19.83    4.30
   2  14   0   32.83    5.51
  -2  14   0   21.98    4.32
  -2 -14   0   16.95    4.60
  -2 -14   0   21.96    3.25
   1 -15   0    4.13    2.41
   1 -15   0    4.07    3.07
  -1  15   0   -0.88    2.99
  -1 -15   0    3.08    2.26
  -1 -15   0    0.04    2.98
   3  15   0   -0.70    2.94
  -3 -15   0    3.26    3.42
  -3  15   0   -0.15    2.94
   3 -15   0    2.26    2.86
   0  16   0  172.23   15.58
   0 -16   0  154.72   13.26
  -2  16   0  120.57   12.99
   2 -16   0  150.76   13.19
  -2 -16   0  136.90   13.26
   1 -17   0    1.51    2.42
  -1 -17   0    2.24    3.45
  -1 -17   0    1.31    2.29
  -1  17   0   -1.67    3.25
   0 -18   0  113.92   10.61
   0  18   0  129.99   13.08
   0   0   1   -0.54    0.34
   0   0  -1   -0.52    0.53
  -2   0  -1   -0.54    0.65
   2   0   1   -0.58    1.35
  -2   0  -1    0.10    0.80
   2   0   1    0.89    0.87
   4   0   1    2.00    2.44
   4   0  -1   -0.71    2.12
  -4   0   1    0.91    2.60
   4   0   1   -1.68    1.38
   4   0  -1    0.71    1.05
   1  -1   1  296.92   21.66
  -1  -1  -1  280.57   21.64
   1   1  -1  287.73   21.44
   1  -1   1  327.63   21.48
  -1   1   1  245.02   21.58
   1  -1  -1  295.13   21.59
   1   1   1  318.61   21.33
   1   1   1  288.65   21.63
  -1   1  -1  276.79   21.64
  -3  -1  -1  182.32   13.28
   3  -1   1  151.86   13.48
   3  -1   1  171.03   12.65
   3   1  -1  171.50   13.73
  -3   1   1  166.40   13.85
   3   1  -1  160.99   12.31
   3  -1  -1  176.86   13.86
  -3   1  -1  164.95   13.12
  -3   1  -1  154.10   13.08
   3   1   1  171.51   12.73
   3   1   1  172.32   13.55
  -5  -1  -1   88.37    9.63
   5  -1   1   81.22    7.10
  -5   1   1   66.48    9.29
   5   1   1   73.56    7.41
  -5  -1   1   85.83    9.50
   5   1   1   81.93    7.47
  -5   1  -1   78.83    9.77
   0   2  -1    1.11    0.79
   0   2   1   -0.09    0.85
   0  -2  -1   -0.33    0.90
   0  -2   1    0.66    0.83
   2  -2   1    0.79    0.89
  -2   2   1   -0.26    0.90
  -2   2   1    1.46    1.46
   2  -2   1   -0.56    1.21
  -2  -2  -1    0.38    1.16
  -2  -2  -1   -1.33    0.63
   2  -2   1    0.35    0.87
   2   2  -1    0.15    0.75
  -2   2  -1    1.09    0.97
  -2  -2   1    0.82    1.57
   2   2   1    0.36    1.29
   2  -2  -1   -0.35    0.86
   2  -2  -1    1.30    1.48
  -2   2  -1    0.91    1.00
   2   2   1   -0.06    0.96
   4   2  -1   -0.07    1.14
   4  -2   1    1.49    2.64
  -4   2   1   -0.80    2.57
  -4  -2  -1    0.24    1.63
   4   2  -1   -3.30    2.18
   4  -2   1    0.21    1.47
   4  -2  -1   -6.09    2.42
   4   2   1   -1.91    1.45
  -4   2  -1    1.61    2.70
   4  -2  -1   -0.13    1.11
   4   2   1   -1.72    2.26
   4   2   1   -2.31    1.66
  -4  -2   1    1.39    2.51
  -1  -3  -1  645.74   47.54
   1  -3   1  651.55   47.61
   1   3  -1  614.83   47.51
  -1   3   1  645.91   47.66
  -1  -3   1  662.82   47.43
  -1  -3   1  564.53   49.78
  -1   3  -1  672.93   47.68
   1   3   1  634.62   47.53
   1  -3  -1  680.93   46.98
  -3  -3  -1  314.56   24.26
   3  -3   1  303.82   23.18
  -3   3   1  291.79   24.62
   3  -3   1  287.94   24.10
   3   3  -1  299.16   23.15
   3  -3  -1  336.28   22.85
  -3   3  -1  343.87   24.71
  -3   3  -1  312.04   23.98
   3   3   1  342.70   23.99
   3   3   1  306.34   23.41
   3  -3  -1  271.52   24.20
  -3  -3   1  329.42   24.01
   3   3   1  330.87   23.49
  -5   3   1  147.03   14.56
   5   3  -1  156.69   12.35
   5  -3   1  142.77   12.29
  -5  -3   1  148.47   14.57
  -5   3  -1  175.54   14.88
   5   3   1  159.32   12.66
   0   4   1   13.76    2.00
   0  -4  -1   13.47    2.05
   0  -4   1   13.63    1.99
   0   4  -1   14.77    2.15
   2   4  -1    7.07    1.54
  -2  -4  -1    6.94    1.30
  -2   4   1    7.01    1.68
   2   4  -1    6.67    1.09
   2  -4   1    5.33    1.43
  -2   4   1    6.84    1.97
  -2   4   1    5.99    1.44
  -2  -4  -1    6.60    1.80
   2  -4   1    8.08    1.47
   2  -4  -1    5.15    1.68
   2   4   1    7.24    1.36
   2  -4  -1    8.39    1.32
  -2  -4   1    6.52    1.06
  -2  -4   1    5.59    2.02
  -2  -4   1    5.67    1.60
   2   4   1    7.99    1.65
   2  -4  -1    5.52    1.87
  -2   4  -1    5.54    1.57
  -2   4  -1    7.25    1.91
  -2   4  -1    7.02    1.62
   4   4  -1    4.75    1.87
  -4   4   1   -0.88    2.68
  -4  -4  -1    2.51    2.15
   4   4  -1    7.96    2.96
   4  -4   1    3.46    1.78
  -4   4  -1    5.96    2.96
   4   4   1    4.72    2.09
   4  -4  -1   -0.28    2.86
   4  -4  -1    1.44    1.30
  -1   5   1  372.93   28.60
   1   5  -1  422.41   27.98
   1   5  -1  357.99   28.42
   1  -5   1  415.98   27.90
  -1   5   1  365.89   28.64
  -1  -5  -1  395.09   28.53
  -1   5  -1  352.00   28.79
   1  -5  -1  387.53   28.71
  -1  -5   1  364.69   28.86
  -1  -5   1  392.03   28.39
   1   5   1  373.14   28.42
   1   5   1  347.12   27.94
   1  -5  -1  381.74   27.77
  -1   5  -1  370.17   28.73
  -3  -5  -1  231.88   16.35
  -3   5   1  212.78   15.50
  -3   5   1  203.48   16.57
   3  -5   1  203.14   15.16
   3   5  -1  196.05   15.34
  -3  -5   1  218.12   15.92
  -3  -5   1  166.63   16.86
  -3   5  -1  204.05   16.34
   3   5   1  174.34   15.38
  -3   5  -1  203.72   15.83
   3  -5  -1  203.71   16.21
   3  -5  -1  180.11   14.94
  -5   5   1  112.94   11.27
   5   5  -1   97.19    8.66
   5  -5   1  101.68    8.53
  -5   5  -1   73.44   10.34
   5   5   1  102.41    9.23
  -5  -5   1   86.90   10.43
   0   6  -1   10.32    2.45
   0   6   1   13.23    2.17
   0   6  -1   10.07    1.97
   0   6   1   10.58    2.05
  -2  -6  -1    9.91    2.29
   2  -6   1    4.59    1.71
  -2   6   1    6.88    1.82
  -2   6   1   10.57    2.59
  -2   6   1   11.80    2.27
   2   6  -1    9.13    1.91
  -2  -6  -1    4.63    1.93
  -2  -6   1    7.30    2.32
  -2   6  -1    7.07    2.04
   2   6   1    8.84    2.18
   2  -6  -1    7.30    1.66
  -2   6  -1    6.16    2.07
  -2   6  -1    6.52    1.95
   2   6   1    9.53    1.69
  -2  -6   1   11.45    2.32
   4   6  -1    2.28    1.82
   4  -6   1    2.99    2.09
  -4   6   1    3.63    2.99
  -4  -6  -1    3.07    2.37
  -4  -6   1    3.22    2.40
   4  -6  -1    2.12    1.72
   4   6   1    1.61    2.18
  -4   6  -1    5.47    3.22
   1   7  -1  251.41   20.07
  -1   7   1  276.89   20.26
  -1   7   1  275.74   20.33
   1  -7   1  239.49   19.61
  -1  -7  -1  231.02   18.81
  -1  -7  -1  244.42   20.63
  -1  -7  -1  287.02   20.57
   1   7  -1  274.15   19.78
   1   7   1  242.93   20.38
   1   7   1  273.46   20.13
  -1  -7   1  290.83   20.47
  -1   7  -1  281.86   20.45
   1  -7  -1  284.16   19.66
  -1  -7   1  220.43   18.72
  -1   7  -1  295.47   20.44
   1   7   1  216.35   19.62
   3   7  -1  178.97   13.20
  -3  -7  -1  151.03   13.90
   3  -7   1  146.52   12.88
  -3   7   1  182.42   14.42
  -3   7   1  145.72   13.02
   3   7   1  172.99   13.44
   3  -7  -1  168.35   12.80
  -3  -7   1  167.96   13.74
  -3   7  -1  155.35   13.50
  -3  -7   1  175.43   14.42
  -3   7  -1  162.56   13.96
  -5   7   1   72.18    9.88
   5  -7   1   84.14    7.77
   5   7  -1   78.35    8.00
   5  -7  -1   77.73    7.48
   5   7   1   89.86    8.30
  -5  -7   1  102.25   10.39
  -5   7  -1   61.72    9.46
   0  -8   1   40.48    4.10
   0  -8  -1   28.63    3.34
   0  -8   1   29.33    3.18
   0   8  -1   38.25    3.98
   0  -8  -1   27.30    3.80
   0   8   1   21.34    3.66
   0   8   1   23.16    3.64
   0   8  -1   38.56    4.18
   0  -8   1   41.58    3.92
   0   8  -1   30.82    3.82
   0  -8  -1   21.95    3.31
  -2   8   1   19.31    3.03
   2   8  -1   32.49    3.73
  -2   8   1   23.00    3.79
   2  -8   1   20.35    3.14
  -2  -8  -1   22.69    2.52
  -2  -8  -1   17.43    3.34
  -2   8   1   16.18    3.25
   2   8   1   15.78    3.16
  -2   8  -1   20.11    3.27
   2  -8  -1   15.43    2.82
  -2  -8   1   31.68    4.07
  -2   8  -1   28.04    3.71
  -2  -8   1   30.21    4.03
  -4   8   1   10.36    4.19
  -4  -8  -1    4.83    2.97
   4   8  -1   12.53    3.04
   4  -8   1   12.90    2.82
   4   8   1    4.10    2.63
  -4  -8   1   18.08    3.67
  -4   8  -1   13.03    3.04
   4  -8  -1    5.31    2.46
  -4   8  -1    9.28    3.87
  -1   9   1  216.92   20.11
   1   9  -1  243.40   20.34
   1  -9   1  240.32   18.88
   1   9  -1  283.02   20.23
   1   9  -1  235.55   19.75
  -1  -9  -1  268.93   18.89
  -1  -9  -1  255.74   20.51
   1  -9   1  275.30   19.81
  -1   9   1  261.51   20.31
   1   9   1  261.56   20.14
   1   9   1  229.38   19.78
  -1  -9   1  289.70   18.85
  -1  -9   1  265.12   20.44
  -1   9  -1  251.05   20.42
   1  -9  -1  262.38   19.61
   1   9   1  264.17   20.59
  -1   9  -1  247.78   20.33
   3  -9   1  179.39   13.49
  -3   9   1  153.64   14.28
   3   9  -1  149.33   13.48
  -3   9   1  162.57   13.44
  -3  -9  -1  177.65   14.46
   3   9   1  161.17   13.63
  -3  -9   1  164.98   14.14
   3  -9  -1  150.35   13.01
  -3   9  -1  158.79   13.67
  -3  -9   1  172.71   15.16
   5   9  -1   85.30    9.07
   5  -9   1   97.49    8.85
  -5  -9  -1   99.26    9.70
  -5   9   1   84.60   11.17
   5   9   1   94.51    9.32
   5  -9  -1   86.99    8.57
   0 -10   1    0.67    1.89
   0  10  -1    3.95    1.86
   0  10   1    0.23    2.01
   0 -10   1    1.29    1.55
   0 -10  -1    3.44    2.02
   0  10   1    0.94    2.13
   0  10  -1    3.09    2.07
   0 -10  -1    4.68    1.95
   0 -10   1    2.18    1.79
   0 -10  -1    3.67    1.81
  -2  10   1    1.33    1.92
   2  10  -1    2.09    2.15
  -2 -10  -1    2.99    2.37
  -2 -10  -1    0.18    1.50
   2 -10   1    2.00    2.06
  -2 -10   1    1.04    2.22
   2 -10  -1    4.36    2.04
  -2  10  -1    2.02    2.25
   2  10   1    1.54    2.15
   4  10  -1   -0.14    2.43
  -4 -10  -1    1.19    2.56
  -4  10   1   -1.08    3.54
   4 -10   1    0.86    2.45
   4  10   1    2.52    2.61
   4 -10  -1    0.60    2.28
  -4  10  -1    2.05    2.46
  -4 -10   1    0.79    2.60
   1  11  -1  153.42   13.21
   1  11  -1  139.75   12.79
  -1 -11  -1  153.41   13.24
   1 -11   1  150.01   11.91
   1 -11   1  137.87   12.56
  -1 -11  -1  151.10   11.76
  -1  11   1  154.87   13.04
   1 -11  -1  174.00   12.73
   1  11   1  154.90   12.78
   1  11   1  160.88   13.42
  -1 -11   1  136.04   11.69
   1 -11  -1  157.95   12.12
  -1  11  -1  141.36   12.94
   3  11  -1   85.41    8.96
   3 -11   1  108.71    9.27
  -3 -11  -1   80.76    9.75
  -3  11   1   99.69    9.09
  -3  11  -1   95.75    9.28
   3 -11  -1   99.31    8.91
  -3 -11   1   94.47    9.70
   3  11   1  104.70    9.71
   0  12   1   -2.55    2.13
   0 -12  -1    5.80    2.45
   0 -12   1    3.19    2.22
   0  12  -1    2.27    2.40
   0 -12  -1    8.14    2.58
   0 -12   1    1.72    1.81
   0 -12  -1    2.46    2.06
   2  12  -1    0.43    2.24
  -2 -12  -1    3.91    2.78
  -2 -12  -1    7.36    2.00
   2 -12   1    2.65    2.44
  -2  12   1    1.09    2.28
  -2 -12   1   -0.16    2.55
   2 -12  -1    0.76    2.42
  -2  12  -1   -0.04    2.38
   2  12   1    0.62    2.79
   4 -12   1    2.09    2.52
   4  12  -1   -0.66    2.21
  -4 -12  -1   -1.80    2.95
   4 -12  -1    6.79    2.75
  -4 -12   1    3.00    3.06
  -4  12  -1    3.94    2.78
   4  12   1   -1.11    2.77
  -1 -13  -1  170.51   13.42
  -1 -13  -1  156.77   15.00
  -1  13   1  166.90   15.03
   1 -13   1  183.28   13.74
   1 -13   1  172.95   14.61
   1  13   1  179.60   15.47
  -1 -13   1  152.73   13.35
   1 -13  -1  187.59   13.85
   1 -13  -1  159.60   14.31
  -1 -13   1  172.88   15.15
  -1  13  -1  181.55   15.02
   3  13  -1  136.30   11.88
  -3 -13  -1  117.22   12.08
   3 -13   1  122.85   11.27
  -3  13   1  119.80   11.50
  -3  13  -1  118.43   11.47
   3  13   1  132.76   11.95
   3 -13  -1  108.40   10.89
  -3 -13   1  124.64   12.00
   0  14  -1   10.07    3.63
   0 -14   1   10.29    2.82
   0 -14   1    6.15    3.25
   0  14   1    5.70    3.17
   0 -14  -1   12.78    2.95
   2 -14   1    9.06    3.21
  -2 -14  -1    8.14    2.39
  -2  14   1   10.01    3.55
  -2 -14  -1   10.50    3.76
   2  14  -1    4.80    3.48
  -2 -14   1    6.88    3.38
   2 -14  -1    5.75    3.07
  -2  14  -1    4.79    3.04
   2  14   1    5.43    3.38
  -1  15   1  148.69   15.12
   1 -15   1  179.77   13.94
  -1 -15  -1  185.18   13.59
  -1 -15  -1  140.93   14.87
   1 -15   1  179.50   14.99
  -1 -15   1  162.56   15.36
  -1 -15   1  182.59   13.59
   1 -15  -1  169.90   13.90
   1 -15  -1  167.49   14.68
  -1  15  -1  155.55   14.92
   3 -15   1  125.70   12.01
   3  15  -1  103.13   12.25
  -3  15   1  124.73   12.59
  -3 -15  -1  135.71   13.51
  -3 -15   1  145.31   13.00
   3  15   1  143.92   12.93
  -3  15  -1  120.24   12.21
   3 -15  -1  133.41   12.25
   0  16   1   -1.65    2.60
   0  16  -1    5.19    3.35
   0 -16  -1    4.91    2.66
   0 -16   1   -1.09    1.98
  -2 -16  -1   -2.07    2.98
  -2  16   1    0.32    3.09
   2 -16   1    1.98    3.16
  -2 -16   1    3.56    3.30
  -2  16  -1    1.71    2.87
   2 -16  -1    3.94    3.34
  -1  17   1   50.59    7.90
   1 -17   1   69.08    7.21
  -1 -17  -1   50.82    6.38
  -1 -17  -1   58.71    8.42
   1 -17  -1   62.92    7.18
  -1 -17   1   68.31    6.63
  -1 -17   1   61.70    8.68
  -1  17  -1   66.99    8.77
   0  18  -1   -0.65    3.80
   0 -18  -1    4.18    2.88
   0 -18   1    6.79    2.95
   0  18   1   -2.02    3.47
   0   0  -2  256.01   19.10
   0   0   2  249.84   19.13
  -2   0  -2  161.53   12.80
  -2   0   2  150.56   13.65
   2   0   2  141.79   12.27
   2   0   2  168.51   12.58
  -2   0   2  154.17   12.97
  -2   0  -2  178.74   12.58
  -2   0  -2  174.75   12.47
   4   0   2   90.58    8.64
   4   0  -2   73.44    8.68
   4   0   2   88.39    7.67
  -4   0  -2   88.73    7.90
  -4   0   2   99.75    9.23
  -1  -1  -2    3.27    1.26
  -1   1   2    3.62    1.24
   1   1  -2    1.42    0.94
  -1   1  -2    2.16    1.09
   1   1   2    4.41    1.35
   1  -1  -2    0.27    1.04
  -1  -1   2    1.37    1.60
  -3  -1  -2    1.32    1.48
   3  -1   2    0.98    1.30
  -3   1   2   -0.88    1.69
   3  -1   2   -0.27    1.94
  -3  -1   2    0.54    1.69
   3  -1  -2    0.62    1.96
   3   1   2   -0.62    1.66
  -3   1  -2    0.78    1.38
   3   1   2    2.71    1.47
   5  -1   2   -2.11    1.71
  -5   1   2    4.92    3.44
   5   1   2    1.15    1.93
  -5   1  -2    0.91    3.27
   5   1   2    2.72    2.39
  -5  -1   2   -4.66    2.60
   0   2   2  531.36   40.70
   0   2  -2  582.47   40.59
   0  -2   2  545.58   40.59
   0  -2  -2  526.82   40.64
   0  -2  -2  546.76   39.65
  -2  -2  -2  382.98   26.49
   2   2  -2  371.42   25.73
  -2   2   2  365.33   26.53
  -2  -2  -2  369.88   27.00
  -2   2   2  339.98   27.12
   2  -2   2  353.02   25.95
   2  -2  -2  367.53   26.54
  -2   2  -2  377.29   26.90
   2   2   2  345.69   26.07
  -2   2  -2  310.31   26.91
   2  -2  -2  306.58   26.50
  -2  -2   2  349.67   28.26
   2   2   2  346.78   26.23
  -2   2  -2  353.31   26.61
  -4   2   2  170.44   14.70
   4   2  -2  162.50   12.78
   4   2  -2  191.70   14.87
  -4  -2  -2  187.95   13.96
   4  -2   2  163.36   13.31
   4   2   2  172.80   13.53
   4  -2  -2  168.98   14.69
  -4  -2   2  182.63   14.88
  -4   2  -2  138.13   13.45
  -4   2  -2  170.79   14.86
   1   3  -2   69.54    5.22
  -1  -3  -2   68.15    5.47
   1  -3   2   70.75    5.49
  -1   3   2   54.76    5.45
   1   3   2   48.08    5.40
  -1  -3   2   56.55    5.16
   1   3   2   65.55    4.84
   1  -3  -2   63.39    5.38
   1  -3  -2   68.17    5.50
  -1   3  -2   59.85    5.39
  -3  -3  -2   29.67    3.70
   3  -3   2   26.63    3.21
   3   3  -2   25.73    2.88
  -3   3   2   15.83    3.56
   3   3   2   29.14    3.82
  -3   3  -2   34.51    4.33
   3  -3  -2   23.13    3.94
  -3  -3   2   28.94    3.02
  -3   3  -2   25.45    3.38
   3   3   2   29.63    3.64
   3   3   2   25.57    3.38
  -3  -3   2   23.96    4.30
  -5   3   2   15.33    4.64
   5   3  -2   10.08    2.42
   5  -3   2   14.67    2.97
   5   3   2   10.21    2.93
  -5  -3   2   12.23    4.39
  -5   3  -2   13.74    4.70
   0  -4  -2  397.96   28.88
   0   4  -2  362.05   28.76
   0  -4   2  390.20   28.82
  -2   4   2  272.87   19.91
  -2   4   2  275.19   20.08
  -2   4   2  290.97   20.78
  -2  -4  -2  263.37   19.83
   2  -4   2  256.68   19.51
   2   4  -2  257.75   19.66
  -2  -4  -2  222.48   20.35
   2   4  -2  269.26   19.47
  -2  -4   2  246.93   20.19
   2   4   2  263.76   19.66
   2   4   2  269.49   19.91
   2   4   2  245.72   19.52
   2  -4  -2  268.46   19.21
   2  -4  -2  269.11   20.07
   2  -4  -2  270.15   20.23
  -2   4  -2  272.56   20.24
  -2   4  -2  271.23   20.16
  -2   4  -2  257.74   20.26
  -2  -4   2  226.37   21.28
   4  -4   2  131.20   10.63
   4   4  -2  124.76   10.24
  -4  -4  -2  111.19   11.25
  -4   4   2  136.44   12.32
   4  -4  -2  126.67   11.80
  -4  -4   2  120.17   11.69
   4   4   2  132.62   10.75
  -4   4  -2  137.57   11.94
  -4   4  -2  131.30   10.83
  -1   5   2   81.27    6.51
   1   5  -2   68.16    6.23
   1  -5   2   73.52    6.21
  -1  -5  -2   71.14    6.53
  -1  -5  -2   74.25    6.38
   1   5  -2   55.02    6.10
  -1  -5  -2   82.16    5.93
  -1   5   2   57.08    6.23
   1   5   2   61.09    6.28
  -1   5  -2   86.65    6.65
  -1  -5   2   86.01    6.54
   1  -5  -2   75.13    6.33
  -1  -5   2   77.55    6.24
  -1   5  -2   73.29    6.42
   1  -5  -2   79.87    6.12
   1   5   2   75.47    6.38
   3  -5   2   41.35    4.28
  -3  -5  -2   42.59    5.02
  -3   5   2   35.51    5.35
   3   5  -2   34.16    3.99
   3  -5  -2   36.96    3.64
  -3   5  -2   38.57    4.38
  -3   5  -2   38.42    4.97
   3  -5  -2   41.23    5.43
  -3  -5   2   36.07    4.29
   3   5   2   37.19    4.40
  -3  -5   2   39.54    5.40
   5   5  -2   16.07    3.22
   5  -5   2   14.65    3.33
  -5   5   2   19.11    5.19
  -5   5  -2   23.36    5.14
   5   5   2   15.70    3.58
  -5  -5   2   12.10    4.35
   0   6   2  791.40   54.77
   0   6  -2  673.02   55.20
   0   6  -2  715.90   54.72
   0  -6   2  730.57   55.12
   0   6   2  765.00   55.26
   0  -6  -2  724.42   53.42
  -2  -6  -2  560.17   39.44
  -2   6   2  583.24   42.36
   2  -6   2  566.18   41.18
  -2   6   2  578.18   42.28
   2   6  -2  556.70   41.24
  -2  -6  -2  502.53   42.80
  -2   6   2  574.67   42.90
   2  -6  -2  598.40   41.07
  -2   6  -2  549.87   42.39
   2   6   2  572.88   42.25
   2   6   2  568.60   41.41
  -2   6  -2  516.69   42.43
  -2  -6   2  595.13   44.49
  -2  -6   2  619.67   42.67
   2  -6  -2  574.50   41.85
  -2   6  -2  465.69   42.51
   4   6  -2  266.00   22.42
  -4   6   2  289.92   24.43
   4  -6   2  284.16   22.42
  -4  -6  -2  324.47   23.72
  -4   6  -2  305.32   23.35
   4  -6  -2  290.49   22.01
  -4   6  -2  318.59   24.10
   4   6   2  294.37   22.79
   4  -6  -2  285.38   23.84
  -1   7   2   -1.17    1.49
  -1  -7  -2    1.77    1.55
   1   7  -2    2.04    1.52
   1  -7   2    0.74    1.35
   1   7  -2    1.86    1.32
  -1  -7  -2    0.53    1.22
  -1   7   2   -0.56    1.36
   1  -7  -2    2.39    1.52
  -1  -7   2    2.31    1.13
  -1   7  -2   -0.84    1.61
   1   7   2    5.25    1.23
   1   7   2    0.32    1.56
  -1  -7   2    1.47    1.48
   1   7   2   -0.34    1.38
  -1   7  -2    3.72    1.63
  -3   7   2   -1.76    2.34
   3   7  -2   -0.05    1.71
  -3  -7  -2    1.38    2.33
  -3   7   2   -1.59    1.65
   3  -7   2   -0.09    1.63
  -3  -7   2    2.65    2.03
  -3   7  -2   -0.22    1.86
  -3  -7   2    0.22    2.18
   3   7   2    0.23    2.06
   3  -7  -2   -1.75    1.30
  -5   7   2   -1.54    3.70
   5   7  -2    0.46    2.37
  -5  -7  -2    3.39    3.35
   5  -7   2    3.44    2.58
  -5  -7   2   -1.07    3.33
   5   7   2   -1.23    2.45
   0  -8  -2   91.30    7.57
   0   8   2   75.09    7.28
   0  -8   2   85.96    7.58
   0  -8   2   68.91    7.05
   0   8  -2   91.49    7.74
   0   8  -2   69.93    7.32
   0   8   2   86.37    7.69
   0  -8  -2   74.76    7.10
   0  -8   2   86.58    6.76
   0   8  -2   91.27    7.42
   0  -8  -2   89.07    6.87
  -2  -8  -2   66.37    7.13
  -2   8   2   73.79    7.26
  -2   8   2   71.39    6.87
  -2  -8  -2   70.85    5.78
   2  -8   2   54.12    6.44
  -2   8   2   68.57    6.58
   2   8  -2   64.06    6.51
   2   8   2   67.40    6.78
   2  -8  -2   73.32    6.45
  -2   8  -2   71.87    6.84
  -2  -8   2   71.66    6.94
  -2   8  -2   68.77    7.02
   2   8   2   82.41    6.72
  -2  -8   2   82.17    7.89
   4   8  -2   52.05    5.70
  -4   8   2   39.55    6.80
  -4  -8  -2   43.18    5.97
   4  -8   2   39.02    5.17
  -4  -8   2   38.08    5.30
  -4   8  -2   46.53    5.69
   4  -8  -2   44.90    4.80
  -4  -8   2   38.83    6.32
   4   8   2   29.53    5.08
   1   9  -2   22.70    3.82
   1   9  -2   30.76    3.96
  -1   9   2   27.37    3.99
  -1  -9  -2   26.89    4.08
   1  -9   2   29.86    4.03
   1   9  -2   26.38    3.97
   1  -9   2   24.90    3.44
  -1  -9  -2   28.50    3.48
  -1   9   2   30.00    4.18
  -1   9  -2   24.80    3.96
   1   9   2   35.03    4.22
   1   9   2   30.96    4.32
  -1  -9   2   33.55    4.27
   1  -9  -2   31.12    3.93
   1   9   2   36.10    4.54
  -1  -9   2   26.46    3.18
  -1   9  -2   27.25    4.16
   3   9  -2   15.41    3.23
  -3   9   2   18.33    4.50
  -3  -9  -2   15.59    3.90
   3  -9   2   17.77    3.28
  -3   9   2   20.40    3.31
  -3   9  -2   13.01    3.43
  -3  -9   2   14.81    3.88
   3   9   2   16.31    3.48
   3  -9  -2   13.74    2.85
  -3  -9   2   23.04    3.94
   0 -10  -2  210.23   16.12
   0  10  -2  193.36   16.14
   0 -10   2  170.81   16.07
   0 -10  -2  203.42   14.94
   0  10   2  193.25   16.29
   0 -10   2  181.06   15.54
   0 -10   2  209.81   14.86
   0 -10  -2  201.42   15.57
   2  10  -2  158.42   13.62
  -2 -10  -2  156.05   12.35
  -2  10   2  175.70   13.93
   2 -10   2  153.84   13.51
  -2 -10  -2  171.49   14.36
   2 -10  -2  175.13   13.35
  -2 -10   2  137.87   14.49
   2  10   2  175.29   13.87
  -2  10  -2  156.62   13.98
  -2 -10   2  178.54   14.21
  -4  10   2   98.50   11.15
  -4 -10  -2  110.62   10.70
   4 -10   2  105.41    9.52
   4  10  -2   70.28    8.98
   4 -10  -2  103.16    9.04
  -4 -10   2   90.87    9.67
  -4  10  -2  114.69   10.01
   4  10   2  110.47   10.00
  -1  11   2    3.27    2.44
   1 -11   2    5.29    2.17
   1  11  -2    9.64    3.02
  -1 -11  -2    9.07    2.94
  -1 -11  -2    6.28    2.15
   1 -11   2    2.91    2.32
   1  11   2    8.08    3.13
  -1  11  -2    8.00    2.92
  -1 -11   2    8.10    2.14
  -1 -11   2    7.81    2.62
   1  11   2   12.85    3.25
   1 -11  -2    4.27    2.32
   3  11  -2    4.53    2.77
  -3  11   2    3.90    2.69
  -3 -11  -2    4.54    3.30
   3 -11   2    1.28    2.17
   3 -11  -2    3.66    2.50
  -3  11  -2    5.21    3.04
  -3 -11   2    6.14    2.99
   3  11   2    3.19    2.70
   0 -12   2  160.04   13.29
   0 -12  -2  183.81   14.72
   0 -12  -2  160.23   13.44
   0  12  -2  199.41   14.99
   0  12   2  171.77   14.86
   0 -12  -2  171.57   14.11
   0 -12   2  154.09   14.43
   2  12  -2  166.79   13.61
  -2  12   2  140.30   13.54
  -2 -12  -2  175.55   14.41
  -2 -12  -2  157.49   11.89
   2 -12   2  140.76   13.06
   2 -12  -2  158.18   13.03
   2  12   2  138.77   13.53
  -2  12  -2  143.44   13.59
  -2 -12   2  158.79   13.97
   4 -12   2  102.50    9.78
   4  12  -2   99.29   10.01
  -4 -12  -2  109.78   10.89
   4  12   2   95.92   10.05
  -4  12  -2  101.72    9.77
  -4 -12   2   79.51    9.66
   4 -12  -2   83.42    8.99
  -1 -13  -2    0.32    2.66
   1 -13   2    0.23    2.35
  -1  13   2    0.14    2.46
   1 -13   2   -2.10    1.98
  -1 -13  -2   -0.16    1.91
  -1  13  -2    1.62    2.80
  -1 -13   2    3.40    2.01
  -1 -13   2    0.36    2.40
   1 -13  -2   -2.24    2.23
   1  13   2   -2.89    2.62
   1 -13  -2    4.46    2.61
  -3  13   2    1.99    2.57
   3 -13   2    4.16    2.99
   3  13  -2    2.87    3.19
  -3 -13  -2   -0.48    3.28
  -3  13  -2   -0.58    2.63
  -3 -13   2    4.80    3.01
   3 -13  -2    0.97    2.33
   3  13   2    1.85    2.97
   0 -14   2  208.84   17.21
   0  14   2  221.38   19.03
   0  14  -2  225.47   18.85
   0 -14   2  248.64   19.07
   0 -14  -2  207.23   17.19
  -2 -14  -2  189.77   14.88
  -2  14   2  188.75   16.95
   2  14  -2  197.84   16.94
  -2 -14  -2  191.18   17.33
   2 -14   2  210.18   16.51
   2 -14  -2  204.45   16.43
  -2 -14   2  172.70   17.03
  -2  14  -2  192.49   16.92
  -1  15   2    0.04    3.10
   1 -15   2    5.08    2.56
  -1 -15  -2    4.82    2.35
  -1 -15  -2    1.70    3.25
   1 -15  -2    7.80    3.32
  -1  15  -2    7.27    3.51
  -1 -15   2    5.16    2.34
  -1 -15   2    2.01    3.19
   1 -15  -2    7.44    2.92
   3  15  -2    5.38    3.46
  -3  15   2   -0.35    2.91
   3 -15   2    4.37    3.14
  -3 -15  -2    3.05    3.87
   3  15   2   -1.89    2.84
  -3  15  -2    2.35    3.11
  -3 -15   2   -1.36    2.82
   3 -15  -2    1.28    2.90
   0 -16  -2   50.45    6.57
   0  16   2   68.73    8.65
   0  16  -2   66.70    8.36
   0 -16   2   62.59    6.69
  -2 -16  -2   59.71    5.95
   2 -16   2   61.96    7.59
  -2  16   2   51.53    7.48
  -2 -16  -2   50.15    8.24
  -2  16  -2   51.17    7.44
   2 -16  -2   54.21    7.45
  -2 -16   2   62.75    8.26
  -1  17   2   47.62    7.23
   1 -17   2   35.28    5.57
  -1 -17  -2   29.70    4.77
  -1  17  -2   39.93    6.28
  -1 -17   2   33.39    4.79
   1 -17  -2   32.98    5.43
  -1 -17   2   39.16    6.47
   0  18   2  106.97   11.55
   0 -18   2  107.17    9.56
   0 -18  -2   87.67    9.31
   0  18  -2   93.35   11.82
   0   0  -3   -1.52    1.25
  -2   0  -3   -0.85    1.08
  -2   0   3    2.55    1.54
   2   0   3    0.09    1.14
  -2   0  -3   -0.08    1.18
  -2   0   3    1.50    1.68
   2   0  -3    0.21    0.87
  -2   0  -3   -0.29    1.32
   4   0   3    0.29    1.87
  -4   0  -3   -2.00    1.71
  -4   0   3   -0.99    2.25
   4   0  -3    0.52    2.73
  -1  -1  -3  576.42   41.76
   1   1  -3  534.47   41.58
  -1   1   3  525.83   43.46
  -1   1   3  565.20   41.65
  -1  -1   3  594.45   43.80
   1  -1  -3  565.07   41.68
  -3   1   3  303.26   22.17
   3  -1   3  293.81   21.05
  -3  -1  -3  245.49   21.63
  -3  -1   3  271.54   22.05
  -3  -1   3  298.55   23.30
  -3   1  -3  264.55   21.68
   3   1   3  268.89   20.97
   3  -1  -3  285.31   21.87
  -5   1   3  128.37   13.05
   5  -1   3  124.03   11.11
   5   1   3  136.04   11.52
  -5  -1   3  137.69   13.05
  -5   1  -3  138.94   13.41
   0  -2  -3   98.47    8.44
   0   2   3  102.93    8.55
   0   2  -3  108.36    8.38
   2   2  -3   45.65    4.36
   2  -2   3   44.18    4.67
   2   2  -3   49.70    4.34
   2   2  -3   53.53    4.29
  -2   2   3   60.18    4.84
  -2  -2  -3   57.43    4.90
  -2  -2  -3   39.65    4.98
  -2   2   3   47.85    5.32
   2  -2  -3   52.45    4.62
   2  -2  -3   60.28    5.38
  -2  -2   3   54.00    5.86
   2   2   3   47.70    4.49
  -2  -2   3   51.58    5.01
  -2  -2   3   49.47    4.52
  -2   2  -3   51.26    4.95
   2  -2  -3   53.20    4.00
  -2   2  -3   57.61    5.10
   2   2   3   51.68    4.84
  -2   2  -3   68.80    5.34
  -4   2   3   23.12    4.58
   4  -2   3   28.46    3.90
   4   2  -3   27.11    2.97
   4   2  -3   28.82    5.22
  -4  -2  -3   22.72    4.03
  -4   2  -3   28.13    3.72
  -4  -2   3   24.56    4.60
   4  -2  -3   21.95    4.35
   4   2   3   29.58    4.03
   1  -3   3  419.37   29.60
  -1  -3  -3  361.79   29.82
   1   3  -3  400.99   29.39
   1  -3   3  430.73   28.84
  -1   3   3  400.12   29.60
   1   3  -3  351.63   28.72
  -1  -3  -3  401.22   29.52
   1  -3  -3  377.34   29.01
   1   3   3  412.27   28.93
   1  -3  -3  350.11   28.59
   1  -3  -3  324.01   29.42
   1   3   3  409.89   29.60
   1   3   3  397.18   28.91
  -1  -3   3  456.84   29.78
  -3   3   3  236.71   18.12
  -3  -3  -3  182.05   17.49
   3   3  -3  221.21   16.31
  -3  -3   3  216.79   17.56
  -3  -3   3  235.97   18.73
   3  -3  -3  216.06   17.52
   3   3   3  209.55   16.92
  -3   3  -3  222.74   17.23
  -3  -3   3  221.01   16.81
  -5   3   3   90.25   10.53
   5  -3   3   90.10    8.54
  -5  -3   3   99.68   10.56
   5   3   3  101.56    9.13
  -5   3  -3  108.84   10.66
   0  -4  -3   -0.24    1.34
   0   4   3   -0.33    1.33
   0  -4   3    2.87    1.29
   0   4  -3    2.58    1.25
  -2   4   3   -2.06    1.61
   2  -4   3    2.37    1.39
  -2  -4  -3    2.54    1.67
  -2   4   3    1.60    1.24
  -2  -4  -3   -0.67    0.76
  -2   4   3    0.31    1.04
  -2  -4  -3   -1.96    1.02
   2   4  -3    5.18    1.46
  -2  -4   3    3.31    1.62
  -2   4  -3    1.58    1.50
   2  -4  -3    0.80    1.59
   2   4   3   -0.75    1.26
  -2   4  -3    5.30    1.48
  -2  -4   3    3.96    2.30
   2   4   3   -2.90    1.13
  -2  -4   3    5.86    1.54
   2  -4  -3    0.75    0.91
   4  -4   3    5.35    2.22
  -4  -4  -3   -3.41    2.09
  -4   4   3    1.92    2.68
   4   4  -3    2.38    1.86
  -4  -4   3   -0.08    2.60
   4   4   3    0.30    1.92
  -4   4  -3    0.77    2.66
   4  -4  -3   -2.15    2.88
  -4   4  -3    0.81    2.07
  -1  -5  -3  140.36   10.90
  -1  -5  -3  117.51    9.75
  -1   5   3  141.98   10.74
   1   5  -3  110.89   10.33
   1  -5   3  142.26   10.34
  -1   5   3  123.18   10.51
   1   5  -3  104.74   10.23
  -1   5  -3  114.20   10.62
   1  -5  -3  131.09   10.32
  -1  -5   3  122.21   10.61
   1   5   3  137.99   10.85
  -1   5  -3  144.61   10.74
   1   5   3  137.50   10.42
  -1  -5   3  143.09   10.45
   1   5   3  128.68   10.67
   1  -5  -3  143.06   10.16
  -3   5   3   89.09    8.45
  -3  -5  -3   75.74    7.68
   3   5  -3   71.70    6.83
   3  -5   3   85.08    7.16
   3   5   3   81.62    7.39
  -3   5  -3   92.02    7.63
  -3  -5   3   86.66    7.25
  -3   5  -3   80.05    7.66
  -3  -5   3   78.76    7.70
   3  -5  -3   71.93    6.59
   3  -5  -3   88.48    8.27
  -3  -5   3   69.44    8.15
  -5   5   3   51.27    7.73
   5   5  -3   43.08    4.98
   5  -5   3   45.85    5.65
  -5  -5  -3   45.12    6.07
   5   5   3   35.79    5.51
  -5   5  -3   36.62    6.50
  -5  -5   3   57.23    7.46
   0   6  -3    9.07    2.03
   0   6   3    3.69    1.72
   0  -6  -3    8.54    1.98
   0  -6   3    8.81    1.64
   0   6  -3    8.11    2.17
   0   6  -3    8.81    1.90
   0   6   3    7.71    1.96
   0  -6   3    7.54    1.98
   2   6  -3    1.16    1.46
  -2   6   3    4.14    2.49
  -2  -6  -3    3.99    2.06
  -2   6   3    3.96    2.07
  -2   6   3    6.89    1.88
  -2  -6  -3    9.82    1.67
   2  -6   3    4.66    1.90
  -2  -6   3   10.83    3.23
   2   6   3    4.08    1.92
  -2   6  -3    7.95    2.28
   2  -6  -3    9.35    2.47
   2  -6  -3   10.73    1.90
   2   6   3    5.36    2.08
  -2  -6   3    5.07    2.00
  -2   6  -3   11.04    2.42
   2   6   3    7.40    2.29
  -4  -6  -3    0.91    2.36
   4  -6   3    3.77    2.27
   4   6  -3    2.00    1.75
  -4   6   3    3.92    3.06
  -4   6  -3    2.79    2.70
  -4  -6   3    3.55    3.00
   4  -6  -3    2.43    1.50
  -4  -6   3   -1.15    2.83
   4  -6  -3    4.69    2.79
   4   6   3    2.66    2.45
   1   7  -3  293.26   20.27
   1  -7   3  256.50   19.65
  -1  -7  -3  274.09   20.73
  -1  -7  -3  264.25   18.93
  -1   7   3  279.38   20.45
   1  -7   3  253.10   19.00
  -1   7   3  250.46   20.31
   1  -7   3  261.57   20.36
   1   7   3  253.41   19.87
   1   7   3  236.92   19.05
   1  -7  -3  220.66   19.59
  -1   7  -3  262.88   20.55
  -1  -7   3  268.53   20.40
  -1  -7   3  263.44   18.70
  -1   7  -3  267.89   20.34
   1   7   3  276.61   20.58
   1   7   3  224.74   20.04
   3   7  -3  159.63   12.44
  -3   7   3  159.22   13.75
  -3  -7  -3  157.51   13.46
   3  -7   3  147.50   12.55
  -3   7   3  149.99   12.43
  -3  -7   3  158.44   14.04
  -3   7  -3  135.49   12.97
   3   7   3  160.92   12.87
  -3  -7   3  139.84   12.75
   3  -7  -3  151.46   13.30
   3  -7  -3  165.81   12.17
   5  -7   3   73.46    8.00
  -5   7   3   73.70   10.12
  -5  -7  -3   87.20    9.22
   5   7  -3   84.11    7.99
   5   7   3   86.37    8.84
  -5  -7   3   83.88    9.59
   0   8  -3    0.96    1.75
   0  -8  -3   -0.73    1.55
   0  -8   3   -1.15    1.17
   0  -8  -3   -0.24    1.53
   0   8  -3   -0.53    1.41
   0   8   3    0.64    1.79
   0   8  -3   -1.12    1.68
   0  -8  -3   -0.83    1.31
   0  -8   3    0.73    1.47
   0  -8   3    1.86    1.71
  -2   8   3    2.55    2.06
   2   8  -3   -0.70    1.79
   2  -8   3    1.99    1.83
  -2   8   3    2.30    1.93
  -2  -8  -3    0.61    1.43
  -2  -8  -3    0.53    2.17
  -2  -8   3    0.38    1.89
   2   8   3    0.76    1.91
   2  -8  -3    0.14    1.67
  -2  -8   3   -2.58    2.57
   2   8   3   -1.58    1.89
  -2   8  -3   -1.41    1.79
   4  -8   3   -0.71    2.14
  -4  -8  -3   -2.14    2.45
   4   8  -3   -0.71    2.04
  -4   8   3    3.68    3.57
  -4  -8   3   -0.52    2.21
  -4   8  -3   -1.56    2.40
   4  -8  -3   -1.25    1.68
   4   8   3   -3.65    2.29
  -4  -8   3    5.64    2.84
   1  -9   3  475.37   34.40
   1  -9   3  405.08   35.47
   1   9  -3  470.09   34.78
  -1   9   3  455.34   35.63
   1   9  -3  513.23   35.42
   1  -9   3  503.82   33.34
  -1  -9  -3  436.50   35.80
  -1  -9  -3  454.22   33.18
  -1  -9   3  476.74   32.90
   1   9   3  422.00   35.17
   1   9   3  481.10   35.71
   1   9   3  502.14   34.74
  -1  -9   3  455.98   35.75
  -1   9  -3  421.70   35.74
   1  -9  -3  445.11   34.38
  -3   9   3  296.42   22.47
  -3  -9  -3  260.39   23.22
   3  -9   3  261.82   21.93
  -3   9   3  320.54   23.87
   3   9  -3  300.96   22.27
  -3  -9   3  264.09   22.81
   3  -9  -3  250.96   21.56
   3   9   3  297.86   22.56
  -3  -9   3  327.50   24.50
  -3   9  -3  276.70   23.06
   0 -10  -3    3.87    1.92
   0 -10   3    4.47    2.37
   0 -10  -3    4.94    2.50
   0  10   3   -2.17    1.87
   0  10  -3   -2.70    1.95
   0 -10   3    3.41    1.62
   0 -10  -3    2.39    2.01
  -2  10   3    2.01    2.25
  -2 -10  -3   -1.60    2.14
  -2 -10  -3    2.00    1.70
   2  10  -3    1.09    2.36
   2 -10   3   -0.06    1.99
  -2 -10   3    5.18    3.67
   2 -10  -3    3.16    2.17
  -2 -10   3    1.65    2.25
   2  10   3    4.37    2.34
  -2  10  -3    2.51    2.51
   4  10  -3    3.14    2.50
  -4 -10  -3    5.28    3.36
  -4  10   3    1.28    4.00
   4 -10   3   -3.26    2.51
   4 -10  -3    0.08    2.10
  -4  10  -3   -1.95    3.11
  -4 -10   3   -0.69    3.44
   4  10   3   -0.88    2.14
  -4 -10   3   -2.07    2.37
   1 -11   3  182.86   13.99
  -1  11   3  144.57   14.28
   1  11  -3  183.95   14.38
   1 -11   3  169.51   13.37
  -1 -11  -3  159.12   13.16
  -1 -11  -3  138.30   14.47
   1  11   3  184.16   14.68
  -1 -11   3  206.71   14.89
  -1  11  -3  173.75   14.66
  -1 -11   3  173.85   12.94
   1 -11  -3  143.41   13.67
  -3  11   3  130.55   11.03
   3  11  -3  125.31   11.16
  -3 -11  -3  120.92   11.80
   3 -11   3  129.38   10.97
   3  11   3  104.00   10.96
  -3 -11   3  108.77   12.02
  -3 -11   3  112.57   11.22
  -3  11  -3  124.52   11.45
   3 -11  -3  113.62   10.37
   0 -12  -3   35.17    4.51
   0 -12  -3   24.81    4.46
   0 -12   3   29.71    4.06
   0 -12   3   34.57    5.19
   0  12   3   27.12    4.85
   0  12  -3   38.67    5.39
   2  12  -3   22.79    4.56
  -2 -12  -3   13.53    4.40
   2 -12   3   20.39    4.06
  -2 -12  -3   26.55    3.58
  -2  12   3   23.99    4.42
  -2 -12   3   27.11    5.80
  -2 -12   3   32.21    4.90
   2  12   3   19.83    4.42
   2 -12  -3   31.14    4.38
  -2  12  -3   21.66    4.42
   4 -12   3   14.57    4.09
   4  12  -3   18.01    4.06
  -4 -12  -3   15.56    4.59
  -4 -12   3    7.75    3.39
  -4  12  -3   18.17    4.48
   4 -12  -3   21.68    3.88
   4  12   3   11.47    3.94
   1 -13   3   66.39    7.36
  -1 -13  -3   77.87    8.62
  -1  13   3   85.78    8.70
   1  13  -3   72.15    8.21
   1 -13   3   80.58    8.01
  -1 -13  -3   64.39    7.08
  -1 -13   3   78.66    7.01
   1  13   3   79.19    8.56
  -1  13  -3   86.59    8.67
  -1 -13   3   63.58    8.07
   1 -13  -3   88.45    8.08
   3  13  -3   49.89    7.25
  -3 -13  -3   64.37    8.71
   3 -13   3   60.48    7.16
  -3  13   3   60.36    7.15
  -3  13  -3   57.39    7.57
  -3 -13   3   56.42    7.61
   3 -13  -3   53.42    6.88
   3  13   3   52.64    7.53
   0 -14  -3    5.26    2.75
   0  14  -3    8.78    3.46
   0  14   3   10.43    3.61
   0 -14   3    9.24    2.74
   0 -14   3    6.14    3.14
   2 -14   3    4.68    3.04
   2  14  -3    7.76    4.05
  -2 -14  -3    7.65    3.91
  -2 -14  -3    2.92    2.09
  -2  14   3    2.43    3.18
   2 -14  -3    4.25    3.14
  -2 -14   3    0.54    2.73
  -2  14  -3    5.58    3.02
  -1 -15  -3  110.82   11.20
  -1 -15  -3   98.68    9.07
  -1  15   3  112.12   10.92
   1 -15   3   97.69    9.31
  -1  15  -3  101.47   10.39
   1  15   3   93.53   10.57
  -1 -15   3   80.03    9.85
   1 -15  -3   94.77    9.49
   1 -15  -3  126.08   10.54
  -1 -15   3   95.30    8.67
   3 -15   3   82.79    8.82
   3  15  -3   61.89    8.95
  -3  15   3   74.77    8.58
  -3 -15  -3   74.40   10.25
  -3  15  -3   77.50    9.51
   3 -15  -3   88.24    8.82
  -3 -15   3   81.64    9.25
   0 -16  -3    8.04    3.11
   0 -16   3    7.26    2.85
   0  16  -3    4.28    3.79
   0  16   3   10.97    4.08
   2 -16   3    6.28    3.36
  -2 -16  -3    6.22    4.06
  -2  16   3   12.89    4.05
  -2 -16  -3    9.22    2.62
   2 -16   3    2.27    3.62
   2 -16  -3    8.36    3.76
  -2  16  -3    2.61    3.42
  -2 -16   3    5.28    3.65
  -1 -17  -3  102.81    9.38
  -1  17   3   94.58   11.05
   1 -17   3  101.14    9.76
   1 -17  -3  107.54   10.22
  -1  17  -3   90.69   10.87
  -1 -17   3  118.56   11.56
  -1 -17   3   93.05    8.89
   0 -18  -3    1.73    2.66
   0 -18   3    1.07    2.49
   0  18   3    1.89    3.81
   0   0  -4  757.76   56.37
  -2   0  -4  419.38   37.84
  -2   0  -4  559.44   37.51
   2   0  -4  545.13   37.31
  -2   0   4  491.28   39.35
   2   0  -4  506.45   36.08
  -2   0   4  471.68   37.28
   2   0   4  513.17   36.63
  -2   0   4  470.73   37.84
   4   0   4  208.32   18.49
  -4   0   4  256.64   20.15
   4   0  -4  252.97   19.81
  -4   0  -4  233.14   19.33
  -4   0  -4  249.10   19.42
  -1   1   4   37.52    3.95
   1   1  -4   40.24    3.77
  -1   1   4   41.72    4.38
  -1  -1  -4   35.28    4.14
   1  -1   4   41.11    3.99
  -1   1   4   46.75    4.26
   1   1  -4   39.80    3.96
   1  -1  -4   37.23    3.60
  -1  -1   4   47.25    4.75
  -1   1  -4   42.78    4.23
   1   1   4   39.23    4.00
   1  -1  -4   38.52    4.12
  -1  -1   4   39.93    3.88
  -3   1   4   19.94    3.80
  -3  -1  -4   15.28    3.16
   3  -1   4   22.70    3.20
   3   1  -4   20.20    2.13
  -3  -1   4   16.68    3.45
   3  -1  -4   16.21    3.59
  -3   1  -4   17.53    3.15
  -3  -1   4   13.34    3.69
   3   1   4   15.47    2.85
   5  -1   4    6.89    2.57
  -5   1   4   14.41    4.61
  -5  -1   4   14.01    4.08
  -5   1  -4    8.23    4.36
   5   1   4    4.31    2.76
   0   2  -4  164.24   13.95
   0   2   4  193.59   14.12
   0  -2  -4  177.67   14.24
  -2   2   4  153.97   12.56
  -2   2   4  150.48   11.94
  -2   2   4  164.06   11.72
  -2  -2  -4  135.66   12.37
   2   2  -4  149.08   11.40
  -2   2   4  147.98   12.85
   2  -2   4  144.77   11.77
  -2  -2  -4  150.58   11.01
  -2   2  -4  135.30   12.00
   2  -2  -4  154.86   11.97
  -2  -2   4  155.51   12.21
   2  -2  -4  147.20   11.24
  -2   2  -4  173.33   12.62
  -2   2  -4  149.38   12.31
  -2  -2   4  152.34   13.23
   2   2   4  158.92   11.94
  -2  -2   4  130.51   11.77
   4   2  -4   78.17    6.57
  -4   2   4   71.11    8.59
   4  -2   4   83.24    7.74
  -4  -2  -4   73.52    8.00
   4  -2  -4   70.52    8.23
  -4  -2   4   85.77    8.45
   4   2   4   87.32    7.93
  -4   2  -4   86.75    7.65
   1  -3   4   27.65    3.19
  -1  -3  -4   25.14    3.43
  -1   3   4   25.93    3.74
  -1   3   4   28.18    3.18
   1   3  -4   25.03    2.98
  -1   3   4   28.39    3.14
  -1   3   4   27.88    3.42
   1   3  -4   22.14    2.89
  -1   3  -4   22.56    3.05
  -1   3  -4   23.56    3.19
   1   3   4   19.58    3.07
   1  -3  -4   27.16    2.97
   1   3   4   25.27    3.22
   1   3   4   26.46    3.23
  -1  -3   4   28.50    3.18
  -3  -3  -4   12.55    3.14
  -3   3   4   11.27    3.34
   3  -3   4   10.78    2.51
   3   3  -4   15.66    2.30
   3  -3  -4   13.81    1.77
  -3  -3   4   11.01    3.05
  -3  -3   4   18.08    2.45
  -3  -3   4    8.49    3.51
  -3   3  -4   15.76    2.85
   3   3   4    7.99    2.51
   3  -3  -4   17.13    3.45
  -5  -3  -4    4.29    3.07
   5  -3   4    0.76    2.43
  -5   3   4    6.59    3.65
  -5   3  -4    5.67    3.65
  -5  -3   4    5.91    3.95
   5   3   4    2.04    2.37
   0  -4   4  477.08   31.87
   0   4   4  436.02   31.85
   0  -4  -4  429.54   32.69
   0  -4  -4  447.80   33.00
   0   4   4  447.64   34.18
   0   4  -4  416.78   33.08
   0   4   4  429.11   34.05
   0   4  -4  472.84   33.92
   0  -4   4  482.73   34.25
  -2   4   4  310.62   24.55
   2  -4   4  333.49   23.45
  -2   4   4  307.58   23.72
  -2  -4  -4  292.06   22.26
   2   4  -4  327.76   23.36
  -2   4   4  326.33   24.09
  -2  -4  -4  318.65   24.36
   2   4   4  301.05   24.00
   2   4   4  310.34   23.59
  -2  -4   4  286.81   23.92
   2   4   4  320.28   23.63
  -2   4  -4  326.55   24.39
   2  -4  -4  274.96   23.74
  -2   4  -4  323.86   24.02
   2   4   4  331.95   22.78
  -2  -4   4  280.22   23.92
  -2  -4   4  314.64   25.66
   2  -4  -4  322.84   22.98
  -4   4   4  172.25   15.20
  -4  -4  -4  160.36   14.31
   4  -4   4  163.79   13.70
   4   4  -4  160.13   13.01
   4   4   4  148.29   13.71
   4  -4  -4  182.02   14.98
  -4   4  -4  161.62   14.58
  -4  -4   4  174.04   14.78
  -4   4  -4  161.43   14.11
  -4  -4   4  191.91   16.13
  -1  -5  -4    1.24    1.14
   1  -5   4    1.19    1.64
  -1   5   4    0.60    1.34
  -1   5   4    1.43    1.44
  -1  -5  -4    2.08    1.59
   1   5  -4   -1.01    1.38
   1   5  -4   -0.52    0.96
   1  -5   4   -0.41    1.31
   1  -5   4   -1.81    1.34
   1   5   4   -0.67    1.60
   1   5   4    2.46    1.44
  -1   5  -4    0.03    1.22
   1   5   4    0.86    1.39
  -1  -5   4   -0.04    0.90
   1  -5  -4    1.26    1.25
  -1   5  -4    1.00    1.67
  -1  -5   4   -1.93    1.24
   1  -5  -4    0.49    1.18
   1   5   4    1.69    1.59
  -3  -5  -4    1.88    2.03
   3   5  -4   -1.95    1.51
   3  -5   4   -1.41    1.83
  -3   5   4   -0.22    2.38
   3  -5  -4    0.42    2.20
  -3  -5   4    2.62    2.83
  -3   5  -4   -2.19    2.01
  -3  -5   4   -4.51    1.39
   3   5   4    0.41    1.79
  -3  -5   4    1.55    2.14
   3  -5  -4   -0.02    1.30
   5  -5   4    0.64    2.64
  -5  -5  -4   -2.78    2.70
  -5   5   4    4.45    4.24
   5   5  -4    2.27    2.21
  -5  -5   4   -4.99    2.72
   5   5   4   -1.62    2.40
   0   6   4  245.04   18.91
   0   6   4  234.97   18.81
   0  -6   4  244.48   18.94
   0  -6  -4  243.37   18.23
   0  -6  -4  228.42   18.88
   0  -6   4  226.41   17.40
   0   6  -4  218.43   18.57
   0   6  -4  238.24   18.38
   0   6  -4  270.91   19.10
  -2  -6  -4  240.48   16.87
   2  -6   4  184.52   15.70
  -2   6   4  208.01   16.84
   2   6  -4  226.83   15.99
  -2  -6  -4  195.80   14.89
  -2   6   4  206.57   15.94
  -2   6   4  202.63   16.26
  -2  -6   4  205.59   16.22
   2   6   4  196.02   15.51
  -2  -6   4  183.54   17.65
  -2   6  -4  192.47   16.40
   2   6   4  173.65   15.97
   2  -6  -4  201.57   16.13
  -2   6  -4  215.12   16.39
   2   6   4  211.32   15.96
   2  -6  -4  194.35   15.43
  -4  -6  -4   93.93   10.78
  -4   6   4  113.74   11.52
   4   6  -4  132.20    9.93
   4  -6   4  120.48   10.15
   4   6   4  118.01   10.32
  -4  -6   4  102.93   10.63
   4  -6  -4  107.78    9.04
  -4   6  -4  124.82   10.59
  -4  -6   4   87.68   11.19
  -1  -7  -4    1.45    1.55
   1  -7   4    5.47    1.98
   1  -7   4    3.87    1.63
  -1  -7  -4    2.11    2.04
  -1   7   4    4.09    1.85
   1  -7   4    5.32    2.10
  -1  -7  -4    2.78    1.91
   1   7  -4    3.77    1.93
   1   7  -4    1.49    1.65
  -1   7   4    1.40    1.90
   1   7   4    4.38    1.88
  -1  -7   4    3.61    1.50
   1   7   4   -1.12    1.74
   1   7   4    5.29    1.83
  -1   7  -4    4.94    1.89
   1   7   4    4.96    2.33
  -1  -7   4    4.03    1.78
   1  -7  -4    3.57    1.81
  -1   7  -4    2.23    1.97
   3   7  -4    1.04    2.06
  -3  -7  -4    1.39    2.35
  -3   7   4    1.33    2.79
   3  -7   4   -0.61    1.89
  -3   7   4   -0.41    1.64
   3   7   4    6.41    2.58
   3  -7  -4    4.88    2.03
  -3   7  -4    2.12    2.35
  -3  -7   4   -0.88    1.74
  -3  -7   4    1.19    3.21
   3  -7  -4    4.32    3.00
  -5  -7  -4   -0.61    3.08
   5  -7   4   -0.16    2.76
   5   7  -4    4.66    2.56
  -5   7   4    1.66    3.79
   5   7   4    5.87    3.12
   0   8  -4  297.91   24.36
   0  -8  -4  330.06   24.80
   0   8  -4  307.67   23.93
   0  -8   4  317.80   22.79
   0  -8   4  306.82   24.65
   0  -8  -4  309.26   23.97
   0  -8  -4  317.40   22.89
   0   8  -4  297.24   24.84
   0   8   4  329.34   24.69
   0   8   4  321.72   24.53
  -2   8   4  241.79   19.17
   2  -8   4  238.57   18.85
   2   8  -4  231.85   18.98
  -2  -8  -4  242.91   17.80
  -2  -8  -4  236.91   19.84
  -2  -8   4  251.66   21.38
   2  -8  -4  254.30   18.82
   2   8   4  223.07   18.22
   2   8   4  267.06   19.22
  -2   8  -4  207.65   19.49
  -2  -8   4  253.02   19.61
   4   8  -4  127.07   11.74
   4  -8   4  133.68   11.85
  -4   8   4  137.89   13.64
  -4  -8  -4  120.05   12.52
  -4  -8   4  132.22   13.51
  -4  -8   4  150.40   12.06
  -4   8  -4  143.84   12.59
   4  -8  -4  139.35   11.13
   4   8   4  132.08   12.39
  -1  -9  -4    0.94    1.67
  -1   9   4    1.68    2.12
   1  -9   4    1.20    1.82
   1   9  -4    4.72    2.41
   1   9  -4    5.30    1.90
   1  -9   4    1.24    1.71
  -1  -9  -4    2.72    2.35
   1  -9   4    2.31    2.16
  -1  -9   4    1.42    2.04
   1  -9  -4    3.73    2.35
  -1  -9   4    1.26    1.60
   1   9   4    0.65    2.07
  -1   9  -4    1.55    2.37
   1   9   4    1.23    2.21
  -3   9   4    1.48    3.54
  -3  -9  -4    2.65    2.78
   3   9  -4   -0.83    2.22
   3  -9   4    3.44    2.50
  -3   9   4   -0.23    2.01
  -3  -9   4   -2.51    3.10
  -3   9  -4   -0.54    2.58
   3   9   4    1.84    2.62
  -3  -9   4    0.22    2.25
   3  -9  -4    0.96    2.18
   0  10  -4  125.44   11.19
   0 -10   4  122.83    9.86
   0  10   4  124.66   10.92
   0 -10  -4  109.70   10.48
   0 -10  -4  129.28   10.23
   0 -10   4  120.34   11.08
   2 -10   4   97.83    9.00
  -2 -10  -4   90.18    8.05
  -2  10   4   93.33    9.03
   2  10  -4  110.58    9.46
  -2 -10  -4   87.11    9.72
   2 -10  -4   87.90    8.69
  -2 -10   4   88.31    9.18
   2  10   4  109.91    9.37
  -2 -10   4  107.19   11.40
  -2  10  -4   87.33    9.50
  -4 -10  -4   67.96    7.96
   4 -10   4   51.56    6.87
   4  10  -4   44.67    6.83
  -4  10   4   57.09    8.49
   4 -10  -4   67.04    6.59
   4  10   4   51.94    7.30
  -4 -10   4   60.31    6.97
  -4  10  -4   69.97    7.75
  -4 -10   4   71.85    9.12
   1  11  -4   30.76    4.90
   1 -11   4   29.25    4.70
  -1 -11  -4   38.41    5.64
   1 -11   4   33.09    4.47
  -1  11   4   32.01    5.10
  -1 -11  -4   31.71    4.38
   1 -11  -4   39.54    5.07
  -1 -11   4   31.55    5.39
   1  11   4   37.29    5.49
  -1 -11   4   40.04    4.22
  -1  11  -4   36.13    5.58
   3 -11   4   26.30    4.47
  -3  11   4   17.72    3.65
   3  11  -4   20.44    4.40
  -3 -11  -4   26.37    5.29
  -3 -11   4   18.51    4.11
   3  11   4   23.43    4.71
  -3 -11   4   24.05    5.51
  -3  11  -4   27.09    4.98
   3 -11  -4   17.55    3.74
   0 -12   4  296.07   20.31
   0  12  -4  266.04   22.26
   0  12   4  295.34   22.23
   0 -12   4  254.19   22.24
   0 -12  -4  237.95   20.25
   0 -12  -4  263.56   21.30
   2  12  -4  292.30   20.23
  -2 -12  -4  216.47   20.66
  -2  12   4  211.71   19.94
  -2 -12  -4  260.65   18.40
   2 -12   4  242.79   19.68
   2 -12  -4  268.76   19.65
  -2  12  -4  236.92   20.54
  -2 -12   4  240.92   22.29
  -2 -12   4  212.33   20.10
   4  12  -4  136.67   13.04
  -4 -12  -4  127.48   13.55
   4 -12   4  146.93   12.90
   4  12   4  154.10   13.56
  -4 -12   4  145.51   13.20
   4 -12  -4  135.79   12.29
  -4  12  -4  140.45   13.51
   1 -13   4    5.93    2.68
  -1 -13  -4    4.73    3.67
   1  13  -4   10.31    3.65
  -1 -13  -4    7.03    2.63
  -1  13   4    5.86    3.33
  -1 -13   4    6.29    2.37
  -1  13  -4    7.22    3.67
   1 -13  -4    4.71    2.57
   1  13   4    4.39    3.42
  -1 -13   4    8.29    3.31
  -3  13   4    5.61    2.78
  -3 -13  -4    6.46    3.86
   3 -13   4    0.59    3.11
   3  13  -4    3.73    3.44
   3 -13  -4    7.19    2.80
   3  13   4    1.97    3.09
  -3 -13   4    7.43    3.66
  -3  13  -4    3.22    3.18
   0 -14  -4   71.41    7.25
   0 -14   4   52.18    6.65
   0  14   4   64.82    8.15
   0  14  -4   83.19    8.66
   0 -14   4   70.13    8.02
   2 -14   4   46.73    6.34
  -2 -14  -4   51.56    5.58
   2 -14   4   48.34    6.73
  -2  14   4   52.00    6.97
  -2 -14  -4   36.25    7.13
   2  14  -4   59.43    7.24
  -2  14  -4   47.40    7.12
   2 -14  -4   55.71    6.97
  -2 -14   4   57.27    7.51
   1 -15   4   16.39    3.87
  -1 -15  -4   12.37    4.56
  -1 -15  -4   18.13    3.89
  -1  15   4   19.43    4.56
   1  15   4   14.76    4.50
  -1  15  -4   16.05    4.47
  -1 -15   4   17.81    4.58
  -1 -15   4   21.09    3.63
   1 -15  -4   17.75    4.36
   3  15  -4   13.41    4.52
   3 -15   4   12.48    4.21
   3 -15  -4    8.25    3.83
   0  16   4  144.19   13.48
   0 -16  -4  138.41   12.00
   0 -16   4  127.48   11.53
  -2 -16  -4  116.66    9.84
  -2 -16  -4  105.05   12.27
   2 -16   4  107.26   10.70
  -2  16   4  108.09   11.27
  -2 -16   4  115.14   12.24
   2 -16  -4  116.73   11.44
  -2  16  -4  122.70   12.21
  -1 -17  -4    1.20    2.23
  -1  17   4    6.04    3.84
   1 -17   4   -1.49    2.61
  -1 -17   4    3.05    3.66
  -1 -17   4    0.12    2.23
   1 -17  -4    0.97    2.75
  -1  17  -4   -0.32    3.58
  -2   0   5    8.59    2.80
   2   0   5   18.04    2.64
  -2   0  -5   14.61    2.71
  -2   0  -5   11.78    2.42
   4   0   5    8.34    2.72
  -4   0  -5   10.83    3.13
   4   0  -5    5.32    3.16
  -4   0   5   10.59    3.78
  -4   0  -5   12.21    3.43
  -1  -1  -5  155.79   12.78
   1  -1   5  162.81   11.81
  -1   1   5  148.53   12.61
   1  -1   5  161.97   12.72
  -1   1   5  164.99   12.56
   1   1  -5  150.46   11.96
  -1   1   5  169.59   13.12
   1  -1   5  168.31   12.28
   1   1   5  161.26   12.85
   1   1   5  169.21   12.26
  -1  -1   5  146.81   12.38
   1   1   5  139.98   11.69
  -1   1  -5  133.86   12.69
   1  -1  -5  152.38   12.01
  -1   1  -5  153.73   12.79
   3   1  -5  101.78    7.49
  -3  -1  -5   95.37    8.95
   3  -1   5   95.64    8.32
  -3   1   5   71.07    8.68
  -3   1  -5   77.07    8.64
   3  -1  -5   97.94    7.35
   3   1   5   99.65    8.45
  -3   1  -5   89.75    8.81
  -3  -1   5  105.05    9.84
  -3  -1   5   93.82    9.10
   5  -1   5   51.93    6.43
  -5  -1  -5   58.15    6.84
  -5   1   5   49.52    7.77
  -5  -1  -5   60.86    7.22
   5   1   5   46.38    6.31
  -5   1  -5   55.60    6.39
  -5  -1   5   43.15    7.39
   0   2   5    7.84    2.03
   0  -2   5    8.33    2.04
   0  -2  -5    7.29    1.84
   0   2   5    7.72    2.05
   0   2   5    7.71    1.75
   0   2  -5    7.90    1.97
   0   2  -5    8.87    1.93
   0  -2   5    7.76    1.68
  -2   2   5    5.89    1.64
  -2  -2  -5    5.74    2.20
   2   2  -5    3.68    1.47
  -2   2   5    4.09    2.35
   2  -2   5    5.95    1.86
  -2   2   5    2.17    2.13
  -2   2   5    4.42    1.93
  -2  -2  -5    6.25    1.51
   2  -2   5    3.40    1.68
  -2  -2   5    5.66    2.06
  -2   2  -5    4.60    2.09
  -2  -2   5    6.41    1.71
  -2   2  -5    5.25    1.86
  -2  -2   5    1.39    2.22
  -2   2  -5    3.82    2.08
   2  -2  -5    4.66    1.30
   2   2   5    1.20    1.57
   2   2   5    5.03    2.03
  -4   2   5   -1.10    2.50
   4   2  -5    5.60    1.58
  -4  -2  -5    0.60    2.56
   4  -2   5    1.80    1.92
   4   2   5    2.13    2.42
   4  -2  -5   12.40    3.15
  -4   2  -5   -0.01    2.20
  -4  -2   5    0.59    2.72
   1   3  -5  461.72   34.26
  -1   3   5  451.24   34.46
   1   3  -5  429.21   33.49
   1  -3   5  439.64   34.79
  -1   3   5  457.47   34.36
  -1  -3  -5  449.94   34.86
   1  -3   5  386.31   32.33
   1  -3   5  520.86   33.62
  -1   3   5  446.20   35.42
  -1  -3   5  442.09   34.55
   1   3   5  494.26   34.84
   1   3   5  441.88   33.65
   1  -3  -5  478.58   33.40
   1   3   5  473.77   33.64
   1   3   5  413.45   34.38
   1   3   5  439.86   32.36
  -1   3  -5  469.20   34.63
  -1   3  -5  466.09   34.38
  -3   3   5  244.90   22.51
   3  -3   5  272.39   21.63
  -3  -3  -5  324.95   22.75
   3   3  -5  287.97   20.90
  -3  -3   5  306.55   21.62
   3  -3  -5  289.63   22.20
   3   3   5  285.90   21.83
   3  -3  -5  248.02   20.63
  -3   3  -5  299.35   22.24
  -3  -3   5  236.80   22.13
  -3  -3   5  289.81   23.80
  -5  -3  -5  132.29   13.05
   5  -3   5  149.15   12.69
  -5   3   5  146.95   14.52
  -5   3  -5  153.80   13.29
   5   3   5  124.85   12.62
  -5  -3   5  178.82   14.73
   0   4   5   10.82    2.49
   0  -4   5   16.30    2.78
   0  -4  -5   14.64    1.81
   0  -4  -5   13.81    2.48
   0   4   5   14.91    2.21
   0   4  -5   13.79    2.61
   0   4   5   14.33    2.59
   0   4  -5    8.94    2.15
   0  -4   5   19.43    2.44
   0   4  -5   15.49    2.60
   2  -4   5   11.85    2.59
   2  -4   5   13.24    2.48
  -2  -4  -5    8.03    2.65
  -2  -4  -5   21.15    2.57
   2   4  -5   13.59    2.35
  -2   4   5   10.08    2.11
  -2   4   5    5.38    2.69
  -2   4   5   12.32    2.74
  -2   4  -5   10.29    2.79
   2   4   5   15.21    2.84
   2  -4  -5   11.52    2.74
   2   4   5   12.85    2.79
  -2  -4   5   11.63    2.32
  -2  -4   5   14.06    2.51
  -2  -4   5    8.39    3.11
   2   4   5   12.00    2.79
   2  -4  -5   10.63    2.05
  -2   4  -5    5.14    2.13
   2   4   5    7.89    2.31
  -4  -4  -5    5.01    3.16
  -4   4   5    2.25    3.37
   4  -4   5    8.42    3.10
   4   4  -5    4.37    2.02
  -4  -4   5    7.95    3.31
  -4   4  -5    6.10    2.80
   4   4   5    6.18    2.66
  -4  -4   5   10.16    4.45
   1   5  -5  377.39   28.11
   1  -5   5  367.38   26.56
  -1  -5  -5  379.61   28.53
  -1  -5  -5  369.55   26.62
  -1   5   5  389.62   28.55
  -1   5   5  360.68   28.31
   1  -5   5  373.84   27.51
  -1  -5  -5  330.47   27.51
   1  -5   5  335.50   28.52
   1   5  -5  380.68   27.56
   1  -5  -5  388.80   27.51
  -1   5  -5  330.90   28.12
   1   5   5  371.51   28.32
  -1   5  -5  369.64   28.62
   1   5   5  365.15   27.51
  -1  -5   5  332.43   28.31
  -1  -5   5  371.32   26.01
   1   5   5  390.40   28.74
   1   5   5  403.31   26.84
   1  -5  -5  362.59   27.37
  -3  -5  -5  172.96   18.05
  -3   5   5  218.63   18.63
   3   5  -5  227.29   16.97
   3  -5   5  222.62   17.34
   3   5   5  238.74   17.60
   3  -5  -5  211.02   17.94
  -3  -5   5  204.92   19.20
   3  -5  -5  224.91   16.51
  -3  -5   5  243.21   17.59
  -3   5  -5  208.26   18.00
   5   5  -5  122.76   10.34
   5  -5   5  122.63   11.40
  -5  -5  -5  106.36   11.99
  -5   5   5  137.68   13.40
  -5  -5   5  125.00   12.54
   5   5   5  123.17   11.48
  -5   5  -5  135.22   11.96
   0  -6  -5   30.95    3.89
   0  -6  -5   33.39    3.84
   0   6   5   25.37    3.89
   0   6  -5   29.58    4.09
   0   6  -5   29.78    4.07
   0   6  -5   24.65    3.51
   0  -6   5   27.82    3.94
   0  -6   5   25.55    3.20
   0   6   5   27.43    4.00
  -2   6   5   19.21    3.11
   2  -6   5   23.35    3.16
  -2   6   5   22.90    3.91
  -2  -6  -5   20.28    3.65
  -2  -6  -5   25.38    3.10
   2  -6   5   18.20    3.32
   2   6  -5   20.41    3.23
   2  -6  -5   18.26    2.81
  -2  -6   5   19.97    3.40
  -2   6  -5   20.21    3.66
   2  -6  -5   13.20    3.28
   2   6   5   25.98    3.76
   2   6   5   24.63    3.75
  -2  -6   5   21.55    4.73
   2   6   5   21.51    3.54
  -4  -6  -5   20.46    4.55
  -4   6   5   10.45    4.14
   4   6  -5    9.08    2.79
   4  -6   5    5.23    2.67
  -4   6  -5    5.82    3.00
  -4  -6   5   10.33    4.48
   4   6   5   17.66    3.65
   4  -6  -5   10.02    2.63
   1  -7   5  177.18   14.80
  -1   7   5  180.83   14.86
  -1  -7  -5  159.18   14.73
   1   7  -5  177.03   14.41
   1   7  -5  195.50   14.43
  -1  -7  -5  200.48   13.71
   1  -7   5  168.23   14.10
  -1   7   5  165.45   14.55
   1  -7   5  192.34   13.59
  -1   7  -5  181.58   14.95
   1   7   5  184.23   13.68
  -1  -7   5  182.62   14.87
   1   7   5  159.41   14.25
   1  -7  -5  179.57   14.10
   1   7   5  197.78   15.04
  -1  -7   5  160.69   13.10
   1   7   5  168.42   14.78
   3  -7   5  137.55   11.28
   3   7  -5  111.11   10.86
  -3   7   5  137.42   12.77
  -3   7   5  129.62   10.82
  -3  -7  -5  116.96   11.74
  -3  -7   5  129.32   11.36
  -3  -7   5  143.44   13.42
   3   7   5  114.34   11.32
   3  -7  -5  129.13   11.76
  -3   7  -5  127.28   11.77
   3  -7  -5  147.76   10.87
   0   8  -5   37.23    5.16
   0  -8   5   38.88    4.06
   0  -8  -5   37.35    5.02
   0   8  -5   29.72    4.79
   0   8   5   42.02    5.16
   0  -8  -5   44.47    5.04
   0  -8  -5   34.03    4.37
   0  -8   5   38.13    5.03
   2  -8   5   23.44    3.91
   2   8  -5   33.44    4.54
  -2  -8  -5   32.34    5.08
  -2  -8  -5   33.17    4.05
  -2   8   5   26.22    4.09
   2  -8   5   36.91    4.68
   2  -8  -5   34.40    4.83
  -2   8  -5   37.64    5.22
   2   8   5   28.56    4.60
  -2  -8   5   34.16    4.77
  -2  -8   5   26.45    6.02
   2   8   5   37.72    4.77
   2  -8  -5   35.82    4.47
   4   8  -5   16.21    3.70
   4  -8   5   21.87    4.30
  -4  -8  -5   16.24    4.55
  -4   8   5   13.97    5.11
  -4   8  -5   13.47    4.13
   4   8   5   18.23    4.10
   4  -8  -5   18.00    3.30
  -4  -8   5   20.77    5.51
  -4  -8   5   12.98    3.72
   1  -9   5  149.12   12.16
   1  -9   5  137.11   11.33
   1  -9   5  164.64   12.82
  -1  -9  -5  130.33   11.50
  -1   9   5  131.05   12.28
  -1  -9  -5  125.71   12.52
   1   9  -5  136.25   12.17
  -1  -9   5  148.05   12.50
   1   9   5  151.48   12.79
   1  -9  -5  136.86   12.16
  -1   9  -5  155.10   13.02
  -1  -9   5  149.68   11.16
  -3   9   5  113.53    9.38
   3   9  -5   96.12    9.45
  -3  -9  -5   98.48   10.21
   3  -9   5   92.16    9.51
   3   9   5  100.48   10.02
  -3  -9   5  113.13    9.84
  -3   9  -5  109.91   10.31
  -3  -9   5   93.75   11.65
   3  -9  -5   96.34    9.19
   0  10  -5    9.15    3.27
   0 -10  -5    4.04    2.38
   0 -10   5   11.96    2.54
   0 -10  -5    6.93    2.49
   0 -10   5    4.36    2.65
   0  10   5    7.94    2.83
  -2 -10  -5    6.69    3.25
   2  10  -5    9.33    3.09
   2 -10   5    7.48    3.04
   2 -10   5    8.33    2.82
  -2  10   5    2.93    2.50
  -2 -10  -5    5.22    2.29
  -2  10  -5    3.72    2.95
   2 -10  -5    6.24    2.83
  -2 -10   5    7.81    3.19
  -2 -10   5    7.51    4.78
   2  10   5    7.99    2.95
   2  10   5    7.14    2.91
   4 -10   5    3.56    3.02
  -4 -10  -5    5.59    3.29
   4  10  -5    2.21    2.89
   4 -10  -5    4.56    2.72
  -4 -10   5    2.32    2.77
   4  10   5    2.54    3.36
  -4 -10   5   -0.29    3.91
  -4  10  -5    1.42    2.97
   1 -11   5  111.09   10.21
   1 -11   5   83.96    9.06
   1  11  -5   95.52   10.06
  -1 -11  -5  119.38    9.61
  -1 -11  -5  115.29   10.84
  -1  11   5  104.06   10.26
  -1 -11   5  109.93   10.65
   1  11   5   99.86   10.38
  -1  11  -5  123.81   10.99
  -1 -11   5  112.80    8.94
   1 -11  -5  120.14   10.17
   3 -11   5   77.53    8.25
  -3 -11  -5   87.80    9.43
   3  11  -5   84.99    8.47
  -3  11   5   78.48    7.98
   3  11   5   76.90    8.67
   3 -11  -5   73.51    7.87
  -3  11  -5   90.68    9.49
   3  11   5   66.34    8.73
  -3 -11   5   67.05    8.37
  -3 -11   5   77.13   10.86
   0 -12   5    0.98    2.70
   0 -12   5    3.39    2.17
   0 -12  -5    0.36    2.40
   0 -12  -5    4.64    3.01
   0  12   5   -3.15    2.52
   0  12  -5    1.30    2.97
  -2  12   5    1.05    2.79
   2 -12   5    2.51    2.50
   2 -12   5   -0.48    2.52
   2  12  -5    3.80    2.88
  -2 -12  -5   -1.13    2.00
  -2 -12  -5    3.78    3.30
  -2  12  -5   -2.90    2.96
  -2 -12   5    3.75    3.05
  -2 -12   5   -0.72    4.55
   2 -12  -5    4.94    2.60
  -1  13   5  189.56   16.73
   1 -13   5  171.40   15.21
  -1 -13  -5  203.30   17.39
  -1 -13  -5  187.81   15.42
   1  13  -5  207.16   16.79
  -1 -13   5  211.75   14.88
  -1 -13   5  163.26   16.90
   1  13   5  193.66   17.05
   1 -13  -5  194.46   16.34
  -1  13  -5  190.66   17.07
   3  13  -5  150.78   12.92
  -3  13   5  125.49   12.41
  -3 -13  -5  120.23   13.35
   3 -13   5  140.10   12.80
  -3  13  -5  142.65   13.42
  -3 -13   5  140.51   13.14
  -3 -13   5  136.74   14.74
   3 -13  -5  135.65   12.32
   0  14   5    5.94    3.55
   0 -14   5    8.30    3.66
   0 -14   5    4.44    2.64
   0  14  -5   10.46    3.92
   0 -14  -5    7.66    3.07
  -2 -14  -5   11.80    3.05
   2  14  -5    8.85    3.93
  -2  14   5    9.80    3.74
   2 -14   5    7.52    3.51
   2 -14   5    7.43    3.67
  -2 -14  -5   12.32    4.30
  -2 -14   5    9.95    4.86
  -2  14  -5   15.62    4.49
  -2 -14   5    0.94    3.03
   2 -14  -5   10.72    3.83
  -1  15   5  157.74   16.04
   1 -15   5  203.45   15.07
  -1 -15  -5  203.11   15.06
   1 -15  -5  169.02   15.57
  -1  15  -5  182.09   16.67
  -1 -15   5  191.48   14.22
   1  15   5  173.63   16.57
  -1 -15   5  151.67   15.92
   0 -16  -5    4.02    3.15
   0 -16   5    3.89    2.54
   0  16   5    9.24    4.16
  -2  16   5    2.42    3.03
  -2 -16  -5    8.13    2.82
  -2 -16  -5    7.84    4.44
   2 -16   5    7.03    3.26
  -2 -16   5    7.17    3.76
  -2  16  -5    3.91    3.76
   2 -16  -5    9.46    3.57
   1 -17   5   34.24    5.37
  -1  17   5   32.65    6.56
  -1 -17  -5   37.30    5.82
  -1  17  -5   47.05    7.31
   1 -17  -5   51.75    6.67
  -1 -17   5   45.70    7.55
  -1 -17   5   43.17    5.27
   0   0  -6  362.94   27.10
   0   0   6  352.26   25.93
   0   0  -6  344.57   28.00
   0   0  -6  391.27   28.10
   0   0   6  362.21   27.96
  -2   0  -6  305.21   23.71
  -2   0   6  310.21   23.05
   2   0   6  296.50   22.76
  -2   0   6  281.09   23.49
   2   0  -6  293.25   22.24
   2   0   6  286.41   21.88
  -2   0   6  317.84   24.59
   4   0   6  183.07   14.51
  -4   0   6  202.75   16.00
  -4   0  -6  175.46   15.11
  -4   0  -6  139.00   14.81
  -1   1   6   11.16    2.41
   1  -1   6   14.33    2.43
   1  -1   6   14.65    2.51
  -1   1   6   10.18    2.52
  -1  -1  -6   14.99    2.88
   1   1  -6   11.12    2.22
  -1  -1  -6   13.49    2.64
  -1   1   6   14.03    2.71
   1  -1   6   13.16    2.65
   1   1   6    8.40    2.09
  -1   1  -6    8.99    2.48
  -1   1  -6   12.62    2.85
   1  -1  -6   13.69    2.27
  -1   1  -6   12.53    2.45
  -1  -1   6   11.51    2.33
   1   1   6   18.42    3.01
   1   1   6   13.75    2.44
  -3   1   6   10.66    3.12
  -3   1   6    5.92    3.26
   3  -1   6    7.92    2.60
  -3  -1  -6    4.94    2.73
   3   1  -6    5.00    1.81
  -3   1  -6    2.88    2.47
   3  -1  -6    8.17    1.67
  -3  -1   6    4.65    3.12
  -3  -1   6    8.36    3.12
   3   1   6    2.38    2.27
  -3   1  -6    1.57    2.54
  -5   1   6    0.80    3.52
  -5  -1  -6    5.42    3.13
   5  -1   6    0.40    2.66
  -5  -1  -6   10.94    3.57
  -5  -1   6    5.75    4.02
   5   1   6    2.67    2.85
  -5   1  -6    1.67    2.95
   0  -2   6  372.94   26.50
   0   2  -6  401.59   28.50
   0  -2  -6  359.46   28.59
   0  -2   6  388.51   28.68
   0   2   6  354.95   28.57
   0   2   6  306.55   28.57
   0   2  -6  406.10   27.64
   0   2   6  364.73   26.57
   0  -2  -6  368.14   27.67
   2   2  -6  296.64   22.39
  -2  -2  -6  317.98   23.85
  -2   2   6  260.08   23.60
  -2   2   6  278.07   23.20
  -2   2   6  292.69   24.17
   2  -2   6  292.34   22.79
  -2   2   6  288.62   23.04
  -2  -2  -6  314.44   21.70
   2  -2   6  328.01   22.07
  -2   2  -6  287.14   23.23
  -2  -2   6  321.29   23.44
   2   2   6  317.24   22.04
  -2   2  -6  282.76   23.50
   2   2   6  312.07   22.93
  -2   2  -6  259.84   23.65
  -2  -2   6  312.36   23.18
  -4   2   6  137.88   14.63
   4   2  -6  168.74   12.79
  -4  -2  -6  191.80   14.73
   4  -2   6  175.32   13.83
   4   2   6  159.28   14.00
  -4  -2   6  172.41   15.93
  -4   2  -6  151.19   13.89
  -4  -2   6  139.72   14.56
  -1  -3  -6   -0.74    1.55
   1  -3   6    2.44    1.54
   1   3  -6   -1.24    1.20
   1   3  -6   -0.91    1.55
  -1   3   6    0.57    1.52
  -1   3   6   -0.86    1.54
  -1  -3  -6    0.44    1.62
   1  -3   6   -2.57    1.46
  -1   3   6   -1.64    1.37
   1  -3   6    0.94    1.53
   1   3   6    1.27    1.46
   1   3   6    1.00    1.63
   1  -3  -6   -0.45    1.44
  -1   3  -6    1.56    1.80
  -1   3  -6   -0.10    1.69
   1   3   6    0.15    2.05
  -1   3  -6   -0.79    1.31
   1   3   6   -2.56    1.48
   1   3   6   -1.36    1.55
  -1  -3   6   -0.46    1.47
  -3   3   6   -2.56    2.56
   3   3  -6   -0.95    1.35
   3  -3   6   -2.77    1.93
  -3  -3  -6   -0.30    2.22
  -3   3  -6    4.56    2.32
   3   3   6   -1.60    2.24
  -3  -3   6    2.50    2.26
  -3  -3   6    2.34    1.76
  -3  -3   6   -0.93    2.59
   3  -3  -6    1.58    1.39
   3  -3  -6   -1.83    2.33
   3   3   6    1.06    2.25
   5  -3   6    2.00    2.96
  -5  -3  -6    4.14    3.42
  -5   3   6    2.79    3.89
  -5   3  -6   -1.26    2.52
  -5  -3   6    2.66    3.72
   5   3   6   -1.31    2.42
   0  -4  -6   75.01    7.16
   0   4   6   77.30    7.35
   0  -4   6   76.33    6.55
   0   4  -6   81.54    7.33
   0   4  -6   71.71    7.00
   0  -4   6   71.71    7.30
   0  -4  -6   71.55    6.94
   0   4   6   79.38    7.31
   0   4  -6   88.75    7.14
   0   4   6   79.82    6.46
   2   4  -6   82.34    6.44
  -2   4   6   62.13    6.66
  -2  -4  -6   68.20    7.16
  -2   4   6   61.02    7.37
  -2   4   6   66.74    6.19
  -2  -4  -6   68.16    5.90
   2  -4   6   56.78    6.36
   2  -4   6   72.39    6.32
   2   4   6   75.93    6.97
   2   4   6   67.22    6.86
   2   4   6   68.89    6.41
   2  -4  -6   64.95    6.18
  -2  -4   6   67.46    8.00
  -2   4  -6   48.66    6.77
   2  -4  -6   64.97    6.72
  -2  -4   6   65.92    6.48
   4  -4   6   37.25    5.34
   4   4  -6   44.05    4.43
  -4  -4  -6   41.76    6.25
  -4   4   6   32.10    6.19
  -4   4  -6   31.40    5.35
  -4  -4   6   29.13    6.21
  -4  -4   6   46.83    6.59
   4   4   6   34.32    5.35
   1   5  -6   27.51    3.85
   1  -5   6   28.90    4.00
   1  -5   6   30.31    3.78
   1  -5   6   25.04    3.34
  -1  -5  -6   27.23    3.73
  -1   5   6   18.05    3.47
  -1   5   6   26.97    3.66
  -1  -5  -6   18.61    3.74
   1   5  -6   21.02    3.13
  -1   5  -6   24.00    3.73
  -1   5  -6   26.85    3.95
   1   5   6   24.72    3.54
  -1  -5   6   20.12    3.49
   1   5   6   29.45    4.17
  -1  -5   6   23.30    2.52
   1   5   6   27.93    3.65
   1   5   6   17.37    3.12
   1  -5  -6   21.74    3.15
   1  -5  -6   22.22    3.24
  -3  -5  -6   16.03    4.08
  -3   5   6    9.04    3.95
   3   5  -6   11.09    2.81
   3  -5   6   16.12    3.44
   3  -5  -6   15.70    3.52
  -3   5  -6   16.24    3.71
   3   5   6   15.48    3.41
  -3  -5   6   17.86    4.74
   3  -5  -6   15.13    2.70
  -3  -5   6   16.09    3.02
   0   6  -6  365.24   26.16
   0  -6   6  337.24   26.43
   0   6  -6  328.48   26.36
   0   6   6  307.67   26.21
   0  -6   6  280.61   24.30
   0   6   6  357.24   26.44
   0  -6  -6  349.00   25.40
   0  -6  -6  366.05   26.47
   0   6  -6  334.04   25.50
   2  -6   6  288.86   21.62
  -2  -6  -6  233.65   20.45
  -2   6   6  274.67   21.78
   2   6  -6  245.22   21.23
  -2  -6  -6  301.73   22.76
   2  -6   6  258.47   20.67
   2  -6  -6  307.20   21.93
  -2  -6   6  291.70   24.28
   2   6   6  304.43   21.22
  -2  -6   6  290.41   22.22
   2  -6  -6  277.88   21.06
  -2   6  -6  272.45   22.50
   2   6   6  283.85   21.67
   4   6  -6  156.61   12.75
  -4  -6  -6  185.25   14.74
   4  -6   6  149.11   13.53
  -4   6   6  152.75   14.98
  -4   6  -6  147.92   13.97
  -4  -6   6  162.11   15.69
   4   6   6  168.26   13.83
   4  -6  -6  135.48   12.32
   1   7  -6   42.01    5.54
   1  -7   6   50.83    5.41
   1   7  -6   46.03    5.42
  -1   7   6   43.49    5.50
   1  -7   6   54.05    5.15
  -1  -7  -6   46.72    5.22
  -1  -7  -6   47.71    5.76
   1  -7   6   51.81    5.86
  -1  -7   6   52.59    5.76
  -1   7  -6   45.27    5.93
   1  -7  -6   40.23    5.08
   1   7   6   45.75    5.94
  -1  -7   6   46.95    4.37
   1   7   6   47.28    5.00
   3  -7   6   18.63    4.06
   3   7  -6   32.65    4.42
  -3  -7  -6   20.29    4.96
  -3   7   6   28.25    5.79
  -3   7   6   29.20    4.07
   3  -7  -6   27.85    3.85
   3  -7  -6   31.02    4.94
  -3  -7   6   31.06    4.51
   3   7   6   28.76    4.74
  -3  -7   6   20.93    5.38
  -3   7  -6   25.44    4.66
   0  -8   6  161.20   13.06
   0  -8  -6  141.83   12.30
   0   8  -6  129.59   12.74
   0  -8   6  152.77   11.55
   0   8   6  135.55   12.71
   0   8  -6  174.43   12.80
   0  -8  -6  135.06   11.72
  -2  -8  -6  114.81   11.33
   2  -8   6  115.90   10.39
   2  -8   6  114.34   10.82
   2   8  -6  129.21   10.92
  -2   8   6  126.40   11.00
  -2  -8  -6  133.36   10.26
   2   8   6  133.90   11.29
  -2  -8   6  123.35   11.11
  -2  -8   6  129.28   13.66
   2  -8  -6  112.35   10.53
   2   8   6  138.30   10.88
  -2   8  -6  117.67   11.60
   4   8  -6   59.63    7.09
   4  -8   6   68.21    7.72
  -4   8   6   45.98    8.72
  -4  -8  -6   57.05    8.58
  -4   8  -6   82.95    8.72
   4   8   6   78.32    8.30
   4  -8  -6   79.27    7.22
  -4  -8   6   86.82   10.59
   1  -9   6   10.14    2.64
   1   9  -6   13.37    3.47
   1  -9   6    9.85    3.36
   1  -9   6   12.36    3.12
  -1   9   6   15.80    3.37
  -1  -9  -6   13.57    3.22
  -1  -9  -6   13.15    3.41
  -1   9  -6   15.07    3.75
   1  -9  -6   15.34    3.50
   1   9   6   15.95    3.80
  -1  -9   6   15.20    2.53
  -1  -9   6    7.47    2.85
  -3   9   6    8.39    2.77
  -3  -9  -6    9.58    3.71
   3  -9   6   10.90    3.37
   3   9  -6   11.22    3.11
   3  -9  -6   10.63    3.15
  -3   9  -6    7.76    3.52
   3   9   6   14.28    4.13
  -3  -9   6   13.16    5.15
   3   9   6   12.21    3.98
  -3  -9   6    7.88    3.14
   0  10  -6  284.64   22.37
   0 -10   6  279.73   20.05
   0  10   6  262.95   21.95
   0 -10   6  278.82   22.06
   0 -10  -6  242.79   20.10
   0 -10  -6  257.74   21.32
   2 -10   6  226.38   17.49
   2 -10   6  215.41   18.14
  -2  10   6  231.24   18.60
  -2 -10  -6  222.39   19.08
  -2 -10  -6  229.56   17.21
   2  10  -6  221.49   18.27
  -2  10  -6  216.65   19.21
   2  10   6  227.07   17.65
   2 -10  -6  233.27   18.24
  -2 -10   6  217.17   18.89
  -2 -10   6  198.44   21.51
  -4 -10  -6  140.08   14.27
   4  10  -6  121.50   12.54
   4 -10   6  139.78   13.10
   4 -10  -6  144.34   12.42
  -4  10  -6  183.22   14.59
  -4 -10   6  151.10   13.24
   4  10   6  147.53   13.66
  -4 -10   6  134.61   14.98
   1 -11   6   10.84    2.84
   1  11  -6   10.64    3.63
  -1 -11  -6    5.73    3.18
  -1 -11  -6    5.66    2.88
  -1  11   6    4.93    3.04
  -1 -11   6    6.89    2.20
   1  11   6    6.05    3.27
   1 -11  -6    4.61    3.15
  -1 -11   6    6.45    3.25
  -1  11  -6    6.68    3.52
   3 -11   6    7.73    3.61
   3  11  -6    5.72    3.22
  -3  11   6    4.71    3.11
  -3 -11  -6    7.94    3.52
  -3 -11   6    3.73    2.63
  -3 -11   6    1.89    4.88
   3  11   6    5.54    3.35
  -3  11  -6    8.21    3.81
   3  11   6    3.92    3.34
   3 -11  -6    4.65    3.02
   0 -12  -6  103.11    9.92
   0 -12   6  110.52   10.59
   0  12   6  108.79   10.34
   0  12  -6   99.95   10.67
   0 -12  -6   87.70    9.23
   0 -12   6   94.92    8.81
   2  12  -6   99.68    9.74
   2 -12   6  102.69    9.17
   2 -12   6   99.92    9.65
  -2 -12  -6  106.31   10.57
  -2  12   6   77.14    9.36
  -2 -12  -6   89.90    8.61
   2 -12  -6   98.73    9.51
  -2  12  -6   90.64   10.41
  -2 -12   6   97.93   10.24
  -2 -12   6   79.96   12.58
  -1  13   6    9.67    3.81
  -1 -13  -6   10.69    3.51
   1 -13   6    8.35    3.00
   1 -13  -6   14.38    4.24
  -1 -13   6   10.20    2.67
   1  13   6    7.75    4.01
  -1  13  -6   10.25    3.99
  -1 -13   6    6.15    4.02
   3 -13   6    9.92    4.05
  -3  13   6    8.72    3.53
  -3 -13  -6    8.99    4.20
   3  13  -6   10.88    3.96
  -3 -13   6    3.08    5.14
   3 -13  -6    5.25    2.96
  -3 -13   6    6.52    3.19
  -3  13  -6   10.97    4.08
   0 -14   6   75.52    8.29
   0 -14  -6  100.17    9.28
   0 -14   6   96.74   10.66
   0  14   6   95.15   10.16
  -2  14   6   73.90    8.72
   2  14  -6   70.56    9.15
   2 -14   6   88.34    8.52
  -2 -14  -6   75.13   10.10
  -2 -14  -6   77.64    7.86
   2 -14  -6   89.03    8.94
  -2  14  -6   79.62   10.05
  -2 -14   6   69.93    9.22
  -2 -14   6   71.48   11.10
  -1 -15  -6    0.45    2.74
  -1  15   6   -1.28    2.83
   1 -15   6    7.86    3.10
   1  15   6    7.75    4.20
   1 -15  -6    0.99    2.64
  -1 -15   6    1.70    2.32
  -1 -15   6    0.06    3.20
  -1  15  -6    9.66    4.35
   0 -16   6   47.59    6.09
   0 -16  -6   59.90    7.21
   0  16   6   44.87    7.76
   0 -16   6   48.82    8.02
   0   0  -7   -0.70    1.64
   0   0  -7    0.16    1.54
   0   0  -7   -2.03    1.73
   0   0   7   -0.24    1.23
   0   0   7   -0.50    1.61
   2   0  -7    1.69    1.50
  -2   0   7   -0.92    1.91
   2   0   7   -1.68    1.61
  -2   0  -7    0.60    2.27
  -2   0   7   -0.04    1.50
   2   0   7   -1.78    1.82
  -2   0   7    0.36    2.32
  -4   0   7    2.70    3.44
   4   0   7    1.02    2.40
  -4   0  -7    0.00    2.72
  -4   0  -7   -0.06    2.70
   4   0  -7   -1.90    1.43
   1   1  -7  229.13   18.14
  -1  -1  -7  264.19   18.77
   1  -1   7  213.85   17.63
  -1   1   7  212.73   19.46
  -1   1   7  216.41   18.80
  -1  -1  -7  232.96   19.12
   1  -1   7  261.68   19.24
  -1  -1   7  223.15   18.81
  -1   1  -7  295.22   19.68
  -1   1  -7  255.25   18.40
   1   1   7  246.83   17.78
   1   1   7  230.48   19.18
  -1   1  -7  247.48   19.19
   1   1   7  204.25   18.23
   1  -1  -7  252.19   18.34
   3   1  -7  148.63   12.36
   3  -1   7  156.78   13.30
  -3  -1  -7  163.74   14.03
  -3   1   7  170.55   14.20
  -3   1   7  137.45   14.32
  -3   1  -7  152.37   13.73
  -3  -1   7  171.23   14.04
  -3  -1   7  162.19   14.62
   3   1   7  169.89   13.49
   3  -1  -7  160.35   12.46
  -3   1  -7  143.04   13.84
   0   2  -7   18.82    3.31
   0   2   7   19.71    2.97
   0  -2  -7   18.08    3.37
   0  -2  -7   18.36    3.36
   0  -2   7   20.04    2.83
   0   2  -7   23.29    3.49
   0  -2   7   25.07    3.79
   0   2   7   28.87    3.92
   0   2   7   23.04    3.85
   2  -2   7   19.83    3.33
   2   2  -7   20.42    2.96
  -2   2   7   17.87    3.35
  -2   2   7   14.82    2.84
  -2  -2  -7   14.44    3.66
   2  -2   7   13.69    2.90
  -2   2   7   19.17    3.54
  -2   2   7   18.23    3.96
   2  -2  -7   15.00    2.73
   2   2   7   13.43    2.95
  -2  -2   7   17.56    3.40
  -2  -2   7   18.91    3.15
  -2   2  -7   17.50    3.54
  -2  -2   7   10.51    3.62
   2   2   7   13.39    3.13
  -4  -2  -7    8.38    3.50
  -4   2   7    9.48    4.02
   4   2  -7   10.60    2.42
   4  -2   7    3.30    2.94
  -4  -2   7   11.55    4.07
  -4  -2   7   11.71    4.36
   4   2   7    9.23    3.36
   4  -2  -7   12.39    2.27
  -4   2  -7    8.31    3.19
   1  -3   7  285.01   20.95
   1   3  -7  245.17   20.16
  -1   3   7  254.25   20.52
   1  -3   7  238.85   19.72
   1   3  -7  243.71   19.58
   1  -3   7  249.50   19.03
  -1  -3  -7  231.39   20.50
  -1   3   7  289.24   20.67
   1   3   7  272.40   20.83
  -1  -3   7  277.40   20.58
   1   3   7  241.54   19.80
   1   3   7  265.40   20.94
   1   3   7  251.24   19.87
  -1   3  -7  255.42   20.45
   1   3   7  275.17   19.06
   1  -3  -7  230.07   19.58
   3  -3   7  182.40   14.61
  -3  -3  -7  176.51   15.42
   3   3  -7  166.43   13.78
  -3   3   7  159.74   15.48
   3  -3  -7  159.57   14.68
  -3   3  -7  180.90   14.96
   3   3   7  162.10   14.61
  -3  -3   7  181.06   14.18
   3   3   7  153.55   14.66
   3  -3  -7  185.79   13.72
  -3  -3   7  191.87   16.29
   0   4  -7    2.82    2.25
   0   4   7    3.18    2.14
   0  -4  -7    6.19    2.19
   0   4  -7   -1.55    1.78
   0  -4   7   -0.84    1.65
   0  -4   7   -1.13    1.56
   0   4  -7    0.21    1.83
   0   4   7    6.41    1.79
  -2  -4  -7    5.27    1.97
   2   4  -7   -0.36    1.68
  -2  -4  -7    6.28    2.90
   2  -4   7   -0.63    2.01
  -2   4   7    6.30    2.43
   2  -4   7    0.96    2.08
   2  -4  -7    7.88    2.24
   2   4   7    5.55    2.17
   2  -4  -7    8.10    2.79
  -2  -4   7    0.33    1.90
  -2  -4   7   -1.68    2.83
  -2   4  -7    0.83    2.15
   2   4   7    4.77    2.44
   2   4   7    4.40    2.39
   4   4  -7    4.33    2.11
   4  -4   7    3.57    2.84
  -4  -4  -7    5.99    3.22
  -4   4   7    3.98    3.75
   4  -4  -7    2.76    1.87
  -4   4  -7    0.04    2.63
  -4  -4   7   -3.92    3.70
   4   4   7    0.08    2.51
   1   5  -7  110.88   10.46
   1  -5   7  130.66   10.01
  -1   5   7  132.47   10.65
   1   5  -7  111.33   10.25
  -1  -5  -7  126.21   11.09
   1  -5   7  151.40   11.40
   1  -5   7  125.07   10.46
   1   5   7  136.63   11.10
  -1   5  -7  126.83   11.12
   1  -5  -7   96.71    9.99
  -1  -5   7  118.02   10.81
   1   5   7   99.12    9.87
   3  -5   7   93.50    8.65
  -3  -5  -7   83.38    8.99
   3   5  -7   83.06    7.93
  -3   5   7   78.22    9.94
  -3   5  -7   81.13    9.01
  -3  -5   7   90.10    8.11
   3  -5  -7   84.29    7.67
   3   5   7   92.52    8.75
  -3  -5   7   77.82    9.83
   3  -5  -7   87.09    8.99
   0  -6   7    0.74    2.05
   0   6   7    0.75    2.06
   0  -6  -7    2.49    1.92
   0   6  -7   -2.24    1.78
   0  -6   7    4.18    1.96
   0   6  -7   -0.12    2.21
  -2  -6  -7    0.25    2.56
  -2  -6  -7   -0.87    1.87
   2   6  -7    2.26    2.32
  -2   6   7    1.70    2.10
   2  -6   7   -1.23    2.18
   2  -6   7    4.42    2.30
  -2  -6   7   -3.54    3.16
   2  -6  -7    2.36    2.10
   2   6   7    0.53    2.35
   2   6   7    1.73    2.21
  -2  -6   7    1.22    2.26
  -2   6  -7    1.75    2.54
  -4   6   7   -1.35    3.75
   4  -6   7    1.12    2.61
  -4  -6  -7   -1.44    3.01
   4   6  -7    2.17    2.16
   4  -6  -7   -0.26    2.11
  -4  -6   7    1.68    3.82
  -4   6  -7   -0.73    2.52
   4   6   7    0.17    2.76
  -1  -7  -7  151.80   13.94
   1  -7   7  182.83   14.13
   1   7  -7  167.05   13.48
  -1  -7  -7  169.89   12.72
   1  -7   7  131.26   12.41
  -1   7   7  130.03   13.24
   1  -7  -7  167.00   12.97
  -1   7  -7  167.76   14.05
   1   7   7  162.53   12.54
   1   7   7  144.26   13.73
  -1  -7   7  160.97   13.75
  -1  -7   7  161.37   11.76
  -3  -7  -7  104.15   11.06
  -3   7   7  111.06    9.96
   3   7  -7  106.26    9.84
   3  -7   7   97.20   10.07
   3   7   7  124.67   10.85
   3  -7  -7  109.72    9.63
   3   7   7  107.53   10.65
   3  -7  -7  115.14   11.00
  -3  -7   7  112.74   12.73
  -3  -7   7  103.87   10.17
  -3   7  -7  121.02   11.23
   0  -8   7    3.94    2.74
   0   8  -7    2.48    2.70
   0   8   7    1.88    2.52
   0   8  -7    2.88    2.62
   0  -8  -7    3.35    2.44
   0  -8   7    0.24    1.84
  -2  -8  -7    1.96    2.79
  -2  -8  -7    1.32    2.13
   2  -8   7    2.06    2.80
  -2   8   7    2.04    2.37
   2  -8   7    1.68    2.36
   2   8  -7    4.98    2.61
  -2   8  -7   -2.65    2.49
   2  -8  -7    0.22    2.11
   2   8   7    0.04    2.43
  -2  -8   7    3.96    2.59
  -2  -8   7    2.40    4.31
   4  -8   7    2.90    2.71
   4   8  -7   -1.78    2.16
  -4  -8  -7    0.46    2.79
  -4   8  -7   -0.23    3.22
   4  -8  -7   -0.74    2.52
   4   8   7   -1.91    2.94
  -4  -8   7   -1.61    3.73
  -1  -9  -7  280.59   20.16
  -1   9   7  246.35   21.41
   1  -9   7  245.01   19.81
   1  -9   7  245.76   21.86
  -1  -9  -7  266.29   21.76
   1   9  -7  234.94   21.15
  -1  -9   7  267.05   19.27
   1   9   7  262.08   21.86
   1  -9  -7  274.91   20.95
  -1  -9   7  265.18   21.82
  -1   9  -7  313.11   22.48
   3  -9   7  190.00   16.57
  -3  -9  -7  207.91   18.06
   3   9  -7  196.83   16.28
  -3   9   7  186.91   16.21
  -3   9  -7  196.20   17.59
   3   9   7  208.85   16.45
  -3  -9   7  199.80   16.96
   3  -9  -7  190.98   16.20
   3   9   7  187.54   16.90
  -3  -9   7  192.95   19.63
   0 -10  -7    2.20    2.92
   0  10   7    2.73    2.93
   0 -10   7    1.44    2.69
   0 -10  -7    1.95    2.28
   0 -10   7   -0.49    2.18
  -2 -10  -7    3.68    3.05
   2  10  -7    2.92    2.63
  -2  10   7   -2.39    2.24
   2 -10   7    4.62    3.15
   2 -10   7   -1.11    2.40
  -2 -10  -7   -1.55    1.94
   2  10   7    3.32    2.78
  -2 -10   7    1.06    4.84
   2 -10  -7    5.49    3.04
  -2  10  -7   -0.71    3.12
  -2 -10   7   -1.20    2.56
   1  11  -7  117.91   11.91
  -1 -11  -7  128.09   11.80
  -1 -11  -7  127.11   11.04
  -1  11   7  117.93   11.66
   1 -11   7  119.51   10.50
  -1 -11   7  112.10    9.70
  -1 -11   7  121.15   11.67
  -1  11  -7  126.01   12.44
   1 -11  -7  125.13   11.43
   1  11   7  126.22   12.09
   3 -11   7   81.02    9.27
  -3 -11  -7   81.72   10.54
   3  11  -7  102.56    9.62
  -3  11   7   95.92    9.17
  -3 -11   7   83.13    9.34
  -3  11  -7   80.09   10.47
   3 -11  -7   93.20    9.12
   3  11   7   87.12    9.33
  -3 -11   7   78.84   12.55
   0 -12  -7    6.54    3.61
   0 -12  -7    9.03    3.39
   0  12   7   11.62    3.96
   0 -12   7   10.64    3.07
   0 -12   7   10.29    3.88
  -2  12   7    7.86    3.41
   2 -12   7    5.89    3.31
  -2 -12  -7    9.01    3.16
  -2 -12  -7   10.61    4.09
   2  12  -7    5.03    3.68
   2 -12  -7   10.51    3.52
  -2  12  -7    7.55    4.14
  -2 -12   7   -3.53    4.90
  -2 -12   7    7.66    3.73
  -1  13   7   83.70    9.48
  -1 -13  -7   81.05    8.44
   1 -13   7   85.39    8.24
  -1  13  -7   85.15    9.79
  -1 -13   7   70.16    9.54
   1  13   7   78.47    9.84
   1 -13  -7   77.59    8.93
   0 -14  -7    5.83    3.37
   0  14   7   11.24    4.18
   0 -14   7    6.52    4.14
   0 -14   7    5.79    2.75
  -2 -14  -7    7.16    2.66
  -2 -14  -7    4.17    3.89
   2  14  -7    4.87    3.55
  -2  14   7    3.31    3.43
   2 -14   7    0.65    3.07
   2 -14  -7    2.76    3.29
  -2  14  -7    4.15    3.92
  -2 -14   7    2.68    3.50
  -2 -14   7   -1.78    4.31
  -1 -15  -7   96.91    9.97
  -1  15   7  104.15   11.18
   1 -15   7   92.60    9.62
   1 -15  -7   89.81   10.18
  -1 -15   7  100.92   11.10
   1  15   7   98.20   11.39
  -1  15  -7  109.98   11.69
   0 -16   7    1.31    3.54
   0  16   7    4.35    3.68
   0 -16  -7   -0.09    2.84
   0 -16   7    2.30    2.70
   0   0  -8  262.65   19.07
   0   0   8  229.92   17.93
   0   0   8  241.60   19.60
  -2   0  -8  164.50   15.77
  -2   0  -8  173.94   15.85
   2   0   8  173.80   14.35
  -2   0   8  192.37   15.23
  -2   0   8  196.42   16.31
   2   0   8  204.92   15.13
   2   0  -8  175.20   14.52
  -4   0  -8  101.83   10.64
  -4   0  -8  105.76   11.09
   4   0  -8  114.48    9.17
   4   0   8   97.33   10.29
  -4   0   8  101.95   11.21
  -1  -1  -8   50.79    6.34
   1  -1   8   45.63    6.03
   1   1  -8   46.75    5.45
   1  -1   8   48.96    5.26
  -1   1   8   54.62    5.96
  -1   1   8   53.63    5.65
  -1  -1   8   48.29    5.58
  -1   1  -8   58.07    6.24
   1  -1  -8   47.15    5.37
  -1   1  -8   59.57    6.53
   1   1   8   40.91    5.17
   1   1   8   59.76    6.15
  -3  -1  -8   29.16    5.46
   3  -1   8   33.11    5.07
   3   1  -8   33.01    4.13
  -3   1   8   27.46    5.26
  -3   1   8   37.76    5.91
  -3   1  -8   34.18    5.81
  -3  -1   8   35.18    5.67
  -3   1  -8   32.81    5.34
  -3  -1   8   36.65    5.88
  -3  -1   8   28.45    4.16
   3   1   8   37.01    5.35
   3  -1  -8   41.95    4.57
   0  -2   8   99.45    9.30
   0  -2   8  105.72    8.21
   0  -2  -8   89.17    8.91
   0   2  -8  101.42    8.96
   0   2   8  101.96    9.46
   0   2   8   92.16    8.19
  -2   2   8   85.40    7.52
   2  -2   8   78.10    7.38
  -2   2   8   59.96    7.70
  -2  -2  -8   91.82    8.65
   2  -2   8   72.19    7.61
   2   2  -8   75.22    7.14
   2   2   8   75.20    7.38
   2  -2  -8   79.90    7.14
  -2  -2   8   86.61    8.88
  -2  -2   8   73.75    7.55
  -2   2  -8   80.19    8.22
   2   2   8   74.62    7.89
  -4   2   8   44.07    7.57
   4  -2   8   41.54    6.11
  -4  -2  -8   47.84    7.21
   4   2  -8   52.26    5.27
   4  -2  -8   52.20    5.32
   4   2   8   37.62    6.21
   4   2   8   49.38    7.04
  -4   2  -8   42.35    6.31
  -4  -2   8   55.57    8.19
   1   3  -8    2.88    2.02
  -1  -3  -8    1.73    2.46
   1  -3   8    0.74    1.84
   1  -3   8   -4.90    2.07
  -1   3   8   -0.77    2.01
   1   3   8    0.73    2.71
  -1  -3   8    1.10    1.96
   1   3   8    0.05    1.96
   1  -3  -8   -0.12    1.98
  -1   3  -8   -0.23    2.18
  -3   3   8   -1.01    2.81
   3  -3   8    4.58    2.12
  -3  -3  -8    1.31    2.99
   3   3  -8   -1.05    1.92
  -3   3  -8    2.75    2.70
   3  -3  -8   -1.47    2.49
   3   3   8   -2.89    2.57
  -3  -3   8    1.69    3.17
   3   3   8   -0.23    2.50
   3   3   8   -4.04    2.36
   3  -3  -8   -1.66    1.88
  -3  -3   8   -2.62    1.82
   0  -4  -8  434.18   31.15
   0   4  -8  411.58   30.93
   0  -4   8  382.36   32.15
   0  -4   8  420.03   29.64
   0   4   8  399.28   29.43
   2   4  -8  329.34   23.82
  -2  -4  -8  338.57   25.44
   2  -4   8  334.98   23.39
   2  -4   8  271.67   24.02
  -2  -4  -8  295.47   22.93
  -2   4   8  304.97   24.58
   2  -4  -8  285.34   23.78
  -2   4  -8  307.98   25.24
  -2  -4   8  285.68   24.62
  -2  -4   8  346.40   26.89
   2   4   8  326.47   24.43
   2   4   8  329.74   23.29
   2  -4  -8  291.17   24.22
   4  -4   8  180.42   15.11
  -4  -4  -8  193.56   16.26
   4   4  -8  155.72   13.97
  -4   4   8  177.27   16.51
  -4  -4   8  179.02   17.11
   4   4   8  166.46   15.26
  -4   4  -8  184.47   15.96
   4  -4  -8  172.20   13.85
  -1  -5  -8    2.60    2.44
  -1   5   8    2.60    2.22
   1  -5   8    1.13    2.68
   1   5  -8    1.42    2.10
   1  -5   8    3.97    2.20
   1   5   8    0.25    2.84
   1  -5  -8    0.23    2.11
  -1  -5   8   -2.44    1.81
  -1   5  -8   -0.97    2.53
   1   5   8   -1.06    1.92
   3   5  -8    1.32    2.15
  -3  -5  -8    2.44    3.05
   3  -5   8    1.32    2.86
  -3   5  -8    1.34    2.77
  -3  -5   8    1.30    3.77
  -3  -5   8    1.35    2.28
   3   5   8   -1.00    2.59
   3   5   8   -0.07    2.80
   3  -5  -8    3.66    2.88
   3  -5  -8   -1.02    1.97
   0  -6   8  236.17   16.98
   0  -6   8  215.75   18.75
   0  -6  -8  231.40   17.89
   0   6  -8  206.07   17.89
   0   6   8  227.35   18.57
  -2  -6  -8  183.29   14.39
   2  -6   8  200.98   15.66
   2  -6   8  178.44   14.78
   2   6  -8  199.20   15.32
  -2   6   8  181.36   15.28
  -2  -6  -8  138.49   15.73
   2  -6  -8  180.54   15.01
   2   6   8  204.84   15.28
  -2  -6   8  191.06   15.73
  -2   6  -8  182.43   16.36
  -2  -6   8  194.07   17.95
   4  -6   8  108.67   10.87
   4   6  -8  116.92   10.14
  -4  -6  -8  104.08   11.72
   4  -6  -8  106.81    9.72
  -4  -6   8  109.06   12.51
   4   6   8  104.16   11.02
  -4   6  -8  120.52   11.53
   1   7  -8   23.15    4.33
  -1   7   8   20.87    4.19
   1  -7   8   20.42    4.73
   1  -7   8   28.24    4.06
  -1  -7  -8   25.89    4.81
  -1  -7  -8   27.35    4.14
   1   7   8   33.03    4.17
  -1   7  -8   28.79    5.10
  -1  -7   8   26.33    4.60
   1  -7  -8   30.33    4.17
   1   7   8   26.49    4.82
   3  -7   8   22.26    4.60
  -3  -7  -8   17.57    4.30
   3   7  -8   20.24    4.02
  -3   7   8   12.99    3.70
  -3  -7   8   14.19    5.09
  -3  -7   8   16.96    3.74
   3   7   8   17.82    4.54
   3   7   8   21.61    4.72
   3  -7  -8   18.32    3.55
  -3   7  -8   14.11    4.56
   0  -8  -8  127.41   11.38
   0   8  -8  119.36   11.21
   0  -8   8  132.83   12.04
   0   8   8  123.71   11.73
   0  -8   8  122.71   10.31
  -2  -8  -8  118.68   10.86
  -2   8   8   94.65    9.31
   2  -8   8  111.78    9.59
   2  -8   8   98.27    9.60
   2   8  -8  101.72    9.80
  -2  -8  -8   78.26    8.75
   2  -8  -8   95.76    9.22
  -2  -8   8   86.03    9.62
  -2  -8   8  101.45   11.84
   2   8   8   95.19    9.25
  -2   8  -8  114.66   10.66
   4  -8   8   75.90    8.85
   4   8  -8   59.93    7.62
  -4  -8  -8   74.85    9.52
  -4  -8   8   53.63    9.71
   4  -8  -8   75.79    7.52
  -4   8  -8   63.15    8.60
   4   8   8   64.70    8.45
  -1  -9  -8    1.01    2.13
   1  -9   8   -0.17    2.23
  -1   9   8   -1.70    2.53
   1   9  -8   -1.43    2.43
   1  -9   8    3.71    3.16
  -1  -9  -8   -0.40    2.94
   1  -9  -8   -1.77    2.12
  -1  -9   8    4.16    2.94
  -1   9  -8   -1.76    3.03
   1   9   8   -2.42    2.56
   3  -9   8   -2.36    2.51
   3   9  -8   -4.93    2.26
  -3   9   8    2.72    2.34
  -3  -9  -8    0.40    3.20
  -3  -9   8   -5.16    4.29
  -3   9  -8   -0.14    3.59
   3  -9  -8   -1.78    2.28
  -3  -9   8    2.11    2.56
   3   9   8   -0.22    3.07
   0 -10   8   36.97    4.64
   0 -10  -8   29.56    5.46
   0  10   8   33.96    5.73
   0 -10  -8   37.50    5.09
   0 -10   8   37.61    6.25
  -2 -10  -8   37.77    6.49
   2  10  -8   38.13    5.88
  -2  10   8   34.98    5.47
  -2 -10  -8   36.26    4.95
   2 -10   8   28.62    4.92
  -2 -10   8   27.08    5.24
  -2  10  -8   40.14    6.54
  -2 -10   8   35.93    8.17
   2 -10  -8   29.08    5.09
   2  10   8   35.28    5.32
  -1 -11  -8    6.44    3.30
   1  11  -8    1.22    3.34
   1 -11   8    4.79    2.58
  -1  11   8    0.96    2.95
  -1 -11   8    4.78    3.23
   1  11   8    2.07    3.31
   1 -11  -8    1.04    2.93
  -1  11  -8    6.36    3.66
  -3 -11  -8    0.17    3.61
   3  11  -8   -1.91    2.79
   3 -11   8    0.50    3.09
  -3  11   8    0.10    2.58
  -3 -11   8    0.49    5.10
  -3  11  -8    0.47    3.22
   3 -11  -8    0.96    2.99
  -3 -11   8   -0.10    2.71
   3  11   8    4.50    3.47
   0 -12   8  200.83   20.04
   0 -12   8  232.65   18.19
   0  12   8  226.56   20.25
   0 -12  -8  284.87   19.25
   2  12  -8  191.98   17.72
  -2 -12  -8  215.78   18.73
  -2 -12  -8  200.80   16.29
   2 -12   8  203.75   16.60
  -2  12   8  207.88   17.74
  -2 -12   8  182.40   17.89
   2 -12  -8  198.65   17.41
  -2  12  -8  214.48   19.02
  -2 -12   8  209.83   21.37
  -1 -13  -8   12.91    3.86
  -1  13   8   12.53    4.31
   1 -13   8    8.98    3.38
   1  13   8   11.64    4.74
  -1 -13   8   11.08    4.45
   1 -13  -8   15.63    4.41
  -1  13  -8   10.54    4.10
   0 -14  -8   95.86    9.87
   0 -14   8  101.91   11.17
   0  14   8   98.47   10.76
   0 -14   8   92.51    9.01
  -1 -15  -8   26.94    5.25
   1 -15   8   35.25    5.46
   1 -15  -8   31.80    6.07
   0   0  -9   -2.30    2.11
   0   0   9    3.43    2.15
   0   0   9   -3.19    1.72
   2   0  -9   -0.65    2.04
  -2   0   9   -0.91    2.10
  -2   0   9    1.43    2.71
   2   0   9   -3.03    2.32
  -2   0  -9    2.65    2.76
   2   0   9    1.54    2.28
  -2   0  -9   -1.48    2.80
  -4   0  -9   -3.25    2.85
   4   0  -9    2.01    2.35
   4   0   9    6.29    3.32
  -4   0   9   -0.82    3.95
   1  -1   9  145.09   13.14
   1   1  -9  151.29   13.66
  -1   1   9  173.75   14.15
  -1  -1  -9  175.84   14.76
   1  -1   9  197.81   14.83
  -1  -1   9  144.63   14.14
   1   1   9  172.63   14.48
  -1  -1   9  194.99   15.35
   1  -1  -9  173.55   13.68
   1   1   9  184.55   13.35
  -1   1  -9  133.27   14.11
   3   1  -9  112.38    9.94
   3  -1   9  118.51   10.47
  -3  -1  -9  129.68   11.87
  -3  -1  -9  106.68   11.54
   3  -1   9  123.33   10.83
  -3   1   9   88.36   11.25
  -3  -1   9  124.98   10.33
   3   1   9  121.55   11.02
  -3   1  -9  106.83   11.21
   3  -1  -9  108.89    9.90
   3   1   9  117.93   10.52
  -3  -1   9  113.71   11.78
   0   2   9    8.65    2.86
   0  -2   9   15.27    3.42
   0  -2  -9    7.56    2.79
   0   2   9    9.44    2.40
   0   2  -9    6.95    2.89
   0  -2   9    4.85    2.03
   2   2  -9   12.32    2.65
  -2   2   9    9.01    2.81
   2  -2   9    8.52    2.89
   2  -2   9    3.74    2.99
  -2  -2  -9    7.66    3.43
  -2  -2   9    7.36    3.65
  -2   2  -9   10.82    3.63
   2   2   9    8.39    2.83
   2  -2  -9   10.92    2.68
  -2  -2   9    6.70    2.88
   4  -2   9    4.59    3.33
   4   2  -9    0.73    2.13
  -4  -2  -9    6.99    3.74
  -4  -2  -9    2.45    3.47
  -4   2   9   -2.69    3.76
  -4  -2   9    0.61    4.02
   4   2   9    1.31    3.30
  -4   2  -9    0.94    3.08
   4  -2  -9    8.94    2.70
   4   2   9    7.10    3.78
  -1   3   9  220.52   16.87
   1  -3   9  162.72   16.77
  -1  -3  -9  227.31   17.16
   1  -3   9  212.50   15.47
   1   3  -9  213.34   16.06
   1  -3  -9  164.39   15.93
  -1   3  -9  170.20   16.77
  -1  -3   9  221.39   17.00
   1   3   9  218.84   17.33
   1   3   9  179.79   15.50
   3  -3   9  150.34   12.10
   3   3  -9  127.36   11.45
   3  -3   9  145.79   12.44
  -3  -3  -9  139.06   13.15
   3  -3  -9  144.05   12.77
   3   3   9  124.84   12.56
  -3  -3   9  131.57   11.93
   3   3   9  153.27   12.94
  -3  -3   9  134.89   13.62
   3  -3  -9  129.30   11.62
  -3   3  -9  135.98   12.91
   3   3   9  128.68   11.75
   0   4   9    0.53    1.88
   0  -4  -9    1.11    2.55
   0   4   9   -0.91    2.57
   0  -4   9    0.14    2.42
   0  -4   9   -0.37    1.98
   0   4  -9   -1.51    2.17
  -2  -4  -9    2.19    2.94
  -2  -4  -9   -0.13    2.10
   2  -4   9    2.82    2.21
  -2   4   9    0.28    2.36
   2  -4   9    2.46    2.53
   2   4  -9    2.54    2.15
  -2  -4   9    1.46    2.66
   2   4   9   -0.80    2.50
  -2  -4   9   -0.43    3.11
   2  -4  -9   -3.85    1.85
  -2   4  -9   -0.52    2.71
   4   4  -9   -2.45    2.24
  -4  -4  -9    3.81    3.56
   4  -4   9   -0.72    3.16
  -4  -4   9   -2.59    3.90
   4   4   9   -0.80    2.73
  -4   4  -9   -1.16    3.04
   4  -4  -9    1.56    2.07
  -1   5   9   71.27    9.51
   1  -5   9   92.60    8.90
   1   5  -9  103.02    9.50
   1  -5   9  111.77   10.56
  -1  -5  -9  106.00   10.20
  -1  -5   9   92.85    9.85
  -1   5  -9  115.22   10.71
   1  -5  -9  108.43    9.56
   1   5   9  123.27   10.86
   1   5   9  111.51    9.33
   3  -5   9   79.41    8.27
  -3  -5  -9   65.37    9.15
   3  -5   9   83.61    8.44
   3   5  -9   77.69    7.48
   3   5   9   77.11    8.08
  -3  -5   9   71.31    7.83
  -3  -5   9   66.03    9.61
  -3   5  -9   61.40    8.82
   3   5   9   76.68    8.25
   3  -5  -9   69.14    7.32
   0  -6   9   -1.70    2.28
   0  -6  -9   -0.19    2.11
   0  -6   9    0.36    1.96
   0   6  -9    3.09    2.42
   0   6   9    4.10    2.79
  -2  -6  -9   -3.93    1.76
  -2   6   9   -0.17    2.28
   2   6  -9   -1.33    2.23
   2  -6   9   -1.14    2.54
  -2  -6  -9   -0.40    2.84
  -2  -6   9    1.22    3.98
  -2   6  -9    4.96    3.17
   2   6   9   -0.43    2.63
   2  -6  -9   -0.51    2.04
  -2  -6   9    0.70    2.51
   4   6  -9   -2.22    2.32
  -4  -6  -9   -1.91    2.79
   4  -6   9    0.99    2.31
   4   6   9    0.71    3.39
   4  -6  -9   -0.88    2.15
  -4   6  -9    5.35    3.84
  -4  -6   9   -4.48    3.66
   1   7  -9  134.42   11.16
   1  -7   9  114.95   11.79
  -1   7   9  119.09   11.14
   1  -7   9  116.06   10.22
  -1  -7  -9  121.81   10.54
   1   7   9  124.89   10.27
  -1  -7   9  128.62   11.64
   1   7   9   93.63   11.27
  -1   7  -9  113.26   11.56
   1  -7  -9  125.31   10.83
   3  -7   9  100.20    9.71
   3   7  -9   91.76    8.81
  -3   7   9   88.60    9.24
  -3  -7  -9   83.00   10.43
   3  -7   9   92.71    9.26
  -3  -7   9   89.42    8.81
   3  -7  -9   76.55    8.20
  -3   7  -9   84.23   10.00
   3   7   9   85.82    9.42
  -3  -7   9   76.72   11.32
   0  -8  -9    3.76    2.88
   0   8   9    3.72    2.94
   0  -8   9   -4.04    2.65
   0  -8   9    1.06    2.23
  -2  -8  -9    3.17    2.80
  -2   8   9    6.23    2.91
   2  -8   9    1.78    3.04
  -2  -8  -9    5.48    3.36
   2   8  -9    0.87    2.40
   2  -8  -9    5.20    2.85
  -2   8  -9    1.32    3.24
  -2  -8   9    0.53    2.69
   2   8   9   11.87    3.37
  -2  -8   9    1.54    4.19
   1  -9   9  188.72   15.24
  -1   9   9  172.46   16.46
   1  -9   9  190.92   17.27
   1   9  -9  223.86   16.60
  -1  -9  -9  182.81   15.43
  -1  -9   9  177.01   16.84
   1  -9  -9  206.04   16.37
   1   9   9  204.84   17.06
  -1   9  -9  171.56   17.09
   3  -9   9  124.91   12.91
   3  -9   9  152.62   12.98
   3   9  -9  138.59   12.78
  -3   9   9  144.94   12.89
  -3  -9  -9  133.08   13.81
  -3  -9   9  148.27   16.26
  -3   9  -9  157.96   14.49
   3   9   9  134.26   12.70
  -3  -9   9  127.17   12.96
   3  -9  -9  136.62   12.49
   0 -10  -9    0.05    2.71
   0 -10   9   -0.64    1.92
   0 -10   9   -0.12    3.24
   0 -10  -9    1.33    3.28
   0  10   9    1.73    2.96
  -2  10   9    3.18    2.91
   2 -10   9   -0.55    2.72
  -2 -10  -9   -1.99    2.53
  -2 -10  -9    0.91    3.16
   2  10  -9    2.25    3.27
   2 -10  -9   -2.76    2.83
  -2 -10   9   -2.78    2.21
   2  10   9    1.40    2.70
  -2  10  -9    1.09    3.67
  -2 -10   9    0.25    3.92
  -1 -11  -9   95.18    9.36
   1  11  -9   97.72   10.10
  -1  11   9   80.58    9.71
   1 -11   9   86.35    8.72
   1  11   9   91.56   10.02
  -1  11  -9   82.09   10.81
  -1 -11   9  101.69   10.12
   1 -11  -9   85.38    9.61
   0 -12   9    6.64    3.60
   0 -12  -9    5.78    3.23
   0  12   9    8.89    4.13
   0 -12   9    4.76    2.76
   2  12  -9   -0.97    3.42
   2 -12   9    6.61    3.54
  -2 -12  -9    2.19    3.13
  -2 -12  -9    7.85    4.52
  -2  12   9   -0.14    3.02
  -2 -12   9    8.75    5.00
  -2  12  -9    5.56    4.25
   2 -12  -9    6.00    3.79
  -2 -12   9    7.54    3.99
   1 -13   9   65.11    7.79
  -1 -13  -9   65.21    8.19
  -1  13   9   83.06    9.29
  -1  13  -9   82.27   10.41
   1  13   9   75.03    9.88
  -1 -13   9   73.09    9.69
   1 -13  -9   68.83    8.91
   0 -14   9   12.47    5.34
   0 -14   9    9.37    3.30
   0 -14  -9   14.31    4.14
   0  14   9    1.04    3.66
   0   0 -10  229.18   17.86
   0   0  10  208.06   16.65
   0   0  10  222.52   18.43
  -2   0  10  173.48   16.28
  -2   0 -10  195.34   16.92
   2   0 -10  215.45   15.88
  -2   0  10  175.40   16.99
  -2   0 -10  201.49   17.32
   2   0  10  190.15   15.48
   4   0 -10  115.81   10.20
  -4   0 -10  112.98   11.78
   4   0  10  112.67   11.76
  -1   1  10    7.12    2.78
   1  -1  10    8.63    2.79
   1   1 -10    6.65    2.85
  -1  -1 -10   13.16    3.64
   1  -1  10    9.58    3.56
  -1  -1 -10   12.02    3.98
   1   1  10    7.76    2.75
  -1   1 -10    3.82    2.96
   1  -1 -10   10.94    3.19
  -1  -1  10    7.13    3.00
   1   1  10   10.80    3.46
  -1  -1  10    8.41    3.72
   3   1 -10   10.47    2.92
  -3   1  10    3.78    3.06
  -3  -1 -10    8.20    3.61
  -3  -1 -10    3.13    3.53
  -3   1  10    5.57    2.88
   3  -1  10    4.61    3.24
   3  -1  10    3.09    3.07
  -3  -1  10    4.21    2.71
   3   1  10    4.30    3.36
   3  -1 -10    5.73    2.54
  -3   1 -10    3.60    3.33
   3   1  10    4.07    3.49
  -3  -1  10    3.05    3.74
   0   2  10  213.38   16.12
   0  -2  10  228.63   16.24
   0   2  10  210.91   18.10
   0   2 -10  169.58   17.15
   0  -2 -10  250.92   18.11
   0  -2  10  214.13   18.36
  -2   2  10  154.60   13.79
   2   2 -10  165.71   13.57
  -2  -2 -10  184.46   15.13
   2  -2  10  159.67   13.27
  -2  -2  10  151.48   15.15
  -2  -2  10  159.86   14.22
   2  -2 -10  138.84   13.30
  -2   2 -10  172.19   14.52
   2   2  10  159.99   13.27
   4   2 -10  109.93   10.36
   4  -2  10  110.58   11.51
  -4  -2 -10  129.17   12.37
  -4  -2 -10  125.89   12.71
   4   2  10  105.60   11.76
   4   2  10  114.91   12.01
  -4  -2  10   99.17   12.77
  -4   2 -10  105.22   11.79
   4  -2 -10  132.00   10.71
  -1  -3 -10   -0.39    2.96
  -1   3  10    2.21    2.61
   1  -3  10    2.32    3.12
   1   3 -10   -1.78    2.18
   1  -3  10    1.21    2.34
   1   3  10    3.30    3.12
  -1   3 -10   -0.85    2.58
   1  -3 -10   -3.41    2.53
   1   3  10    2.58    2.58
  -1  -3  10   -6.26    1.91
  -3  -3 -10    6.69    3.69
   3   3 -10   -0.59    2.20
   3  -3  10    1.42    2.91
   3  -3  10   -0.30    2.54
   3   3  10    3.08    2.53
  -3  -3  10    0.93    2.41
  -3   3 -10    1.66    2.97
  -3  -3  10   -1.10    3.35
   3  -3 -10    4.17    3.08
   0   4  10   38.24    6.17
   0  -4  10   39.05    4.93
   0   4  10   46.25    4.85
   0  -4  10   56.14    7.00
   0   4 -10   42.51    5.97
   0  -4 -10   46.12    6.19
   2  -4  10   36.68    5.24
  -2  -4 -10   36.38    4.83
   2   4 -10   35.40    5.02
  -2  -4 -10   35.45    6.07
  -2   4  10   40.26    5.54
   2  -4 -10   38.62    5.42
   2   4  10   31.56    5.24
  -2  -4  10   40.36    5.93
  -2   4 -10   34.09    6.15
  -2  -4  10   31.27    6.39
   1   5 -10   10.17    3.13
   1  -5  10    6.45    2.73
  -1   5  10    9.81    3.48
   1  -5  10   16.67    4.19
   1   5  10    4.75    2.62
  -1   5 -10   14.33    4.18
   1  -5 -10    8.20    3.31
  -1  -5  10   12.59    3.80
   1   5  10   15.19    4.30
   3   5 -10    3.54    2.57
   3  -5  10    7.82    3.61
   3  -5  10    8.04    3.50
  -3  -5 -10   12.21    4.15
   3   5  10    9.59    3.87
   3  -5 -10    7.46    3.12
  -3   5 -10    0.43    3.20
  -3  -5  10    4.58    2.96
  -3  -5  10   11.13    4.15
   0   6 -10  184.57   15.29
   0  -6  10  166.81   13.75
   0  -6 -10  200.56   15.23
   0  -6  10  156.03   15.65
   0   6  10  173.66   15.86
   2   6 -10  169.86   13.35
  -2   6  10  142.69   13.43
   2  -6  10  177.66   13.08
  -2  -6 -10  175.69   12.73
  -2  -6 -10  154.92   14.52
  -2   6 -10  148.48   14.42
  -2  -6  10  138.16   13.57
   2  -6 -10  138.01   13.00
   2   6  10  131.86   12.87
  -2  -6  10  122.88   14.54
   1  -7  10   34.68    4.91
  -1   7  10   42.79    6.20
   1   7 -10   39.79    5.78
  -1  -7 -10   29.91    4.90
   1  -7  10   24.92    5.56
   1  -7 -10   28.58    4.95
   1   7  10   32.34    4.80
   1   7  10   32.93    6.17
  -1  -7  10   34.47    5.76
  -1   7 -10   43.30    6.47
   3  -7  10   24.93    4.95
   3   7 -10   18.48    3.90
  -3  -7 -10   13.47    5.21
  -3  -7  10   22.46    4.28
  -3   7 -10   15.19    5.14
   3  -7 -10   17.70    3.76
   3   7  10   17.22    4.53
  -3  -7  10   25.52    6.11
   0  -8  10  105.29   10.54
   0  -8 -10   88.89    9.53
   0  -8  10   87.63    8.26
   0   8  10   94.51   10.15
  -2  -8 -10   85.95   10.11
   2  -8  10   74.90    8.06
   2   8 -10   71.34    8.08
  -2  -8 -10   74.66    7.75
  -2   8  10   66.21    8.53
  -2  -8  10   80.27    8.98
   2  -8 -10   63.08    8.02
  -2   8 -10   97.43   10.01
   2   8  10   68.78    8.00
  -2  -8  10   72.50   10.60
   1  -9  10    9.21    2.60
  -1   9  10    9.31    3.53
   1  -9  10    3.06    3.65
   1   9 -10   12.22    3.82
  -1  -9 -10    6.70    3.03
  -1   9 -10   10.05    3.99
   1  -9 -10    7.73    3.70
  -1  -9  10   10.51    3.95
   1   9  10    5.03    3.50
   0 -10 -10  212.04   17.16
   0  10  10  192.28   18.27
   0 -10  10  217.07   18.95
   0 -10  10  211.56   16.29
  -2  10  10  158.19   14.94
  -2 -10 -10  185.77   16.35
  -2 -10 -10  191.34   14.31
   2 -10  10  160.73   14.30
   2  10 -10  166.67   14.98
  -2 -10  10  162.06   17.76
  -2 -10  10  135.11   14.93
   2 -10 -10  191.89   15.23
  -2  10 -10  160.88   16.42
  -1 -11 -10    3.03    3.19
  -1  11  10    5.25    3.26
   1 -11  10    8.51    3.03
  -1 -11  10    9.85    3.81
   1 -11 -10    8.21    3.31
   1  11  10   11.23    4.28
   0 -12  10   72.03    9.53
   0 -12 -10   62.66    8.00
   0 -12  10   65.29    7.10
   0  12  10   87.40    9.41
   0   0  11    0.06    1.98
   0   0 -11   -1.43    2.88
   0   0  11    0.63    2.53
   2   0  11   -2.45    2.45
  -2   0 -11    1.76    3.03
  -2   0  11   -2.84    2.69
   2   0 -11   -3.19    2.06
   1   1 -11   62.09    7.41
   1  -1  11   63.41    8.57
   1  -1  11   76.61    7.04
  -1   1  11   68.81    7.56
  -1  -1  11   78.13    8.10
   1  -1 -11   57.76    7.32
   1   1  11   65.00    8.18
   1   1  11   46.79    6.57
   3  -1  11   41.17    6.35
  -3  -1 -11   38.62    7.10
  -3  -1 -11   54.76    8.10
  -3   1  11   44.87    6.27
   3   1 -11   60.95    6.69
  -3  -1  11   42.54    6.20
  -3   1 -11   43.97    7.14
  -3  -1  11   58.85    8.19
   3   1  11   58.46    6.90
   3  -1 -11   54.21    6.30
   0  -2 -11    0.45    2.65
   0   2 -11   -0.43    2.77
   0  -2  11    1.17    2.34
   0   2  11   -4.55    2.33
   0  -2  11    6.64    3.65
   0   2  11   -2.29    1.93
   2   2 -11   -2.87    2.39
   2  -2  11   -0.30    2.56
  -2   2  11    0.62    2.48
  -2  -2 -11    0.46    3.02
  -2  -2 -11    1.20    3.33
   2  -2 -11   -1.65    2.37
   2   2  11    2.16    2.84
  -2  -2  11   -0.78    3.38
  -2  -2  11   -0.59    2.61
  -2   2 -11    3.01    3.55
   1   3 -11  212.76   16.52
  -1   3  11  192.36   16.60
   1  -3  11  191.74   15.46
   1  -3  11  195.13   17.54
   1   3  11  180.70   15.57
   1   3  11  215.96   17.43
  -1  -3  11  172.96   16.82
   1  -3 -11  183.50   16.33
  -3  -3 -11  122.97   13.00
   3   3 -11  110.30   11.05
  -3  -3 -11  127.97   13.14
   3  -3  11  127.14   11.38
   3   3  11  138.10   11.70
  -3   3 -11  121.34   12.59
  -3  -3  11  122.77   13.18
  -3  -3  11  113.26   11.44
   3  -3 -11  124.17   11.31
   0   4 -11    5.84    3.37
   0   4  11    8.25    3.61
   0  -4  11    7.13    3.54
   0  -4 -11    1.96    3.21
   0  -4  11    6.26    2.31
  -2  -4 -11    8.45    2.86
   2  -4  11    5.51    2.90
  -2  -4 -11    1.94    3.31
   2   4 -11    9.39    3.07
  -2   4  11    3.00    2.76
  -2  -4  11   -2.02    2.99
  -2   4 -11    7.28    3.80
  -2  -4  11    4.24    3.84
   2  -4 -11   -1.26    2.49
   2   4  11    4.64    3.34
   1   5 -11  155.99   13.41
  -1   5  11  145.79   13.63
   1  -5  11  163.78   12.59
   1  -5  11  156.25   14.47
  -1  -5  11  124.49   13.54
   1   5  11  153.29   12.50
   1  -5 -11  158.85   13.50
   1   5  11  126.81   13.92
   3   5 -11   82.32    9.52
   3  -5  11  116.50   10.61
  -3  -5 -11  120.40   12.12
   3   5  11  106.01   10.77
  -3  -5  11  110.52   12.59
  -3   5 -11  113.46   11.81
  -3  -5  11  106.33   10.57
   0  -6 -11    8.03    3.47
   0   6  11   12.43    4.18
   0  -6  11    2.13    3.11
   0  -6  11    9.42    2.84
  -2  -6 -11    0.93    3.10
   2  -6  11    6.57    3.30
  -2   6  11    5.91    3.04
   2   6 -11    6.35    3.03
  -2  -6 -11    0.44    2.56
  -2  -6  11    6.29    3.44
   2  -6 -11   -3.13    2.70
  -2   6 -11    7.80    4.08
   2   6  11    1.79    2.88
  -2  -6  11    1.69    4.14
   1  -7  11   85.98    8.36
  -1  -7 -11   70.09    8.51
   1   7 -11   91.84    9.22
  -1   7  11   93.52    9.78
   1  -7  11   84.78   10.00
   1  -7 -11   82.70    9.12
   1   7  11   97.94    8.52
   1   7  11   86.88   10.02
  -1  -7  11   86.45    9.51
   0  -8  11   20.57    3.58
   0  -8  11   24.18    5.38
   0   8  11   20.53    5.17
   0  -8 -11   19.39    4.71
  -2  -8 -11    5.17    4.32
   2   8 -11    5.77    3.15
  -2  -8 -11    8.35    3.26
  -2   8  11   10.08    3.63
   2  -8  11   18.44    3.95
   2  -8 -11   10.17    3.44
   2   8  11   13.83    3.77
  -2   8 -11   13.91    5.12
  -2  -8  11   18.62    5.41
  -2  -8  11   11.28    4.17
   1   9 -11   79.13    8.80
   1  -9  11   78.88    7.89
  -1  -9 -11   73.97    8.13
  -1   9  11   67.55    9.37
  -1  -9  11   72.97    9.46
   1  -9 -11   89.06    9.31
   1   9  11   66.97    9.76
   0  10  11    3.79    3.80
   0 -10 -11   -0.39    3.30
   0 -10  11    2.41    2.46
   0 -10  11    1.68    3.66
   1 -11  11   53.47    6.48
  -1  11  11   67.42    8.54
  -1 -11 -11   52.70    7.01
   1 -11 -11   52.73    7.83
   1  11  11   47.49    8.45
  -1 -11  11   53.61    8.15
   0   0 -12  197.51   15.93
   0   0  12  156.98   15.71
   2   0 -12  171.57   13.25
  -2   0 -12  166.40   14.56
   2   0  12  126.68   12.47
  -2   0  12  133.10   13.65
   1  -1  12   12.72    3.46
  -1   1  12   11.02    3.88
   1  -1  12   13.87    4.64
   1   1 -12    8.47    3.32
   1  -1 -12   10.10    3.56
   1   1  12   16.88    3.84
  -1  -1  12   11.10    3.75
   1   1  12   10.61    4.22
   3   1 -12   10.70    3.43
   3  -1  12   -2.72    2.93
  -3   1  12    6.49    3.43
  -3  -1 -12   11.43    4.58
   3  -1 -12    9.63    3.62
  -3   1 -12   10.66    4.26
   3   1  12   12.03    3.46
  -3  -1  12   13.47    3.57
   0  -2 -12   59.85    7.65
   0   2  12   62.84    7.66
   0  -2  12   39.00    7.03
   2   2 -12   45.60    6.40
  -2  -2 -12   59.26    8.04
  -2  -2 -12   39.95    7.58
  -2   2  12   46.71    6.85
   2  -2  12   44.42    6.19
   2  -2 -12   47.41    6.50
  -2   2 -12   42.54    7.34
  -2  -2  12   52.94    7.14
   2   2  12   51.56    6.72
   1  -3  12    0.91    3.57
  -1   3  12    5.92    3.06
   1  -3  12    5.17    2.72
   1   3 -12    4.64    3.15
   1  -3 -12    4.40    3.50
   1   3  12   -0.17    2.89
   1   3  12    4.63    3.58
  -1  -3  12    3.09    3.13
   0  -4  12  129.71   11.82
   0  -4  12  142.06   13.76
   0  -4 -12  154.31   13.46
   0   4  12  142.89   13.53
  -2  -4 -12  116.54   10.79
   2   4 -12  119.59   11.55
  -2   4  12  115.18   11.44
  -2  -4 -12  128.71   12.83
   2  -4  12  117.96   11.15
   2  -4 -12  111.90   11.44
  -2  -4  12  145.42   12.66
  -2  -4  12  140.42   13.66
   2   4  12  118.89   11.45
  -2   4 -12  115.28   12.83
   1   5 -12    0.16    2.75
   1  -5  12    2.70    2.94
  -1   5  12    2.07    2.98
   1  -5  12    2.52    3.94
   1  -5 -12    5.18    3.33
  -1  -5  12   -1.59    2.58
   1   5  12    1.83    2.72
   1   5  12    3.18    3.67
   0   6  12   99.11   11.02
   0  -6  12  112.01   11.76
  -2  -6 -12   71.51    8.00
  -2   6  12   80.16    8.77
   2  -6  12   87.54    8.52
   2   6 -12   63.22    8.31
   2  -6 -12   83.72    8.93
  -2   6 -12   89.89   10.67
   2   6  12   80.39    8.55
  -2  -6  12   88.77   11.10
  -2  -6  12   64.45    8.91
  -1  -7 -12    0.17    2.57
  -1   7  12    2.98    3.22
   1  -7  12    1.71    2.70
   1   7 -12   -3.99    3.14
   1  -7  12    0.72    3.05
   1   7  12    2.89    4.10
   1  -7 -12    1.75    2.74
  -1  -7  12    3.34    3.15
   0   8  12   84.69   11.26
   0  -8  12  120.18   11.81
   1  -9  12    2.87    2.83
  -1  -9 -12    1.05    2.85
  -1   9  12   -7.25    2.63
   1   9  12    0.42    3.47
   1  -9 -12   -0.30    3.50
  -1  -9  12    3.03    3.65
   0   0  13    1.12    3.60
   2   0 -13    3.13    3.02
  -2   0  13    0.88    3.04
   2   0  13    0.82    2.99
   1  -1  13  115.78   12.43
  -1   1  13  122.53   12.07
   1  -1  13  108.24   10.55
   1   1 -13  126.58   11.44
  -1  -1  13  101.48   11.69
   1   1  13  111.09   10.74
   1  -1 -13  117.80   11.67
   1   1  13  123.04   12.50
   0  -2  13   16.31    4.76
   0   2  13   14.53    4.49
  -2   2  13   17.03    4.33
   2  -2  13    8.12    3.50
   2   2 -13    7.39    3.54
  -2   2 -13   11.09    4.47
   2  -2 -13   16.29    4.20
   2   2  13   15.46    4.25
  -2  -2  13    5.07    4.08
  -1   3  13   88.77    9.58
   1  -3  13   89.40    8.55
   1  -3  13   87.49   11.13
   1   3 -13   80.51    9.36
   1   3  13   99.23   10.47
   1  -3 -13  101.36   10.17
   1   3  13   91.72    8.78
  -1  -3  13   70.72    9.84
   0   4  13   -2.28    2.81
   0  -4  13    4.90    3.33
   1  -5  13   52.10    7.79
   1  -5  13   32.99    5.17
  -1   5  13   37.74    6.03
   1   5 -13   38.22    6.14
  -1  -5  13   44.26    7.67
   1   5  13   39.05    5.20
  -1  -5  13   38.94    7.13
   1   5  13   30.18    6.37
   1  -5 -13   42.00    6.73
   0   6  13   -0.44    3.08
   0  -6  13   -2.43    3.14
   0   0  14   36.74    6.93
   0   2  14   98.81   10.21
   0  -2  14   68.84    9.94
   0   0   0    0.00    0.00
;
_shelx_hkl_checksum              3681
#END Tags that were not found in dictionaries
loop_
_space_group_symop_operation_xyz
'x, y, z'
'-x, -y, z+1/2'
'x, -y, -z'
'-x, y, -z+1/2'
'x+1/2, y+1/2, z'
'-x+1/2, -y+1/2, z+1/2'
'x+1/2, -y+1/2, -z'
'-x+1/2, y+1/2, -z+1/2'
'-x, -y, -z'
'x, y, -z-1/2'
'-x, y, z'
'x, -y, z-1/2'
'-x+1/2, -y+1/2, -z'
'x+1/2, y+1/2, -z-1/2'
'-x+1/2, y+1/2, z'
'x+1/2, -y+1/2, z-1/2'
loop_
_atom_site_label
_atom_site_type_symbol
_atom_site_fract_x
_atom_site_fract_y
_atom_site_fract_z
_atom_site_U_iso_or_equiv
_atom_site_adp_type
_atom_site_occupancy
_atom_site_site_symmetry_order
_atom_site_calc_flag
_atom_site_refinement_flags_posn
_atom_site_refinement_flags_adp
_atom_site_refinement_flags_occupancy
U1 U 0.0000 0.74840(3) 0.2500 0.00408(14) Uani 1 4 d S T P
Sc1 Sc 0.0000 0.0000 0.0000 0.0041(3) Uani 1 4 d S T P
S1 S 0.0000 0.35889(13) 0.06030(18) 0.0042(3) Uani 1 2 d S T P
S2 S 0.0000 0.08026(18) 0.2500 0.0043(4) Uani 1 4 d S T P
loop_
_atom_site_aniso_label
_atom_site_aniso_U_11
_atom_site_aniso_U_22
_atom_site_aniso_U_33
_atom_site_aniso_U_23
_atom_site_aniso_U_13
_atom_site_aniso_U_12
U1 0.00398(18) 0.00363(18) 0.00463(18) 0.000 0.000 0.000
Sc1 0.0042(7) 0.0031(7) 0.0051(8) 0.0002(6) 0.000 0.000
S1 0.0046(6) 0.0031(6) 0.0050(6) -0.0001(5) 0.000 0.000
S2 0.0043(10) 0.0034(9) 0.0050(9) 0.000 0.000 0.000
loop_
_atom_type_symbol
_atom_type_description
_atom_type_scat_dispersion_real
_atom_type_scat_dispersion_imag
_atom_type_scat_source
S S 0.1246 0.1234 'International Tables Vol C Tables 4.2.6.8 and 6.1.1.4'
Sc Sc 0.2519 0.3716 'International Tables Vol C Tables 4.2.6.8 and 6.1.1.4'
U U -9.6767 9.6646 'International Tables Vol C Tables 4.2.6.8 and 6.1.1.4'
loop_
_geom_angle_atom_site_label_1
_geom_angle_atom_site_label_2
_geom_angle_atom_site_label_3
_geom_angle
_geom_angle_site_symmetry_1
_geom_angle_site_symmetry_3
S2 U1 S2 85.28(6) 5_455 5
S2 U1 S1 141.32(3) 5_455 14_556
S2 U1 S1 84.32(4) 5 14_556
S2 U1 S1 84.32(4) 5_455 5_455
S2 U1 S1 141.32(3) 5 5_455
S1 U1 S1 124.79(6) 14_556 5_455
S2 U1 S1 84.32(4) 5_455 14_456
S2 U1 S1 141.32(3) 5 14_456
S1 U1 S1 80.98(4) 14_556 14_456
S1 U1 S1 74.18(6) 5_455 14_456
S2 U1 S1 141.32(3) 5_455 5
S2 U1 S1 84.32(4) 5 5
S1 U1 S1 74.18(6) 14_556 5
S1 U1 S1 80.98(4) 5_455 5
S1 U1 S1 124.79(6) 14_456 5
S2 U1 S1 72.22(2) 5_455 9_565
S2 U1 S1 72.22(2) 5 9_565
S1 U1 S1 137.82(3) 14_556 9_565
S1 U1 S1 69.12(4) 5_455 9_565
S1 U1 S1 137.82(3) 14_456 9_565
S1 U1 S1 69.12(4) 5 9_565
S2 U1 S1 72.22(2) 5_455 2_565
S2 U1 S1 72.22(2) 5 2_565
S1 U1 S1 69.12(4) 14_556 2_565
S1 U1 S1 137.82(3) 5_455 2_565
S1 U1 S1 69.12(4) 14_456 2_565
S1 U1 S1 137.82(3) 5 2_565
S1 U1 S1 130.96(6) 9_565 2_565
S2 U1 U1 132.64(3) 5_455 1_655
S2 U1 U1 47.36(3) 5 1_655
S1 U1 U1 49.51(2) 14_556 1_655
S1 U1 U1 130.49(2) 5_455 1_655
S1 U1 U1 130.49(2) 14_456 1_655
S1 U1 U1 49.51(2) 5 1_655
S1 U1 U1 90.0 9_565 1_655
S1 U1 U1 90.0 2_565 1_655
S2 U1 U1 47.36(3) 5_455 1_455
S2 U1 U1 132.64(3) 5 1_455
S1 U1 U1 130.49(2) 14_556 1_455
S1 U1 U1 49.51(2) 5_455 1_455
S1 U1 U1 49.51(2) 14_456 1_455
S1 U1 U1 130.49(2) 5 1_455
S1 U1 U1 90.0 9_565 1_455
S1 U1 U1 90.0 2_565 1_455
U1 U1 U1 180.0 1_655 1_455
S2 U1 Sc1 125.99(2) 5_455 2_565
S2 U1 Sc1 125.99(2) 5 2_565
S1 U1 Sc1 42.87(2) 14_556 2_565
S1 U1 Sc1 89.58(3) 5_455 2_565
S1 U1 Sc1 42.87(2) 14_456 2_565
S1 U1 Sc1 89.58(4) 5 2_565
S1 U1 Sc1 151.51(3) 9_565 2_565
S1 U1 Sc1 77.53(3) 2_565 2_565
U1 U1 Sc1 90.0 1_655 2_565
U1 U1 Sc1 90.0 1_455 2_565
S2 U1 Sc1 125.99(2) 5_455 1_565
S2 U1 Sc1 125.99(2) 5 1_565
S1 U1 Sc1 89.58(4) 14_556 1_565
S1 U1 Sc1 42.87(2) 5_455 1_565
S1 U1 Sc1 89.58(4) 14_456 1_565
S1 U1 Sc1 42.87(2) 5 1_565
S1 U1 Sc1 77.53(3) 9_565 1_565
S1 U1 Sc1 151.51(3) 2_565 1_565
U1 U1 Sc1 90.0 1_655 1_565
U1 U1 Sc1 90.0 1_455 1_565
Sc1 U1 Sc1 73.977(17) 2_565 1_565
S2 Sc1 S2 180.0 9 .
S2 Sc1 S1 93.46(5) 9 13
S2 Sc1 S1 86.54(5) . 13
S2 Sc1 S1 86.54(5) 9 5_445
S2 Sc1 S1 93.46(5) . 5_445
S1 Sc1 S1 180.00(5) 13 5_445
S2 Sc1 S1 93.46(5) 9 13_455
S2 Sc1 S1 86.54(5) . 13_455
S1 Sc1 S1 92.46(5) 13 13_455
S1 Sc1 S1 87.54(5) 5_445 13_455
S2 Sc1 S1 86.54(5) 9 5_545
S2 Sc1 S1 93.46(5) . 5_545
S1 Sc1 S1 87.54(5) 13 5_545
S1 Sc1 S1 92.46(5) 5_445 5_545
S1 Sc1 S1 180.00(5) 13_455 5_545
S2 Sc1 U1 104.04(5) 9 1_545
S2 Sc1 U1 75.96(5) . 1_545
S1 Sc1 U1 130.84(3) 13 1_545
S1 Sc1 U1 49.16(3) 5_445 1_545
S1 Sc1 U1 130.84(3) 13_455 1_545
S1 Sc1 U1 49.16(3) 5_545 1_545
S2 Sc1 U1 75.96(5) 9 9_565
S2 Sc1 U1 104.04(5) . 9_565
S1 Sc1 U1 49.16(3) 13 9_565
S1 Sc1 U1 130.84(3) 5_445 9_565
S1 Sc1 U1 49.16(3) 13_455 9_565
S1 Sc1 U1 130.84(3) 5_545 9_565
U1 Sc1 U1 180.0 1_545 9_565
Sc1 S1 Sc1 92.46(5) 5 5_455
Sc1 S1 U1 87.97(2) 5 5_545
Sc1 S1 U1 154.47(7) 5_455 5_545
Sc1 S1 U1 154.47(7) 5 5_445
Sc1 S1 U1 87.97(2) 5_455 5_445
U1 S1 U1 80.98(4) 5_545 5_445
Sc1 S1 U1 94.54(4) 5 9_565
Sc1 S1 U1 94.54(4) 5_455 9_565
U1 S1 U1 110.88(4) 5_545 9_565
U1 S1 U1 110.88(4) 5_445 9_565
Sc1 S2 Sc1 134.10(9) . 2
Sc1 S2 U1 106.67(3) . 5_545
Sc1 S2 U1 106.67(3) 2 5_545
Sc1 S2 U1 106.67(3) . 5_445
Sc1 S2 U1 106.67(3) 2 5_445
U1 S2 U1 85.28(6) 5_545 5_445
loop_
_geom_bond_atom_site_label_1
_geom_bond_atom_site_label_2
_geom_bond_distance
_geom_bond_site_symmetry_2
U1 S2 2.7681(17) 5_455
U1 S2 2.7681(17) 5
U1 S1 2.8877(13) 14_556
U1 S1 2.8877(13) 5_455
U1 S1 2.8877(13) 14_456
U1 S1 2.8877(13) 5
U1 S1 3.1308(17) 9_565
U1 S1 3.1308(17) 2_565
U1 U1 3.7500(8) 1_655
U1 U1 3.7500(8) 1_455
U1 Sc1 3.8145(6) 2_565
U1 Sc1 3.8145(6) 1_565
Sc1 S2 2.4923(10) 9
Sc1 S2 2.4923(10) .
Sc1 S1 2.5966(12) 13
Sc1 S1 2.5966(12) 5_445
Sc1 S1 2.5966(12) 13_455
Sc1 S1 2.5966(12) 5_545
Sc1 U1 3.8145(6) 1_545
Sc1 U1 3.8145(6) 9_565
S1 Sc1 2.5966(12) 5
S1 Sc1 2.5966(12) 5_455
S1 U1 2.8876(13) 5_545
S1 U1 2.8876(13) 5_445
S1 U1 3.1309(17) 9_565
S2 Sc1 2.4923(10) 2
S2 U1 2.7680(17) 5_545
S2 U1 2.7680(17) 5_445
