#------------------------------------------------------------------------------
#$Date: 2015-06-04 12:53:36 +0300 (Thu, 04 Jun 2015) $
#$Revision: 137913 $
#$URL: svn://www.crystallography.net/cod/cif/4/34/31/4343122.cif $
#------------------------------------------------------------------------------
#
# This file is available in the Crystallography Open Database (COD),
# http://www.crystallography.net/
#
# All data on this site have been placed in the public domain by the
# contributors.
#
data_4343122
loop_
_publ_author_name
'Prakash, Jai'
'Mesbah, Adel'
'Beard, Jessica'
'Leb\`egue, S\'ebastien'
'Malliakas, Christos D.'
'Ibers, James A.'
_publ_section_title
;
 Three New Quaternary Actinide Chalcogenides Ba2TiUTe7, Ba2CrUTe7, and
 Ba2CrThTe7: Syntheses, Crystal Structures, Transport Properties, and
 Theoretical Studies.
;
_journal_issue                   7
_journal_name_full               'Inorganic chemistry'
_journal_page_first              3688
_journal_page_last               3694
_journal_paper_doi               10.1021/acs.inorgchem.5b00338
_journal_volume                  54
_journal_year                    2015
_chemical_formula_sum            'Ba2 Cr Te7 Th'
_chemical_formula_weight         1451.92
_chemical_name_common            Ba2ThCrTe7
_space_group_crystal_system      orthorhombic
_space_group_IT_number           62
_space_group_name_Hall           '-P 2ac 2n'
_space_group_name_H-M_alt        'P n m a'
_symmetry_space_group_name_Hall  '-P 2ac 2n'
_symmetry_space_group_name_H-M   'P n m a'
_atom_sites_solution_primary     direct
_atom_sites_solution_secondary   difmap
_audit_creation_method           SHELXL-2014/6
_cell_angle_alpha                90
_cell_angle_beta                 90
_cell_angle_gamma                90
_cell_formula_units_Z            4
_cell_length_a                   12.5766(2)
_cell_length_b                   6.22970(10)
_cell_length_c                   18.7183(4)
_cell_measurement_reflns_used    8250
_cell_measurement_temperature    100(2)
_cell_measurement_theta_max      30.07
_cell_measurement_theta_min      3.24
_cell_volume                     1466.55(5)
_computing_cell_refinement       'Bruker SAINT'
_computing_data_collection       'Bruker APEX2'
_computing_data_reduction        'Bruker SAINT'
_computing_molecular_graphics    'Bruker SHELXTL'
_computing_publication_material  'Bruker SHELXTL'
_computing_structure_refinement  'SHELXL-2014/6 (Sheldrick, 2014)'
_computing_structure_solution    'SHELXS-97 (Sheldrick 2008)'
_diffrn_ambient_temperature      100(2)
_diffrn_measured_fraction_theta_full 0.996
_diffrn_measured_fraction_theta_max 0.997
_diffrn_measurement_device_type  'Bruker APEX-II CCD'
_diffrn_measurement_method       '\f and \w scans'
_diffrn_radiation_type           MoK\a
_diffrn_radiation_wavelength     0.71073
_diffrn_reflns_av_R_equivalents  0.0377
_diffrn_reflns_av_unetI/netI     0.0174
_diffrn_reflns_laue_measured_fraction_full 0.996
_diffrn_reflns_laue_measured_fraction_max 0.997
_diffrn_reflns_limit_h_max       17
_diffrn_reflns_limit_h_min       -17
_diffrn_reflns_limit_k_max       8
_diffrn_reflns_limit_k_min       -8
_diffrn_reflns_limit_l_max       26
_diffrn_reflns_limit_l_min       -26
_diffrn_reflns_number            24026
_diffrn_reflns_point_group_measured_fraction_full 0.996
_diffrn_reflns_point_group_measured_fraction_max 0.997
_diffrn_reflns_theta_full        25.242
_diffrn_reflns_theta_max         30.088
_diffrn_reflns_theta_min         3.645
_diffrn_source                   'fine-focus sealed tube'
_exptl_absorpt_coefficient_mu    29.730
_exptl_absorpt_correction_T_max  0.72740
_exptl_absorpt_correction_T_min  0.33148
_exptl_absorpt_correction_type   numerical
_exptl_absorpt_process_details   'face indexed (SADABS; Sheldric, 2012/1'
_exptl_crystal_colour            black
_exptl_crystal_density_diffrn    6.576
_exptl_crystal_density_meas      ?
_exptl_crystal_description       needle
_exptl_crystal_F_000             2360
_exptl_crystal_size_max          0.081
_exptl_crystal_size_mid          0.025
_exptl_crystal_size_min          0.016
_refine_diff_density_max         1.017
_refine_diff_density_min         -1.332
_refine_diff_density_rms         0.248
_refine_ls_extinction_coef       0.000170(12)
_refine_ls_extinction_expression Fc^*^=kFc[1+0.001xFc^2^\l^3^/sin(2\q)]^-1/4^
_refine_ls_extinction_method     SHELXL
_refine_ls_goodness_of_fit_ref   1.288
_refine_ls_hydrogen_treatment    undef
_refine_ls_matrix_type           full
_refine_ls_number_parameters     62
_refine_ls_number_reflns         2332
_refine_ls_number_restraints     0
_refine_ls_restrained_S_all      1.288
_refine_ls_R_factor_all          0.0212
_refine_ls_R_factor_gt           0.0164
_refine_ls_shift/su_max          0.002
_refine_ls_shift/su_mean         0.000
_refine_ls_structure_factor_coef Fsqd
_refine_ls_weighting_details
'w=1/[\s^2^(Fo^2^)+(0.0070P)^2^] where P=(1.0000Fo^2^+0.0000Fc^2^)'
_refine_ls_weighting_scheme      calc
_refine_ls_wR_factor_gt          0.0267
_refine_ls_wR_factor_ref         0.0275
_reflns_Friedel_coverage         0.000
_reflns_number_gt                2092
_reflns_number_total             2332
_reflns_threshold_expression     'I > 2\s(I)'
_cod_data_source_file            ic5b00338_si_001.cif
_cod_data_source_block           Ba2CrThTe7
_cod_depositor_comments
;
The following automatic conversions were performed:

'_exptl_crystal_density_meas' value 'not measured' was changed to '?'
- the value is perceived as not measured.

Automatic conversion script
Id: cif_fix_values 3271 2015-04-21 07:52:19Z andrius 
;
_cod_database_code               4343122
_shelx_space_group_comment
;
The symmetry employed for this shelxl refinement is uniquely defined
by the following loop, which should always be used as a source of
symmetry information in preference to the above space-group names.
They are only intended as comments.
;
_shelxl_version_number           2014/6
_shelx_res_file
;
TITL Ba2ThCrTe8 in Pnma after abs correction and tidy
CELL 0.71073 12.5766 6.2297 18.7183 90 90 90
ZERR 4 0.0002 0.0001 0.0004 0 0 0
LATT 1
SYMM 0.5-X,-Y,0.5+Z
SYMM 0.5+X,0.5-Y,0.5-Z
SYMM -X,0.5+Y,-Z

SFAC Cr Te Ba Th
UNIT 4 28 8 4

L.S. 4
PLAN  20
TEMP -173.12
BOND
ACTA
fmap 2
OMIT 1 0 1
OMIT 1 0 2
OMIT 0 0 2

WGHT    0.007000    0.000000    0.000000    0.000000    0.000000    1.000000
EXTI    0.000170
FVAR       0.07491
TH1   4    0.289468    0.250000    0.374057    10.50000    0.00735    0.00655 =
         0.00716    0.00000   -0.00078    0.00000
BA1   3    0.322571    0.250000    0.056399    10.50000    0.00883    0.00793 =
         0.00858    0.00000   -0.00216    0.00000
BA2   3    0.446645    0.250000    0.724565    10.50000    0.00700    0.00835 =
         0.00770    0.00000    0.00039    0.00000
TE1   2    0.074676    0.001094    0.398490    11.00000    0.00529    0.01460 =
         0.00833   -0.00220    0.00009    0.00101
TE2   2    0.306678    0.001518    0.228014    11.00000    0.00713    0.01403 =
         0.00594    0.00051   -0.00041    0.00008
TE3   2    0.042020    0.250000    0.120802    10.50000    0.00653    0.00813 =
         0.00868    0.00000   -0.00100    0.00000
TE4   2    0.325493    0.250000    0.541461    10.50000    0.00841    0.00809 =
         0.00680    0.00000    0.00087    0.00000
TE5   2    0.637890    0.250000    0.584711    10.50000    0.00557    0.00732 =
         0.00616    0.00000   -0.00055    0.00000
CR1   1    0.000000    0.000000    0.000000    10.50000    0.00684    0.01054 =
         0.00775   -0.00045   -0.00004    0.00006
HKLF 4

REM  Ba2ThCrTe8 in Pnma after abs correction and tidy
REM R1 =  0.0164 for    2092 Fo > 4sig(Fo)  and  0.0212 for all    2332 data
REM     62 parameters refined using      0 restraints

END

WGHT      0.0074      6.6412

REM Highest difference peak  1.017,  deepest hole -1.332,  1-sigma level  0.248
Q1    1   0.1406 -0.2500  0.3675  10.50000  0.05    1.02
Q2    1   0.3226  0.1602 -0.0029  11.00000  0.05    0.87
Q3    1   0.1952  0.2500  0.3192  10.50000  0.05    0.82
Q4    1   0.0610  0.1695  0.0650  11.00000  0.05    0.80
Q5    1   0.0789 -0.1411  0.3812  11.00000  0.05    0.79
Q6    1   0.0607  0.0909  0.3962  11.00000  0.05    0.78
Q7    1   0.3014  0.1054  0.3686  11.00000  0.05    0.77
Q8    1   0.6393  0.0607  0.6168  11.00000  0.05    0.76
Q9    1   0.7013  0.1248  0.6307  11.00000  0.05    0.75
Q10   1   0.2210  0.0803  0.0052  11.00000  0.05    0.75
Q11   1   0.0394  0.1074  0.1526  11.00000  0.05    0.73
Q12   1   0.0638 -0.0546  0.3347  11.00000  0.05    0.73
Q13   1   0.5877  0.0716  0.5722  11.00000  0.05    0.73
Q14   1   0.3131  0.0688  0.2709  11.00000  0.05    0.72
Q15   1   0.2177 -0.2500  0.1836  10.50000  0.05    0.72
Q16   1   0.3113 -0.0772  0.2233  11.00000  0.05    0.70
Q17   1   0.1730  0.0707  0.3498  11.00000  0.05    0.70
Q18   1   0.4042  0.2500  0.2150  10.50000  0.05    0.70
Q19   1   0.6636  0.2500  0.5335  10.50000  0.05    0.69
Q20   1   0.3923 -0.2500  0.1757  10.50000  0.05    0.69
;
_shelx_res_checksum              22339
_shelx_hkl_file
;
   1   0   0 -0.3316 0.41549   4
   3   0   0 0.44320 1.60609   4
  -3   0   0 3.20110 1.63132   4
   4   0   0 0.91287 2.11165   4
  -4   0   0 1.46476 2.16679   4
   5   0   0 -1.7058 1.91003   4
  -5   0   0 1.09132 1.97098   4
   6   0   0 246.130 8.19405   4
  -7   0   0 -0.4626 2.25331   7
  -7   0   0 0.42703 1.09724   6
   7   0   0 -0.5665 2.45962   7
   7   0   0 -1.4674 2.07669   4
  -7   0   0 -1.3038 2.41630   1
   7   0   0 -2.7882 2.38202   1
   8   0   0 3703.10 65.3444   7
  -8   0   0 3717.30 69.3509   1
   8   0   0 3823.49 67.2879   2
   8   0   0 3715.03 69.1837   1
   8   0   0 3700.36 69.7624   4
  -8   0   0 3693.27 65.2940   7
  -9   0   0 0.60510 2.97561   1
   9   0   0 -0.6558 2.60661   7
   9   0   0 -0.1532 2.97411   2
   9   0   0 0.71498 3.06775   1
  -9   0   0 0.55206 2.59409   7
  -9   0   0 5.00256 3.11687   2
 -10   0   0 76.4892 6.28131   2
 -10   0   0 81.7648 6.89591   1
  10   0   0 73.6763 6.67996   1
  10   0   0 74.3706 6.42530   2
 -10   0   0 67.6262 5.73053   7
  10   0   0 67.6305 5.76749   7
  11   0   0 -0.1951 3.47934   1
  11   0   0 4.18767 3.36230   7
 -11   0   0 1.11406 3.65946   1
 -11   0   0 -3.7402 3.03890   7
  11   0   0 -0.7661 3.51488   2
 -12   0   0 107.832 9.27279   1
  12   0   0 91.8647 8.56255   1
 -12   0   0 93.4055 7.48246   7
  12   0   0 81.8644 7.07342   7
 -13   0   0 1.22482 3.95879   7
  13   0   0 -5.5872 4.17153   1
  13   0   0 0.57724 3.95741   7
 -13   0   0 -1.1375 4.39524   1
  14   0   0 109.785 10.2296   1
  14   0   0 114.997 8.97718   7
 -14   0   0 116.587 9.29805   7
 -14   0   0 121.388 10.5931   1
 -15   0   0 2.40424 5.16149   1
  15   0   0 -5.9546 4.99180   1
  15   0   0 -0.1940 4.48257   7
 -15   0   0 1.18345 4.54988   7
  16   0   0 228.861 15.2995   1
 -16   0   0 247.367 12.6157   7
 -16   0   0 244.144 14.4178   1
  16   0   0 253.178 13.2759   7
 -17   0   0 2.62656 6.02802   1
  17   0   0 0.69393 5.12110   7
 -17   0   0 -11.465 4.21013   7
   0   1   0 -2.6777 1.19302   6
   0  -1   0 -2.2715 1.05358   6
  -1   1   0 -1.3718 1.23404   6
   1  -1   0 0.50941 1.28091   6
  -1  -1   0 -0.4931 1.21806   6
   2  -1   0 503.357 10.7053   6
   2  -1   0 490.414 9.59841   4
  -2   1   0 484.395 9.94448   4
   2  -1   0 493.140 9.42584   4
  -2   1   0 493.685 9.72674   4
  -2   1   0 485.732 10.6593   6
   3  -1   0 0.95791 1.43698   4
  -3   1   0 -1.2658 1.60404   6
  -3   1   0 3.02522 1.85147   4
   3  -1   0 -0.9227 1.60083   4
  -4   1   0 1264.70 24.8689   6
   4  -1   0 1262.62 24.7812   4
   4   1   0 1284.61 24.6071   4
  -4   1   0 1260.31 25.0450   4
   4  -1   0 1330.78 24.5705   4
  -5   1   0 0.90484 2.05742   4
   5  -1   0 -1.2333 1.80938   4
  -5   1   0 -0.1467 1.61074   6
   5  -1   0 -0.0766 2.07294   4
   5   1   0 3.69635 2.08152   4
  -6  -1   0 1332.77 26.6767   1
   6   1   0 1314.67 25.7846   2
   6  -1   0 1303.50 26.7259   1
  -6  -1   0 1347.69 27.1661   3
  -6   1   0 1276.66 25.4852   6
   6  -1   0 1320.99 26.5659   4
   6  -1   0 1299.38 26.3189   4
  -6   1   0 1267.31 26.6907   4
   6   1   0 1254.20 26.4003   4
  -6   1   0 1306.08 25.8494   2
   7   1   0 0.19725 2.37983   2
   7   1   0 0.44799 1.94482   4
  -7   1   0 -0.4174 1.54927   6
  -7   1   0 1.32707 2.33150   2
   7  -1   0 2.19769 2.21940   4
  -7  -1   0 2.58302 2.59615   3
  -7   1   0 -1.7770 2.20439   4
  -7  -1   0 -0.6461 1.99235   7
   7  -1   0 -1.0830 2.19510   4
  -7  -1   0 0.53428 2.52805   1
   7  -1   0 -0.4218 2.14431   7
   7  -1   0 -7.0827 2.09046   1
   8   1   0 188.800 8.14856   2
  -8  -1   0 192.520 7.01207   7
   8  -1   0 191.688 7.32146   7
   8  -1   0 196.060 8.55635   1
   8   1   0 183.956 8.20112   1
   8  -1   0 194.542 8.08664   4
  -8  -1   0 199.407 8.45861   1
  -8  -1   0 201.106 8.08797   3
   8  -1   0 181.762 7.64807   4
  -8   1   0 179.958 8.11591   1
  -8   1   0 187.634 8.16132   4
   8   1   0 199.011 7.83317   7
  -8   1   0 192.589 7.80040   7
  -8   1   0 169.957 7.72033   2
  -9   1   0 2.61178 2.84483   2
  -9  -1   0 -1.8101 2.67689   3
  -9  -1   0 -0.6995 3.02409   1
  -9  -1   0 2.76129 2.50106   7
   9   1   0 1.32467 2.75562   7
   9  -1   0 1.33468 2.90595   4
   9  -1   0 2.82291 2.61753   7
   9   1   0 -0.0535 2.77274   1
  -9   1   0 -1.1806 3.13856   1
   9  -1   0 -1.6755 2.72966   1
  -9   1   0 -0.7659 2.57364   4
   9   1   0 -0.6497 2.76438   2
  -9   1   0 3.17281 2.74419   7
 -10   1   0 410.019 13.9874   1
  10   1   0 398.308 13.6881   1
  10  -1   0 400.323 14.0167   1
  10   1   0 426.170 13.6995   2
 -10  -1   0 425.152 13.1573   3
 -10  -1   0 380.658 11.6228   7
 -10  -1   0 399.746 13.8432   1
 -10   1   0 401.218 12.7897   7
  10   1   0 404.925 12.7025   7
 -10   1   0 387.498 13.2022   2
  10  -1   0 414.262 12.1516   7
  11  -1   0 1.67469 3.84861   1
  11   1   0 0.14814 3.76817   2
 -11   1   0 -4.6222 3.07337   7
 -11   1   0 4.74272 4.05906   1
  11  -1   0 -1.3941 3.05078   7
  11   1   0 6.86182 4.33748   1
 -11  -1   0 -0.4382 3.56950   1
  11   1   0 0.06040 3.34386   7
 -11  -1   0 0.05634 2.95033   7
 -11   1   0 1.56728 3.32609   2
 -12   1   0 58.9581 6.60870   7
  12   1   0 70.5931 7.19274   2
 -12  -1   0 53.0653 5.71093   7
 -12   1   0 66.3665 7.56190   1
  12  -1   0 66.4914 6.29920   7
  12  -1   0 51.6899 6.86246   1
 -12  -1   0 68.8387 7.48292   1
  12   1   0 53.2449 6.11096   7
 -12   1   0 56.0736 6.52777   2
  13   1   0 -0.3216 3.93249   7
  13  -1   0 5.22685 3.97807   7
 -13   1   0 7.20452 4.43016   7
 -13  -1   0 -1.3303 4.48538   1
 -13   1   0 0.42300 4.41508   1
  13  -1   0 1.79095 4.52541   1
 -13  -1   0 -0.4669 3.38772   7
  13   1   0 -2.4129 4.22478   2
 -14   1   0 7.01050 5.34435   1
  14  -1   0 7.85214 4.57880   7
  14   1   0 4.93173 4.71758   7
 -14  -1   0 3.87088 3.99491   7
 -14   1   0 -0.5088 4.10591   7
  14  -1   0 3.22007 5.02475   1
 -14  -1   0 -0.1480 4.80648   1
 -15  -1   0 2.69391 5.18366   1
  15   1   0 1.98112 4.80411   7
  15  -1   0 1.73654 4.44626   7
 -15  -1   0 1.23932 4.31779   7
  15  -1   0 -5.4258 4.81891   1
 -15   1   0 -0.0652 4.70879   7
  16   1   0 72.2309 8.43832   7
 -16   1   0 72.5724 8.49631   7
  16  -1   0 63.1572 9.05817   1
 -16  -1   0 52.8642 8.28882   1
  16  -1   0 72.2569 7.88062   7
 -17   1   0 4.02128 5.06143   7
  17   1   0 0.34399 5.31343   7
  17  -1   0 0.21767 4.90381   7
 -17  -1   0 -3.0537 5.36902   1
  17  -1   0 -7.0021 5.30052   1
   0  -2   0 915.496 19.1407   5
   0  -2   0 906.595 19.6529   6
   0   2   0 896.760 19.5923   6
   1  -2   0 -0.9661 2.10480   6
  -1   2   0 -1.4100 2.06133   6
  -1  -2   0 -0.1737 2.09279   5
  -1  -2   0 -1.8500 2.00230   6
  -2   2   0 236.590 4.79156   4
  -2  -2   0 236.751 7.29771   6
   2  -2   0 237.503 7.62605   6
  -2   2   0 231.989 7.50550   6
   3  -2   0 2.91988 2.31405   6
  -3  -2   0 2.23708 2.61151   3
  -3  -2   0 0.07862 2.02136   6
  -3   2   0 -0.6271 2.05441   6
  -3   2   0 -0.9608 1.23479   4
  -3   2   0 0.44236 1.58989   4
   4   2   0 0.32982 2.00781   2
   4  -2   0 0.05090 1.15789   4
  -4   2   0 -1.6020 2.00034   2
  -4   2   0 -2.4969 1.51323   4
  -4   2   0 -2.7659 2.06700   6
  -4  -2   0 0.31845 1.96900   6
   4  -2   0 -1.6019 1.21132   4
  -4  -2   0 0.86502 2.77236   3
  -4   2   0 -2.6782 1.92712   4
  -5  -2   0 3.63275 2.85874   3
   5  -2   0 2.50051 2.20782   1
   5  -2   0 -0.6919 1.41609   4
  -5   2   0 -0.0305 2.03943   2
   5   2   0 4.10988 2.09937   2
   5  -2   0 3.78788 1.87580   4
  -5  -2   0 1.19306 2.13023   1
  -5   2   0 0.76986 1.99200   6
  -5   2   0 1.91603 2.01833   4
  -5  -2   0 -1.1793 1.74098   6
   6  -2   0 507.055 13.3154   1
   6  -2   0 523.260 12.5171   4
  -6   2   0 536.281 13.4078   4
   6   2   0 501.867 12.6250   4
  -6  -2   0 508.704 13.0489   1
  -6  -2   0 514.926 14.2288   3
  -6  -2   0 504.580 11.9262   6
  -6   2   0 506.980 12.9290   2
   6   2   0 532.208 12.9072   2
   6  -2   0 510.295 11.8860   4
   7  -2   0 -4.2271 2.20168   1
   7   2   0 2.70462 2.46473   2
   7  -2   0 -0.3364 2.01576   4
  -7  -2   0 1.30979 1.77866   6
  -7   2   0 0.45070 2.54890   2
  -7   2   0 -3.1249 2.26943   4
   7  -2   0 -2.2389 1.87249   7
   7  -2   0 2.75045 2.24717   4
  -7  -2   0 -1.0318 2.47132   1
  -7  -2   0 -2.2926 2.80820   3
   8  -2   0 3.24363 2.69546   4
   8  -2   0 -0.4193 2.20180   4
  -8   2   0 -4.7691 2.45936   2
   8  -2   0 -0.3406 2.08416   7
  -8  -2   0 1.86684 3.15233   3
   8  -2   0 1.34329 2.89239   1
   8   2   0 -3.4741 2.42779   2
  -8  -2   0 0.56414 2.65059   1
  -8   2   0 3.44273 2.80620   4
   9  -2   0 -1.0190 2.38185   7
  -9   2   0 3.35590 2.94532   2
   9   2   0 -0.3744 2.90604   7
  -9  -2   0 0.91331 3.12834   1
  -9  -2   0 4.52683 3.52566   3
  -9   2   0 -3.3713 2.55569   4
   9   2   0 -1.2357 3.12937   2
  -9   2   0 0.97370 2.96859   7
   9  -2   0 4.29890 3.38493   1
 -10  -2   0 750.812 19.9804   3
  10  -2   0 735.867 16.9134   7
 -10  -2   0 710.203 19.6605   1
 -10   2   0 691.785 19.1198   2
  10   2   0 741.329 19.5473   2
  10  -2   0 680.256 19.7933   1
 -10   2   0 761.999 18.8335   7
  10   2   0 726.542 18.4399   7
  11   2   0 1.41608 3.62280   7
 -11  -2   0 -2.4778 3.53524   1
 -11   2   0 3.15585 3.93099   2
  11  -2   0 3.15345 4.21815   1
 -11  -2   0 9.57446 4.35406   3
 -11   2   0 2.56391 3.82092   7
  11  -2   0 3.41496 3.22231   7
  11   2   0 3.89549 3.74747   2
  12  -2   0 647.774 16.9103   7
 -12   2   0 641.614 18.6644   7
  12   2   0 625.950 18.4315   7
 -12  -2   0 636.563 20.0394   1
  12  -2   0 640.829 20.1871   1
  12   2   0 676.736 19.8353   2
 -12   2   0 670.560 19.5365   2
  13   2   0 1.17927 4.74570   2
 -13   2   0 -1.1095 4.14342   7
 -13   2   0 -2.7879 4.28232   2
  13  -2   0 -7.9063 3.36189   7
 -13  -2   0 1.64463 4.80035   1
  13  -2   0 -9.5480 4.03855   1
  13   2   0 -0.3500 4.27568   7
  14   2   0 166.988 10.6515   7
 -14   2   0 138.641 10.9680   2
 -14   2   0 156.092 10.6454   7
 -14  -2   0 134.641 10.9024   1
  14   2   0 162.072 11.7654   2
  14  -2   0 157.869 9.33730   7
  14  -2   0 143.454 11.5353   1
 -15   2   0 1.50793 4.92168   7
 -15  -2   0 3.48361 5.22253   1
  15  -2   0 4.26716 5.54489   1
  15  -2   0 -2.4835 4.21179   7
  15   2   0 -3.2433 5.15839   2
  15   2   0 6.21065 5.00580   7
  16   2   0 175.229 14.9318   2
  16   2   0 200.154 12.5928   7
 -16  -2   0 165.969 12.6205   1
 -16   2   0 196.641 12.7670   7
  16  -2   0 181.815 10.8099   7
  16  -2   0 209.887 14.2326   1
 -17   2   0 1.54428 5.62767   7
  17   2   0 3.87019 5.38214   7
 -17  -2   0 -0.1892 5.64765   1
  17  -2   0 2.53915 6.13328   1
  17  -2   0 6.03410 4.96198   7
   0  -3   0 -0.5126 2.46034   5
   0  -3   0 0.36820 2.32317   6
   0  -3   0 -2.9524 2.68985   3
  -1  -3   0 -2.4068 2.15535   5
  -1  -3   0 2.28308 2.83445   3
   1  -3   0 1.01490 2.74307   3
   1  -3   0 -0.0019 2.26569   5
   1  -3   0 -0.8075 2.28695   6
  -1  -3   0 -3.9656 2.17741   6
   2  -3   0 319.894 10.0595   3
   2  -3   0 320.555 10.2640   6
  -2  -3   0 309.481 10.6230   3
  -2  -3   0 301.951 9.67610   5
  -2  -3   0 304.652 9.85026   6
  -3   3   0 -0.0775 1.66749   2
   3  -3   0 -1.0611 2.35562   6
   3   3   0 0.00844 1.50092   2
  -3   3   0 -1.0561 1.19800   4
   3  -3   0 -2.7734 2.49288   3
  -3  -3   0 -1.7387 2.72479   3
  -3  -3   0 -4.8220 1.99501   6
  -3   3   0 -1.5242 1.05067   4
  -4  -3   0 816.145 17.0583   1
   4   3   0 821.887 16.5263   2
   4  -3   0 835.052 17.4149   1
   4  -3   0 822.491 19.1942   3
   4  -3   0 848.241 19.9443   6
  -4  -3   0 832.205 20.6767   3
  -4  -3   0 816.003 19.1393   6
  -4   3   0 823.322 16.7011   4
  -4   3   0 826.805 17.1488   4
  -4   3   0 838.219 16.9362   2
   5   3   0 -0.4135 2.05680   2
  -5  -3   0 0.59792 2.09122   1
  -5  -3   0 0.91812 3.03011   3
  -5   3   0 0.33635 2.05039   4
  -5  -3   0 0.43212 2.18978   6
   5  -3   0 -1.6141 2.14674   1
   5  -3   0 2.03403 2.83231   3
  -5   3   0 2.74519 2.14795   2
  -6  -3   0 924.790 20.6835   6
   6  -3   0 922.011 20.4830   1
  -6  -3   0 922.190 20.1816   1
   6   3   0 885.354 19.4923   2
  -6   3   0 917.980 20.3895   4
  -6   3   0 921.248 20.0318   2
  -6  -3   0 909.686 22.8674   3
   7   3   0 3.72484 2.65239   2
  -7   3   0 -0.4084 2.53675   4
  -7   3   0 0.58531 2.53345   2
  -7  -3   0 2.87903 3.30673   3
  -7  -3   0 2.22704 2.68787   1
  -7  -3   0 0.14553 2.13688   6
   7  -3   0 0.24642 1.30956   4
   7  -3   0 -3.1918 2.37757   1
   8  -3   0 165.305 8.24588   1
  -8   3   0 178.509 8.22083   2
  -8  -3   0 166.574 9.14918   3
   8   3   0 159.362 7.81674   2
   8  -3   0 163.222 5.74180   4
  -8  -3   0 164.177 7.95259   1
  -8   3   0 160.927 8.15359   4
  -9  -3   0 2.60044 3.26277   1
  -9  -3   0 4.55957 4.03148   3
  -9   3   0 -0.0161 3.25700   2
   9  -3   0 3.15898 3.47243   1
   9   3   0 -3.6684 2.99815   2
   9  -3   0 1.07727 2.29336   4
 -10  -3   0 308.158 13.0873   3
  10   3   0 316.766 12.3159   2
 -10  -3   0 332.096 12.3412   1
  10  -3   0 329.567 12.8730   1
 -10   3   0 306.798 12.1407   2
 -11  -3   0 -4.6912 3.55210   1
  11   3   0 5.92857 4.21636   2
 -11   3   0 1.41520 3.83918   2
  11  -3   0 -8.6658 3.34431   1
 -11  -3   0 -2.7518 4.17771   3
  12   3   0 47.3235 6.61760   2
 -12   3   0 40.4616 6.35451   2
 -12  -3   0 38.4103 6.62241   3
  12  -3   0 43.7566 6.74697   1
 -12  -3   0 34.0040 6.07168   1
 -13   3   0 5.57718 4.63120   7
 -13   3   0 2.21070 4.76635   2
 -13  -3   0 -3.6071 4.12709   1
  13  -3   0 -0.1565 4.71254   1
  13   3   0 6.75370 5.03357   2
 -14  -3   0 22.0841 5.80744   1
  14  -3   0 -6.3296 4.82194   1
 -14   3   0 3.42442 5.05850   2
  14   3   0 4.85676 5.03835   2
 -14   3   0 -1.5427 4.70038   7
 -15  -3   0 0.96623 5.09191   1
 -15   3   0 -3.4635 4.97777   7
 -15   3   0 4.06062 5.13670   2
  15  -3   0 6.09727 5.38141   1
  15   3   0 0.46968 5.46678   2
 -16   3   0 67.5045 9.33498   2
 -16   3   0 52.1960 8.23115   7
 -16  -3   0 44.1988 7.86467   1
  16  -3   0 41.9632 8.26911   1
  16   3   0 56.9064 8.76237   2
   0  -4   0 9410.82 176.828   3
   0  -4   0 9833.10 179.269   6
   0  -4   0 9999.99 175.474   5
   1  -4   0 -0.7584 2.64011   6
  -1  -4   0 2.71400 2.76957   6
   1  -4   0 -0.8572 2.89522   3
  -1  -4   0 -0.3212 2.65465   5
   1  -4   0 0.32088 2.72564   5
  -1  -4   0 1.87367 3.29304   3
   2  -4   0 120.010 7.26593   3
  -2  -4   0 119.812 7.02949   5
  -2   4   0 122.881 3.63159   2
  -2  -4   0 118.453 6.98866   6
  -2  -4   0 109.894 7.44683   3
   2  -4   0 116.184 6.90478   5
   2  -4   0 115.255 7.07055   6
  -3  -4   0 -2.3688 3.18654   3
   3   4   0 -1.7288 1.45677   2
  -3  -4   0 -0.5040 1.57710   1
  -3   4   0 2.45201 1.73125   2
   3  -4   0 -0.3512 2.98444   3
   3  -4   0 -0.2800 2.74340   6
  -3  -4   0 -3.3130 2.35934   6
  -3   4   0 -1.7505 1.00922   4
   3  -4   0 2.34118 1.84451   1
   4  -4   0 2.33269 3.06902   3
  -4   4   0 6.34429 2.45512   2
  -4  -4   0 9.89599 4.02137   3
  -4  -4   0 9.03852 3.36529   6
   4   4   0 6.63409 2.34561   2
  -4  -4   0 3.05121 2.17618   1
   4  -4   0 8.00233 3.38305   6
   4  -4   0 1.96179 2.48868   1
  -4   4   0 2.45249 1.86774   4
  -5  -4   0 -0.1775 2.81467   6
  -5  -4   0 2.98407 2.20092   1
   5  -4   0 -4.2768 2.96849   3
   5  -4   0 -1.4580 2.22058   1
  -5  -4   0 2.31243 3.81064   3
   5   4   0 0.70226 2.30343   2
  -5   4   0 -2.8662 2.06848   2
   6   4   0 134.504 6.34519   2
  -6  -4   0 136.166 6.25287   1
  -6   4   0 147.427 6.87662   2
  -6  -4   0 131.139 9.04333   3
  -6  -4   0 143.038 7.48813   6
   6  -4   0 136.137 7.92630   3
   6  -4   0 128.556 6.63078   1
   7  -4   0 -1.1716 2.73240   1
  -7   4   0 1.17775 2.80238   2
  -7  -4   0 -4.5075 3.61678   3
  -7  -4   0 0.73734 2.60909   1
   7   4   0 -4.1252 2.58130   2
   8  -4   0 2132.60 43.1797   1
  -8   4   0 2141.00 42.1092   2
  -8  -4   0 2112.02 47.0189   3
  -8  -4   0 2117.09 42.6240   1
   8   4   0 2149.34 41.7310   2
   9   4   0 4.11520 3.41815   2
  -9  -4   0 -1.6061 3.17662   1
   9  -4   0 1.88560 3.50675   1
  -9   4   0 1.86054 3.58501   2
  -9  -4   0 -3.6918 4.15781   3
 -10  -4   0 43.7811 6.02425   1
  10  -4   0 45.6576 6.14807   1
  10   4   0 35.0935 5.53327   2
 -10   4   0 43.1301 5.77426   2
 -10  -4   0 34.2764 6.64088   3
 -11  -4   0 -0.7842 4.78405   3
 -11  -4   0 -2.3490 3.77770   1
  11   4   0 1.96486 4.19937   2
  11  -4   0 -0.4536 3.84425   1
 -11   4   0 1.10786 3.95349   2
  12   4   0 67.3104 7.62730   2
 -12  -4   0 69.7547 7.62042   1
 -12  -4   0 85.9133 9.36316   3
 -12   4   0 76.8436 8.20873   2
  12  -4   0 71.9672 8.24993   1
 -13  -4   0 -3.3221 3.91792   1
 -13   4   0 6.13217 4.96923   2
  13   4   0 -1.5220 4.48858   2
  13  -4   0 -4.0003 4.74949   1
  14  -4   0 63.5873 8.67636   1
 -14   4   0 63.3204 8.63758   2
 -14  -4   0 78.4906 8.65108   1
  14   4   0 75.1878 8.99565   2
 -15   4   0 -5.3535 4.88919   2
  15   4   0 7.27139 5.91709   2
  15  -4   0 0.18229 5.19515   1
 -15  -4   0 -7.1145 4.53299   1
   0  -5   0 -2.0304 3.07060   6
   0  -5   0 0.54198 3.57691   3
   0  -5   0 3.10945 3.50578   5
   1  -5   0 3.64407 3.75545   3
   1  -5   0 -6.1374 2.90116   5
   1  -5   0 0.25007 3.31382   6
  -1  -5   0 -4.1771 2.81831   6
  -1  -5   0 -1.5199 3.08179   5
  -1  -5   0 -5.4646 3.32391   3
  -2  -5   0 187.250 9.43342   5
  -2   5   0 197.558 5.17087   2
  -2  -5   0 191.060 10.7445   3
  -2  -5   0 185.282 9.60203   6
   2  -5   0 192.986 9.71372   5
   2  -5   0 182.846 10.0326   3
   2  -5   0 197.846 9.89693   6
   3  -5   0 -5.9477 2.79957   6
  -3  -5   0 0.04606 3.26606   6
   3  -5   0 -0.1829 3.40780   5
  -3   5   0 -2.8981 1.84886   2
   3   5   0 1.93671 1.65923   2
   3  -5   0 -2.2517 1.77007   1
   3  -5   0 6.75082 3.92561   3
  -3  -5   0 8.60043 4.44796   3
  -4  -5   0 590.776 17.7344   6
   4  -5   0 601.088 17.9853   3
  -4  -5   0 584.126 13.2075   1
   4   5   0 581.755 12.9383   2
  -4  -5   0 590.600 19.3344   3
  -4   5   0 596.736 13.4430   2
   4  -5   0 609.567 13.8042   1
   5  -5   0 -7.2146 3.33488   3
  -5   5   0 -0.6537 2.43495   2
  -5  -5   0 -4.4159 2.99244   6
   5   5   0 3.32435 2.41655   2
   5  -5   0 3.98339 2.50220   1
  -5  -5   0 -2.6573 4.04932   3
  -5  -5   0 3.02747 2.36334   1
  -6  -5   0 645.196 20.9589   3
   6  -5   0 664.762 19.2070   3
  -6   5   0 646.901 16.0280   2
  -6  -5   0 654.542 15.6727   1
  -6  -5   0 674.120 18.9993   6
   6   5   0 631.867 15.4264   2
   6  -5   0 627.894 16.1554   1
  -7  -5   0 -0.7297 4.45251   3
  -7  -5   0 -0.2756 2.66794   1
  -7   5   0 -1.3088 2.94345   2
   7  -5   0 0.93905 2.98852   1
   7   5   0 2.68456 3.17831   2
  -8  -5   0 92.0150 9.33173   3
  -8  -5   0 92.1765 6.66850   1
   8   5   0 91.6303 6.92186   2
  -8   5   0 105.442 7.51023   2
   8  -5   0 90.2535 7.03591   1
   9   5   0 -6.3629 3.09762   2
   9  -5   0 3.02490 3.79924   1
  -9  -5   0 -2.1114 4.89114   3
  -9  -5   0 -0.5339 3.40055   1
  -9   5   0 -0.6591 3.50197   2
 -10   5   0 203.514 10.6253   2
  10   5   0 213.308 10.8247   2
 -10  -5   0 215.297 13.2209   3
 -10  -5   0 204.714 10.1692   1
  10  -5   0 201.479 10.8406   1
  11   5   0 5.41044 4.42950   2
 -11  -5   0 0.55111 5.27838   3
 -11   5   0 -2.4841 3.95414   2
  11  -5   0 -4.7218 4.26889   1
 -11  -5   0 -1.2547 3.92147   1
 -12   5   0 37.0321 6.32045   2
  12   5   0 35.9329 6.42332   2
  12  -5   0 44.4330 7.14575   1
 -12  -5   0 40.6533 7.92302   3
 -12  -5   0 45.5235 6.66081   1
 -13  -5   0 -0.2259 4.59555   1
 -13   5   0 4.74144 5.22654   2
 -13  -5   0 -4.2211 5.53434   3
  13   5   0 3.35221 5.29291   2
  13  -5   0 2.42243 4.83869   1
  14   5   0 4.50222 5.37400   2
 -14   5   0 0.96732 5.31590   2
 -14  -5   0 6.71189 5.55910   1
  14  -5   0 14.0749 5.77189   1
   0  -6   0 502.890 18.0297   3
   0  -6   0 454.764 16.5313   5
   1  -6   0 7.98360 4.52186   5
  -1  -6   0 2.80941 4.27701   5
   1  -6   0 -1.7210 4.37090   3
  -1  -6   0 2.92172 4.87656   3
   2  -6   0 86.2219 8.58985   3
  -2   6   0 99.6741 4.03538   2
  -2  -6   0 88.0089 9.09573   3
   2  -6   0 93.6344 8.67410   5
  -3  -6   0 0.27780 5.07370   3
  -3   6   0 -1.5195 2.05720   2
   3  -6   0 1.96368 4.43841   3
   3  -6   0 -0.4403 3.99818   5
   3   6   0 1.60730 1.87531   2
   4  -6   0 7.47700 4.72545   3
  -4   6   0 3.79673 2.44058   2
  -4  -6   0 3.84287 5.28849   3
   4  -6   0 -2.6268 3.94843   5
   4   6   0 -2.3084 2.29618   2
  -5  -6   0 -0.3253 5.10006   3
   5  -6   0 0.96271 4.64842   5
   5  -6   0 -3.4481 4.28835   3
  -5   6   0 3.13762 2.81814   2
   5   6   0 3.53205 2.62770   2
   6  -6   0 223.376 12.8830   3
   6   6   0 199.190 8.20927   2
  -6   6   0 189.784 8.43057   2
  -6  -6   0 211.421 13.4619   3
   6  -6   0 203.575 8.71613   1
   7   6   0 -1.4219 3.09615   2
  -7   6   0 1.81115 3.33561   2
   7  -6   0 1.89268 3.32417   1
  -7  -6   0 0.26661 5.48882   3
   8   6   0 7.34785 3.83178   2
  -8  -6   0 3.23517 5.88405   3
  -8   6   0 -0.2383 3.52440   2
  -8  -6   0 6.30111 4.00104   1
   8  -6   0 4.97634 3.80169   1
   9   6   0 1.75902 3.91338   2
  -9   6   0 2.38565 4.03862   2
  -9  -6   0 -2.4570 5.43598   3
   9  -6   0 3.74011 4.21991   1
  -9  -6   0 2.31409 3.96321   1
 -10  -6   0 272.783 15.7122   3
 -10  -6   0 275.464 12.0655   1
  10   6   0 274.770 12.3305   2
 -10   6   0 285.553 12.5492   2
  10  -6   0 284.386 12.7232   1
 -11  -6   0 0.29187 5.62917   3
 -11  -6   0 -4.0140 4.35518   1
  11  -6   0 2.13401 4.65087   1
 -11   6   0 4.29376 4.56800   2
  11   6   0 -3.3556 3.96126   2
  12  -6   0 310.869 14.6056   1
  12   6   0 313.692 14.3751   2
 -12  -6   0 329.197 17.4490   3
 -12   6   0 318.295 14.6018   2
 -12  -6   0 324.175 14.3613   1
   0  -7   0 -1.7775 4.28610   5
   0  -7   0 -5.5095 4.98563   3
  -1  -7   0 -8.6025 4.65501   3
   1  -7   0 8.45617 5.10177   5
   1  -7   0 4.49943 5.63496   3
  -1  -7   0 -1.8623 4.29892   5
   2  -7   0 119.086 10.4678   5
  -2  -7   0 112.040 11.2539   3
   2  -7   0 121.042 10.7560   3
   3  -7   0 8.29906 5.46974   3
   3  -7   0 3.95279 5.03607   5
  -3  -7   0 -7.1771 4.95189   3
  -3   7   0 -0.6332 2.24411   2
   4  -7   0 266.417 14.3777   5
  -4   7   0 274.561 8.68614   2
   4  -7   0 279.033 14.5492   3
  -4  -7   0 243.967 15.0692   3
  -5   7   0 0.22183 2.99546   2
   5  -7   0 -0.2027 5.31510   3
   5  -7   0 0.40559 4.85335   5
   5   7   0 -3.3564 2.72562   2
  -5  -7   0 -8.3836 5.16342   3
   6   7   0 339.928 10.6549   2
  -6   7   0 339.688 11.2737   2
   6  -7   0 341.944 16.2985   5
  -6  -7   0 317.204 17.2837   3
  -7  -7   0 14.5015 6.86541   3
  -7   7   0 2.80685 3.64615   2
   7   7   0 -3.2427 3.29533   2
   7  -7   0 -6.1272 4.69283   5
   8  -7   0 53.2451 8.33709   5
  -8   7   0 72.1529 6.92675   2
   8   7   0 82.5043 6.95310   2
  -8  -7   0 77.7804 10.5456   3
  -9  -7   0 5.55053 6.65064   3
   9   7   0 -2.3431 3.79167   2
  -9   7   0 0.20430 3.82938   2
 -10  -7   0 119.950 13.1427   3
  10   7   0 118.850 9.36744   2
 -10   7   0 128.323 9.62059   2
  10  -7   0 146.320 10.2391   1
   0  -8   0 2825.06 63.7427   5
   0  -8   0 2928.30 65.8658   3
  -1  -8   0 -8.4404 5.81051   3
   1  -8   0 -6.5382 5.58884   3
   1  -8   0 4.42051 5.39457   5
   2  -8   0 46.4064 8.64354   3
  -2  -8   0 43.0968 9.09390   3
   2  -8   0 45.1981 8.10264   5
   3  -8   0 4.98155 5.69832   5
   3  -8   0 5.01073 5.89227   3
  -3  -8   0 8.54927 6.99599   3
   4  -8   0 10.6813 6.07259   5
   4  -8   0 15.2174 7.31586   3
  -4  -8   0 8.35396 7.37625   3
   5  -8   0 -10.041 4.82393   5
  -5  -8   0 -5.7253 6.13119   3
  -5   8   0 2.17080 3.33710   2
  -6  -8   0 59.2848 10.3018   3
   6  -8   0 50.9265 9.00302   5
  -6   8   0 63.7128 5.82808   2
  -7   8   0 -0.0619 3.67362   2
  -7  -8   0 -1.1074 6.54430   3
   7   8   0 2.64510 3.62020   2
   7  -8   0 0.87323 5.57355   5
  -1   0  -1 -0.3296 0.50852   4
   1   0  -1 0.48428 0.64724   4
  -1   0   1 -0.0511 0.49113   4
   1   0   1 0.02274 0.40972   4
  -3   0   1 34.7492 2.75689   4
   3   0   1 48.2511 3.28943   4
   3   0  -1 33.4511 2.63684   4
  -4   0   1 5419.54 96.7232   4
   4   0   1 5441.19 96.6543   4
   4   0  -1 5557.42 96.8336   4
  -5   0   1 660.352 15.0155   4
   5   0  -1 655.291 14.9523   4
   5   0   1 665.249 14.8177   4
  -6   0   1 28.2127 3.45218   4
   6   0   1 25.5456 3.15982   4
   6   0  -1 19.0766 3.02038   4
   7   0   1 312.205 9.75931   4
   7   0   1 308.557 9.28744   7
  -7   0   1 308.828 10.0211   1
   7   0  -1 320.934 9.50464   7
  -7   0  -1 299.632 9.03487   7
  -7   0   1 301.027 9.75775   4
  -7   0   1 311.898 9.26539   7
  -7   0  -1 320.658 10.1947   1
   7   0  -1 322.903 10.2309   1
   7   0  -1 298.465 9.75567   4
   8   0   1 294.095 9.30666   7
   8   0   1 268.585 10.1812   1
   8   0  -1 284.796 9.29909   7
  -8   0   1 273.446 10.1204   1
   8   0   1 274.470 9.98954   4
   8   0   1 300.633 10.0014   2
  -8   0  -1 292.929 10.2479   1
   8   0  -1 272.886 10.1189   4
  -8   0  -1 278.443 9.65749   2
   8   0  -1 284.385 9.88710   2
   8   0  -1 282.770 10.1254   1
  -8   0  -1 280.066 9.09902   7
  -8   0   1 277.784 9.26881   7
  -8   0   1 293.060 9.81911   2
  -9   0  -1 178.043 7.67015   7
   9   0   1 169.334 8.55117   1
  -9   0  -1 171.582 8.08312   2
  -9   0   1 192.225 8.44178   2
   9   0   1 187.559 8.54862   2
   9   0  -1 187.749 8.64597   1
   9   0   1 184.876 7.91028   7
   9   0  -1 197.604 8.66182   2
  -9   0   1 182.083 7.85413   7
  -9   0   1 178.752 8.89058   1
   9   0  -1 194.588 8.20013   7
 -10   0   1 132.967 7.93170   2
  10   0  -1 118.609 8.15760   1
  10   0   1 122.428 7.99060   1
  10   0   1 122.466 7.32011   7
 -10   0  -1 124.630 7.55018   2
  10   0   1 134.620 8.19606   2
 -10   0   1 117.299 7.29802   7
  10   0  -1 120.631 7.19634   7
 -10   0   1 115.994 8.10499   1
 -10   0  -1 112.545 7.96695   1
 -10   0  -1 145.115 7.38008   7
  10   0  -1 124.942 7.95452   2
 -11   0  -1 526.086 16.6370   1
  11   0   1 525.023 15.0516   7
 -11   0   1 505.894 16.6022   1
  11   0   1 500.572 16.6075   1
  11   0  -1 498.486 14.9295   7
  11   0  -1 542.607 16.8802   1
  11   0   1 507.158 15.6979   2
 -11   0   1 504.476 14.8969   7
  11   0  -1 510.454 15.9692   2
 -11   0  -1 503.746 14.8448   7
  12   0   1 430.524 14.3462   7
  12   0  -1 438.895 14.4784   7
 -12   0   1 441.319 16.2046   1
 -12   0  -1 446.136 15.9613   1
 -12   0   1 436.404 14.1712   7
  12   0   1 463.028 16.2854   1
  12   0  -1 459.889 16.3948   1
 -12   0  -1 421.134 14.0320   7
  13   0   1 77.4249 7.39013   7
 -13   0   1 88.0736 8.80090   1
  13   0  -1 92.9843 9.11710   1
 -13   0  -1 81.0096 7.41908   7
 -13   0   1 83.1430 7.49554   7
 -13   0  -1 90.0551 8.86021   1
  13   0  -1 85.7677 7.78494   7
  13   0   1 99.7837 9.20301   1
  14   0   1 88.3663 9.41823   1
 -14   0  -1 87.1985 9.27455   1
 -14   0  -1 77.8773 7.62696   7
 -14   0   1 96.3907 9.51434   1
 -14   0   1 80.1431 7.84958   7
  14   0   1 80.2860 7.79235   7
  14   0  -1 76.2028 7.67611   7
  14   0  -1 108.973 10.3150   1
 -15   0   1 3.08394 5.41057   1
 -15   0  -1 -5.5008 4.13967   7
 -15   0  -1 -1.9279 5.28440   1
  15   0   1 1.37891 4.62442   7
  15   0  -1 6.76812 5.77164   1
 -15   0   1 4.06238 4.64500   7
  15   0  -1 -4.6454 4.23105   7
  15   0   1 -6.1363 5.15256   1
  16   0   1 217.735 12.4634   7
  16   0  -1 209.939 14.6846   1
 -16   0   1 221.898 12.2860   7
 -16   0   1 214.343 13.9084   1
  16   0  -1 240.698 12.8032   7
 -16   0  -1 230.434 14.0605   1
 -16   0  -1 224.845 11.9013   7
 -17   0  -1 29.1121 7.73057   1
  17   0   1 16.7909 6.17267   7
 -17   0   1 26.0026 7.41877   1
 -17   0   1 28.4595 6.87902   7
  17   0  -1 23.0638 6.38566   7
 -17   0  -1 39.2387 6.95237   7
  -1  -1  -1 13.8799 1.77980   6
  -1   1   1 13.6212 1.98746   6
  -1   1  -1 14.1036 1.25641   4
   1   1   1 11.3242 1.69143   6
  -1   1  -1 12.3106 1.12879   4
  -2   1   1 295.780 7.51086   6
   2  -1   1 314.657 6.35656   4
   2  -1   1 300.212 6.57175   4
  -2   1   1 296.426 6.84543   4
  -2  -1  -1 289.966 6.89656   6
   2  -1   1 317.270 7.40502   6
   2   1   1 302.231 6.94737   6
   2  -1  -1 307.187 6.30606   4
  -2   1  -1 296.787 6.58761   4
  -2   1  -1 304.145 6.81607   4
   2  -1  -1 288.675 6.40441   4
   3  -1   1 435.358 9.79751   4
  -3  -1  -1 438.325 9.29336   6
   3  -1   1 436.361 9.90964   6
   3  -1   1 454.605 9.53534   4
  -3   1   1 435.116 10.0994   4
   3   1  -1 440.931 9.72835   4
   3  -1  -1 443.528 9.46307   4
  -3   1  -1 432.402 9.93451   4
   3  -1  -1 442.037 9.89926   4
  -3   1  -1 443.381 9.77684   4
   4  -1   1 222.561 6.13589   6
   4  -1   1 231.206 6.48964   4
   4  -1   1 222.982 6.76301   4
  -4  -1  -1 221.642 5.37241   6
  -4   1   1 217.075 6.45504   6
   4   1  -1 228.462 6.75355   4
  -4   1   1 212.487 7.04230   4
   4  -1  -1 233.662 6.98006   4
  -4   1  -1 216.919 6.14773   6
  -4   1  -1 232.771 6.94414   4
  -5  -1  -1 55.3860 2.39698   6
   5  -1   1 52.1625 3.87842   4
   5  -1   1 56.9403 4.27704   4
   5   1  -1 44.3534 3.50223   4
  -5   1   1 57.7777 3.58968   6
  -5   1   1 51.9435 3.96661   4
  -5   1  -1 51.8564 3.28919   6
   5  -1  -1 55.5475 4.37624   4
  -5   1  -1 52.3668 4.32415   4
   6  -1   1 7.75823 2.48625   4
  -6   1   1 5.82445 1.96952   6
  -6  -1  -1 4.76206 2.47105   1
   6   1  -1 8.42739 2.52396   4
  -6  -1  -1 8.37411 1.13280   6
  -6   1   1 2.96234 2.52780   2
  -6   1   1 3.83671 2.30193   4
   6  -1   1 4.11668 2.62370   1
   6   1  -1 8.81750 2.66535   2
   6  -1   1 6.01535 2.15656   4
   6  -1  -1 9.90252 2.66168   4
   6   1   1 6.07569 2.31093   4
   6  -1  -1 7.12306 2.85614   1
   6   1   1 4.75143 2.46557   2
  -6  -1   1 8.05120 2.65759   1
  -6   1  -1 4.88419 2.43179   4
  -6   1  -1 1.81270 2.39206   2
   7  -1   1 8.53924 2.51926   7
  -7   1   1 8.54054 2.89299   4
  -7  -1  -1 11.1886 2.42162   7
   7  -1   1 3.08442 2.27627   4
   7  -1   1 -0.0847 2.52271   1
   7   1  -1 8.32786 2.98756   2
   7   1  -1 10.4798 2.76707   4
  -7   1   1 9.42071 2.87391   2
  -7   1   1 8.31555 2.03928   6
  -7  -1  -1 8.69529 2.86944   1
   7  -1   1 11.0829 2.85987   4
  -7   1  -1 13.5831 2.90438   4
   7   1   1 8.95868 2.83002   2
  -7  -1   1 9.11411 2.38975   7
   7   1   1 7.04704 2.47724   4
   7  -1  -1 6.42035 2.71515   4
   7  -1  -1 6.50487 2.95609   1
  -7  -1   1 8.13128 3.01485   1
  -7  -1   1 7.40264 2.73076   3
   7  -1  -1 2.34084 2.34834   7
  -7   1  -1 10.5826 2.76065   2
   8   1  -1 21.9863 3.52540   7
  -8   1   1 15.2371 3.67061   1
  -8   1   1 18.0657 3.57908   4
  -8   1   1 18.4415 3.52859   7
  -8  -1  -1 14.8451 2.88847   7
  -8   1   1 17.1756 2.53174   6
   8  -1   1 20.7282 3.17467   7
   8  -1   1 19.1464 3.50576   4
  -8  -1  -1 20.6061 3.85091   1
   8   1  -1 19.7486 3.71822   2
   8  -1   1 20.1493 3.23144   4
   8   1  -1 16.3548 3.77130   1
  -8   1   1 16.6714 3.49432   2
   8  -1   1 20.1435 3.81233   1
   8  -1  -1 19.5761 3.84127   1
  -8  -1   1 25.6009 3.40451   7
   8   1   1 23.9212 3.60338   7
   8  -1  -1 23.3443 3.33694   7
  -8  -1   1 23.0058 3.59736   3
  -8   1  -1 23.2767 3.99196   1
  -8   1  -1 21.8850 3.73066   2
   8   1   1 12.2350 3.40108   1
   8  -1  -1 15.9883 3.36764   4
  -8   1  -1 23.0704 3.67300   7
  -8  -1   1 24.0299 3.88699   1
   8   1   1 19.1805 3.67671   2
   9   1  -1 314.427 11.0956   2
  -9   1   1 307.822 10.8726   2
   9   1  -1 308.106 10.4875   7
  -9  -1  -1 298.525 9.54292   7
  -9   1   1 299.863 10.4249   7
   9  -1   1 317.115 9.96826   7
   9  -1   1 324.802 11.6196   1
   9  -1   1 336.195 11.3000   4
  -9   1   1 299.254 11.0988   4
  -9  -1  -1 317.638 11.0754   3
  -9  -1  -1 315.514 11.5036   1
   9   1  -1 312.288 11.4447   1
  -9   1   1 289.117 11.1196   1
  -9  -1   1 317.492 10.5282   3
   9   1   1 318.462 11.4070   1
   9   1   1 317.921 10.6112   7
   9  -1  -1 297.514 11.2707   1
  -9   1  -1 304.298 11.4788   1
  -9  -1   1 315.443 11.5005   1
   9  -1  -1 327.546 10.1931   7
  -9   1  -1 317.317 10.8699   2
  -9  -1   1 299.492 9.67866   7
   9  -1  -1 320.159 11.0914   4
  -9   1  -1 312.986 10.3839   7
 -10  -1  -1 238.252 8.87723   7
 -10  -1  -1 257.997 10.3634   3
 -10   1   1 246.180 10.8366   1
  10   1  -1 250.206 10.8201   1
  10   1  -1 273.978 10.1828   7
  10   1  -1 246.331 10.6310   2
  10  -1   1 232.508 10.7204   1
 -10   1   1 231.354 9.73754   7
  10  -1   1 258.420 9.42032   7
 -10   1   1 276.524 10.8503   2
 -10  -1  -1 243.683 10.8560   1
  10   1   1 258.788 10.0241   7
  10   1   1 262.887 10.7886   1
 -10   1  -1 249.523 9.98521   7
  10   1   1 256.167 10.5794   2
 -10  -1   1 243.155 9.13533   7
  10  -1  -1 243.740 9.54746   7
 -10   1  -1 243.832 10.2665   2
 -10   1  -1 259.975 10.9822   1
  10  -1  -1 263.861 10.9451   1
 -10  -1   1 260.298 11.1438   1
 -11  -1  -1 38.5905 5.75232   1
  11  -1   1 33.0334 4.62454   7
  11   1  -1 40.8261 5.93170   1
  11   1  -1 47.6946 5.67101   7
 -11   1   1 28.3363 4.90455   7
  11   1  -1 31.1686 5.16061   2
 -11  -1  -1 28.1695 4.22324   7
  11  -1   1 33.0017 5.61383   1
 -11   1   1 33.1204 5.08491   2
 -11   1   1 37.0689 5.61788   1
  11   1   1 40.6348 5.92796   1
  11   1   1 34.9395 5.41803   2
  11  -1  -1 33.3496 4.76445   7
 -11  -1   1 34.1729 4.67212   7
 -11   1  -1 35.9818 5.16314   7
 -11   1  -1 36.7862 5.44499   2
  11   1   1 37.5061 5.22108   7
 -11   1  -1 36.9147 5.76519   1
 -11  -1   1 37.2648 5.80643   1
  11  -1  -1 37.3172 5.98666   1
  12  -1   1 41.9304 5.43814   7
 -12  -1  -1 51.0145 6.70279   1
 -12   1   1 39.7841 5.62945   7
 -12   1   1 45.4933 6.18558   2
 -12   1   1 49.7377 6.70044   1
  12   1  -1 46.7860 6.43576   2
  12  -1   1 41.3023 6.69916   1
  12   1  -1 43.5721 5.99562   7
 -12  -1  -1 44.8156 5.28267   7
 -12  -1   1 44.2685 6.46177   1
 -12   1  -1 36.8245 5.73895   2
  12  -1  -1 38.5090 5.24694   7
 -12  -1   1 39.8280 5.31576   7
 -12   1  -1 47.3974 6.71723   1
  12   1   1 43.8881 6.04484   7
  12  -1  -1 46.9063 6.72461   1
  12   1   1 40.2763 6.02991   2
 -12   1  -1 41.6055 5.99826   7
 -13   1   1 5.00614 4.73009   1
 -13  -1  -1 -1.1016 3.55689   7
  13  -1   1 6.86088 4.87854   1
  13  -1   1 11.8723 4.38664   7
  13   1  -1 11.5604 5.07360   2
 -13  -1  -1 17.4510 5.33885   1
 -13   1   1 4.94473 4.55589   7
  13   1  -1 15.4605 4.68374   7
 -13  -1   1 4.67163 4.63545   1
 -13   1  -1 -2.5864 4.47412   1
  13   1   1 4.37921 4.97705   2
 -13   1  -1 6.61200 4.32128   7
  13  -1  -1 0.47672 4.68125   1
 -13  -1   1 5.60410 3.93713   7
  13   1   1 8.54221 4.57640   7
  13  -1  -1 6.75626 4.29559   7
 -14  -1  -1 2.50092 5.15194   1
 -14   1   1 0.73820 4.36843   7
  14  -1   1 0.01211 4.70290   1
 -14  -1  -1 4.62881 4.08310   7
  14   1  -1 4.89784 4.61513   7
  14  -1   1 -0.5799 4.04562   7
 -14   1   1 6.39374 5.23815   1
  14  -1  -1 13.5884 5.76584   1
 -14  -1   1 4.50251 4.72629   1
  14   1   1 9.39516 4.80645   7
 -14   1  -1 5.87658 5.37726   1
 -14   1  -1 5.10538 4.54057   7
  14  -1  -1 8.34820 4.47592   7
 -14  -1   1 -1.2242 3.72753   7
  15   1  -1 61.0996 7.53555   7
 -15  -1  -1 40.3581 7.60348   1
  15  -1   1 70.6967 9.00969   1
  15  -1   1 55.2490 7.05422   7
 -15   1   1 50.1584 6.98183   7
 -15  -1   1 60.4624 8.27942   1
 -15   1  -1 43.5517 6.93642   7
  15   1   1 57.1531 7.50649   7
 -15  -1   1 55.2805 6.56905   7
  15  -1  -1 49.0771 7.95189   1
  15  -1  -1 56.1765 6.89080   7
  16   1  -1 90.2489 8.91550   7
 -16  -1  -1 103.025 10.9011   1
  16  -1   1 112.448 11.3144   1
  16  -1   1 104.062 9.06748   7
 -16   1   1 98.6732 9.52947   7
 -16   1  -1 112.092 9.62329   7
  16  -1  -1 90.7738 8.60155   7
  16  -1  -1 102.811 10.8964   1
 -16  -1   1 93.2419 10.5667   1
  16   1   1 84.8686 9.07819   7
 -16  -1   1 102.671 8.69633   7
 -17   1   1 30.2161 6.97350   7
  17  -1   1 25.0478 7.58432   1
  17   1  -1 26.7919 6.89491   7
  17  -1   1 20.1021 6.18497   7
 -17  -1  -1 18.0494 6.47455   1
  17  -1  -1 29.0550 7.89780   1
  17   1   1 32.2942 7.04697   7
 -17  -1   1 16.8952 7.09506   1
  17  -1  -1 25.4020 6.34756   7
 -17   1  -1 28.1603 6.60022   7
   0   2   1 0.78635 1.99967   6
   0  -2   1 0.83496 2.09968   6
   0  -2  -1 -2.1794 2.02821   5
   0  -2   1 -0.5045 2.16350   5
   0  -2  -1 -0.1037 2.20146   6
  -1   2   1 1200.63 24.8695   6
  -1  -2  -1 1226.10 24.7270   6
  -1  -2  -1 1186.96 24.0801   5
   1  -2   1 1217.84 24.8817   6
  -1  -2   1 1214.47 24.2644   5
   1   2   1 1201.47 24.5868   6
   1  -2  -1 1230.28 24.9452   6
  -1  -2   1 1217.35 24.8029   6
  -2   2   1 4.33650 0.94059   4
  -2   2   1 6.17635 0.91911   4
  -2   2   1 7.09730 2.32547   6
  -2  -2  -1 3.71153 2.15949   6
   2  -2   1 2.88010 2.23031   6
  -2   2  -1 6.55350 1.06895   4
  -2   2  -1 5.74932 1.14137   4
   2   2   1 3.95765 2.14763   6
  -3  -2  -1 246.161 7.40900   6
  -3   2   1 241.743 6.47170   4
   3  -2   1 250.219 7.86174   6
  -3  -2  -1 235.372 8.47445   3
  -3   2   1 246.267 7.86292   6
  -3   2   1 237.860 6.09844   4
  -3  -2   1 248.351 8.47095   3
  -3   2  -1 234.037 6.03579   4
  -3   2  -1 250.554 6.53203   4
   4  -2   1 5.66657 1.30194   4
   4   2  -1 7.10863 2.19278   2
   4  -2   1 6.37166 1.54583   4
   4  -2   1 3.68421 2.31125   6
  -4   2   1 3.79568 2.15963   2
  -4  -2  -1 3.92448 2.98841   3
  -4   2   1 3.09392 2.04541   4
  -4   2   1 4.99319 2.31682   6
  -4  -2  -1 5.52563 2.09705   6
  -4   2  -1 5.17933 1.70665   4
  -4   2  -1 5.55514 2.12826   2
  -4  -2   1 5.66661 2.83200   3
   4  -2  -1 7.08075 1.35269   4
   4  -2  -1 5.80879 1.26505   4
   4   2   1 5.89127 2.13524   2
  -4   2  -1 6.81431 2.07444   4
  -5   2   1 23.0056 3.02467   2
   5  -2   1 23.6855 2.29319   4
  -5   2   1 25.5143 3.30347   6
   5  -2   1 21.6269 2.95344   6
   5  -2   1 28.1331 3.36162   1
  -5  -2  -1 20.3431 3.74841   3
   5  -2   1 23.8402 2.52989   4
  -5  -2  -1 21.4583 2.96071   1
   5   2  -1 27.3985 3.12926   2
   5   2  -1 19.4377 2.60485   4
  -5  -2  -1 25.6478 2.69918   6
  -5   2   1 23.8060 3.07782   4
  -5  -2   1 19.5693 2.91912   1
   5  -2  -1 26.5371 2.37768   4
  -5  -2   1 26.5113 3.79615   3
  -5   2  -1 27.7151 3.10942   2
  -5   2  -1 22.0273 2.90885   4
   5   2   1 27.3370 2.98585   2
   5  -2  -1 22.3570 2.49385   4
   5  -2  -1 29.8197 3.44990   1
  -6   2   1 467.887 12.4970   4
  -6  -2  -1 478.719 12.2890   1
   6  -2   1 466.759 11.1418   4
  -6  -2  -1 464.994 13.5410   3
   6   2  -1 479.200 12.0643   4
   6  -2   1 457.626 11.6581   4
  -6   2   1 462.185 12.1987   2
   6   2  -1 459.214 11.9740   2
   6  -2   1 483.066 12.4980   1
  -6  -2  -1 466.335 10.9731   6
   6  -2  -1 473.309 12.6393   1
  -6  -2   1 475.152 13.3277   3
   6   2   1 467.450 11.8872   2
  -6  -2   1 469.461 12.3765   1
  -6   2  -1 454.246 12.0770   2
  -6   2  -1 483.274 12.5115   4
   6  -2  -1 474.932 11.2222   4
   6  -2  -1 464.905 11.6635   4
  -7  -2  -1 687.745 14.6898   6
  -7   2   1 687.138 17.1116   4
  -7  -2  -1 708.323 16.8622   1
  -7  -2  -1 680.573 17.9486   3
   7  -2   1 688.703 15.5341   4
   7  -2   1 688.093 14.2159   7
  -7   2   1 679.396 16.6757   2
   7   2  -1 671.005 16.4290   2
   7  -2   1 667.501 16.8209   1
   7  -2   1 687.300 16.1480   4
   7  -2  -1 706.428 14.3130   7
   7  -2  -1 690.391 16.2191   4
  -7   2  -1 699.361 17.0816   4
  -7   2  -1 663.104 16.3397   2
  -7  -2   1 677.525 16.7978   1
   7  -2  -1 696.546 17.1688   1
   7   2   1 665.393 16.0717   2
   7  -2  -1 692.889 15.6756   4
  -7  -2   1 706.351 17.7534   3
  -8  -2  -1 330.940 11.8268   3
   8  -2   1 320.417 11.1940   1
  -8  -2  -1 332.300 11.0014   1
   8  -2   1 337.417 8.91717   7
   8  -2   1 318.913 10.3787   4
  -8   2   1 328.915 11.0208   2
   8   2  -1 312.635 10.7250   2
   8  -2   1 326.569 9.88013   4
  -8   2   1 310.928 10.9527   4
   8  -2  -1 321.450 10.6340   4
   8   2   1 307.870 10.5496   2
  -8   2  -1 310.706 10.8237   4
   8  -2  -1 309.770 11.2113   1
  -8  -2   1 330.438 11.0269   1
  -8   2  -1 311.505 10.6303   2
  -8   2  -1 352.554 10.6986   7
  -8  -2   1 344.551 11.4591   3
   8  -2  -1 326.535 9.94964   4
   8  -2  -1 321.425 8.95795   7
   9   2  -1 58.5235 5.73841   2
   9  -2   1 75.2700 6.60830   1
  -9   2   1 63.2539 6.16028   4
   9   2  -1 66.8511 5.70157   7
  -9   2   1 57.7771 5.56168   2
  -9  -2  -1 60.0511 5.82155   1
  -9   2   1 65.2909 5.82198   7
  -9  -2  -1 67.6020 6.59180   3
   9  -2   1 67.7948 5.12935   7
  -9  -2   1 68.6308 6.17442   3
  -9  -2   1 54.7767 5.71561   1
   9   2   1 67.8141 5.65508   7
  -9   2  -1 59.8525 5.40008   7
   9   2   1 64.2062 5.76035   2
   9  -2  -1 66.1965 6.21410   1
  -9   2  -1 63.3156 5.60000   2
  -9   2  -1 54.1246 5.28621   4
   9  -2  -1 68.3851 5.11948   7
  10   2  -1 14.8759 4.05627   7
 -10   2   1 10.8092 3.90892   7
  10  -2   1 10.7281 4.13551   1
  10  -2   1 15.8894 3.39890   7
 -10  -2  -1 20.9379 4.77076   3
 -10  -2  -1 15.6369 4.38313   1
  10   2  -1 9.22575 3.91876   2
 -10   2   1 17.5809 4.19712   2
 -10   2  -1 19.7455 4.12089   7
  10   2   1 17.0534 4.45974   2
 -10  -2   1 9.27360 4.00180   1
 -10  -2   1 17.5928 4.40238   3
 -10   2  -1 6.37523 3.63681   2
  10   2   1 18.2781 4.08484   7
  10  -2  -1 15.5707 3.44464   7
  10  -2  -1 16.2681 4.41503   1
  11  -2   1 183.335 10.3131   1
  11   2  -1 184.099 9.98814   2
 -11  -2  -1 195.414 10.3028   3
 -11   2   1 190.393 10.1838   2
 -11   2   1 176.943 9.54866   7
 -11  -2  -1 202.897 10.4353   1
  11   2  -1 181.778 9.57373   7
  11  -2   1 193.434 8.44291   7
 -11  -2   1 203.408 10.6938   1
  11   2   1 174.236 10.0820   2
  11  -2  -1 198.605 8.62207   7
  11  -2  -1 201.478 10.6986   1
  11   2   1 218.649 10.0026   7
 -11   2  -1 202.560 9.82826   7
 -11   2  -1 187.392 10.1141   2
  12   2  -1 233.076 11.6276   2
 -12  -2  -1 223.145 11.5298   1
 -12   2   1 212.366 10.6708   7
  12  -2   1 215.964 11.9246   1
  12  -2   1 227.829 9.62805   7
 -12   2   1 221.312 11.3559   2
  12   2  -1 247.127 11.0762   7
  12  -2  -1 197.043 11.5142   1
  12   2   1 235.336 11.7166   2
  12  -2  -1 226.076 9.76004   7
 -12   2  -1 239.670 11.1812   7
 -12  -2   1 211.332 11.5666   1
  12   2   1 213.455 10.8840   7
 -12   2  -1 236.139 11.6565   2
 -13   2   1 10.8824 4.91167   7
 -13   2   1 3.86418 4.52160   2
 -13  -2  -1 13.4247 5.23711   1
  13  -2   1 16.0865 4.63103   7
  13   2  -1 8.10394 4.53666   7
  13   2  -1 2.00770 4.81503   2
  13  -2   1 15.4267 5.51914   1
  13  -2  -1 12.0033 5.59655   1
 -13  -2   1 15.6073 5.46125   1
 -13   2  -1 17.6565 5.24709   7
  13   2   1 22.9411 5.17440   7
  13   2   1 14.7748 5.52194   2
 -13   2  -1 14.5165 5.16724   2
  13  -2  -1 10.2768 4.45164   7
  14   2  -1 353.064 15.6055   2
 -14   2   1 342.384 15.4973   2
  14  -2   1 319.016 15.2687   1
 -14  -2  -1 332.547 15.4961   1
 -14   2   1 337.231 14.2929   7
  14  -2   1 356.724 12.8488   7
  14   2  -1 343.094 14.4379   7
  14  -2  -1 337.562 12.7157   7
  14  -2  -1 301.147 15.2732   1
  14   2   1 317.202 15.1887   2
  14   2   1 341.731 14.3234   7
 -14   2  -1 336.152 15.1529   2
 -14  -2   1 347.156 15.2878   1
 -14   2  -1 312.722 13.7954   7
 -15   2   1 113.600 9.83920   7
  15  -2   1 105.507 8.26693   7
  15   2  -1 112.276 10.7784   2
  15  -2   1 84.4242 9.74943   1
 -15  -2  -1 126.553 11.2953   1
  15   2  -1 104.519 9.46328   7
  15   2   1 107.215 9.51168   7
  15  -2  -1 109.811 10.7325   1
  15  -2  -1 111.139 8.46229   7
 -15  -2   1 108.410 10.6173   1
 -15   2  -1 114.869 9.84853   7
  15   2   1 152.486 11.8141   2
  16  -2   1 235.532 15.0126   1
  16  -2   1 235.605 11.8933   7
  16   2  -1 246.938 13.8248   7
 -16  -2  -1 218.931 14.0469   1
 -16   2   1 253.739 13.6941   7
 -16  -2   1 235.255 14.4433   1
  16  -2  -1 254.205 12.1426   7
  16  -2  -1 245.178 15.1155   1
 -16   2  -1 232.749 13.5081   7
  16   2   1 212.824 13.0732   7
  16   2   1 242.471 15.4892   2
  17  -2   1 114.749 9.12898   7
 -17  -2  -1 137.577 12.1482   1
 -17   2   1 128.769 11.1463   7
  17  -2   1 100.182 11.2994   1
  17   2  -1 124.423 10.8283   7
 -17  -2   1 129.196 12.1865   1
 -17   2  -1 119.107 10.9392   7
  17  -2  -1 148.731 10.3197   7
  17  -2  -1 141.978 13.1603   1
  17   2   1 110.227 10.4332   7
   0  -3  -1 12.0371 2.98215   5
   0  -3  -1 19.4015 3.56730   3
   0  -3  -1 10.6450 3.04859   6
   0  -3   1 12.3824 3.36756   3
   0  -3   1 19.5006 3.24240   5
   0  -3   1 11.9445 2.88027   6
   1  -3   1 17.9497 3.55047   3
  -1  -3  -1 11.4141 3.05477   6
  -1  -3  -1 9.32535 2.88542   5
   1  -3   1 10.1836 2.90857   6
  -1  -3  -1 7.15977 3.25589   3
   1  -3   1 11.0688 2.85687   5
  -1  -3   1 13.7700 3.07131   6
  -1  -3   1 9.91477 3.36572   3
   1  -3  -1 12.6487 3.37242   3
  -1  -3   1 11.0560 2.91245   5
   1  -3  -1 8.26038 2.79860   5
   1  -3  -1 12.6322 3.12176   6
   2  -3   1 171.815 7.63544   3
   2  -3   1 192.253 7.84210   6
  -2  -3  -1 190.175 7.45018   6
  -2  -3  -1 184.022 8.26388   3
  -2  -3  -1 181.897 7.36724   5
  -2  -3   1 197.705 7.64872   6
   2  -3  -1 190.490 7.78547   6
   2  -3  -1 184.362 7.53810   3
  -2  -3   1 170.999 7.97672   3
  -3   3   1 299.862 6.79220   4
   3  -3   1 300.818 9.93970   3
   3   3  -1 306.958 7.07208   2
  -3   3   1 306.829 6.99768   4
  -3   3   1 306.869 7.56297   2
  -3  -3  -1 304.473 10.6661   3
  -3  -3  -1 304.129 9.66760   6
   3  -3   1 303.915 10.0160   6
  -3   3  -1 299.498 7.13342   4
  -3  -3   1 301.894 10.6184   3
   3   3   1 306.738 7.06031   2
   3  -3  -1 301.603 9.60484   3
  -3   3  -1 312.939 7.49265   2
  -3   3  -1 297.661 6.84130   4
  -3  -3   1 303.479 9.67872   6
  -4  -3  -1 160.653 6.84430   6
  -4  -3  -1 161.611 5.69340   1
  -4   3   1 158.061 5.23915   4
   4  -3   1 172.540 6.02691   1
   4  -3   1 160.557 7.28186   6
  -4   3   1 161.706 5.89779   2
  -4   3   1 157.959 5.64700   4
   4  -3   1 166.460 7.35581   3
   4   3  -1 152.391 5.45158   2
  -4  -3  -1 161.817 8.12784   3
  -4   3  -1 166.133 5.25776   4
   4  -3  -1 172.208 6.11646   1
  -4  -3   1 162.221 6.94509   6
   4  -3  -1 160.799 6.76508   3
  -4  -3   1 160.792 5.74938   1
  -4   3  -1 153.792 5.75965   2
  -4  -3   1 150.453 7.70799   3
   4   3   1 156.587 5.41232   2
  -4   3  -1 170.407 5.85627   4
   5  -3   1 39.0408 4.43921   3
  -5  -3  -1 39.3817 3.53829   1
  -5   3   1 40.8467 3.64856   4
  -5  -3  -1 44.3964 4.02688   6
   5   3  -1 40.4722 3.60387   2
  -5   3   1 41.7102 3.80932   2
  -5  -3  -1 36.2939 4.84343   3
   5  -3   1 48.8880 4.10324   1
   5  -3   1 37.3552 4.18749   6
   5  -3  -1 38.0134 3.80323   1
  -5   3  -1 39.4981 3.65176   4
  -5  -3   1 37.8687 3.90757   6
  -5  -3   1 43.6315 3.71793   1
   5  -3  -1 38.6431 4.08638   3
   5   3   1 37.5873 3.46788   2
  -5   3  -1 44.4627 3.77022   2
  -5   3  -1 38.8509 3.28408   4
  -5  -3   1 39.0606 4.81934   3
  -6   3   1 1.93184 2.55371   2
   6   3  -1 8.36616 2.80613   2
  -6  -3  -1 6.02938 2.56899   1
  -6  -3  -1 5.06277 2.40754   6
  -6  -3  -1 7.82332 3.70286   3
  -6   3   1 4.99119 2.57729   4
   6  -3   1 2.74027 2.52423   1
  -6  -3   1 2.38602 2.33199   6
  -6  -3   1 6.73088 3.49218   3
   6  -3  -1 3.41212 2.66474   1
   6   3   1 0.50838 2.31650   2
  -6   3  -1 3.16323 2.55914   2
  -6   3  -1 5.13721 2.65670   4
  -6  -3   1 6.39385 2.51621   1
  -7  -3  -1 7.00531 2.65215   6
   7   3  -1 3.47946 2.70922   2
  -7  -3  -1 2.00979 2.55023   1
   7  -3   1 7.60835 2.94019   1
  -7   3   1 6.75391 2.92843   4
  -7  -3  -1 5.00013 3.66813   3
  -7   3   1 0.42225 2.52743   2
   7  -3   1 4.19252 1.47669   4
  -7  -3   1 4.54295 2.82612   1
   7   3   1 7.95446 2.75667   2
  -7  -3   1 6.21138 2.66052   6
   7  -3  -1 2.62188 2.91252   1
  -7   3  -1 4.62081 2.77731   4
   7  -3  -1 1.18450 1.39847   4
  -7   3  -1 5.24306 2.68193   2
  -7  -3   1 -0.2986 3.17474   3
   8   3  -1 7.95791 3.40773   2
  -8   3   1 13.1375 3.56538   4
  -8  -3  -1 6.26260 3.93556   3
  -8   3   1 15.0355 3.67656   2
  -8  -3  -1 9.64036 3.36874   1
   8  -3   1 8.00584 3.40231   1
   8  -3   1 13.3384 2.30924   4
   8   3   1 10.9335 3.30517   2
   8  -3  -1 10.7907 2.25885   4
  -8   3  -1 11.5600 3.51562   2
  -8  -3   1 11.1980 3.60420   1
  -8   3  -1 6.76997 3.17236   4
   8  -3  -1 12.0220 3.61654   1
  -8  -3   1 7.58866 4.01308   3
   9  -3   1 227.058 10.2087   1
   9  -3   1 230.839 7.83227   4
  -9   3   1 253.128 10.4234   2
  -9  -3  -1 229.833 10.1226   1
  -9  -3  -1 206.089 10.8956   3
   9   3  -1 233.871 9.96528   2
   9   3   1 247.354 10.1213   2
  -9  -3   1 238.673 10.3102   1
  -9  -3   1 248.701 11.1553   3
   9  -3  -1 227.516 7.93449   4
  -9   3  -1 229.931 10.0301   2
   9  -3  -1 246.862 10.4088   1
  10  -3   1 184.411 9.83001   1
 -10  -3  -1 179.709 10.7087   3
  10   3  -1 181.633 9.67102   2
 -10   3   1 191.246 9.90666   2
 -10  -3  -1 194.433 9.67396   1
  10   3   1 190.156 9.64016   2
 -10  -3   1 193.062 10.4150   3
 -10  -3   1 196.453 9.93157   1
  10  -3  -1 198.336 10.0075   1
 -10   3  -1 193.807 9.83008   2
 -11  -3  -1 51.6377 6.98240   3
  11   3  -1 37.9808 5.95805   2
 -11  -3  -1 38.9511 5.84681   1
 -11   3   1 36.8007 5.75715   2
  11  -3   1 42.7391 6.27011   1
 -11  -3   1 39.9591 6.25531   3
 -11   3  -1 29.5875 5.42170   2
  11   3   1 42.6480 5.91842   2
  11  -3  -1 31.8538 5.64846   1
 -11  -3   1 30.2061 5.45498   1
 -12   3   1 42.2664 6.56913   2
 -12  -3  -1 31.3686 5.86738   1
  12   3  -1 33.2293 6.13746   2
 -12  -3  -1 43.4511 6.94429   3
  12  -3   1 31.1376 6.03555   1
 -12   3  -1 28.7531 5.92133   2
 -12  -3   1 31.3403 5.70464   1
  12  -3  -1 32.0065 6.18312   1
  12   3   1 43.1967 6.56761   2
 -13  -3  -1 17.0506 5.50021   1
 -13   3   1 1.39228 4.48395   2
  13   3  -1 10.9397 5.14135   2
  13  -3   1 6.14829 4.82076   1
 -13   3   1 2.50430 4.74349   7
 -13   3  -1 2.70291 4.88964   2
  13  -3  -1 13.2057 5.41281   1
 -13  -3   1 11.0589 4.96603   1
 -13   3  -1 2.56641 4.54177   7
  13   3   1 6.29631 5.24868   2
 -14  -3  -1 2.04454 4.74854   1
 -14   3   1 8.91459 5.50409   7
  14  -3   1 -11.871 4.10224   1
 -14   3   1 6.61595 5.34843   2
  14   3  -1 6.03028 5.30313   2
 -14   3  -1 -1.2447 4.94403   7
 -14   3  -1 3.52814 4.94028   2
 -14  -3   1 2.16661 4.91409   1
  14  -3  -1 0.12010 5.09041   1
  14   3   1 0.42190 5.01432   2
 -15   3   1 56.2378 7.96623   7
  15   3  -1 47.3143 7.86366   2
 -15   3   1 39.6115 7.58614   2
  15  -3   1 44.2473 7.99873   1
 -15  -3  -1 31.7594 6.97089   1
 -15   3  -1 48.0526 7.63157   7
 -15   3  -1 56.7175 8.13681   2
  15  -3  -1 44.0434 7.85964   1
  15   3   1 52.4198 8.36795   2
 -15  -3   1 40.3284 7.73019   1
  16   3  -1 102.842 10.9446   2
  16  -3   1 90.8610 10.2774   1
 -16   3   1 69.2849 8.96455   7
 -16  -3  -1 91.5488 10.1937   1
 -16   3   1 82.2398 9.84906   2
 -16   3  -1 91.8340 10.3148   2
 -16  -3   1 83.6597 10.0062   1
  16   3   1 93.4369 10.3054   2
  16  -3  -1 81.8118 10.1944   1
 -16   3  -1 86.5855 9.59776   7
   0  -4  -1 -3.4228 2.92576   6
   0  -4   1 -4.6673 2.68227   6
   0  -4  -1 -0.0818 3.26705   3
   0  -4   1 4.85242 3.12339   5
   0  -4  -1 2.81344 2.90380   5
   0  -4   1 3.09550 3.36316   3
   1  -4   1 35.0451 5.00658   3
  -1  -4  -1 36.9292 4.68271   6
   1  -4   1 38.9406 4.50655   5
   1  -4   1 36.5300 4.52183   6
  -1  -4  -1 31.8955 4.23751   5
  -1  -4  -1 45.3860 5.46258   3
   1  -4  -1 31.2138 4.27605   5
   1  -4  -1 42.9383 5.05938   3
  -1  -4   1 36.5183 4.80844   6
   1  -4  -1 37.0993 4.64313   6
  -1  -4   1 46.8773 5.46274   3
  -1  -4   1 34.3010 4.42005   5
  -2   4   1 23.2322 1.82509   2
  -2  -4  -1 27.1536 4.25306   5
   2  -4   1 20.6085 4.16895   3
  -2  -4  -1 30.1943 4.25455   6
   2  -4   1 21.7221 3.77817   5
   2  -4   1 22.4924 3.90944   6
  -2  -4  -1 20.7326 4.31721   3
   2  -4   1 26.9924 2.29316   1
   2  -4  -1 27.5279 4.16650   5
   2  -4  -1 30.0482 4.37745   3
  -2   4  -1 22.9112 1.93931   2
  -2  -4   1 27.1679 4.66909   3
  -2  -4   1 25.8693 4.22556   5
  -2  -4   1 29.0343 3.99167   6
   2  -4  -1 17.4981 3.63791   6
   3   4  -1 29.6033 2.26709   2
   3  -4   1 30.0144 2.78215   1
  -3  -4  -1 24.5703 4.70386   3
  -3  -4  -1 18.2787 3.82985   6
  -3   4   1 28.1370 1.94951   4
  -3  -4  -1 27.2437 2.36940   1
   3  -4   1 29.1487 4.53800   3
   3  -4   1 28.2188 4.37123   6
  -3   4   1 32.9365 2.72751   2
   3   4   1 26.8402 2.24448   2
  -3  -4   1 29.0097 2.62452   1
  -3   4  -1 28.3805 2.56659   2
  -3   4  -1 25.1090 1.89788   4
  -3  -4   1 30.3289 4.34172   6
  -3  -4   1 23.8882 4.65029   3
   3  -4  -1 21.1025 4.23576   3
   3  -4  -1 28.6966 2.79127   1
   4  -4   1 2791.37 55.0507   3
  -4  -4  -1 2704.60 56.1470   3
  -4  -4  -1 2738.88 49.4008   1
  -4   4   1 2776.77 48.8129   2
   4  -4   1 2725.11 55.5465   6
  -4   4   1 2806.55 49.7070   4
  -4  -4  -1 2706.64 54.8657   6
   4  -4   1 2706.33 49.8621   1
   4   4  -1 2761.22 48.3035   2
   4  -4  -1 2774.19 54.3377   3
  -4  -4   1 2746.20 55.1041   6
  -4   4  -1 2840.94 49.7357   4
   4  -4  -1 2707.60 49.9984   1
  -4   4  -1 2783.04 48.7240   2
  -4  -4   1 2711.11 55.9952   3
   4   4   1 2692.94 48.0863   2
  -4  -4   1 2714.01 49.6578   1
   5  -4   1 346.488 9.86791   1
  -5  -4  -1 346.063 11.5735   6
  -5  -4  -1 353.681 13.2763   3
   5  -4   1 335.927 11.9790   3
   5  -4   1 337.405 11.9694   6
   5   4  -1 332.314 9.41868   2
  -5  -4  -1 337.872 9.46501   1
  -5   4   1 342.335 9.83484   2
  -5  -4   1 324.505 11.4663   6
  -5   4  -1 328.450 9.55288   2
   5   4   1 338.042 9.19908   2
  -5  -4   1 333.632 12.8619   3
   5  -4  -1 345.361 11.5754   3
  -5  -4   1 335.034 9.54105   1
   5  -4  -1 339.009 9.93035   1
  -6  -4  -1 15.2872 3.09634   1
   6   4  -1 9.82499 3.13971   2
  -6  -4  -1 7.69248 3.37772   6
   6  -4   1 15.9727 4.34420   3
  -6   4   1 13.7358 3.13700   2
   6  -4   1 15.4433 3.42671   1
  -6  -4  -1 13.0903 4.65838   3
   6   4   1 18.5693 3.26614   2
  -6  -4   1 26.0232 4.02064   6
   6  -4  -1 13.4480 3.12663   1
  -6  -4   1 9.31651 4.22346   3
  -6  -4   1 17.5882 3.23096   1
   6  -4  -1 16.6973 3.91419   3
  -6   4  -1 13.5260 3.07167   2
  -7  -4  -1 148.933 9.80522   3
  -7   4   1 150.342 7.58442   2
   7   4  -1 168.747 7.52421   2
   7  -4   1 152.146 7.56872   1
  -7  -4  -1 142.249 7.24098   1
  -7  -4   1 146.178 7.29077   1
  -7   4  -1 148.175 7.41912   2
   7  -4  -1 141.266 7.46323   1
   7   4   1 138.860 7.04598   2
  -7  -4   1 147.907 8.62487   6
  -7  -4   1 148.232 9.29631   3
  -8   4   1 187.332 8.92871   2
  -8  -4  -1 186.604 11.0169   3
   8  -4   1 186.403 9.03803   1
   8   4  -1 182.685 8.73005   2
  -8  -4  -1 192.955 8.85107   1
   8   4   1 189.150 8.53209   2
   8  -4  -1 175.005 8.68479   1
  -8  -4   1 182.558 10.6443   3
  -8  -4   1 187.069 8.73261   1
  -8   4  -1 177.643 8.70441   2
  -9  -4  -1 90.9352 7.09635   1
   9   4  -1 115.441 7.78250   2
   9  -4   1 114.270 8.00711   1
  -9   4   1 100.062 7.76033   2
  -9  -4  -1 108.529 9.47415   3
   9  -4  -1 96.4977 7.65804   1
  -9  -4   1 95.9645 7.38192   1
  -9   4  -1 111.492 7.81616   2
  -9  -4   1 113.635 9.36631   3
   9   4   1 106.643 7.67915   2
 -10  -4  -1 75.7883 8.52975   3
 -10   4   1 74.0968 7.04447   2
 -10  -4  -1 75.6057 6.95815   1
  10  -4   1 76.6557 7.47531   1
  10   4  -1 86.4802 7.33130   2
 -10  -4   1 82.3961 7.28654   1
 -10   4  -1 82.4488 7.36640   2
 -10  -4   1 78.6831 8.33675   3
  10  -4  -1 75.9856 7.32581   1
  10   4   1 74.7525 6.97394   2
 -11   4   1 324.920 13.4622   2
 -11  -4  -1 310.471 13.3255   1
  11  -4   1 324.166 13.8700   1
 -11  -4  -1 321.190 15.1688   3
  11   4  -1 352.928 13.6193   2
 -11  -4   1 349.541 13.3472   1
  11  -4  -1 298.128 13.5384   1
  11   4   1 302.422 13.0495   2
 -11  -4   1 363.919 15.4487   3
 -11   4  -1 355.106 13.7333   2
  12   4  -1 295.869 13.4662   2
  12  -4   1 286.036 13.4093   1
 -12   4   1 278.579 13.3455   2
 -12  -4  -1 289.420 13.2239   1
 -12  -4  -1 290.968 14.7822   3
 -12  -4   1 265.261 12.8374   1
  12   4   1 277.128 13.4471   2
  12  -4  -1 288.231 13.6019   1
 -12  -4   1 294.161 14.5831   3
 -12   4  -1 278.967 13.3253   2
 -13  -4  -1 51.7168 8.48435   3
  13   4  -1 54.9273 7.45499   2
  13  -4   1 54.3875 7.70296   1
 -13   4   1 61.6187 7.93275   2
 -13  -4  -1 54.6163 7.32153   1
 -13  -4   1 59.7187 7.61134   1
  13  -4  -1 52.4736 7.79199   1
  13   4   1 75.1775 8.36600   2
 -13   4  -1 48.5727 7.29336   2
 -14  -4  -1 57.4852 7.80677   1
 -14   4   1 52.3135 7.63347   2
  14   4  -1 49.9958 7.80938   2
  14  -4   1 44.3289 7.76868   1
 -14  -4   1 56.2377 7.90674   1
  14  -4  -1 48.6965 7.77659   1
  14   4   1 50.2283 7.98239   2
 -14   4  -1 65.0712 8.62528   2
 -15  -4  -1 2.95259 4.62931   1
 -15   4   1 4.04858 5.41496   2
  15   4  -1 1.66930 5.60660   2
  15  -4   1 -5.0799 4.90707   1
 -15   4  -1 4.28045 5.20969   2
  15   4   1 -2.9846 5.05785   2
 -15  -4   1 -2.1560 4.79330   1
  15  -4  -1 -1.5943 5.33439   1
   0  -5  -1 17.9299 4.41568   6
   0  -5  -1 28.5846 5.22644   3
   0  -5  -1 25.2652 4.76453   5
   0  -5   1 22.0902 4.62704   5
   0  -5   1 28.7583 4.83741   6
   0  -5   1 23.4077 5.30895   3
  -1  -5  -1 8.91556 4.37057   3
  -1  -5  -1 12.9167 4.00522   5
   1  -5   1 15.5020 4.62202   3
   1  -5   1 3.93366 3.45378   6
   1  -5   1 10.2067 3.82535   5
  -1  -5  -1 9.19009 3.72524   6
   1  -5  -1 8.98261 3.82583   5
  -1  -5   1 7.03607 3.82297   5
   1  -5  -1 11.9735 4.46337   3
   1  -5  -1 9.88016 3.94365   6
  -1  -5   1 10.5705 3.70175   6
  -1  -5   1 5.60922 4.06100   3
   2  -5   1 135.905 8.31338   5
  -2  -5  -1 120.395 8.10659   6
  -2  -5  -1 119.267 8.06354   5
   2  -5   1 125.838 8.87501   3
  -2   5   1 128.249 4.11622   2
   2  -5   1 130.137 8.46832   6
  -2  -5  -1 118.573 9.13994   3
  -2  -5   1 136.108 8.38467   6
  -2  -5   1 135.940 9.24860   3
   2  -5  -1 139.847 8.52188   5
   2  -5  -1 130.602 8.61992   3
  -2   5  -1 124.284 4.19683   2
   3  -5   1 166.923 9.34513   5
  -3  -5  -1 175.108 10.3444   3
  -3   5   1 171.613 5.69238   2
   3  -5   1 174.223 5.84824   1
   3  -5   1 150.503 9.18202   6
  -3  -5  -1 180.143 9.49218   6
   3   5  -1 171.284 5.11301   2
   3  -5   1 165.636 9.65993   3
   3  -5  -1 174.068 9.46350   3
  -3  -5   1 166.069 9.17674   6
   3  -5  -1 165.986 9.43917   5
  -3   5  -1 170.562 5.64109   2
   3  -5  -1 164.920 5.83567   1
  -3  -5   1 176.991 10.6592   3
   3   5   1 175.449 5.05894   2
   4  -5   1 96.6347 5.30726   1
   4   5  -1 91.9617 4.69591   2
  -4  -5  -1 92.9471 4.66885   1
  -4   5   1 93.9824 5.05302   2
   4  -5   1 103.393 7.84275   6
   4  -5   1 105.822 8.13931   3
   4  -5   1 92.8794 7.69245   5
  -4  -5  -1 99.0991 7.65387   6
  -4  -5  -1 89.4064 8.41636   3
   4  -5  -1 100.797 7.99267   3
  -4   5  -1 94.2998 5.07660   2
  -4  -5   1 99.6449 7.86436   6
   4  -5  -1 92.9909 5.19792   1
  -4  -5   1 93.9467 8.67590   3
  -4  -5   1 97.0404 4.83729   1
   4   5   1 97.5022 4.58567   2
   5  -5   1 29.7596 3.73955   1
  -5  -5  -1 37.1739 6.34458   3
   5  -5   1 30.5434 5.58689   3
  -5   5   1 25.2002 3.62676   2
   5   5  -1 30.4912 3.47261   2
  -5  -5  -1 33.2768 3.54323   1
  -5  -5  -1 31.1728 5.07074   6
   5   5   1 29.2184 3.48511   2
   5  -5  -1 34.9357 5.59756   3
  -5  -5   1 31.3879 5.24916   6
   5  -5  -1 29.8771 3.78596   1
  -5  -5   1 26.9725 3.52429   1
  -5   5  -1 32.1621 3.67147   2
  -5  -5   1 28.5645 5.93879   3
   6  -5   1 -2.8207 2.68135   1
  -6  -5  -1 2.35932 4.58939   3
  -6  -5  -1 -0.9083 3.38380   6
  -6  -5  -1 4.52306 2.86360   1
   6   5  -1 5.34265 3.08755   2
  -6   5   1 5.96232 3.17596   2
   6  -5   1 2.00592 4.16843   3
  -6  -5   1 -5.7256 3.89657   3
  -6  -5   1 4.69193 2.87730   1
   6   5   1 1.44262 2.62163   2
   6  -5  -1 10.5101 4.50766   3
   6  -5  -1 5.10426 3.00042   1
  -6  -5   1 3.92779 3.67256   6
  -6   5  -1 1.27736 2.92891   2
  -7  -5  -1 2.46023 3.05704   1
   7   5  -1 2.70483 3.17214   2
  -7  -5  -1 1.78820 4.55888   3
   7  -5   1 9.44854 3.78441   1
  -7   5   1 2.08655 3.27173   2
   7  -5  -1 1.64731 3.38873   1
   7   5   1 12.5661 3.43826   2
  -7  -5   1 8.07387 4.99273   3
  -7   5  -1 5.62467 3.20057   2
  -7  -5   1 4.00846 3.21177   1
  -8   5   1 15.4713 4.24138   2
   8   5  -1 15.2864 4.17480   2
  -8  -5  -1 7.92636 5.46178   3
  -8  -5  -1 13.8293 4.12143   1
   8  -5   1 25.1044 4.64754   1
   8   5   1 18.5544 4.10111   2
  -8   5  -1 9.39032 3.80498   2
   8  -5  -1 15.2516 4.30948   1
  -8  -5   1 16.5940 5.83648   3
  -8  -5   1 20.7531 4.39379   1
  -9   5   1 184.171 9.55606   2
   9   5  -1 166.246 9.13102   2
  -9  -5  -1 157.548 11.5627   3
  -9  -5  -1 152.109 8.89379   1
   9  -5   1 165.376 9.52925   1
   9  -5  -1 181.409 9.63786   1
  -9   5  -1 172.813 9.36697   2
  -9  -5   1 163.023 11.6984   3
  -9  -5   1 165.087 8.97672   1
   9   5   1 173.734 9.25279   2
  10   5  -1 154.767 9.57926   2
 -10  -5  -1 151.476 9.26915   1
  10  -5   1 151.396 9.64479   1
 -10  -5  -1 147.052 11.9770   3
 -10   5   1 159.191 9.78635   2
 -10   5  -1 158.694 9.73661   2
  10  -5  -1 165.546 10.1714   1
  10   5   1 170.007 9.64252   2
 -10  -5   1 171.012 9.66386   1
 -10  -5   1 146.684 11.5404   3
  11   5  -1 31.9958 6.00451   2
 -11  -5  -1 23.2070 5.37929   1
  11  -5   1 24.0639 5.58540   1
 -11   5   1 28.2755 5.92937   2
 -11  -5  -1 28.8415 7.29276   3
 -11   5  -1 19.3250 5.20836   2
  11  -5  -1 21.4828 5.69179   1
  11   5   1 21.5870 5.27899   2
 -11  -5   1 23.3832 6.82598   3
 -11  -5   1 17.9214 5.42302   1
  12   5  -1 18.7384 5.69573   2
 -12  -5  -1 33.5888 7.79740   3
 -12   5   1 26.2468 5.99006   2
  12  -5   1 21.8957 5.96907   1
 -12  -5  -1 18.8609 5.19121   1
 -12   5  -1 31.5329 6.20941   2
  12   5   1 43.0421 6.92571   2
 -12  -5   1 24.9877 7.12890   3
 -12  -5   1 17.7586 5.24680   1
  12  -5  -1 22.7535 5.92825   1
 -13   5   1 5.95862 5.05621   2
 -13  -5  -1 1.93486 6.16286   3
 -13  -5  -1 1.69433 4.40491   1
  13  -5   1 -1.1355 4.69724   1
  13   5  -1 3.61213 5.00846   2
 -13   5  -1 2.56480 4.79085   2
 -13  -5   1 5.43094 4.86568   1
  13   5   1 0.04569 5.11717   2
  13  -5  -1 14.1178 5.77624   1
  14  -5   1 -5.7667 4.70545   1
 -14  -5  -1 -1.6680 4.94480   1
 -14   5   1 -2.8993 5.05307   2
  14   5  -1 2.06832 5.37066   2
 -14  -5   1 5.52999 5.35874   1
  14  -5  -1 2.93166 5.67701   1
 -14   5  -1 -7.2802 4.64702   2
  14   5   1 0.42258 5.22734   2
   0  -6   1 -2.3023 3.78210   5
   0  -6   1 1.55839 4.68186   3
   0  -6  -1 4.21646 4.84548   3
   0  -6  -1 -2.1189 3.66509   5
   1  -6   1 366.340 15.4465   3
  -1  -6  -1 368.353 15.5518   3
   1  -6   1 366.509 14.3336   5
  -1  -6  -1 338.179 14.0563   5
   1  -6  -1 356.102 14.4359   5
  -1  -6   1 361.916 15.5614   3
   1  -6  -1 358.328 15.0629   3
  -1  -6   1 341.521 14.2282   5
   2  -6   1 3.12684 4.21887   5
  -2  -6  -1 6.25329 5.01470   3
  -2   6   1 0.46971 1.85137   2
   2  -6   1 0.23823 4.47481   3
  -2  -6  -1 -1.8048 3.83631   5
   2  -6  -1 3.17043 4.76942   3
  -2  -6   1 -4.8489 3.99091   3
   2  -6  -1 2.80106 4.19726   5
  -2   6  -1 -0.4205 1.73436   2
   3  -6   1 88.3946 8.81129   3
   3   6  -1 83.3560 4.16017   2
   3  -6   1 73.9438 8.00323   5
  -3  -6  -1 89.2895 9.50697   3
  -3   6   1 84.3680 4.71377   2
  -3   6  -1 89.5505 4.60696   2
   3  -6  -1 83.9626 8.27441   5
  -3  -6   1 72.7806 8.52350   3
   3  -6  -1 89.6791 8.45232   3
   3   6   1 84.0750 3.87547   2
   4  -6   1 3.36861 4.31480   5
  -4   6   1 3.67788 2.66324   2
  -4  -6  -1 2.77774 5.25187   3
   4  -6   1 7.55856 4.92270   3
   4   6  -1 2.26482 2.52399   2
   4  -6  -1 -0.2605 4.24138   3
   4  -6  -1 9.24519 4.71004   5
  -4   6  -1 4.24675 2.50758   2
   4   6   1 5.33469 2.39256   2
  -4  -6   1 3.63675 4.95908   3
  -5   6   1 -0.2976 2.85707   2
  -5  -6  -1 -0.7705 5.23159   3
   5   6  -1 -2.3107 2.74229   2
   5  -6   1 1.49646 4.46875   5
   5  -6   1 4.95888 5.19860   3
   5  -6  -1 8.85257 4.86906   5
   5   6   1 -0.8703 2.48259   2
  -5  -6   1 3.60311 5.13632   3
   5  -6  -1 -4.6074 4.31008   3
  -5   6  -1 4.26649 2.79286   2
   6  -6   1 173.719 7.88745   1
   6  -6   1 177.825 11.3963   3
  -6   6   1 144.212 7.68179   2
   6   6  -1 154.682 7.47084   2
   6  -6   1 150.225 10.6629   5
  -6  -6  -1 132.658 11.6192   3
   6  -6  -1 173.957 8.06255   1
  -6   6  -1 147.326 7.55349   2
   6   6   1 159.511 7.33934   2
  -6  -6   1 139.919 12.1881   3
   7  -6   1 259.769 10.1885   1
  -7  -6  -1 253.779 14.6245   3
  -7   6   1 247.334 10.1431   2
   7   6  -1 256.054 10.0022   2
   7   6   1 236.151 9.28467   2
  -7   6  -1 244.993 10.0085   2
  -7  -6   1 267.568 14.8356   3
   7  -6  -1 257.059 10.4263   1
  -8  -6  -1 147.245 11.9854   3
   8  -6   1 152.792 8.90204   1
   8   6  -1 145.826 8.57155   2
  -8   6   1 147.224 8.67236   2
  -8  -6  -1 154.543 8.29621   1
  -8  -6   1 146.943 12.3057   3
   8  -6  -1 148.686 9.12545   1
  -8   6  -1 147.378 8.61396   2
   8   6   1 143.519 8.41487   2
  -8  -6   1 144.083 8.20072   1
  -9  -6  -1 20.5352 4.77049   1
   9  -6   1 14.1558 4.63950   1
  -9   6   1 19.2938 4.84451   2
   9   6  -1 21.8090 4.95879   2
  -9  -6  -1 17.6757 6.87241   3
   9   6   1 23.3908 4.81055   2
  -9  -6   1 20.8030 7.02740   3
  -9  -6   1 15.0970 4.63724   1
   9  -6  -1 11.0031 4.64808   1
  -9   6  -1 18.0428 4.63206   2
 -10   6   1 5.94206 4.49487   2
 -10  -6  -1 19.8647 6.93654   3
  10   6  -1 17.7240 5.02140   2
 -10  -6  -1 14.7751 4.84020   1
  10  -6   1 9.95086 4.96647   1
 -10   6  -1 12.9429 4.71642   2
 -10  -6   1 -2.6619 5.62759   3
 -10  -6   1 13.3039 4.98840   1
  10   6   1 2.44313 4.17190   2
  10  -6  -1 1.07444 4.31362   1
 -11  -6  -1 96.6217 10.9671   3
 -11   6   1 120.592 9.50527   2
  11   6  -1 107.311 8.97094   2
  11  -6   1 102.622 9.40064   1
 -11  -6  -1 107.591 8.95660   1
 -11  -6   1 98.5603 8.83353   1
  11  -6  -1 129.814 10.1034   1
 -11   6  -1 107.118 8.99676   2
 -11  -6   1 96.4887 11.0628   3
  11   6   1 110.085 9.09639   2
 -12  -6  -1 82.1868 10.9745   3
  12  -6   1 97.9634 9.60086   1
 -12   6   1 83.9813 8.78172   2
  12   6  -1 90.2171 8.92254   2
 -12  -6  -1 85.7955 8.79416   1
  12  -6  -1 85.8648 9.07255   1
  12   6   1 74.4726 8.45640   2
 -12   6  -1 86.3134 8.86853   2
 -12  -6   1 84.9366 10.9735   3
 -12  -6   1 87.4770 8.61567   1
   0  -7  -1 9.73611 6.24160   3
   0  -7  -1 5.51640 4.76888   5
   0  -7   1 6.15435 4.73677   5
   0  -7   1 9.30879 5.96896   3
   1  -7   1 9.20728 5.85843   3
   1  -7   1 6.44069 4.97002   5
  -1  -7  -1 16.9125 6.55084   3
  -1  -7  -1 15.1412 5.42691   5
   1  -7  -1 15.0230 6.14519   3
   1  -7  -1 13.2706 5.24116   5
  -1  -7   1 -3.4404 5.24418   3
   2  -7   1 82.5775 9.53245   3
  -2  -7  -1 67.5649 9.34996   3
   2  -7   1 77.5020 8.89219   5
   2  -7  -1 50.7268 8.19056   3
   2  -7  -1 54.3250 7.96493   5
  -2  -7   1 59.1787 8.87747   3
   3  -7   1 113.955 10.9038   3
  -3   7   1 109.637 5.46901   2
  -3  -7  -1 102.317 10.7575   3
   3  -7   1 110.922 10.5699   5
   3  -7  -1 108.397 10.3823   5
  -3  -7   1 117.388 11.5768   3
   3  -7  -1 125.906 11.0091   3
  -3   7  -1 116.408 5.51862   2
   4  -7   1 42.2550 7.54785   5
   4  -7   1 77.1674 9.45072   3
   4   7  -1 70.3642 5.05712   2
  -4   7   1 67.0887 5.28517   2
  -4  -7  -1 58.2279 9.08792   3
  -4  -7   1 56.2214 9.01131   3
   4  -7  -1 68.1143 8.61172   3
  -4   7  -1 66.9723 5.21893   2
   4  -7  -1 59.5301 8.31693   5
   5   7  -1 17.6990 3.51846   2
   5  -7   1 20.6168 6.79666   3
   5  -7   1 15.6353 5.86742   5
  -5  -7  -1 28.2991 7.66235   3
  -5   7   1 13.2625 3.51467   2
   5   7   1 11.7605 3.31270   2
   5  -7  -1 11.3893 5.64878   5
  -5   7  -1 22.2239 3.83427   2
  -5  -7   1 11.2706 6.18332   3
  -6  -7  -1 6.61817 6.11609   3
   6  -7   1 0.17702 5.16520   5
   6   7  -1 -2.9056 3.09202   2
  -6   7   1 -2.9349 3.12032   2
   6   7   1 -0.3931 3.10889   2
  -6   7  -1 -1.2772 3.21170   2
  -6  -7   1 -6.3039 4.85348   3
   6  -7  -1 -3.3349 4.85185   5
  -7   7   1 -3.3115 3.31126   2
  -7  -7  -1 1.61759 6.25012   3
   7   7  -1 3.45764 3.59880   2
   7  -7   1 1.19800 5.31139   5
   7  -7  -1 1.58810 5.55051   5
  -7   7  -1 5.66107 3.66485   2
   7   7   1 -4.4180 3.25387   2
  -7  -7   1 7.06814 6.39964   3
  -8  -7  -1 8.82404 6.55004   3
   8   7  -1 6.47357 4.10833   2
   8  -7   1 7.49293 6.13154   5
  -8   7   1 2.46918 3.82782   2
  -8  -7   1 -4.1565 5.79370   3
   8  -7  -1 9.70337 5.87074   5
  -8   7  -1 4.12101 4.12227   2
   8   7   1 4.39690 3.83986   2
  -9   7   1 98.6960 8.03835   2
   9  -7   1 97.9071 10.8217   5
  -9  -7  -1 72.0878 10.6059   3
   9   7  -1 100.237 8.02229   2
  -9  -7   1 88.1587 11.1239   3
   9   7   1 99.8094 8.01453   2
  -9   7  -1 87.7646 7.81063   2
  10   7  -1 80.1163 7.92190   2
 -10  -7  -1 81.1125 11.2074   3
  10  -7   1 86.9077 8.46815   1
 -10   7   1 74.8459 7.80292   2
 -10   7  -1 81.8006 8.03491   2
  10  -7  -1 90.9455 8.49999   1
  10   7   1 72.9245 7.46921   2
 -10  -7   1 86.2837 11.4803   3
   0  -8   1 7.87136 5.50866   5
   0  -8   1 12.5179 6.74859   3
   0  -8  -1 3.62881 6.51420   3
   0  -8  -1 9.49744 5.78705   5
   1  -8   1 25.8047 6.81386   5
   1  -8   1 19.8972 7.73644   3
  -1  -8  -1 32.1426 8.34423   3
   1  -8  -1 16.3460 6.99923   3
   1  -8  -1 21.1382 6.60592   5
  -1  -8   1 31.0033 8.16738   3
  -2  -8  -1 3.90215 6.50711   3
   2  -8   1 9.06398 6.07169   5
   2  -8   1 8.97122 6.82355   3
   2  -8  -1 -5.3972 5.93074   3
  -2  -8   1 5.36281 6.55383   3
   2  -8  -1 10.0557 6.11671   5
  -3  -8  -1 14.8770 7.25436   3
   3  -8   1 13.8523 6.20529   5
   3  -8   1 -5.9282 5.91778   3
   3  -8  -1 9.06621 6.62816   3
  -3  -8   1 12.1324 7.20777   3
   3  -8  -1 1.87908 5.35274   5
   4  -8   1 803.486 27.1831   3
   4  -8   1 798.440 26.6730   5
  -4  -8  -1 766.937 28.3039   3
   4  -8  -1 753.790 26.3111   5
  -4  -8   1 769.247 28.3762   3
   4  -8  -1 800.552 27.2507   3
  -5   8   1 104.540 6.90458   2
   5  -8   1 97.0167 11.0275   5
  -5  -8  -1 105.006 12.7577   3
   5  -8   1 94.3003 12.5268   3
  -5   8  -1 106.651 6.94283   2
   5  -8  -1 98.7920 11.2734   5
  -5  -8   1 87.0368 11.6633   3
  -6   8   1 3.97356 3.52672   2
   6  -8   1 5.15963 6.08635   5
  -6  -8  -1 -5.3011 6.16249   3
   6   8  -1 1.39968 3.24678   2
  -6   8  -1 4.74910 3.72605   2
   6  -8  -1 0.54730 5.84550   5
  -6  -8   1 -0.2957 6.90323   3
  -7   8   1 28.3126 5.03439   2
  -7  -8  -1 18.4773 7.73963   3
   7   8  -1 32.2826 4.93175   2
   7  -8   1 31.2020 7.81159   5
  -7   8  -1 26.7204 5.13907   2
   7   8   1 35.3345 5.14358   2
   7  -8  -1 37.0150 7.79945   5
  -7  -8   1 25.5667 8.38290   3
   0   0  -2 -1.1421 0.57259   4
   0   0   2 -0.6489 0.48105   4
   1   0   2 0.64669 0.72212   4
  -1   0   2 -0.8942 0.77717   4
   1   0  -2 0.99160 0.92990   4
  -1   0  -2 0.34865 0.74898   4
   2   0   2 36.2025 2.42953   4
  -2   0  -2 39.1433 2.48750   4
  -2   0   2 30.0610 2.29514   4
   2   0  -2 40.3307 2.89581   4
   3   0  -2 80.1451 4.25715   4
  -3   0   2 80.9254 4.28834   4
   3   0   2 79.0330 3.90257   4
   4   0  -2 232.476 7.25393   4
   4   0   2 236.326 6.93951   4
  -4   0   2 235.032 7.20841   4
   4   0   2 223.120 6.89581   4
  -5   0   2 74.4961 4.76062   4
   5   0   2 76.8736 4.62293   4
   5   0  -2 67.8160 4.85773   4
   5   0   2 69.6650 4.35461   4
   6   0  -2 146.150 6.61909   4
   6   0   2 147.572 6.29227   4
   6   0   2 144.031 6.09977   4
  -7   0   2 1013.84 22.2180   1
   7   0  -2 997.083 21.8707   4
  -7   0  -2 937.568 21.6438   1
  -7   0   2 963.130 20.2498   7
   7   0   2 982.070 20.1910   7
  -7   0   2 953.936 21.6449   4
   7   0  -2 958.456 20.2938   7
  -7   0  -2 989.108 20.1257   7
   7   0   2 945.377 21.4270   4
   7   0  -2 999.579 22.0782   1
   7   0   2 963.842 21.6188   1
   7   0   2 984.933 21.4694   4
  -8   0   2 268.183 9.72756   4
   8   0  -2 268.913 9.23170   7
  -8   0  -2 277.334 9.96519   1
   8   0   2 265.570 9.76638   1
   8   0  -2 283.319 9.73864   2
   8   0   2 276.353 9.57282   4
  -8   0   2 283.105 10.3273   1
  -8   0  -2 265.374 9.35542   2
  -8   0   2 264.761 8.94759   7
  -8   0   2 274.785 9.66021   2
   8   0   2 286.777 9.09209   7
   8   0   2 284.273 9.63080   2
   8   0  -2 274.396 10.2721   1
  -8   0  -2 255.557 8.84553   7
   9   0  -2 175.200 8.95307   1
  -9   0   2 186.754 7.97086   7
  -9   0   2 178.321 8.47850   2
  -9   0  -2 173.078 8.41685   1
   9   0   2 195.036 8.61292   2
   9   0  -2 197.024 8.91105   2
   9   0  -2 180.412 8.01170   7
   9   0   2 172.589 8.54990   1
  -9   0   2 175.386 8.63757   1
   9   0   2 181.269 7.88318   7
  -9   0  -2 187.374 8.22917   2
  -9   0  -2 182.532 7.78239   7
 -10   0  -2 29.5821 4.82814   1
  10   0  -2 41.4852 4.95899   7
 -10   0   2 36.6820 5.32845   1
  10   0   2 44.8878 5.23827   2
 -10   0   2 37.8434 4.71623   7
  10   0  -2 41.1091 5.55853   1
 -10   0  -2 40.9172 4.88947   7
  10   0  -2 39.3178 5.30799   2
 -10   0   2 28.8088 4.74554   2
  10   0   2 35.0056 5.23697   1
  10   0   2 39.0257 4.80737   7
 -10   0  -2 39.0103 5.01903   2
 -11   0  -2 7.06888 4.00942   1
  11   0  -2 8.55046 4.20082   2
  11   0   2 7.56411 4.11011   1
  11   0  -2 14.5899 4.81876   1
  11   0   2 5.26268 3.62389   7
 -11   0  -2 6.50313 3.60641   7
  11   0   2 11.9834 4.07691   2
  11   0  -2 0.67444 3.41252   7
 -11   0   2 18.4593 4.23814   7
 -11   0   2 11.3154 4.21349   1
  12   0   2 587.117 18.7441   1
 -12   0   2 565.706 16.6615   7
  12   0  -2 560.811 16.8233   7
 -12   0  -2 552.143 16.4404   7
  12   0  -2 588.291 18.8973   1
 -12   0   2 610.561 18.9739   1
 -12   0  -2 596.708 18.6948   1
  12   0   2 593.880 16.7629   7
 -13   0   2 541.826 18.8121   1
 -13   0  -2 559.530 16.5613   7
  13   0   2 534.312 18.7473   1
  13   0   2 534.391 16.7442   7
 -13   0  -2 553.266 18.8676   1
  13   0  -2 539.530 16.9915   7
 -13   0   2 553.155 16.7115   7
  13   0  -2 519.800 18.5880   1
 -14   0  -2 0.75640 4.27973   7
  14   0   2 11.7425 4.92918   7
 -14   0   2 4.92833 4.49514   7
 -14   0  -2 2.34785 4.85676   1
  14   0   2 4.38428 5.22948   1
 -14   0   2 9.63602 5.33750   1
  14   0  -2 10.4552 4.85697   7
  14   0  -2 8.08633 5.63262   1
  15   0   2 1014.12 26.2924   7
 -15   0  -2 1058.64 29.7391   1
 -15   0   2 1020.51 29.7927   1
 -15   0  -2 992.973 25.5721   7
  15   0  -2 1071.96 30.0908   1
 -15   0   2 1033.90 26.1774   7
  15   0  -2 996.954 26.4085   7
  15   0   2 1027.38 29.5393   1
 -16   0  -2 38.6224 7.74497   1
  16   0   2 31.5925 6.60246   7
 -16   0   2 16.1871 6.57419   1
 -16   0  -2 21.9464 5.99979   7
  16   0  -2 30.9138 8.08463   1
  16   0  -2 15.3114 5.82883   7
 -16   0   2 21.9273 5.82827   7
 -17   0  -2 174.102 11.6981   7
 -17   0  -2 183.652 13.6725   1
  17   0   2 181.985 12.2384   7
 -17   0   2 153.328 13.4222   1
 -17   0   2 174.880 11.6369   7
  17   0  -2 194.352 12.4219   7
   0   1  -2 -1.1946 0.81757   4
  -1   1   2 -1.2533 0.87976   4
   1   1  -2 0.65935 1.07063   4
   1  -1   2 0.24526 0.80708   4
  -1   1  -2 -1.6362 0.99732   4
   2  -1   2 3.98374 1.48335   4
   2   1  -2 6.55652 1.54713   4
   2  -1   2 6.22949 1.34769   4
  -2   1   2 4.65709 1.57536   4
  -2  -1   2 5.26098 1.28199   4
   2   1   2 11.3219 1.77132   6
   2  -1  -2 4.74619 1.37200   4
  -2   1  -2 6.09494 1.49507   4
  -2   1  -2 8.24372 1.62145   4
   3  -1   2 322.681 7.53080   4
   3   1  -2 305.191 7.74648   4
   3  -1   2 314.448 7.74977   4
  -3   1   2 324.890 8.18350   4
   3  -1   2 313.873 7.77108   6
  -3   1  -2 327.197 7.79504   4
  -3  -1   2 320.953 7.45268   4
  -3   1  -2 313.774 7.83884   4
   3   1   2 307.264 7.08079   6
   3  -1  -2 297.518 7.73467   4
   4  -1   2 946.236 18.6613   4
   4   1  -2 946.828 19.0368   4
  -4   1   2 920.226 19.2465   4
   4  -1   2 950.073 18.6350   6
   4  -1   2 904.009 18.8024   4
  -4   1  -2 920.349 18.9877   4
  -4   1  -2 920.760 18.8521   4
   4  -1  -2 932.723 19.1000   4
   5  -1   2 239.113 7.15665   4
   5  -1   2 228.457 7.39704   4
   5  -1   2 231.213 6.28275   6
  -5   1   2 226.507 7.83445   4
   5   1  -2 221.788 7.42880   4
   5  -1  -2 237.089 7.67180   4
   6  -1   2 2.66926 2.53387   1
   6  -1   2 -0.6530 2.09871   4
   6   1  -2 -1.7371 2.06643   4
   6  -1   2 0.97865 1.98024   4
  -6   1   2 1.76373 2.39405   4
  -6   1   2 -4.0817 2.19517   2
   6   1  -2 -1.1819 2.31853   2
  -6  -1  -2 -2.6954 2.28601   1
   6  -1  -2 -2.2464 2.34160   1
   6   1   2 -2.8164 2.18619   2
  -6   1  -2 -1.1847 2.22503   2
   6  -1  -2 -0.4236 2.24057   4
  -6  -1   2 -3.2132 2.28102   1
  -7   1   2 733.062 17.4953   2
  -7  -1  -2 749.621 17.9112   1
  -7   1   2 742.146 18.1078   4
   7   1  -2 780.850 17.7332   2
   7  -1   2 737.241 17.8072   1
  -7  -1  -2 735.118 15.7154   7
   7  -1   2 753.433 15.9992   7
   7  -1   2 755.497 17.5739   4
   7   1  -2 715.763 17.6490   4
   7  -1   2 761.062 17.3647   4
  -7  -1   2 758.751 16.0561   7
   7  -1  -2 733.290 18.0208   1
  -7   1  -2 752.247 17.3054   2
   7  -1  -2 761.432 16.3169   7
   7   1   2 727.964 17.4835   4
   7  -1  -2 745.912 17.7743   4
   7   1   2 744.417 17.2865   2
  -7  -1   2 736.401 18.1476   1
  -7  -1   2 759.913 17.0958   3
   8  -1   2 2.47544 2.39565   7
  -8   1   2 5.22575 2.76856   4
  -8  -1  -2 4.98530 2.34328   7
   8  -1   2 -0.8030 2.44847   4
   8   1  -2 7.57677 2.89414   7
  -8   1   2 -1.5714 2.53021   7
   8  -1   2 6.70946 3.06550   1
   8   1  -2 0.55819 2.81766   2
  -8   1   2 -1.4334 2.61779   2
  -8   1   2 2.48099 2.00160   6
  -8   1   2 3.05901 2.86312   1
  -8  -1  -2 4.07533 2.82160   1
   8   1  -2 0.00456 2.70597   1
   8  -1   2 7.91079 2.58302   4
   8  -1  -2 11.9912 3.53020   1
  -8  -1   2 3.59488 2.51435   7
   8  -1  -2 7.71951 2.95372   4
  -8   1  -2 1.95055 2.57509   2
  -8  -1   2 5.22876 3.06218   1
   8  -1  -2 6.85474 2.64119   7
  -8   1  -2 2.51557 2.74055   7
   8   1   2 1.36607 2.70064   2
  -8  -1   2 3.87501 2.55445   3
   8   1   2 3.71755 2.73200   7
  -8   1  -2 0.28830 2.68062   1
   8   1   2 2.08226 2.92656   1
   9  -1   2 298.679 11.1916   1
  -9  -1  -2 291.861 9.26650   7
  -9   1   2 301.288 11.1065   1
   9  -1   2 296.614 10.5777   4
  -9  -1  -2 299.414 10.8919   1
  -9   1   2 283.406 11.1593   4
   9   1  -2 305.881 10.4371   7
   9  -1   2 299.171 9.69089   7
  -9   1   2 282.521 10.2459   7
   9   1  -2 302.280 11.1607   1
   9   1  -2 276.987 10.6918   2
  -9   1   2 294.037 10.8537   2
   9  -1  -2 305.004 11.4770   1
  -9   1  -2 299.102 10.7203   2
  -9  -1   2 300.185 9.52305   7
  -9   1  -2 299.899 10.1855   7
   9   1   2 298.649 10.0212   7
   9   1   2 298.367 10.6804   2
   9   1   2 314.332 11.0679   1
  -9  -1   2 298.681 11.3005   1
  -9   1  -2 279.739 11.0041   1
   9  -1  -2 285.955 10.6243   4
   9  -1  -2 302.672 9.79366   7
  -9  -1   2 288.381 9.75271   3
 -10   1   2 216.717 10.1844   1
  10   1  -2 223.146 9.58732   7
 -10   1   2 233.349 10.1359   2
 -10  -1  -2 218.411 8.60919   7
  10  -1   2 225.938 10.4595   1
  10  -1   2 231.820 9.04404   7
  10   1  -2 239.995 10.5682   1
  10   1  -2 239.194 10.2738   2
 -10   1   2 229.854 9.73345   7
 -10  -1  -2 208.890 9.86092   1
  10   1   2 239.481 9.69263   7
 -10   1  -2 246.474 10.6701   1
 -10   1  -2 229.611 9.88851   2
  10  -1  -2 227.431 9.24112   7
  10   1   2 209.794 9.88953   2
 -10  -1   2 234.603 10.5858   1
 -10  -1   2 225.563 8.69870   7
  10  -1  -2 233.506 10.6006   1
 -10   1  -2 221.331 9.46545   7
 -11   1   2 148.038 8.56958   7
  11  -1   2 152.302 9.21418   1
  11   1  -2 167.819 9.69770   1
 -11  -1  -2 160.455 7.96495   7
 -11   1   2 162.468 9.25432   2
  11   1  -2 146.229 9.23440   2
  11   1  -2 164.730 8.76617   7
  11  -1   2 146.443 8.03349   7
 -11  -1  -2 155.062 9.39298   1
 -11  -1  -2 173.971 9.35321   3
 -11   1   2 141.445 9.23153   1
  11   1   2 151.875 8.64388   7
 -11   1  -2 146.240 9.40059   1
 -11   1  -2 156.643 8.51798   7
  11   1   2 156.929 9.69150   1
  11  -1  -2 162.038 8.40427   7
 -11  -1   2 133.227 7.77512   7
  11  -1  -2 142.569 9.45864   1
 -11   1  -2 164.781 9.19187   2
 -11  -1   2 159.179 9.51997   1
  11   1   2 151.871 9.43251   2
 -12   1   2 260.786 11.7538   2
 -12  -1  -2 247.253 10.2176   7
  12   1  -2 252.598 11.3883   7
  12  -1   2 254.671 12.2253   1
 -12  -1  -2 253.353 12.3365   1
  12  -1   2 258.919 10.6682   7
 -12   1   2 241.006 11.2589   7
  12   1  -2 266.726 12.1873   2
 -12   1   2 260.360 12.4874   1
 -12   1  -2 254.929 11.2360   7
  12   1   2 277.831 11.4453   7
 -12  -1   2 257.053 10.5516   7
 -12   1  -2 265.243 11.7800   2
 -12   1  -2 272.047 12.5573   1
  12  -1  -2 265.026 11.0449   7
  12  -1  -2 269.070 12.7831   1
  12   1   2 293.868 12.2709   2
 -12  -1   2 262.786 12.3624   1
  13  -1   2 50.3463 7.30576   1
 -13   1   2 50.5401 7.30328   1
  13   1  -2 33.3255 6.24296   2
  13  -1   2 47.1477 5.86980   7
 -13   1   2 31.5944 6.02123   7
  13   1  -2 33.9973 5.77810   7
 -13  -1  -2 43.1258 6.82839   1
 -13   1  -2 48.1176 7.03405   1
 -13   1  -2 45.6846 6.40921   7
  13  -1  -2 38.6522 6.66097   1
  13  -1  -2 43.7464 5.85111   7
  13   1   2 38.0494 5.94511   7
 -13  -1   2 44.1636 5.71491   7
  13   1   2 47.6463 6.84009   2
 -13  -1   2 45.6208 6.91782   1
  14  -1   2 96.9319 9.57459   1
 -14  -1  -2 139.085 10.6907   1
 -14   1   2 107.637 9.00934   7
  14   1  -2 97.2162 8.56681   7
 -14   1   2 119.093 10.6997   1
  14  -1   2 103.796 8.37743   7
 -14   1  -2 111.511 10.3720   1
  14   1   2 111.021 9.18159   7
 -14   1  -2 99.4792 8.75757   7
 -14  -1   2 110.342 8.40615   7
  14  -1  -2 103.164 9.85667   1
  14  -1  -2 121.865 9.26370   7
 -14  -1   2 118.624 10.4702   1
  15   1  -2 -2.2799 4.29878   7
 -15  -1  -2 -1.6065 4.76429   1
  15  -1   2 -3.7638 4.21560   7
  15  -1   2 -0.6386 5.00678   1
 -15   1   2 3.68712 4.82994   7
 -15  -1   2 -2.0161 4.04287   7
  15  -1  -2 -1.6605 4.08998   7
  15  -1  -2 -2.8494 5.08368   1
  15   1   2 5.94947 4.99858   7
 -15  -1   2 1.40348 5.25480   1
 -15   1  -2 4.65258 4.79117   7
 -16   1   2 26.5335 6.60271   7
  16  -1   2 30.6092 7.42763   1
 -16  -1  -2 47.0428 8.40567   1
  16  -1   2 34.8626 6.39478   7
  16   1  -2 28.4200 6.52885   7
  16   1   2 33.2686 6.88368   7
 -16   1  -2 41.8794 7.06928   7
  16  -1  -2 31.6525 7.39671   1
 -16  -1   2 29.5024 7.72728   1
  16  -1  -2 36.7310 6.44844   7
 -16  -1   2 42.6295 6.16863   7
  17  -1   2 186.633 14.1370   1
  17   1  -2 176.984 12.4197   7
 -17   1   2 169.324 12.0683   7
 -17  -1  -2 208.955 14.2785   1
  17  -1   2 176.675 11.5921   7
 -17  -1   2 190.465 14.3224   1
 -17   1  -2 207.727 12.7198   7
  17  -1  -2 189.414 11.7311   7
 -17  -1   2 165.166 10.8581   7
  17   1   2 155.035 12.0046   7
  17  -1  -2 170.908 13.7419   1
   0   2   2 667.294 15.2912   6
   0  -2  -2 678.654 14.8084   5
  -1  -2  -2 41.4297 3.45205   5
   1  -2   2 38.6252 3.37937   5
   1  -2   2 35.2852 3.54089   6
  -1   2   2 40.7045 3.71208   6
   1   2   2 33.8650 3.20121   6
  -1  -2   2 32.8141 3.22121   5
  -2   2   2 2355.91 41.6083   4
   2  -2   2 2415.10 45.5693   6
  -2  -2  -2 2373.21 45.5723   3
  -2   2   2 2325.76 45.6233   6
  -2  -2  -2 2401.88 45.1442   6
  -2  -2  -2 2309.49 44.0939   5
  -2   2  -2 2358.32 41.9285   4
  -2   2  -2 2388.94 41.7808   4
   2   2   2 2376.23 44.9871   6
   3  -2   2 1865.73 36.6264   6
   3   2  -2 1902.83 33.7897   4
  -3  -2  -2 1895.01 37.3608   3
  -3   2   2 1843.75 34.1230   4
  -3  -2  -2 1836.38 35.9511   6
  -3   2   2 1787.38 36.7126   6
   3   2   2 1877.82 35.9743   6
  -3   2  -2 1888.33 34.2584   4
  -3  -2   2 1830.99 36.7504   3
  -3   2  -2 1866.44 33.9500   4
  -4  -2  -2 161.024 5.75779   6
   4   2  -2 164.550 5.49615   4
  -4  -2  -2 172.843 7.67173   3
   4  -2   2 172.483 4.99188   4
  -4   2   2 165.705 5.97333   4
   4   2  -2 158.991 5.71550   2
   4  -2   2 176.020 6.50231   6
  -4   2   2 160.851 6.04782   2
   4  -2   2 165.814 4.62444   4
  -4  -2   2 162.089 7.09099   3
   4  -2  -2 163.548 4.53450   4
  -4   2  -2 163.593 5.76021   2
   4  -2  -2 166.361 4.48698   4
  -4   2  -2 175.561 5.92117   4
  -4   2  -2 163.180 5.47673   4
   4   2   2 163.930 5.51010   2
  -5  -2  -2 582.834 15.6809   3
   5  -2   2 605.107 12.9754   4
   5  -2   2 612.148 14.1215   6
   5  -2   2 583.655 12.4565   4
  -5   2   2 559.411 13.9140   4
   5   2  -2 614.459 13.5355   4
  -5  -2  -2 586.718 13.7717   1
  -5   2   2 588.714 13.6722   2
   5  -2   2 608.960 13.9775   1
   5   2  -2 558.532 13.4087   2
  -5   2  -2 588.441 13.3703   2
  -5   2  -2 569.370 13.7821   4
   5  -2  -2 556.177 12.3963   4
   5  -2  -2 593.033 14.0375   1
  -5  -2   2 585.438 14.8942   3
  -5  -2   2 600.409 14.0128   1
   5  -2  -2 563.594 12.7261   4
  -5   2  -2 583.516 13.4524   4
   5   2   2 556.177 13.0999   2
  -6  -2  -2 1231.54 25.0334   1
   6  -2   2 1214.83 25.0477   6
  -6  -2  -2 1218.60 27.2633   3
  -6   2   2 1191.17 25.3885   4
  -6   2   2 1152.74 24.5083   2
   6  -2   2 1187.88 23.8271   4
   6  -2   2 1207.32 25.1535   1
   6  -2   2 1243.49 24.4509   4
   6   2  -2 1166.01 24.4191   2
   6   2  -2 1199.22 24.8634   4
   6  -2  -2 1195.37 23.8978   4
   6   2   2 1199.04 24.2358   2
  -6   2  -2 1174.53 24.2736   2
   6  -2  -2 1183.40 24.2774   4
  -6   2  -2 1203.21 25.2257   4
   6  -2  -2 1226.54 25.3780   1
  -6  -2   2 1231.60 25.3625   1
  -6  -2   2 1215.09 26.1960   3
  -7   2   2 246.890 9.07407   4
   7  -2   2 233.786 8.22339   4
   7   2  -2 222.609 8.54329   2
   7  -2   2 245.356 6.97744   7
   7  -2   2 252.343 7.77401   4
  -7  -2  -2 255.990 9.05506   1
  -7  -2  -2 228.757 9.79029   3
   7  -2   2 243.640 8.98948   1
  -7   2   2 237.679 8.83106   2
  -7  -2   2 226.126 8.83259   1
   7  -2  -2 244.474 7.02146   7
   7  -2  -2 233.524 8.24619   4
   7  -2  -2 237.202 7.81557   4
  -7  -2   2 255.762 9.27395   3
   7  -2  -2 235.120 8.92003   1
  -7   2  -2 238.264 8.75999   4
   7   2   2 224.315 8.32906   2
  -7   2  -2 217.792 8.43497   2
   8  -2   2 279.336 8.96401   4
  -8   2   2 263.517 10.1428   2
   8  -2   2 284.483 10.3712   1
  -8   2   2 300.911 10.5893   4
   8  -2   2 271.223 8.24107   7
  -8   2   2 283.734 9.75299   7
  -8  -2  -2 280.433 10.1117   1
   8   2  -2 270.775 10.1299   2
  -8  -2  -2 281.017 11.0982   3
   8  -2   2 280.943 9.87265   4
   8  -2  -2 277.821 8.29590   7
  -8   2  -2 285.886 9.98402   2
   8  -2  -2 288.334 10.5944   1
   8   2   2 268.634 9.86221   2
  -8   2  -2 285.424 9.47938   7
  -8   2  -2 277.125 10.0850   4
  -8  -2   2 286.702 10.2227   3
   8  -2  -2 275.621 9.12110   4
  -8  -2   2 284.790 7.74800   7
  -8  -2   2 271.829 10.2230   1
  -9   2   2 57.2767 5.48778   7
   9   2  -2 57.9127 5.86215   2
   9   2  -2 66.3503 5.72909   7
  -9   2   2 53.4335 5.61422   2
  -9  -2  -2 53.7245 5.56136   1
   9  -2   2 60.7982 4.65964   7
   9  -2   2 64.0865 6.00586   1
  -9   2   2 62.0426 5.76774   4
  -9  -2  -2 54.8411 6.17315   3
   9  -2  -2 57.1750 4.68366   7
  -9  -2   2 59.6646 5.93151   1
   9   2   2 55.0169 5.23818   7
   9  -2  -2 60.8103 6.09884   1
  -9   2  -2 62.6064 5.54210   7
  -9  -2   2 59.3638 5.63193   3
  -9   2  -2 60.6578 5.76657   2
  -9  -2   2 57.5134 4.28142   7
   9   2   2 56.0484 5.65575   2
 -10  -2  -2 267.827 11.0380   1
  10  -2   2 266.460 9.21616   7
 -10   2   2 275.315 10.7676   7
  10  -2   2 263.555 11.3392   1
  10   2  -2 276.967 11.1917   2
 -10   2   2 274.433 11.2432   2
  10   2  -2 271.595 10.6225   7
 -10  -2  -2 268.361 11.7770   3
 -10   2  -2 263.288 10.4190   7
  10   2   2 268.053 11.0269   2
  10  -2  -2 250.032 11.4067   1
 -10  -2   2 265.507 10.6895   3
 -10  -2   2 262.595 11.2269   1
 -10   2  -2 261.853 10.8900   2
  10  -2  -2 273.159 9.37593   7
 -10  -2   2 267.449 8.65876   7
  10   2   2 264.990 10.3829   7
 -11   2   2 868.850 22.1164   7
 -11   2   2 911.638 23.4589   2
  11   2  -2 883.227 22.1444   7
 -11  -2  -2 903.223 23.8746   1
  11  -2   2 918.304 24.2363   1
  11   2  -2 924.521 23.2507   2
  11  -2   2 883.932 20.3009   7
 -11  -2  -2 919.166 24.2462   3
  11   2   2 882.596 23.0832   2
 -11  -2   2 932.115 19.7801   7
 -11   2  -2 917.663 22.3451   7
 -11   2  -2 935.554 23.5203   2
 -11  -2   2 869.950 23.7654   1
  11  -2  -2 889.552 24.1945   1
  11  -2  -2 917.290 20.5793   7
  11   2   2 904.668 22.1314   7
  12   2  -2 9.60149 4.66256   2
 -12   2   2 -1.4415 3.99764   2
 -12  -2  -2 -0.3681 4.29249   3
 -12  -2  -2 -0.0811 4.37110   1
  12  -2   2 0.06322 4.24071   1
 -12   2   2 -1.7408 3.81788   7
  12   2  -2 -2.5503 3.90528   7
  12  -2   2 3.95703 3.57273   7
 -12   2  -2 -5.7575 3.74689   7
 -12  -2   2 -1.9470 3.97869   1
  12  -2  -2 -0.4054 3.36998   7
  12   2   2 5.06217 4.52396   2
 -12   2  -2 1.35616 4.08325   2
  12   2   2 -6.3784 3.50672   7
  12  -2  -2 -2.0705 4.09558   1
  13  -2   2 322.667 12.1829   7
 -13  -2  -2 332.886 14.5406   1
  13   2  -2 314.040 13.3586   7
 -13   2   2 328.727 13.5424   7
  13  -2   2 341.416 15.1323   1
 -13   2   2 379.166 14.9561   2
  13   2  -2 346.267 14.6697   2
  13  -2  -2 341.128 12.3819   7
 -13   2  -2 369.558 14.7131   2
  13   2   2 337.823 13.6383   7
  13   2   2 359.684 14.8182   2
 -13  -2   2 331.135 14.8119   1
 -13   2  -2 346.771 13.7500   7
  13  -2  -2 320.994 15.0249   1
  14  -2   2 261.052 11.3890   7
 -14   2   2 258.323 12.7650   7
 -14  -2  -2 238.949 13.2612   1
  14   2  -2 270.771 12.9927   7
  14   2  -2 289.423 14.2940   2
  14  -2   2 270.540 14.1659   1
 -14   2   2 244.620 13.4618   2
 -14  -2   2 253.069 13.6495   1
  14  -2  -2 256.074 11.3650   7
 -14   2  -2 208.868 12.9012   2
  14   2   2 254.955 13.4560   2
  14   2   2 251.277 12.4988   7
 -14   2  -2 255.894 12.6154   7
  14  -2  -2 232.468 13.6601   1
 -15  -2  -2 169.418 12.3670   1
  15   2  -2 137.406 10.8084   7
 -15   2   2 157.547 11.4762   7
  15  -2   2 132.922 11.6043   1
  15   2  -2 162.461 12.4582   2
  15  -2   2 166.028 10.0555   7
  15  -2  -2 145.877 9.52740   7
  15   2   2 157.115 11.9799   2
 -15   2  -2 143.210 11.0907   7
  15   2   2 151.674 10.9833   7
  15  -2  -2 129.813 11.6549   1
 -15  -2   2 147.803 12.1151   1
  16  -2   2 27.5171 5.87349   7
 -16  -2  -2 27.5191 7.30812   1
 -16   2   2 30.8152 7.07778   7
  16  -2   2 43.2639 8.66336   1
  16   2  -2 32.5262 6.94140   7
  16  -2  -2 44.5700 8.49282   1
 -16   2  -2 29.3965 6.87082   7
  16  -2  -2 24.2881 5.69889   7
 -16  -2   2 29.3142 7.37992   1
  16   2   2 45.3485 7.60075   7
  17  -2   2 4.51442 6.44601   1
 -17  -2  -2 0.53895 5.86572   1
 -17   2   2 4.44497 5.67519   7
  17   2  -2 -5.6773 5.09485   7
  17  -2   2 5.63075 4.84517   7
  17  -2  -2 12.3459 6.65812   1
  17  -2  -2 2.60880 4.88000   7
 -17  -2   2 3.42444 6.14824   1
  17   2   2 1.22869 5.38416   7
 -17   2  -2 8.39325 5.69553   7
   0  -3   2 0.74523 2.93435   3
   0  -3  -2 0.94298 2.30002   5
   0  -3   2 0.45693 2.38903   6
   0  -3   2 -1.4649 2.50443   5
   0  -3  -2 -1.8748 2.65950   3
  -1  -3  -2 3.68604 2.71221   5
   1  -3   2 -2.0986 2.27317   5
   1  -3   2 -1.3845 2.19840   6
  -1  -3  -2 -0.5262 2.45400   6
  -1  -3  -2 -1.6489 2.70391   3
   1  -3   2 1.42646 2.92017   3
  -1  -3   2 3.09112 2.84803   3
   1  -3  -2 1.25172 2.68979   3
  -1  -3   2 -0.2954 2.40602   5
  -1  -3   2 -1.1203 2.37532   6
  -2   3   2 8.46168 1.52165   2
   2  -3   2 6.14124 3.13654   3
  -2  -3  -2 5.39055 3.18790   3
   2  -3   2 7.23672 2.72564   6
  -2  -3  -2 7.67592 2.69300   5
   2  -3   2 10.4974 2.78962   5
  -2  -3  -2 11.7841 2.92889   6
  -2   3  -2 6.66979 1.58102   2
   2  -3  -2 9.16967 2.89808   3
  -2  -3   2 6.38172 3.29450   3
  -2  -3   2 4.69528 2.59238   6
   3  -3   2 187.960 7.74543   6
   3  -3   2 194.774 5.91584   1
   3  -3   2 181.589 7.95794   3
  -3  -3  -2 188.161 7.35687   6
  -3   3   2 189.026 5.04624   4
  -3  -3  -2 182.968 8.51969   3
   3   3  -2 181.832 5.21505   2
  -3   3   2 180.593 5.10636   4
  -3   3   2 182.154 5.64336   2
  -3   3  -2 185.529 5.37681   4
  -3   3  -2 183.282 5.09704   4
  -3  -3   2 174.540 7.44194   6
  -3   3  -2 179.847 5.56811   2
   3   3   2 186.218 5.25716   2
   3  -3  -2 185.899 7.31985   3
  -3  -3   2 199.674 8.62812   3
   4  -3   2 675.292 16.9382   6
   4  -3   2 655.617 16.9071   3
  -4   3   2 658.168 14.4279   2
  -4  -3  -2 671.680 18.0466   3
  -4   3   2 663.926 14.5193   4
   4  -3   2 674.109 14.7512   1
  -4  -3  -2 681.803 14.4556   1
  -4  -3  -2 641.160 16.0318   6
   4   3  -2 679.721 14.1765   2
  -4   3  -2 666.409 14.0930   4
  -4   3  -2 705.881 14.6917   4
   4  -3  -2 682.408 14.9941   1
  -4  -3   2 663.126 14.6365   1
  -4  -3   2 666.328 17.6226   3
   4   3   2 646.063 13.7814   2
   4  -3  -2 671.427 15.8637   3
  -4   3  -2 646.784 14.2531   2
  -5  -3  -2 176.903 6.48668   1
   5   3  -2 171.828 6.44601   2
   5  -3   2 168.992 6.63927   1
  -5   3   2 156.441 6.48330   2
   5   3  -2 174.179 6.10234   4
  -5  -3  -2 177.188 8.96386   3
  -5  -3  -2 171.049 6.90302   6
  -5   3   2 180.780 6.69691   4
   5  -3   2 168.269 7.54805   6
  -5  -3   2 160.815 8.15371   3
  -5   3  -2 178.759 6.07928   4
   5   3   2 156.269 6.08957   2
   5  -3  -2 168.186 6.81425   3
  -5   3  -2 166.752 6.34768   2
   5  -3  -2 160.362 6.68892   1
  -5  -3   2 161.948 6.38365   1
  -5   3  -2 175.398 6.46880   4
   6   3  -2 -0.2535 2.32789   2
   6  -3   2 0.00221 2.47196   6
  -6  -3  -2 -1.8004 2.01618   1
  -6   3   2 -4.3404 2.12074   4
  -6  -3  -2 1.73924 3.33380   3
   6  -3   2 1.42303 2.41081   1
  -6   3   2 -0.1776 2.37868   2
   6  -3  -2 0.57417 2.44507   1
  -6  -3   2 -0.4442 2.40158   6
  -6  -3   2 -1.9674 2.86371   3
  -6   3  -2 -0.2799 2.23747   2
  -6  -3   2 -0.2377 2.28575   1
   6  -3  -2 -0.9289 2.61456   3
   6   3   2 -0.2683 2.28867   2
  -6   3  -2 -0.1599 2.20693   4
   7  -3   2 578.982 12.1381   4
  -7  -3  -2 599.500 15.1278   1
   7  -3   2 584.360 15.3936   1
  -7   3   2 573.654 15.5592   4
   7   3  -2 586.719 15.0559   2
  -7   3   2 574.688 15.1503   2
  -7  -3  -2 586.187 17.5966   3
   7  -3  -2 585.781 15.6511   1
   7   3   2 605.956 14.8782   2
  -7   3  -2 594.932 15.4477   4
  -7   3  -2 593.203 15.0066   2
  -7  -3   2 582.753 15.3352   1
   7  -3  -2 577.477 11.9062   4
  -7  -3   2 575.900 16.7571   3
  -7  -3   2 581.676 15.1356   6
   8  -3   2 4.88567 3.11969   1
   8   3  -2 -1.0232 2.81501   2
  -8  -3  -2 -1.0128 2.64436   1
   8  -3   2 1.16232 1.92545   4
  -8   3   2 0.78624 3.05704   2
  -8   3   2 0.15283 2.94919   4
  -8  -3  -2 0.21434 3.75939   3
  -8  -3   2 -3.9655 2.55354   1
  -8   3  -2 0.64184 2.91853   2
  -8  -3   2 6.23234 3.62581   3
   8   3   2 -0.0793 2.74605   2
   8  -3  -2 -3.1668 2.95179   1
  -8   3  -2 -0.1378 2.80312   4
   8  -3  -2 -2.6292 1.85258   4
   9  -3   2 238.119 10.3551   1
   9  -3   2 251.730 8.11403   4
  -9   3   2 249.274 10.4671   2
   9   3  -2 249.077 10.3785   2
  -9  -3  -2 238.153 11.4056   3
  -9  -3  -2 246.523 10.1698   1
   9   3   2 223.874 9.88890   2
  -9   3  -2 224.323 9.96301   2
   9  -3  -2 234.328 8.67884   4
  -9  -3   2 239.965 10.2099   1
   9  -3  -2 242.175 10.5901   1
  -9  -3   2 244.301 10.8240   3
  10   3  -2 198.285 9.92878   2
 -10  -3  -2 188.900 9.67755   1
  10  -3   2 182.778 9.79168   1
 -10   3   2 213.087 10.2808   2
 -10  -3  -2 180.678 10.5442   3
  10  -3  -2 193.676 10.4643   1
 -10  -3   2 188.813 9.53327   1
 -10   3  -2 183.190 9.72139   2
 -10  -3   2 200.085 10.4514   3
  10   3   2 192.327 9.82253   2
 -11  -3  -2 116.701 9.69773   3
  11   3  -2 110.570 8.80087   2
  11  -3   2 135.605 9.17183   1
 -11  -3  -2 123.097 9.02528   1
 -11   3   2 123.153 9.26909   2
  11   3   2 121.045 8.92000   2
 -11   3  -2 128.706 8.90048   2
 -11  -3   2 102.435 8.17673   1
  11  -3  -2 121.415 9.14245   1
 -11  -3   2 122.348 9.00156   3
 -12  -3  -2 244.088 12.7859   3
  12   3  -2 223.304 12.0443   2
 -12  -3  -2 238.164 11.7714   1
  12  -3   2 227.344 11.9216   1
 -12   3   2 213.985 11.7857   2
  12  -3  -2 206.194 11.9582   1
 -12   3  -2 231.784 11.7937   2
  12   3   2 199.887 11.5048   2
 -12  -3   2 217.126 11.8266   1
 -13   3   2 35.2870 6.36150   2
 -13  -3  -2 26.8895 5.93589   1
 -13   3   2 34.2712 6.32562   7
  13  -3   2 26.9110 6.26568   1
  13   3  -2 40.4576 6.88161   2
 -13  -3  -2 39.7718 6.98327   3
 -13   3  -2 21.5065 6.05522   2
 -13   3  -2 29.7577 6.01045   7
 -13  -3   2 33.1671 6.30215   1
  13   3   2 39.2070 6.63203   2
  13  -3  -2 17.6451 5.80691   1
  14   3  -2 61.8645 8.21923   2
  14  -3   2 92.0658 9.38202   1
 -14  -3  -2 89.3226 9.35841   1
 -14   3   2 88.1063 9.55530   2
 -14   3   2 83.4973 8.61527   7
  14   3   2 88.1091 8.71358   2
 -14  -3   2 78.8055 9.12928   1
 -14   3  -2 94.5257 9.24044   2
  14  -3  -2 80.1526 9.43533   1
 -14   3  -2 100.044 9.24787   7
  15  -3   2 9.18061 5.53205   1
  15   3  -2 4.03056 5.77468   2
 -15   3   2 1.55681 5.33613   2
 -15   3   2 -5.8033 4.67629   7
 -15  -3  -2 -0.6919 4.97612   1
 -15   3  -2 -0.5371 5.12243   2
  15  -3  -2 2.71403 5.37636   1
 -15  -3   2 -1.7555 4.98084   1
 -15   3  -2 8.31680 5.45396   7
  15   3   2 3.96951 5.47653   2
 -16  -3  -2 17.0843 6.52839   1
  16  -3   2 25.8850 7.20678   1
 -16   3   2 23.6757 6.93334   7
 -16   3   2 26.3094 7.16175   2
  16   3  -2 32.1107 7.56909   2
 -16   3  -2 25.0232 7.19575   2
  16   3   2 22.4245 6.93992   2
  16  -3  -2 21.0000 6.91039   1
 -16   3  -2 26.2866 7.13846   7
 -16  -3   2 23.3423 6.78891   1
   0  -4   2 9.71448 3.23002   6
   0  -4   2 8.48385 3.07835   5
   0  -4  -2 5.51543 2.98072   5
   0  -4   2 6.97894 3.49155   3
   0  -4  -2 8.18369 3.43825   3
  -1  -4  -2 133.495 7.95779   3
  -1  -4  -2 129.717 7.10778   5
   1  -4   2 131.509 7.19839   5
   1  -4   2 128.498 8.00310   3
   1  -4   2 151.220 7.53584   6
  -1  -4  -2 137.372 7.55179   6
  -1  -4   2 141.223 7.27535   5
   1  -4  -2 150.258 7.87633   3
  -1  -4   2 129.832 7.87200   3
  -1   4  -2 136.470 3.39833   2
  -1  -4   2 121.082 7.19619   6
   1  -4  -2 134.893 7.20732   5
  -2  -4  -2 14.7436 4.06376   3
   2  -4   2 5.13423 3.35274   3
   2  -4   2 9.43554 3.13685   6
  -2  -4  -2 10.9354 3.40231   5
  -2   4   2 6.97327 1.55051   2
   2   4  -2 7.72803 1.24997   2
   2  -4   2 7.53149 1.74604   1
   2  -4   2 3.29116 2.88569   5
  -2  -4  -2 7.19773 3.09762   6
  -2  -4   2 10.9902 3.36729   6
   2  -4  -2 9.04958 1.95029   1
  -2  -4   2 11.5769 3.83778   3
  -2   4  -2 10.3502 1.65481   2
   2  -4  -2 10.5190 3.43024   3
  -3   4   2 21.7147 1.73082   4
   3  -4   2 30.6680 4.82329   3
   3  -4   2 22.6589 2.62207   1
  -3  -4  -2 18.6172 3.70298   6
   3  -4   2 23.6805 4.07316   5
   3  -4   2 19.3046 3.80669   6
  -3  -4  -2 21.9625 2.33496   1
   3   4  -2 23.5137 2.23098   2
  -3  -4  -2 26.1865 4.79659   3
  -3   4  -2 18.9800 2.39533   2
  -3  -4   2 23.0701 2.57192   1
  -3  -4   2 21.8977 4.00193   6
   3  -4  -2 19.1113 3.95999   3
   3   4   2 20.3195 2.09202   2
   3  -4  -2 25.2948 2.89046   1
  -3  -4   2 16.5007 4.39872   3
  -3   4  -2 21.3526 1.90153   4
  -4  -4  -2 121.384 8.51595   3
  -4   4   2 112.512 5.18169   2
  -4  -4  -2 104.306 4.88202   1
   4   4  -2 113.433 4.88611   2
  -4  -4  -2 127.532 7.16735   6
   4  -4   2 109.234 5.33949   1
   4  -4   2 104.730 7.08843   6
   4  -4   2 127.005 7.87405   3
  -4  -4   2 112.114 5.13267   1
  -4   4  -2 114.105 4.60428   4
  -4   4  -2 104.415 5.17574   2
   4   4   2 109.096 4.77575   2
   4  -4  -2 116.583 5.47585   1
  -4  -4   2 124.385 7.16017   6
  -4  -4   2 127.570 8.11876   3
   4  -4  -2 110.525 6.72423   3
   5  -4   2 33.4655 4.96189   3
  -5  -4  -2 34.8339 3.56954   1
   5   4  -2 26.7622 3.28419   2
   5  -4   2 40.2140 5.05259   6
   5  -4   2 42.1015 4.00312   1
  -5   4   2 37.4820 3.86243   2
  -5  -4  -2 42.4336 6.08161   3
  -5  -4  -2 32.2707 4.39522   6
  -5  -4   2 39.3788 3.84258   1
   5  -4  -2 39.9672 4.06547   1
  -5  -4   2 30.8915 4.52286   6
   5   4   2 34.9227 3.37453   2
  -5  -4   2 32.0082 5.17605   3
  -5   4  -2 35.8013 3.63119   2
   5  -4  -2 34.9670 4.61778   3
   6  -4   2 80.3249 6.49692   6
   6   4  -2 89.3135 5.67920   2
  -6  -4  -2 86.1153 5.23566   1
  -6  -4  -2 83.4143 7.78430   3
   6  -4   2 95.8086 5.81097   1
  -6   4   2 78.0061 5.83357   2
  -6  -4   2 83.5883 7.53745   3
   6   4   2 91.2219 5.34744   2
   6  -4  -2 92.3235 6.02887   1
  -6   4  -2 98.4280 5.76642   2
  -6  -4   2 93.8218 5.79688   1
  -6  -4   2 86.5282 6.52586   6
   7   4  -2 565.555 14.7815   2
  -7  -4  -2 544.076 14.5394   1
   7  -4   2 532.011 14.8360   1
  -7  -4  -2 554.944 18.3957   3
  -7   4   2 547.741 14.8872   2
  -7  -4   2 574.123 14.9328   1
  -7   4  -2 554.698 14.6934   2
  -7  -4   2 538.910 15.8113   6
  -7  -4   2 555.520 17.7629   3
   7  -4  -2 541.231 15.1566   1
   7   4   2 529.589 14.2888   2
  -8  -4  -2 146.481 7.79132   1
  -8  -4  -2 138.369 10.1059   3
   8   4  -2 148.294 7.92164   2
   8  -4   2 140.531 8.12312   1
  -8   4   2 140.058 8.10565   2
  -8  -4   2 147.633 7.78610   1
   8   4   2 140.895 7.80362   2
  -8   4  -2 139.525 7.86795   2
   8  -4  -2 150.689 8.29338   1
  -8  -4   2 144.419 9.60133   3
  -9   4   2 102.539 7.93103   2
   9   4  -2 111.359 7.90233   2
  -9  -4  -2 113.788 7.49492   1
   9  -4   2 115.015 7.96772   1
  -9  -4  -2 102.156 9.38760   3
  -9  -4   2 107.223 7.47758   1
   9   4   2 102.424 7.43946   2
  -9  -4   2 107.891 9.19907   3
   9  -4  -2 98.0210 7.81565   1
  -9   4  -2 98.5677 7.58263   2
 -10   4   2 17.1221 4.71569   2
  10  -4   2 15.1099 4.62319   1
 -10  -4  -2 15.1858 4.70478   1
  10   4  -2 22.6982 4.94137   2
 -10  -4  -2 17.0388 5.76326   3
  10   4   2 19.5459 4.59281   2
 -10   4  -2 21.3888 4.94903   2
  10  -4  -2 22.0718 5.12431   1
 -10  -4   2 20.1383 5.50065   3
 -10  -4   2 12.5800 4.43383   1
 -11  -4  -2 7.86328 5.24618   3
 -11   4   2 7.38452 4.62009   2
  11   4  -2 -2.0715 3.94828   2
  11  -4   2 -1.8502 3.84966   1
 -11  -4  -2 1.78076 4.07700   1
 -11   4  -2 8.10548 4.35392   2
 -11  -4   2 -1.4660 3.91318   1
  11  -4  -2 1.46788 4.12085   1
 -11  -4   2 5.62302 5.12902   3
  11   4   2 1.88023 4.04433   2
  12   4  -2 358.634 14.8265   2
 -12   4   2 400.169 15.5786   2
 -12  -4  -2 380.710 16.7921   3
 -12  -4  -2 356.625 14.6766   1
  12  -4   2 350.139 15.1528   1
 -12   4  -2 378.132 15.2380   2
  12   4   2 371.794 14.9776   2
 -12  -4   2 373.669 15.0452   1
  12  -4  -2 395.682 15.8060   1
 -13  -4  -2 406.258 16.1376   1
  13  -4   2 357.141 16.0476   1
 -13  -4  -2 390.317 17.2827   3
  13   4  -2 399.600 16.2781   2
 -13   4   2 385.907 16.1163   2
  13   4   2 374.784 16.0719   2
 -13  -4   2 383.393 15.9898   1
 -13   4  -2 414.055 16.3306   2
  13  -4  -2 386.094 16.3201   1
 -14  -4  -2 10.1650 5.26544   1
  14   4  -2 2.43901 5.13981   2
  14  -4   2 1.92686 4.87798   1
 -14   4   2 7.69277 5.36989   2
  14  -4  -2 0.92005 5.28029   1
  14   4   2 -4.4399 4.51349   2
 -14   4  -2 2.11404 4.80056   2
 -14  -4   2 -1.3681 4.63896   1
  15   4  -2 747.321 24.3919   2
 -15  -4  -2 704.774 23.8297   1
 -15   4   2 775.051 24.5610   2
  15  -4   2 723.724 24.6150   1
 -15   4  -2 758.858 24.3920   2
 -15  -4   2 719.547 24.2379   1
  15  -4  -2 688.544 24.2148   1
  15   4   2 702.805 23.7335   2
   0  -5   2 -0.2561 3.64960   3
   0  -5   2 3.58673 3.33718   5
   0  -5   2 0.00990 3.05654   6
   0  -5  -2 3.21786 3.65582   5
   0  -5  -2 1.44115 3.66077   3
   1  -5   2 -3.5373 2.83090   6
   1  -5   2 -4.0112 3.10294   5
  -1  -5  -2 9.33004 4.24185   3
   1  -5   2 2.36151 4.08286   3
  -1  -5  -2 4.43005 3.57809   5
  -1   5  -2 0.60507 1.21485   2
   1  -5  -2 -2.8669 3.02852   5
   1  -5  -2 0.46443 3.40708   3
  -1  -5   2 -4.3309 3.84320   3
  -1  -5   2 0.49019 3.15699   6
  -1  -5   2 -4.0156 2.96489   5
   2  -5   2 3.82672 3.60566   5
  -2  -5  -2 -0.0670 3.35296   5
   2   5  -2 2.17599 1.27861   2
   2  -5   2 5.87242 3.45798   6
  -2   5   2 2.83339 1.62800   2
  -2  -5  -2 -4.3791 3.68111   3
   2  -5   2 -0.9243 3.63966   3
   2  -5  -2 5.73144 3.91852   3
  -2  -5   2 4.87582 3.50073   6
  -2   5  -2 2.02147 1.68618   2
   2  -5  -2 5.51440 3.76951   5
  -2  -5   2 -0.1898 3.91240   3
   3  -5   2 98.1683 7.78451   6
  -3  -5  -2 97.5723 8.68205   3
   3  -5   2 107.528 7.76436   5
   3  -5   2 121.999 8.73239   3
   3  -5   2 109.198 4.90429   1
  -3   5   2 114.236 4.82065   2
   3   5  -2 106.750 4.28308   2
  -3  -5   2 104.943 7.95423   6
   3  -5  -2 111.527 5.08442   1
   3  -5  -2 121.533 8.26369   5
  -3  -5   2 112.930 8.95440   3
   3   5   2 104.109 4.09977   2
   3  -5  -2 114.394 8.19756   3
  -3   5  -2 112.353 4.69084   2
   4  -5   2 343.926 13.4106   5
   4  -5   2 326.497 13.2254   6
  -4  -5  -2 334.512 14.5495   3
   4   5  -2 354.674 9.22496   2
  -4   5   2 343.475 9.65213   2
   4  -5   2 369.088 13.9597   3
   4  -5   2 351.095 9.64067   1
  -4  -5  -2 360.193 9.16821   1
   4  -5  -2 368.549 9.98458   1
   4   5   2 358.731 8.91175   2
  -4  -5   2 337.876 14.4259   3
   4  -5  -2 353.007 12.8475   3
  -4  -5   2 352.395 9.41796   1
  -4   5  -2 361.350 9.54143   2
  -4  -5   2 357.687 13.2650   6
   5   5  -2 119.552 5.99553   2
   5  -5   2 133.693 6.27313   1
  -5   5   2 124.020 6.24949   2
   5  -5   2 110.913 8.17194   6
  -5  -5  -2 124.830 5.78842   1
  -5  -5  -2 134.342 10.2885   3
   5  -5   2 122.626 9.00495   3
   5  -5  -2 128.477 8.19066   3
  -5  -5   2 113.583 9.26791   3
   5  -5  -2 123.907 6.32693   1
   5   5   2 121.230 5.68190   2
  -5  -5   2 130.248 6.14731   1
  -5  -5   2 112.087 8.23095   6
  -5   5  -2 127.372 6.08373   2
   6   5  -2 -1.4065 2.73409   2
  -6   5   2 3.83581 3.04931   2
   6  -5   2 2.73139 2.95926   1
   6  -5   2 -3.5576 4.06661   3
  -6  -5  -2 -1.6003 4.44257   3
  -6  -5  -2 -3.2220 2.51803   1
   6   5   2 4.24704 2.80948   2
  -6  -5   2 1.28471 2.72178   1
  -6  -5   2 3.47227 4.71801   3
  -6   5  -2 -6.0187 2.49598   2
   6  -5  -2 3.98846 3.06895   1
  -6  -5   2 -4.4129 3.28361   6
   7   5  -2 353.796 11.6714   2
  -7  -5  -2 356.912 15.8328   3
  -7   5   2 372.000 11.9903   2
  -7  -5  -2 368.262 11.5233   1
   7  -5   2 381.507 12.1131   1
  -7   5  -2 359.421 11.6491   2
   7  -5  -2 377.361 12.2016   1
  -7  -5   2 357.112 11.7097   1
  -7  -5   2 350.084 15.3868   3
   7   5   2 354.115 11.2973   2
   8   5  -2 -1.7439 3.34978   2
  -8  -5  -2 -1.9370 4.80629   3
   8  -5   2 3.79711 3.48498   1
  -8   5   2 -0.7739 3.47207   2
  -8  -5  -2 5.68849 3.35849   1
  -8  -5   2 3.09640 4.90558   3
   8   5   2 5.65418 3.38416   2
  -8  -5   2 -0.6639 3.29556   1
   8  -5  -2 -0.9772 3.33620   1
  -8   5  -2 0.04209 3.26950   2
  -9  -5  -2 170.107 8.88749   1
  -9  -5  -2 164.154 12.1557   3
   9  -5   2 144.680 9.26976   1
  -9   5   2 173.175 9.61016   2
   9   5  -2 159.103 9.38725   2
  -9   5  -2 160.905 9.02815   2
   9  -5  -2 179.113 9.63831   1
  -9  -5   2 166.628 9.12783   1
  -9  -5   2 189.747 11.9759   3
   9   5   2 164.981 9.17818   2
 -10   5   2 110.223 8.82512   2
 -10  -5  -2 121.570 11.1097   3
  10  -5   2 120.488 9.07198   1
  10   5  -2 119.160 8.92581   2
 -10  -5  -2 129.463 8.51670   1
 -10  -5   2 115.771 10.6911   3
 -10  -5   2 119.981 8.56754   1
 -10   5  -2 138.859 9.16497   2
  10   5   2 120.006 9.01775   2
  10  -5  -2 121.208 9.11062   1
 -11  -5  -2 99.8491 8.71288   1
  11   5  -2 108.094 8.79033   2
 -11   5   2 95.2982 8.62860   2
 -11  -5  -2 90.7330 10.3211   3
  11  -5   2 98.2152 8.91838   1
 -11   5  -2 100.145 8.66592   2
  11  -5  -2 98.7477 9.16455   1
 -11  -5   2 111.949 10.4073   3
 -11  -5   2 87.7512 8.35661   1
  11   5   2 109.465 8.67368   2
 -12  -5  -2 121.485 11.8302   3
 -12   5   2 143.939 10.5150   2
  12   5  -2 140.048 10.5265   2
 -12  -5  -2 134.708 9.89680   1
  12  -5   2 142.913 10.4995   1
  12   5   2 147.548 10.6150   2
 -12  -5   2 150.389 10.5159   1
  12  -5  -2 126.470 10.5218   1
 -12   5  -2 149.505 10.4890   2
 -12  -5   2 124.118 11.3402   3
 -13   5   2 24.5716 6.17207   2
  13   5  -2 25.7110 6.51984   2
  13  -5   2 32.4929 6.61200   1
 -13  -5  -2 27.9287 6.15377   1
 -13  -5  -2 35.3796 7.94464   3
 -13   5  -2 22.4990 6.13616   2
  13   5   2 24.0164 6.18437   2
 -13  -5   2 32.2396 6.48566   1
  13  -5  -2 32.5303 6.70343   1
 -14   5   2 63.2190 8.57806   2
 -14  -5  -2 83.6225 8.98895   1
  14   5  -2 76.6356 9.20620   2
  14  -5   2 78.9161 9.31531   1
 -14  -5  -2 80.2619 10.6771   3
  14  -5  -2 63.0986 8.78280   1
  14   5   2 72.1660 8.72569   2
 -14   5  -2 65.0629 8.55634   2
 -14  -5   2 70.6018 8.82679   1
   0  -6   2 185.617 10.6138   5
   0  -6   2 195.357 12.0191   3
   0  -6  -2 167.460 10.3607   5
   0  -6  -2 224.330 12.0099   3
   1  -6   2 23.4634 5.44313   5
  -1  -6  -2 21.6852 5.15811   5
   1  -6   2 28.6629 6.34045   3
  -1  -6  -2 26.4383 6.24170   3
  -1  -6   2 27.0444 6.33476   3
   1  -6  -2 27.4048 5.70077   5
  -1  -6   2 13.9555 4.74231   5
  -1   6  -2 26.3656 2.20500   2
   1  -6  -2 23.8236 5.77827   3
   2  -6   2 735.106 22.5895   3
  -2  -6  -2 686.939 22.7606   3
   2  -6   2 723.527 21.5823   5
   2   6  -2 724.650 13.5885   2
  -2  -6  -2 688.657 20.9718   5
   2  -6  -2 704.214 21.4336   5
  -2  -6   2 690.684 22.8099   3
  -2   6  -2 706.296 14.1933   2
   2  -6  -2 698.634 21.5213   3
   3   6  -2 605.006 12.7592   2
   3  -6   2 591.215 19.4299   5
  -3  -6  -2 582.699 20.7515   3
   3  -6   2 588.996 20.0074   3
  -3   6   2 611.019 13.2584   2
   3  -6  -2 589.139 19.2294   3
   3   6   2 609.535 12.2652   2
  -3   6  -2 606.045 13.2953   2
   3  -6  -2 588.539 19.4587   5
  -3  -6   2 586.203 20.8205   3
   4   6  -2 62.9081 4.80114   2
  -4   6   2 58.3791 4.50513   2
   4  -6   2 62.4782 7.92987   3
  -4  -6  -2 51.2103 7.97492   3
   4  -6   2 56.6527 7.41309   5
   4  -6  -2 61.8589 7.32378   5
  -4   6  -2 66.8411 4.92868   2
  -4  -6   2 50.9492 7.60510   3
   4  -6  -2 54.1427 7.13373   3
   4   6   2 67.1176 4.23465   2
   5   6  -2 182.447 7.55256   2
  -5   6   2 182.523 7.75508   2
   5  -6   2 198.742 11.5392   5
  -5  -6  -2 176.934 12.0817   3
   5  -6   2 180.148 11.7955   3
  -5  -6   2 187.675 12.3872   3
   5  -6  -2 197.219 11.5993   5
  -5   6  -2 181.882 7.70583   2
   5   6   2 189.687 7.11213   2
   5  -6  -2 201.291 11.2591   3
   6  -6   2 453.799 17.2913   5
   6  -6   2 474.384 13.2632   1
   6  -6   2 449.899 17.6524   3
  -6  -6  -2 453.928 18.9786   3
   6   6  -2 432.502 12.7623   2
  -6   6   2 445.626 13.0117   2
   6  -6  -2 461.870 13.3943   1
  -6  -6   2 407.911 18.1551   3
  -6   6  -2 449.879 12.8888   2
   6   6   2 439.264 12.2672   2
   7   6  -2 101.239 7.22001   2
  -7   6   2 114.319 7.64402   2
  -7  -6  -2 110.458 11.3048   3
   7  -6   2 121.657 7.74295   1
   7   6   2 113.506 7.02429   2
  -7  -6   2 93.9214 10.0873   3
   7  -6  -2 109.902 7.67444   1
  -7   6  -2 97.3452 7.04809   2
   8   6  -2 97.7417 7.45196   2
  -8   6   2 91.1510 7.37291   2
  -8  -6  -2 104.024 7.25588   1
   8  -6   2 101.884 7.75194   1
  -8  -6  -2 87.9329 10.4086   3
  -8   6  -2 94.8436 7.62635   2
   8   6   2 94.0198 7.40588   2
   8  -6  -2 105.339 8.01509   1
  -8  -6   2 104.959 10.8201   3
  -8  -6   2 95.2942 7.47941   1
  -9  -6  -2 19.9117 7.08917   3
   9   6  -2 21.9954 4.98591   2
   9  -6   2 11.1999 4.52224   1
  -9  -6  -2 12.3662 4.37061   1
  -9   6   2 14.3307 4.81389   2
   9   6   2 22.2559 4.94914   2
   9  -6  -2 22.5320 5.09012   1
  -9   6  -2 28.8885 5.25882   2
  -9  -6   2 27.5152 7.31238   3
  -9  -6   2 19.9344 4.97141   1
 -10   6   2 113.084 9.01962   2
 -10  -6  -2 100.850 11.2784   3
 -10  -6  -2 116.483 8.54779   1
  10   6  -2 103.110 8.40748   2
  10  -6   2 111.675 8.92033   1
  10  -6  -2 109.556 8.96134   1
 -10  -6   2 102.276 11.2171   3
 -10   6  -2 93.3595 8.31464   2
  10   6   2 107.654 8.47924   2
 -10  -6   2 108.108 8.65782   1
  11  -6   2 397.888 15.8168   1
 -11   6   2 378.209 15.3109   2
 -11  -6  -2 411.226 15.0846   1
  11   6  -2 405.344 15.2751   2
 -11  -6  -2 401.052 19.5311   3
 -11   6  -2 380.954 15.2063   2
 -11  -6   2 403.050 15.2581   1
 -11  -6   2 396.077 18.8096   3
  11  -6  -2 437.129 16.1177   1
  11   6   2 401.376 15.2783   2
 -12  -6  -2 -3.0245 5.83474   3
  12   6  -2 -5.0397 4.68078   2
 -12  -6  -2 -7.1546 4.33022   1
  12  -6   2 -2.2704 4.85234   1
 -12   6   2 -7.2298 4.09279   2
 -12  -6   2 -5.7023 5.60145   3
 -12   6  -2 -3.2788 4.36668   2
 -12  -6   2 2.21713 4.96767   1
  12   6   2 -3.6500 4.58446   2
  12  -6  -2 2.48659 5.01125   1
   0  -7  -2 4.98278 5.55955   3
   0  -7  -2 -3.9871 4.05962   5
   0  -7   2 -0.6491 4.46868   5
   0  -7   2 0.37092 5.68942   3
  -1  -7  -2 -3.5389 4.51532   5
   1  -7   2 3.20412 4.66534   5
  -1  -7  -2 -5.2291 5.09763   3
   1  -7   2 6.26918 5.81417   3
   1  -7  -2 2.00030 4.79124   3
  -1  -7   2 -4.7969 5.36179   3
   1  -7  -2 -5.1457 4.33746   5
  -2  -7  -2 4.09595 5.38078   3
   2  -7   2 -1.0996 5.05361   3
   2  -7   2 8.18518 5.16088   5
   2  -7  -2 -1.4252 5.14492   3
  -2  -7   2 4.15783 5.73717   3
   2  -7  -2 1.36621 5.07211   5
   3  -7   2 41.7080 7.67908   3
   3  -7   2 45.0090 7.68268   5
  -3   7   2 52.4258 4.05055   2
  -3  -7  -2 57.1688 8.95886   3
   3  -7  -2 65.6258 8.34724   3
  -3  -7   2 43.2716 8.22197   3
  -3   7  -2 56.7587 4.18063   2
   3  -7  -2 56.0134 8.15476   5
   4  -7   2 200.722 12.9448   5
   4   7  -2 239.048 8.02894   2
  -4  -7  -2 245.486 15.2838   3
  -4   7   2 232.436 8.21574   2
   4  -7   2 253.280 14.5462   3
   4   7   2 237.292 7.56127   2
   4  -7  -2 234.756 13.4599   5
   4  -7  -2 238.028 13.4382   3
  -4  -7   2 224.896 14.8545   3
  -4   7  -2 229.702 8.18734   2
   5  -7   2 68.0158 9.14280   3
   5  -7   2 69.5816 9.08007   5
  -5   7   2 75.9262 5.68316   2
  -5  -7  -2 64.2709 9.74981   3
   5   7  -2 62.2490 5.28295   2
   5   7   2 70.8316 5.57157   2
   5  -7  -2 65.5834 8.49897   5
  -5  -7   2 74.2302 9.93331   3
  -5   7  -2 71.6744 5.52582   2
   6  -7   2 2.09236 5.29334   5
  -6  -7  -2 5.67333 6.29145   3
   6  -7   2 3.56943 6.00273   3
   6   7  -2 1.39185 3.23680   2
  -6   7   2 0.57881 3.37364   2
  -6   7  -2 -2.3054 3.24138   2
  -6  -7   2 -2.5917 5.40344   3
   6  -7  -2 2.48351 5.22064   5
   6   7   2 0.65702 3.17245   2
  -7   7   2 243.127 10.5265   2
  -7  -7  -2 281.855 16.9145   3
   7  -7   2 251.270 14.3957   5
   7   7  -2 255.829 10.4633   2
  -7   7  -2 253.551 10.4371   2
   7  -7  -2 239.742 14.3340   5
   7   7   2 265.961 10.0994   2
  -7  -7   2 213.394 14.5888   3
  -8   7   2 2.23874 3.89087   2
  -8  -7  -2 2.25444 6.39920   3
   8   7  -2 -1.7085 3.88941   2
   8  -7   2 7.81802 5.78299   5
  -8   7  -2 -0.4957 3.73122   2
   8   7   2 5.67708 3.93517   2
  -8  -7   2 -4.2513 5.75466   3
   9  -7   2 117.217 11.8759   5
  -9   7   2 121.449 9.05727   2
   9  -7   2 120.627 9.42926   1
  -9  -7  -2 88.0481 11.5905   3
   9   7  -2 123.712 8.92819   2
  -9  -7   2 101.330 11.8751   3
  -9   7  -2 94.0544 8.02938   2
   9   7   2 105.454 8.27776   2
  10   7  -2 85.8464 7.97488   2
  10  -7   2 91.0918 8.55709   1
 -10  -7  -2 59.6334 10.3198   3
 -10   7   2 79.0069 7.87476   2
  10  -7   2 74.9517 10.1824   5
 -10   7  -2 97.9145 8.52397   2
 -10  -7   2 75.2760 10.6716   3
  10   7   2 86.3422 7.96598   2
  10  -7  -2 103.245 8.95253   1
   0  -8  -2 7.61462 5.82043   5
   0  -8   2 12.9558 6.99717   3
   0  -8  -2 4.52007 6.25986   3
   1  -8   2 61.7304 9.46082   3
  -1  -8  -2 45.1945 9.00308   3
   1  -8   2 37.8763 7.49010   5
   1  -8  -2 35.7579 7.34416   5
   1  -8  -2 52.0109 8.98107   3
  -1  -8   2 41.5728 8.73020   3
   2  -8   2 -3.5377 5.61578   3
  -2  -8  -2 -14.053 5.56142   3
   2  -8   2 1.55140 5.34673   5
   2  -8  -2 5.39152 5.60956   5
   2  -8  -2 -7.1576 5.46893   3
  -2  -8   2 -8.4422 5.82416   3
   3  -8   2 5.41022 6.39392   3
  -3  -8  -2 5.40692 6.92366   3
   3  -8   2 -9.8674 4.70709   5
   3  -8  -2 8.05196 5.82808   5
  -3  -8   2 -0.0281 6.55724   3
   3  -8  -2 -5.6366 5.72874   3
   4  -8   2 45.9723 8.34745   5
  -4  -8  -2 31.6664 8.92670   3
   4  -8   2 34.6952 8.40712   3
  -4  -8   2 47.8008 9.44203   3
  -4   8  -2 32.7123 4.29937   2
   4  -8  -2 38.5532 8.07922   5
  -5  -8  -2 11.0066 7.37441   3
  -5   8   2 6.89563 3.49125   2
   5  -8   2 5.48201 6.34383   5
   5  -8   2 7.36018 6.69210   3
  -5   8  -2 8.17668 3.49387   2
  -5  -8   2 1.06266 6.40780   3
   5  -8  -2 6.93370 6.23774   5
   6  -8   2 38.3178 8.37249   5
  -6  -8  -2 54.1997 10.1174   3
  -6   8   2 51.3203 5.42164   2
   6   8  -2 49.2416 5.25916   2
  -6   8  -2 44.5299 5.22639   2
  -6  -8   2 30.8740 8.64256   3
   6  -8  -2 36.4380 8.10044   5
  -7   8   2 184.651 9.38711   2
  -7  -8  -2 193.656 16.0057   3
   7   8  -2 180.313 9.05201   2
   7  -8   2 161.016 13.3127   5
   7   8   2 178.472 8.52856   2
  -7  -8   2 134.971 14.1091   3
   7  -8  -2 179.575 13.8943   5
  -7   8  -2 167.388 9.25196   2
   0   0  -3 -3.7545 1.05524   4
   0   0   3 -5.7203 0.91766   4
   1   0  -3 -0.2613 1.23783   4
  -1   0   3 0.18715 1.14121   4
  -1   0  -3 1.19877 1.15529   4
   1   0   3 0.18856 1.03929   4
  -2   0  -3 138.276 4.45215   4
  -2   0   3 144.728 4.92600   4
   2   0  -3 131.954 4.87531   4
  -3   0  -3 11.7514 2.10079   4
  -3   0   3 16.1628 2.48420   4
   3   0   3 12.9528 2.11934   4
   3   0  -3 13.2899 2.34588   4
   4   0   3 245.947 7.21278   4
  -4   0   3 239.759 7.62360   4
   4   0  -3 226.005 7.46147   4
  -5   0   3 16.5050 2.82606   4
   5   0  -3 25.5748 3.06355   4
   5   0   3 19.2011 2.72480   4
   6   0   3 327.037 9.50086   4
  -6   0   3 323.743 9.95544   4
   6   0   3 319.873 9.58382   4
   6   0  -3 315.386 9.85032   4
   7   0   3 130.079 6.45952   2
  -7   0   3 125.307 6.12402   7
   7   0   3 115.538 6.18625   4
  -7   0   3 127.190 6.52917   4
   7   0  -3 102.209 6.46402   1
   7   0  -3 128.103 6.29312   7
   7   0  -3 123.768 6.57837   2
  -7   0  -3 123.157 5.76271   7
   7   0   3 124.522 6.25757   4
   7   0  -3 128.362 6.56651   4
  -7   0  -3 127.264 6.61776   1
   7   0   3 123.325 5.94232   7
  -7   0   3 110.018 6.34568   1
   8   0   3 94.8537 6.15589   2
   8   0   3 84.3192 5.87998   4
   8   0  -3 95.3583 6.04203   7
   8   0  -3 99.6632 6.32749   2
  -8   0   3 88.4509 5.81089   7
  -8   0  -3 86.7984 5.49183   7
   8   0   3 90.8195 6.27733   1
   8   0   3 96.0692 5.84153   7
  -8   0  -3 92.2024 6.31053   1
  -8   0   3 88.4031 6.28332   1
  -8   0  -3 98.2126 6.17193   2
   8   0  -3 99.3270 6.72718   1
  -8   0   3 93.9517 6.25637   2
  -8   0   3 91.2865 6.29900   4
   9   0  -3 9.78363 3.78001   1
  -9   0  -3 4.40898 2.88947   2
  -9   0   3 6.14576 3.33221   2
  -9   0  -3 4.72984 2.80714   7
   9   0  -3 3.39887 3.12648   2
  -9   0  -3 2.57262 3.06441   1
  -9   0   3 3.94793 3.40926   1
   9   0   3 8.31325 3.20150   2
  -9   0   3 6.73974 3.06293   7
   9   0   3 6.94055 2.98516   7
   9   0   3 3.33812 3.05079   1
   9   0  -3 1.16664 2.90038   7
 -10   0  -3 761.432 20.3796   1
  10   0  -3 800.635 20.8719   1
  10   0   3 795.183 19.6163   2
  10   0   3 755.427 18.4726   7
 -10   0  -3 724.796 18.2582   7
 -10   0   3 763.979 19.7109   2
  10   0   3 739.101 20.3086   1
 -10   0   3 756.301 18.6962   7
  10   0  -3 759.968 18.9626   7
 -10   0   3 779.260 20.6944   1
  10   0  -3 784.030 20.1050   2
 -10   0  -3 755.796 19.4303   2
 -11   0   3 535.526 17.0108   1
  11   0  -3 528.887 16.6709   2
 -11   0  -3 519.489 14.8062   7
  11   0  -3 512.846 17.0754   1
 -11   0   3 541.300 15.3672   7
  11   0   3 510.735 15.1966   7
 -11   0  -3 582.926 17.3556   1
  11   0   3 521.619 16.9841   1
  11   0  -3 497.675 15.4928   7
  11   0   3 553.884 16.3930   2
 -12   0  -3 208.332 9.94483   7
 -12   0   3 203.937 10.1212   7
 -12   0   3 211.672 11.2503   1
  12   0  -3 200.319 10.1245   7
  12   0   3 204.522 10.0263   7
  12   0  -3 197.157 11.5460   1
  12   0   3 214.242 11.4277   1
 -12   0  -3 222.417 11.2131   1
 -13   0  -3 70.9489 7.01720   7
 -13   0  -3 62.8654 7.91083   1
  13   0  -3 78.2548 8.77796   1
  13   0   3 78.3858 8.45431   1
 -13   0   3 82.4173 8.82332   1
  13   0  -3 71.0891 7.33924   7
  13   0   3 64.4216 6.90330   7
 -13   0   3 81.6238 7.51213   7
 -14   0  -3 3.11704 4.28939   7
 -14   0  -3 8.85406 5.35816   1
  14   0   3 -2.5550 4.79032   1
  14   0   3 3.56937 4.46327   7
  14   0  -3 -3.6536 4.12008   7
 -14   0   3 10.7960 5.22405   1
  14   0  -3 7.71064 5.36045   1
 -14   0   3 6.65553 4.59082   7
 -15   0  -3 31.2996 7.10370   1
 -15   0   3 21.9715 6.77761   1
  15   0   3 28.6383 6.74937   1
  15   0  -3 33.8138 7.48297   1
 -15   0  -3 31.9734 5.97251   7
  15   0  -3 21.1747 5.74783   7
  15   0   3 30.1537 6.09467   7
 -15   0   3 32.0224 6.17169   7
 -16   0   3 33.4350 6.34255   7
  16   0   3 43.1155 7.05428   7
 -16   0  -3 33.5357 7.69318   1
  16   0  -3 35.7968 6.57665   7
 -16   0   3 33.1606 7.55687   1
 -17   0  -3 27.7156 7.80673   1
  17   0   3 36.3022 7.04118   7
 -17   0   3 27.9512 7.80941   1
  17   0  -3 36.1988 6.99762   7
 -17   0   3 29.2614 6.52520   7
   0   1   3 788.236 14.5744   4
   0  -1  -3 776.298 14.1685   4
   0   1  -3 782.018 14.8842   4
   0  -1   3 795.765 14.5890   4
  -1   1   3 163.801 4.35274   4
   1   1  -3 159.180 4.66834   4
   1  -1   3 159.890 4.24854   4
  -1  -1   3 167.489 4.33005   4
  -1   1  -3 164.011 4.50616   4
   1   1   3 166.329 4.28735   4
   1  -1  -3 166.064 4.00556   4
   2   1  -3 28.9434 2.42983   4
   2  -1   3 36.5612 2.72988   4
  -2   1   3 31.1156 2.46914   4
   2  -1   3 38.7441 2.72058   4
  -2   1  -3 35.5853 2.77471   4
   2   1   3 34.5417 2.62985   4
   2  -1  -3 34.1627 2.71178   4
  -2  -1   3 33.6680 2.80192   4
   3  -1   3 138.353 4.97125   4
   3  -1   3 147.311 4.78284   4
   3   1  -3 126.651 5.08521   4
  -3   1   3 131.498 5.35602   4
  -3   1  -3 142.834 4.88755   4
   3  -1  -3 136.361 5.02167   4
  -3  -1   3 138.287 4.89719   4
  -4   1   3 642.581 15.0890   4
   4  -1   3 667.723 14.6275   4
   4  -1   3 699.805 14.3571   6
   4   1  -3 638.374 14.8290   4
   4  -1   3 705.990 14.5280   4
   4  -1  -3 684.918 14.9509   4
  -4   1  -3 710.073 14.7850   4
   4   1   3 678.252 13.4621   6
  -4  -1   3 685.427 14.6166   4
   5   1  -3 26.1242 3.19669   4
   5  -1   3 28.1340 2.97927   4
  -5   1   3 23.4207 3.28793   4
   5   1  -3 31.4129 3.38962   2
   5  -1   3 26.1746 2.82925   4
   5  -1   3 26.8597 2.44261   6
   5   1   3 28.2203 3.19131   2
  -5  -1   3 21.4989 2.83324   4
  -5   1  -3 26.8901 2.92124   4
   5  -1  -3 18.6670 2.96423   4
  -6  -1  -3 74.8544 5.13952   1
   6  -1   3 78.7501 5.00772   4
  -6   1   3 79.6822 5.54236   4
   6   1  -3 68.6275 5.04339   4
   6  -1   3 81.2511 4.80905   4
   6  -1   3 82.5485 5.26046   1
   6   1  -3 82.6289 5.54924   2
   6  -1   3 84.1875 3.69424   6
  -6   1   3 78.9029 5.32667   2
   6   1   3 79.9592 5.14621   2
   6  -1  -3 78.0568 5.53712   1
  -6   1  -3 80.5102 5.07162   2
  -6  -1   3 74.6615 5.41465   1
  -6  -1   3 84.2344 5.08939   4
   6  -1  -3 83.8011 5.31574   4
  -7   1   3 7.07468 2.77412   2
   7   1  -3 3.14871 2.66695   2
   7  -1   3 6.86320 2.35241   4
   7  -1   3 5.67904 2.59170   4
   7  -1   3 4.58240 2.41548   7
  -7  -1  -3 2.44210 2.60651   1
   7  -1   3 8.96729 3.02538   1
  -7   1   3 5.36609 2.83663   4
  -7  -1   3 6.08587 2.45003   7
  -7  -1   3 13.2838 3.27878   1
   7  -1  -3 12.4356 2.93282   7
   7   1   3 7.93286 2.83687   2
   7  -1  -3 7.55205 2.69301   4
  -7   1  -3 3.62507 2.58178   2
  -7   1  -3 9.55071 3.00084   1
  -7  -1   3 6.81631 2.45349   4
   7  -1  -3 3.99381 2.94162   1
   8  -1   3 668.109 16.9666   4
  -8  -1  -3 690.022 17.8132   1
   8   1  -3 710.610 17.6416   2
   8   1  -3 687.122 16.6783   7
   8  -1   3 697.197 17.3400   4
   8  -1   3 688.294 17.8283   1
  -8   1   3 690.360 16.7040   7
   8   1  -3 677.736 17.6621   1
  -8   1   3 646.809 17.6651   4
  -8   1   3 648.208 17.6999   1
   8  -1   3 716.801 15.9153   7
  -8   1   3 702.104 17.5383   2
   8   1   3 708.945 17.6326   1
  -8   1  -3 686.200 16.4381   7
  -8   1  -3 678.666 16.9939   2
   8  -1  -3 718.701 17.7101   4
  -8  -1   3 706.665 16.3987   3
   8   1   3 716.441 17.2832   2
   8   1   3 719.118 16.4059   7
   8  -1  -3 707.119 18.2118   1
  -8  -1   3 740.885 18.2160   1
   8  -1  -3 714.312 16.1709   7
  -8  -1   3 703.826 15.9464   7
  -8   1  -3 698.690 17.7196   1
  -9  -1  -3 105.102 7.05265   1
   9   1  -3 111.479 7.34352   1
  -9   1   3 102.064 7.35512   1
   9  -1   3 105.402 6.81506   4
  -9   1   3 107.119 6.87516   7
   9  -1   3 107.913 6.33100   7
   9  -1   3 104.904 7.20376   1
   9   1  -3 111.798 6.91139   7
  -9   1   3 113.316 7.40556   2
   9   1  -3 106.657 7.21371   2
  -9   1  -3 94.2078 6.37033   7
  -9   1  -3 108.628 6.75286   2
  -9  -1   3 106.832 6.28401   7
   9   1   3 107.376 6.90358   2
  -9  -1   3 108.020 7.05312   1
   9   1   3 118.256 7.38975   1
   9  -1  -3 103.437 7.41734   1
   9  -1  -3 111.596 7.08743   4
  -9   1  -3 114.702 7.25492   1
   9  -1  -3 96.6383 6.29989   7
   9   1   3 100.084 6.51296   7
  10  -1   3 -1.0885 2.80736   7
  10   1  -3 2.48961 3.45254   7
 -10  -1  -3 7.24756 3.57114   1
  10   1  -3 -0.9064 3.52416   1
 -10   1   3 6.34639 3.86745   1
  10  -1   3 0.68379 3.47700   1
 -10   1   3 2.37943 3.47436   2
  10   1  -3 4.80859 3.72363   2
 -10   1   3 4.43514 3.50758   7
 -10   1  -3 6.37183 3.29425   2
 -10   1  -3 4.45663 3.29166   7
  10  -1  -3 2.76808 3.07712   7
  10   1   3 2.71197 3.29970   2
 -10  -1   3 4.38671 3.07441   7
  10  -1  -3 4.28798 3.74824   1
 -10  -1   3 9.45771 3.89479   1
 -10   1  -3 5.32237 3.70121   1
  10   1   3 8.12554 3.44367   7
  10   1   3 9.31052 3.98078   1
  11  -1   3 56.4544 5.50164   7
  11   1  -3 59.7888 6.83630   1
 -11   1   3 38.0709 5.60640   2
  11   1  -3 50.5095 6.11145   2
 -11  -1  -3 47.9787 6.10883   1
  11  -1   3 48.6161 6.30519   1
 -11   1   3 48.1359 5.92076   7
  11   1  -3 43.2262 5.53611   7
 -11   1   3 54.1155 6.56264   1
  11  -1  -3 46.9421 5.32173   7
  11   1   3 49.0673 5.83692   7
 -11   1  -3 49.5558 6.26239   1
  11  -1  -3 42.4764 6.03285   1
  11   1   3 46.5534 6.34494   1
 -11  -1   3 45.7309 6.11377   1
 -11  -1   3 44.5963 5.05715   7
  11   1   3 60.3104 6.44508   2
 -11   1  -3 41.4408 5.47192   7
 -11   1  -3 49.5089 5.84491   2
  12  -1   3 182.559 9.29547   7
  12   1  -3 190.878 9.97701   7
 -12   1   3 171.991 9.74923   7
 -12   1   3 206.385 10.9226   2
 -12   1   3 194.385 11.0166   1
 -12  -1  -3 198.820 11.0570   1
  12   1  -3 192.489 10.8181   2
  12  -1   3 186.899 11.0800   1
 -12   1  -3 173.901 10.7191   1
  12   1   3 176.201 10.3134   2
  12  -1  -3 191.237 10.9555   1
 -12  -1   3 205.289 11.2563   1
  12   1   3 185.932 9.94218   7
 -12   1  -3 188.189 9.70049   7
 -12   1  -3 184.412 10.3379   2
  12  -1  -3 178.444 9.45195   7
 -12  -1   3 193.211 9.31447   7
 -13  -1  -3 125.644 10.1957   1
 -13   1   3 133.621 10.4526   1
  13  -1   3 139.495 9.21960   7
 -13   1   3 120.824 9.34102   7
  13  -1   3 125.521 10.2969   1
  13   1  -3 143.896 9.59905   7
  13   1  -3 149.024 10.4147   2
 -13   1  -3 117.215 8.96069   7
  13  -1  -3 127.164 9.00125   7
 -13  -1   3 157.210 9.08451   7
 -13   1  -3 132.305 10.2611   1
  13  -1  -3 123.465 10.6601   1
 -13  -1   3 124.533 9.95127   1
  13   1   3 121.848 9.57536   2
  13   1   3 127.885 9.47927   7
 -14   1   3 9.85776 5.21625   7
 -14   1   3 19.4838 6.46874   1
 -14  -1  -3 22.5036 6.10134   1
  14   1  -3 17.4951 5.36220   7
  14  -1   3 20.3120 5.26072   7
  14  -1   3 24.7744 6.47476   1
  14   1   3 16.7330 5.37265   7
  14  -1  -3 18.2891 6.10896   1
  14  -1  -3 20.8413 5.39329   7
 -14   1  -3 23.5428 5.58902   7
 -14  -1   3 16.8995 4.84151   7
 -14  -1   3 29.0228 6.63281   1
 -14   1  -3 30.9890 6.71961   1
 -15  -1  -3 38.5378 7.34674   1
  15  -1   3 63.2947 8.69516   1
  15  -1   3 49.8872 6.74555   7
  15   1  -3 30.1914 6.11874   7
 -15   1   3 31.7626 6.57042   7
  15   1   3 27.9936 6.26458   7
 -15  -1   3 38.6627 5.91146   7
 -15   1  -3 37.4413 6.51701   7
  15  -1  -3 40.9061 7.88479   1
 -15  -1   3 58.7535 8.65326   1
  15  -1  -3 41.0388 6.45106   7
 -16   1   3 3.22130 5.29686   7
 -16  -1  -3 5.92119 6.06973   1
  16  -1   3 13.9494 5.47553   7
  16   1  -3 14.0954 5.82340   7
  16  -1   3 5.31560 5.86747   1
 -16  -1   3 20.8367 5.36157   7
 -16  -1   3 -3.2984 5.37681   1
  16  -1  -3 15.3595 6.72492   1
 -16   1  -3 18.6915 5.94997   7
  16   1   3 11.6105 5.60816   7
  16  -1  -3 7.59453 4.92808   7
  17   1  -3 -1.1529 5.03444   7
 -17  -1  -3 6.02528 5.95752   1
  17  -1   3 4.88798 6.51306   1
 -17   1   3 2.41575 5.24714   7
  17  -1   3 -1.0295 4.84744   7
  17  -1  -3 -7.9906 4.55271   7
 -17   1  -3 1.99871 5.23622   7
  17   1   3 9.40601 5.79823   7
 -17  -1   3 4.72075 6.33602   1
  17  -1  -3 3.36953 6.41145   1
 -17  -1   3 1.33036 4.42516   7
   0  -2   3 -0.9521 2.16713   5
   0   2   3 -3.1149 2.25103   6
  -1  -2  -3 1027.57 20.8731   5
   1   2  -3 1021.11 18.4094   4
  -1   2   3 1022.63 21.9725   6
  -1   2   3 1013.87 18.2189   4
   1  -2   3 1060.52 21.0696   5
   1   2   3 1014.22 21.6388   6
  -1   2  -3 1021.98 18.6545   4
  -1   2  -3 1028.85 18.7091   4
   2  -2   3 2941.87 55.6435   3
  -2  -2  -3 2905.30 54.1502   5
  -2  -2  -3 2985.31 56.0243   3
   2   2  -3 3031.52 52.0674   4
  -2   2   3 2836.70 56.1582   6
  -2   2   3 2910.60 51.9941   4
  -2  -2   3 2916.11 55.5509   3
  -2   2  -3 2987.72 52.1777   4
  -2   2  -3 3016.44 52.3124   4
   2   2   3 2932.41 55.4527   6
   3  -2   3 2.66932 1.01114   4
  -3   2   3 1.97580 1.63077   4
   3  -2   3 5.53432 2.36377   6
   3   2  -3 0.89837 1.58782   4
  -3  -2  -3 5.84426 3.11446   3
   3  -2   3 4.44039 2.99064   3
   3   2   3 3.55061 1.99403   6
  -3  -2   3 -0.2147 2.57213   3
  -3   2  -3 2.92434 1.68348   4
  -3   2  -3 3.61019 1.59371   4
   4  -2   3 207.096 5.57432   4
   4  -2   3 212.351 7.24481   6
   4   2  -3 194.163 6.54252   2
  -4   2   3 205.971 6.88109   2
   4  -2   3 214.257 6.82709   1
   4  -2   3 214.594 5.87763   4
   4   2  -3 197.795 6.44246   4
  -4   2   3 189.220 6.64661   4
  -4  -2  -3 203.388 8.45787   3
   4   2   3 205.014 6.42382   6
  -4   2  -3 208.438 6.68691   4
  -4   2  -3 211.217 6.38459   4
   4  -2  -3 210.682 7.23142   1
   4  -2  -3 196.959 5.37084   4
  -4   2  -3 204.304 6.56293   2
   4   2   3 198.942 6.40320   2
   4  -2  -3 211.138 5.38262   4
  -4  -2   3 201.463 7.67836   3
  -5  -2  -3 401.406 10.6282   1
   5   2  -3 389.962 10.5315   2
   5  -2   3 408.391 9.98331   4
  -5  -2  -3 399.669 12.6228   3
  -5   2   3 380.592 10.5596   2
   5  -2   3 397.687 9.49746   4
   5   2  -3 403.399 10.4904   4
  -5   2   3 398.413 10.9349   4
   5  -2   3 414.981 10.8509   6
   5  -2   3 414.214 10.8629   1
  -5  -2   3 394.752 10.9710   1
  -5   2  -3 399.155 10.4530   2
   5   2   3 396.922 10.3391   2
  -5  -2   3 427.461 11.7359   3
   5  -2  -3 414.072 9.55941   4
  -5   2  -3 410.332 10.3783   4
   5  -2  -3 398.337 9.73078   4
  -5   2  -3 411.690 10.6773   4
   5  -2  -3 398.870 11.0959   1
   6  -2   3 756.564 16.0102   4
  -6   2   3 732.409 17.1368   2
  -6  -2  -3 733.666 19.1787   3
   6  -2   3 747.069 16.4959   4
   6  -2   3 748.066 16.9202   6
   6   2  -3 711.201 16.9900   4
   6  -2   3 750.151 17.4024   1
  -6  -2  -3 757.417 17.2419   1
   6   2  -3 746.322 16.9575   2
  -6   2   3 744.411 17.5930   4
  -6  -2   3 740.049 17.4693   1
  -6  -2   3 762.685 17.9361   3
   6  -2  -3 736.624 16.1284   4
  -6   2  -3 763.526 16.9266   2
   6  -2  -3 756.612 16.6189   4
   6  -2  -3 729.969 17.5752   1
   6   2   3 703.135 16.5295   2
  -6   2  -3 735.894 17.1912   4
  -7   2   3 585.444 15.2221   2
   7  -2   3 601.258 14.5126   4
   7  -2   3 593.280 12.8564   7
   7  -2   3 585.742 14.0922   6
  -7   2   3 597.907 15.6522   4
   7  -2   3 585.988 15.3522   1
  -7  -2  -3 590.097 15.2480   1
   7  -2   3 588.272 14.0259   4
  -7  -2  -3 597.187 16.9213   3
   7   2  -3 573.083 14.9454   2
  -7  -2   3 588.293 15.5614   1
   7   2   3 581.358 14.6449   2
  -7  -2   3 597.051 12.1957   7
   7  -2  -3 590.449 12.8367   7
   7  -2  -3 581.556 14.5030   4
   7  -2  -3 597.966 15.7098   1
  -7  -2   3 578.243 15.3722   3
   7  -2  -3 608.616 14.2160   4
  -7   2  -3 565.070 14.7401   2
   8  -2   3 446.933 13.3864   1
  -8   2   3 442.200 13.1006   2
   8  -2   3 440.845 10.8088   7
  -8   2   3 421.218 12.4207   7
  -8   2   3 429.005 13.3495   4
  -8  -2  -3 423.457 12.9528   1
   8   2  -3 395.353 12.5588   2
   8  -2   3 423.577 11.7473   4
  -8  -2  -3 427.434 14.1876   3
   8  -2  -3 449.567 12.0994   4
  -8  -2   3 436.743 10.2491   7
   8  -2  -3 419.920 13.3961   1
  -8   2  -3 424.191 12.1078   7
   8  -2  -3 442.990 10.9650   7
  -8   2  -3 393.927 12.4829   2
  -8  -2   3 453.354 13.0558   3
  -8   2  -3 443.154 14.3799   1
   8   2   3 416.279 12.6079   2
  -8  -2   3 416.323 13.1241   1
   9   2  -3 5.78621 3.63914   2
   9  -2   3 5.49600 2.76159   7
   9   2  -3 9.07081 3.47695   7
  -9   2   3 4.45928 3.19539   4
  -9   2   3 13.1318 3.82693   2
  -9   2   3 3.04152 3.31210   7
   9  -2   3 10.3118 3.53520   1
  -9  -2  -3 3.47607 3.11218   1
  -9  -2  -3 3.61924 3.78778   3
  -9   2  -3 5.45096 3.22086   2
  -9  -2   3 3.61938 2.46728   7
  -9   2  -3 1.94493 2.99092   7
   9   2   3 5.55837 3.26529   7
  -9  -2   3 6.78158 3.45985   3
   9  -2  -3 5.02990 3.57246   1
  -9  -2   3 8.61492 3.72375   1
   9  -2  -3 7.85985 2.85436   7
   9   2   3 5.24248 3.25073   2
 -10   2   3 239.711 10.9405   2
 -10  -2  -3 252.795 11.6889   3
  10  -2   3 252.439 9.11411   7
  10  -2   3 244.652 10.9682   1
  10   2  -3 251.777 10.2667   7
 -10  -2  -3 269.797 10.9669   1
 -10   2   3 249.643 10.4959   7
  10   2  -3 248.082 10.9321   2
  10  -2  -3 262.332 9.26131   7
 -10  -2   3 259.303 8.36390   7
  10  -2  -3 259.309 11.4843   1
 -10   2  -3 249.467 10.3447   7
 -10   2  -3 237.072 10.4729   2
  10   2   3 263.083 11.0408   2
  10   2   3 263.471 10.2977   7
 -10  -2   3 268.555 11.4074   1
 -11   2   3 2.35523 3.88906   7
  11   2  -3 18.1077 4.44241   7
  11   2  -3 7.20979 4.18573   2
  11  -2   3 11.5886 3.62065   7
 -11  -2  -3 12.1634 4.80559   3
 -11   2   3 7.33990 4.13284   2
  11  -2   3 8.59945 4.31195   1
 -11  -2  -3 20.8372 4.85427   1
 -11   2  -3 20.3102 4.74672   2
 -11   2  -3 6.46341 4.00929   7
  11   2   3 22.6652 4.61038   7
  11  -2  -3 13.2373 3.73095   7
 -11  -2   3 17.9936 3.46680   7
 -11  -2   3 7.38821 4.23065   1
  11   2   3 8.47505 4.14337   2
  11  -2  -3 19.9462 5.06871   1
  12   2  -3 50.9812 6.61141   2
  12   2  -3 46.4315 6.03914   7
 -12   2   3 49.7874 6.49501   7
 -12  -2  -3 47.4689 6.84753   3
 -12   2   3 47.4922 6.66444   2
  12  -2   3 39.5442 6.55792   1
  12  -2   3 53.9463 5.52530   7
 -12  -2  -3 48.7207 6.76557   1
  12   2   3 60.8243 6.51898   7
  12   2   3 47.0275 6.40776   2
 -12  -2   3 59.0441 7.24733   1
 -12  -2   3 42.5018 4.76062   7
 -12   2  -3 56.4092 6.74209   2
  12  -2  -3 51.0274 5.64548   7
  12  -2  -3 44.3431 6.74439   1
 -12   2  -3 47.0190 6.07135   7
 -13   2   3 29.1461 6.13235   2
 -13   2   3 22.7709 5.43550   7
  13   2  -3 35.5697 6.44874   2
  13  -2   3 21.7210 5.94746   1
 -13  -2  -3 25.6720 5.81440   1
  13  -2   3 14.8793 4.52395   7
  13   2  -3 20.8675 5.39967   7
 -13   2  -3 25.1128 5.81198   2
  13   2   3 29.8336 5.67100   7
 -13  -2   3 21.8496 5.91497   1
  13  -2  -3 22.1077 6.35248   1
 -13  -2   3 20.1152 4.37706   7
  13   2   3 36.0413 6.11478   2
  13  -2  -3 20.9349 4.68802   7
 -13   2  -3 40.0401 6.33337   7
  14  -2   3 285.779 14.5527   1
 -14  -2  -3 264.574 13.8490   1
  14  -2   3 282.052 11.8366   7
  14   2  -3 277.744 13.9061   2
 -14   2   3 261.261 12.8414   7
 -14   2   3 271.409 13.9129   2
  14   2  -3 272.206 13.1861   7
  14  -2  -3 295.900 15.1530   1
  14   2   3 278.830 13.1503   7
  14  -2  -3 272.933 11.7877   7
 -14   2  -3 267.814 13.7137   2
  14   2   3 291.015 14.3270   2
 -14  -2   3 272.293 14.1533   1
 -14   2  -3 278.373 13.2770   7
 -15   2   3 160.141 11.3740   7
 -15  -2  -3 141.616 11.5705   1
  15  -2   3 148.120 9.82198   7
  15   2  -3 165.288 12.7402   2
  15   2  -3 153.354 11.5624   7
  15  -2   3 159.609 12.3100   1
  15  -2  -3 170.302 12.5818   1
 -15  -2   3 129.195 11.6406   1
  15   2   3 168.060 11.6969   7
  15  -2  -3 154.646 9.91702   7
 -15   2  -3 172.557 11.6838   7
  15   2   3 164.102 12.1382   2
 -16  -2  -3 556.075 21.4456   1
 -16   2   3 553.031 19.8091   7
  16  -2   3 546.138 17.4764   7
  16  -2   3 550.842 21.5092   1
  16   2  -3 553.383 19.4402   7
  16  -2  -3 516.373 21.4660   1
  16   2   3 523.272 19.4357   7
  16  -2  -3 553.098 17.3065   7
 -16   2  -3 576.406 19.7035   7
 -16  -2   3 563.517 21.7372   1
  17  -2   3 23.6142 5.72734   7
 -17  -2  -3 18.4525 6.88414   1
  17  -2   3 1.80469 6.31774   1
 -17   2   3 10.3524 6.04686   7
  17   2  -3 18.1630 6.41402   7
 -17  -2   3 9.82109 6.45999   1
  17  -2  -3 15.4073 5.40385   7
 -17   2  -3 19.4759 6.40914   7
  17   2   3 12.2101 6.25748   7
  17  -2  -3 23.4749 7.83860   1
   0  -3   3 529.674 14.3046   6
   0  -3  -3 538.164 14.2020   3
   0  -3   3 539.952 14.6137   3
   0  -3   3 546.433 13.8254   5
   0  -3  -3 521.003 13.6034   5
   1  -3   3 117.131 6.05862   5
   1  -3   3 110.480 6.64803   3
   1  -3   3 114.395 6.34069   6
  -1  -3  -3 109.172 6.62238   3
  -1  -3  -3 118.557 5.93312   5
  -1  -3   3 118.466 6.13006   5
  -1  -3   3 120.742 7.00155   3
   1  -3  -3 112.905 6.09151   3
  -1   3  -3 115.707 3.57273   2
   2  -3   3 14.3926 3.43887   3
   2  -3   3 16.7498 3.20145   6
  -2   3   3 17.5523 1.94356   2
  -2  -3  -3 13.0956 3.00459   5
   2   3  -3 14.9456 1.68827   2
  -2   3   3 14.0567 1.21723   4
  -2  -3  -3 10.8606 3.48673   3
   2  -3   3 12.3208 2.99675   5
   2   3   3 11.9817 1.63853   2
  -2   3  -3 17.4893 2.03309   2
  -2   3  -3 13.2995 1.53580   4
  -2   3  -3 12.9089 1.51423   4
   2  -3  -3 9.85721 2.93010   3
  -2  -3   3 10.7927 3.30472   3
  -3   3   3 105.001 4.46459   2
   3  -3   3 103.340 6.00858   6
  -3   3   3 103.905 4.04641   4
   3  -3   3 108.708 4.54613   1
   3   3  -3 105.563 3.81254   4
  -3  -3  -3 108.774 6.86418   3
   3   3  -3 114.534 4.19715   2
   3  -3   3 101.323 6.37164   3
   3   3   3 110.519 4.14156   2
   3  -3  -3 115.726 5.74351   3
  -3   3  -3 107.579 4.02301   4
   3  -3  -3 101.017 4.80398   1
  -3   3  -3 101.935 4.34081   2
  -3  -3   3 110.750 4.77329   1
  -3  -3   3 113.015 6.93095   3
  -3   3  -3 111.704 4.24283   4
   4  -3   3 513.131 12.0294   1
  -4  -3  -3 519.357 11.7945   1
  -4   3   3 514.078 11.8380   4
  -4   3   3 483.869 11.7206   2
   4  -3   3 477.513 13.6478   6
  -4  -3  -3 506.032 15.0709   3
   4   3  -3 504.422 11.3612   4
   4  -3   3 498.310 14.3869   3
   4   3  -3 497.803 11.4450   2
  -4   3  -3 496.833 11.3996   4
  -4  -3   3 489.371 14.4416   3
   4  -3  -3 497.730 12.6288   3
   4  -3  -3 490.318 12.2678   1
  -4   3  -3 492.277 11.6278   2
  -4   3  -3 507.379 11.8187   4
  -4  -3   3 495.790 12.0177   1
   4   3   3 483.087 11.1947   2
  -5   3   3 24.1742 3.27721   2
   5  -3   3 17.8789 2.95927   1
  -5  -3  -3 13.9136 2.71415   1
   5  -3   3 19.4008 3.53509   6
  -5   3   3 15.1899 2.83190   4
   5   3  -3 18.7464 3.00572   2
   5   3  -3 20.9708 2.68839   4
  -5  -3  -3 16.1125 4.35827   3
  -5   3  -3 19.2200 2.89263   4
  -5  -3   3 20.2618 3.12062   1
   5  -3  -3 18.5369 3.26171   1
   5   3   3 19.5304 2.81418   2
  -5   3  -3 24.0967 3.09057   2
  -5   3  -3 22.3541 2.77940   4
  -5  -3   3 20.1902 3.94275   3
  -6   3   3 39.9118 4.19006   4
   6   3  -3 49.3099 4.36288   2
   6  -3   3 50.6469 4.56620   1
  -6  -3  -3 51.7703 6.05459   3
  -6  -3  -3 56.4811 4.59140   1
   6  -3   3 48.8976 4.63298   6
  -6   3   3 48.0242 4.46526   2
  -6  -3   3 47.8725 5.36298   3
  -6  -3   3 44.4887 4.43447   1
  -6   3  -3 46.4262 4.21515   4
   6   3   3 46.5420 4.11533   2
   6  -3  -3 48.1286 4.59115   1
  -6   3  -3 58.3883 4.65095   2
  -7   3   3 6.88486 3.06320   2
   7   3  -3 3.81281 2.72474   2
  -7   3   3 -3.5375 2.64487   4
   7  -3   3 6.67054 2.84233   6
  -7  -3  -3 9.32934 3.97136   3
   7  -3   3 3.28929 1.67488   4
   7  -3   3 0.66072 2.52195   1
  -7  -3  -3 9.14011 2.90486   1
  -7  -3   3 -1.7650 3.14038   3
  -7  -3   3 6.90827 3.10012   1
   7  -3  -3 4.39879 1.54911   4
   7   3   3 4.48573 2.72580   2
   7  -3  -3 4.82095 2.95253   1
  -7   3  -3 6.74256 2.75516   2
  -7   3  -3 3.92632 2.64960   4
   8  -3   3 586.397 15.8943   1
  -8   3   3 542.021 15.5519   2
  -8  -3  -3 539.107 15.3465   1
   8  -3   3 566.184 12.9548   4
  -8   3   3 581.286 16.3605   4
  -8  -3  -3 550.027 17.7232   3
   8   3  -3 563.868 15.4523   2
   8   3   3 542.601 15.1625   2
  -8  -3   3 564.453 15.7638   1
   8  -3  -3 572.467 12.9521   4
  -8  -3   3 573.174 16.7757   3
  -8   3  -3 547.818 15.2358   2
   8  -3  -3 560.848 16.0364   1
  -9   3   3 90.6155 7.15487   2
  -9  -3  -3 84.9275 6.73075   1
   9   3  -3 92.5784 7.29863   2
   9  -3   3 91.6111 7.27260   1
   9  -3   3 89.9957 5.27173   4
  -9  -3  -3 81.4453 8.11277   3
   9  -3  -3 88.2981 7.25771   1
  -9  -3   3 90.9738 7.56557   3
  -9  -3   3 87.0499 6.89973   1
   9   3   3 87.2520 6.97116   2
  -9   3  -3 89.4865 6.97893   2
 -10  -3  -3 -2.4461 3.04300   1
 -10  -3  -3 -1.3570 4.20080   3
  10   3  -3 1.39189 3.56570   2
 -10   3   3 7.19104 3.98183   2
  10  -3   3 7.39685 3.83562   1
 -10  -3   3 8.63102 4.03192   1
  10  -3  -3 8.60356 4.25828   1
  10   3   3 5.33279 3.83787   2
 -10  -3   3 1.04767 3.86540   3
 -10   3  -3 13.1207 4.26089   2
 -11  -3  -3 37.8746 5.84990   1
 -11  -3  -3 49.7133 7.21486   3
  11   3  -3 45.5623 6.37014   2
  11  -3   3 62.2794 7.07349   1
 -11   3   3 43.5035 6.12681   2
  11   3   3 51.0718 6.57094   2
  11  -3  -3 44.7310 6.51299   1
 -11  -3   3 52.8376 6.69589   1
 -11   3  -3 44.8861 6.05314   2
  12   3  -3 164.112 10.6006   2
 -12  -3  -3 185.618 10.7776   1
 -12  -3  -3 181.724 11.6091   3
 -12   3   3 180.354 11.1080   2
  12  -3   3 174.759 10.8682   1
  12   3   3 157.694 10.5227   2
 -12  -3   3 180.353 11.0715   1
 -12   3  -3 176.312 11.3155   7
 -12   3  -3 173.205 10.4965   2
  12  -3  -3 174.276 10.9856   1
  13  -3   3 85.4675 8.93782   1
  13   3  -3 123.170 10.0124   2
 -13   3   3 112.094 9.79429   2
 -13  -3  -3 118.309 9.80847   1
 -13  -3  -3 105.948 9.91341   3
 -13   3   3 120.307 9.66459   7
  13   3   3 125.415 10.0184   2
 -13   3  -3 113.579 9.44568   2
  13  -3  -3 112.405 10.2264   1
 -13   3  -3 110.762 9.20667   7
 -13  -3   3 106.179 9.64881   1
 -14  -3  -3 21.2550 5.88656   1
 -14   3   3 14.9223 6.06948   2
  14   3  -3 16.5324 6.26856   2
 -14   3   3 12.4149 5.43011   7
  14  -3   3 13.5501 6.00218   1
 -14  -3   3 19.1826 6.12654   1
 -14   3  -3 21.2223 5.96338   2
  14  -3  -3 22.9224 6.56876   1
 -14   3  -3 15.8557 5.81638   7
  14   3   3 17.6875 6.06898   2
 -15   3   3 24.4454 6.26920   7
 -15   3   3 36.0424 7.60936   2
  15   3  -3 34.0390 7.18670   2
  15  -3   3 38.0194 7.41871   1
 -15  -3  -3 21.0141 6.43889   1
 -15   3  -3 29.1323 6.93161   7
  15  -3  -3 28.0361 6.79559   1
 -15  -3   3 34.2951 7.29739   1
 -15   3  -3 38.1920 7.20555   2
  15   3   3 16.6949 6.25336   2
 -16   3   3 1.92881 5.98101   2
 -16  -3  -3 -4.4398 5.06424   1
  16  -3   3 13.1928 6.25450   1
 -16   3   3 0.87236 5.55963   7
  16   3  -3 8.92114 6.32458   2
  16  -3  -3 5.02707 6.05488   1
 -16  -3   3 12.5319 6.40198   1
 -16   3  -3 6.83044 6.41329   2
  16   3   3 10.8950 6.33786   2
 -16   3  -3 14.3004 6.23408   7
   0  -4  -3 0.56063 2.70807   5
   0  -4   3 -1.8123 2.63316   5
   0  -4   3 -0.6429 2.52040   6
   0   4  -3 0.49131 1.10537   2
   0  -4  -3 4.87942 3.28008   3
   0  -4   3 2.82398 3.27719   3
  -1  -4  -3 1.69620 3.20378   3
  -1   4   3 -0.2193 1.02752   2
   1  -4   3 -0.5141 2.53965   6
   1  -4   3 4.14303 2.91468   5
  -1  -4  -3 5.97509 3.04081   5
   1  -4   3 0.64673 1.37535   1
   1  -4   3 0.96804 3.15348   3
   1   4  -3 0.48536 1.03964   2
  -1   4  -3 0.41176 1.32442   2
  -1  -4   3 2.39695 2.87461   6
   1  -4  -3 -2.5235 2.54450   5
  -1  -4   3 7.81314 3.56869   3
  -1  -4   3 -1.5696 2.65416   5
   1  -4  -3 0.85701 2.96258   3
  -2  -4  -3 38.5780 2.65327   1
  -2   4   3 36.1750 2.79298   2
   2  -4   3 37.9123 2.99061   1
  -2  -4  -3 41.5965 4.78637   5
   2  -4   3 39.0895 4.68782   5
   2  -4   3 38.5163 4.60107   6
   2  -4   3 31.9665 4.80944   3
   2   4  -3 39.3034 2.50240   2
  -2  -4  -3 44.4631 5.65239   3
  -2   4  -3 44.4256 2.86857   2
   2   4   3 36.4806 2.37288   2
  -2  -4   3 39.8403 5.03497   6
  -2  -4   3 39.2296 2.79888   1
   2  -4  -3 43.2947 3.28255   1
  -2  -4   3 35.3359 5.10164   3
   2  -4  -3 41.6496 4.82434   3
   3  -4   3 13.6918 4.10955   3
   3  -4   3 5.36187 3.12732   5
  -3  -4  -3 4.94068 1.79360   1
  -3  -4  -3 4.10605 3.66628   3
  -3   4   3 7.41014 1.99517   2
   3   4  -3 5.10750 1.78426   2
   3  -4   3 7.65204 2.00312   1
   3  -4   3 7.65569 3.25229   6
   3  -4  -3 2.18250 2.95602   3
  -3   4  -3 5.62901 1.66584   4
  -3  -4   3 5.34964 3.20709   6
   3   4   3 7.25244 1.85363   2
  -3   4  -3 10.0770 2.09689   2
   3  -4  -3 2.99407 2.04279   1
  -3  -4   3 8.21814 2.12174   1
  -3  -4   3 4.27376 3.53028   3
   4   4  -3 141.506 4.96026   4
   4  -4   3 119.957 8.00255   3
   4  -4   3 141.630 7.72824   6
   4  -4   3 134.216 5.73736   1
  -4  -4  -3 132.177 5.33947   1
  -4   4   3 126.070 5.70827   2
  -4  -4  -3 134.799 8.79561   3
   4   4  -3 127.238 5.33345   2
  -4   4  -3 145.014 5.26687   4
  -4  -4   3 133.308 7.73538   6
  -4   4  -3 132.788 5.57483   2
  -4  -4   3 134.724 5.82094   1
  -4  -4   3 109.426 7.88037   3
   4  -4  -3 133.757 7.34071   3
   4   4   3 125.823 5.10831   2
   4  -4  -3 146.750 6.05767   1
   5   4  -3 17.6653 3.13224   2
  -5  -4  -3 15.0209 4.78791   3
   5  -4   3 17.9638 3.89669   6
  -5   4   3 14.6900 3.10496   2
  -5  -4  -3 17.7485 2.93418   1
   5  -4   3 20.6908 4.72588   3
   5  -4   3 15.9620 3.03416   1
   5   4   3 20.7613 3.07281   2
   5  -4  -3 21.1713 3.95945   3
   5  -4  -3 23.8922 3.48008   1
  -5  -4   3 20.4550 3.29116   1
  -5   4  -3 13.9220 2.82738   2
  -5  -4   3 20.2198 4.23422   6
  -5  -4   3 21.9353 4.77627   3
   6  -4   3 145.864 8.09601   6
  -6  -4  -3 143.921 6.62504   1
   6   4  -3 138.435 6.82150   2
   6  -4   3 159.321 7.20848   1
  -6  -4  -3 162.308 10.0798   3
  -6   4   3 150.280 7.16980   2
  -6  -4   3 138.916 9.06902   3
  -6  -4   3 162.539 7.21159   1
   6   4   3 144.058 6.50772   2
   6  -4  -3 145.145 7.37050   1
  -6   4  -3 146.161 6.83802   2
  -6  -4   3 143.713 8.15965   6
  -7   4   3 86.0495 6.54873   2
   7  -4   3 82.8959 6.67515   6
   7  -4   3 81.3175 6.24568   1
  -7  -4  -3 83.3289 8.44772   3
  -7  -4  -3 89.5416 6.01581   1
   7   4  -3 87.7963 6.31409   2
  -7  -4   3 76.8748 5.94252   1
   7   4   3 75.9180 5.72962   2
  -7  -4   3 81.3160 7.62812   3
  -7  -4   3 74.9275 6.47013   6
  -7   4  -3 81.5526 6.05854   2
   7  -4  -3 89.1239 6.68937   1
   8  -4   3 44.1102 5.24113   1
   8   4  -3 47.0025 5.34745   2
  -8  -4  -3 35.4441 4.63513   1
  -8  -4  -3 42.4577 6.94171   3
  -8   4   3 40.3735 5.23130   2
  -8  -4   3 39.6439 5.90654   3
  -8  -4   3 47.5056 5.27499   1
   8   4   3 46.8789 5.16831   2
   8  -4  -3 51.9056 5.68725   1
  -8   4  -3 47.8599 5.31061   2
   9  -4   3 8.37231 3.83110   1
   9   4  -3 4.47770 3.77849   2
  -9   4   3 3.35367 3.66836   2
  -9  -4  -3 4.95916 4.81161   3
  -9  -4  -3 2.40840 3.43252   1
  -9   4  -3 -2.8641 3.28984   2
   9  -4  -3 4.86837 3.87472   1
   9   4   3 0.71074 3.42600   2
  -9  -4   3 4.63784 4.19100   3
  -9  -4   3 7.24936 3.72861   1
 -10  -4  -3 465.945 15.3828   1
 -10   4   3 468.494 15.7619   2
  10   4  -3 463.455 15.5657   2
 -10  -4  -3 476.397 18.1981   3
  10  -4   3 455.706 15.7106   1
  10  -4  -3 469.442 16.0468   1
 -10   4  -3 444.398 15.1882   2
 -10  -4   3 494.327 17.2167   3
 -10  -4   3 426.107 15.3204   1
  10   4   3 473.204 15.2622   2
 -11  -4  -3 331.555 13.7392   1
 -11   4   3 333.319 13.9136   2
  11  -4   3 361.093 14.5183   1
  11   4  -3 347.293 13.8877   2
 -11  -4  -3 370.789 16.3978   3
 -11  -4   3 350.122 14.9574   3
  11   4   3 353.523 13.9736   2
 -11  -4   3 351.722 14.1837   1
 -11   4  -3 343.336 13.7562   2
  11  -4  -3 349.011 14.6403   1
  12  -4   3 139.060 10.4655   1
 -12  -4  -3 130.127 9.58515   1
  12   4  -3 137.691 10.2512   2
 -12   4   3 137.027 10.5066   2
 -12  -4  -3 153.451 11.9178   3
 -12   4  -3 134.638 10.1167   2
  12  -4  -3 127.383 10.3756   1
 -12  -4   3 127.176 9.93229   1
  12   4   3 129.080 10.1273   2
 -13  -4  -3 56.7230 8.40212   3
  13  -4   3 37.9137 6.73424   1
 -13  -4  -3 50.3660 7.20358   1
 -13   4   3 61.7624 7.99281   2
  13   4  -3 42.7739 7.08088   2
  13   4   3 38.0939 6.73524   2
 -13  -4   3 53.1682 7.73093   1
 -13   4  -3 41.9494 7.10176   2
  13  -4  -3 53.0712 7.82516   1
 -14  -4  -3 3.12371 5.77524   3
 -14  -4  -3 3.25991 5.03823   1
  14   4  -3 -0.1876 5.20337   2
  14  -4   3 -0.8107 5.03704   1
 -14   4   3 2.67108 5.21985   2
 -14   4  -3 1.42551 4.90826   2
 -14  -4   3 4.80072 5.34903   1
  14  -4  -3 10.4884 5.65758   1
  14   4   3 4.87189 5.11996   2
  15  -4   3 23.5427 6.74329   1
 -15   4   3 25.3205 7.15225   2
  15   4  -3 17.2757 6.33503   2
 -15  -4  -3 18.8144 6.33820   1
 -15   4  -3 8.10417 5.89471   2
  15   4   3 22.2063 6.86633   2
  15  -4  -3 24.5052 6.99843   1
 -15  -4   3 9.52012 5.85054   1
   0  -5   3 294.741 12.0781   6
   0  -5  -3 288.353 12.3264   3
   0  -5   3 303.079 11.8843   5
   0   5  -3 315.335 6.49546   2
   0  -5  -3 294.697 11.7019   5
   0  -5   3 289.099 12.9461   3
   1   5  -3 76.5508 2.90377   2
  -1  -5  -3 75.7525 7.42114   3
   1  -5   3 79.8137 7.57849   3
  -1   5   3 76.6632 2.92653   2
   1  -5   3 67.4067 6.53151   5
   1  -5   3 73.1074 6.81664   6
  -1  -5  -3 87.0270 7.29361   5
  -1  -5   3 78.7947 7.25522   5
  -1   5  -3 72.9104 3.28447   2
   1  -5  -3 90.2544 7.65894   3
  -1  -5   3 74.6824 7.49644   3
  -1  -5   3 65.6332 6.55478   6
   1  -5  -3 74.5306 6.71026   5
   2  -5   3 13.3906 4.16370   5
  -2   5   3 8.81073 2.00297   2
   2   5  -3 12.6024 1.89892   2
   2  -5   3 13.8322 2.27497   1
  -2  -5  -3 14.7140 4.39499   5
   2  -5   3 16.0711 4.11388   6
   2  -5   3 15.3018 4.54223   3
  -2  -5  -3 7.93526 4.48549   3
   2  -5  -3 12.3413 4.38601   3
  -2  -5   3 9.92256 4.51885   3
   2  -5  -3 9.38394 3.99209   5
   2   5   3 13.3160 1.66051   2
  -2   5  -3 16.6666 2.31947   2
  -2  -5   3 9.73813 3.82876   6
   3  -5   3 78.5463 7.71311   3
  -3   5   3 49.7341 3.91255   2
   3   5  -3 58.4262 3.67674   2
   3  -5   3 65.1822 6.68118   5
   3  -5   3 58.2758 4.01687   1
   3  -5   3 56.5486 6.34900   6
  -3  -5  -3 59.7915 7.06052   3
   3   5   3 63.6501 3.53759   2
  -3  -5   3 63.1114 6.57095   6
  -3  -5   3 63.8685 7.34213   3
   3  -5  -3 51.1625 4.16650   1
   3  -5  -3 54.4363 6.24425   3
  -3  -5   3 51.3187 3.75492   1
  -3   5  -3 52.6548 3.91906   2
  -4   5   3 258.094 8.53522   2
   4  -5   3 283.408 12.0241   5
   4  -5   3 290.098 8.67651   1
   4  -5   3 280.388 12.8607   3
   4   5  -3 284.974 8.17489   2
  -4  -5  -3 275.966 13.3606   3
  -4  -5  -3 292.335 8.04042   1
   4  -5   3 257.900 11.6037   6
  -4  -5   3 287.491 11.9287   6
  -4  -5   3 288.701 13.2066   3
  -4   5  -3 275.026 8.36272   2
   4  -5  -3 275.734 11.3782   3
  -4  -5   3 280.466 8.34586   1
   4   5   3 278.906 7.78913   2
   4  -5  -3 293.141 8.90435   1
  -5  -5  -3 20.0096 3.07118   1
   5   5  -3 14.7667 3.13481   2
  -5   5   3 13.5799 3.24387   2
  -5  -5  -3 19.6948 5.72885   3
   5  -5   3 13.9282 3.17744   1
   5  -5   3 21.7451 4.67328   6
   5  -5   3 13.0540 4.93990   3
   5  -5   3 14.6845 4.55435   5
   5  -5  -3 16.6679 3.53113   1
  -5  -5   3 12.9623 5.29252   3
  -5  -5   3 18.3763 4.48310   6
   5   5   3 16.2446 3.00501   2
   5  -5  -3 8.68840 3.98490   3
  -5  -5   3 12.4147 3.02202   1
  -5   5  -3 16.2069 3.14846   2
   6  -5   3 41.8923 6.00015   6
   6   5  -3 41.8343 4.68657   2
  -6  -5  -3 41.6829 4.25750   1
  -6  -5  -3 46.9128 7.35551   3
   6  -5   3 48.7356 4.70437   1
   6  -5   3 44.4109 7.07374   3
  -6   5   3 43.8906 4.70741   2
   6   5   3 47.3395 4.51669   2
  -6  -5   3 44.3195 6.76317   3
  -6  -5   3 53.6215 4.93446   1
  -6   5  -3 43.8537 4.55005   2
  -6  -5   3 44.3306 5.98545   6
   6  -5  -3 38.9543 4.86432   1
   7   5  -3 3.23069 3.16633   2
  -7   5   3 7.80127 3.59526   2
  -7  -5  -3 -1.0171 4.94757   3
   7  -5   3 7.43211 3.21387   1
  -7  -5  -3 0.40730 2.87116   1
  -7  -5   3 1.79094 3.23732   1
   7  -5  -3 -0.6150 3.15577   1
  -7  -5   3 3.21172 4.94234   3
  -7   5  -3 5.24797 3.37836   2
   7   5   3 1.89892 3.01910   2
  -8  -5  -3 342.347 11.8977   1
   8  -5   3 328.694 12.3358   1
  -8   5   3 355.302 12.5912   2
   8   5  -3 353.480 12.3543   2
  -8  -5  -3 362.995 16.5346   3
   8  -5  -3 348.071 12.7241   1
  -8  -5   3 352.859 12.3319   1
  -8  -5   3 355.352 15.5078   3
  -8   5  -3 379.848 12.5842   2
   8   5   3 356.775 12.1500   2
   9   5  -3 74.5337 6.94957   2
  -9   5   3 58.0479 6.39198   2
  -9  -5  -3 53.3648 6.12101   1
  -9  -5  -3 85.4954 9.96512   3
   9  -5   3 70.7665 7.06087   1
   9   5   3 53.1055 5.91402   2
  -9  -5   3 60.6425 6.45769   1
  -9   5  -3 57.1876 6.43035   2
   9  -5  -3 66.7358 6.88495   1
  -9  -5   3 63.3105 8.41688   3
 -10  -5  -3 6.22026 5.84345   3
 -10  -5  -3 13.6435 4.49105   1
  10   5  -3 6.88443 4.60716   2
  10  -5   3 4.49772 4.16474   1
 -10   5   3 2.88794 4.17708   2
  10  -5  -3 -0.6752 3.98995   1
 -10   5  -3 3.64980 3.99962   2
 -10  -5   3 7.06290 5.45857   3
  10   5   3 3.30533 3.98065   2
 -10  -5   3 3.51975 3.94804   1
 -11  -5  -3 25.1739 5.47245   1
  11   5  -3 33.3174 6.04742   2
 -11   5   3 29.1463 5.81079   2
 -11  -5  -3 33.1972 7.73168   3
  11  -5   3 29.8214 6.04756   1
 -11  -5   3 32.0589 7.13396   3
  11   5   3 34.7862 6.07436   2
 -11  -5   3 32.1012 6.07882   1
 -11   5  -3 27.3847 5.77431   2
  11  -5  -3 19.8537 5.62610   1
 -12  -5  -3 104.502 8.87653   1
 -12   5   3 97.1224 9.05342   2
  12   5  -3 109.539 9.47538   2
 -12  -5  -3 138.858 12.4803   3
  12  -5   3 107.206 9.66183   1
 -12  -5   3 100.634 9.03235   1
 -12   5  -3 90.4482 8.77270   2
  12  -5  -3 99.4219 9.71039   1
  12   5   3 96.8520 8.71954   2
 -12  -5   3 124.472 11.7476   3
  13  -5   3 72.1029 8.46780   1
  13   5  -3 100.616 9.71499   2
 -13   5   3 84.2862 9.04090   2
 -13  -5  -3 73.9052 8.47736   1
 -13  -5  -3 77.1851 10.4838   3
  13   5   3 82.0456 8.63809   2
 -13  -5   3 60.0963 8.17297   1
 -13   5  -3 99.7442 9.45068   2
  13  -5  -3 83.2035 9.17855   1
  14  -5   3 10.6861 5.67336   1
  14   5  -3 2.44470 5.48378   2
 -14   5   3 11.3716 5.92470   2
 -14  -5  -3 12.6650 5.45047   1
 -14  -5  -3 15.2257 7.18929   3
  14  -5  -3 15.3406 6.35423   1
 -14   5  -3 5.57845 5.51896   2
 -14  -5   3 -2.9914 5.22961   1
  14   5   3 9.53880 5.53507   2
   0  -6   3 -0.3439 3.90597   5
   0   6  -3 2.12490 1.51454   2
   0  -6  -3 0.71770 3.84057   5
   0  -6   3 1.42619 4.86986   3
   0  -6  -3 -1.9001 4.08481   3
  -1  -6  -3 295.147 13.0038   5
  -1   6   3 302.860 6.95312   2
  -1  -6  -3 305.592 14.5236   3
   1  -6   3 315.535 14.5469   3
   1  -6   3 295.154 13.1319   5
   1   6  -3 296.112 6.93973   2
   1  -6  -3 267.126 13.3114   3
  -1   6  -3 304.964 7.27146   2
  -1  -6   3 315.877 14.7027   3
   1  -6  -3 319.991 13.5862   5
  -2  -6  -3 907.169 25.2601   5
  -2  -6  -3 937.303 27.0973   3
   2  -6   3 921.089 25.4841   5
  -2   6   3 947.547 18.1045   2
   2   6  -3 928.042 17.6608   2
   2  -6   3 937.563 26.8195   3
   2   6   3 950.912 17.1989   2
  -2   6  -3 939.970 18.2076   2
   2  -6  -3 903.365 25.5560   5
  -2  -6   3 903.610 27.0772   3
   2  -6  -3 946.574 25.7982   3
   3  -6   3 1.53847 4.58515   3
  -3   6   3 3.40079 2.49495   2
   3   6  -3 5.44601 2.27053   2
  -3  -6  -3 -3.0809 4.72554   3
   3  -6   3 5.15299 4.49791   5
   3  -6  -3 7.50844 4.89425   3
  -3   6  -3 1.66440 2.21260   2
   3  -6  -3 -0.7076 4.10933   5
  -3  -6   3 3.03207 5.16525   3
   3   6   3 0.97616 2.01185   2
  -4   6   3 78.6225 5.50809   2
  -4  -6  -3 86.1999 9.53404   3
   4  -6   3 93.7224 9.21195   3
   4   6  -3 93.2209 5.37212   2
   4  -6   3 86.6133 8.67670   5
   4   6   3 92.6112 4.89169   2
  -4  -6   3 79.6642 9.08985   3
  -4   6  -3 81.0771 5.31997   2
   4  -6  -3 86.3857 8.47740   5
   4  -6  -3 92.2468 8.35867   3
   5  -6   3 151.874 7.32568   1
   5  -6   3 159.200 10.5787   5
  -5  -6  -3 170.460 12.5295   3
  -5   6   3 154.157 7.42785   2
   5   6  -3 144.326 7.03913   2
   5  -6   3 184.215 11.6849   3
  -5  -6   3 148.088 11.4394   3
   5   6   3 156.384 6.67513   2
  -5   6  -3 163.271 7.30775   2
  -6   6   3 285.011 10.2135   2
   6  -6   3 276.734 14.0293   3
   6  -6   3 285.552 10.2072   1
  -6  -6  -3 248.413 14.9681   3
   6   6  -3 272.153 9.89700   2
   6  -6   3 276.623 13.5293   5
   6  -6  -3 285.020 10.3364   1
   6   6   3 277.640 9.39951   2
  -6   6  -3 275.389 9.99911   2
  -6  -6   3 248.662 14.1803   3
  -7   6   3 236.624 10.2239   2
   7  -6   3 232.439 12.9761   5
   7   6  -3 262.995 10.3537   2
  -7  -6  -3 241.247 14.5930   3
   7  -6   3 248.949 10.2065   1
  -7  -6   3 266.803 10.0948   1
  -7   6  -3 247.105 10.1167   2
   7   6   3 243.027 9.68965   2
   7  -6  -3 275.494 10.8666   1
  -8   6   3 161.487 9.45073   2
   8  -6   3 156.249 9.23569   1
  -8  -6  -3 154.708 12.7757   3
   8   6  -3 158.445 9.09342   2
  -8  -6  -3 161.492 8.43607   1
  -8   6  -3 177.480 9.17292   2
  -8  -6   3 176.000 9.24905   1
   8  -6  -3 173.742 9.79653   1
   8   6   3 168.910 8.94069   2
  -8  -6   3 163.453 12.6446   3
  -9   6   3 3.46137 4.11911   2
   9   6  -3 6.73803 4.52763   2
  -9  -6  -3 -2.2939 3.84631   1
  -9  -6  -3 7.42890 6.27612   3
   9  -6   3 6.58450 4.34760   1
   9  -6  -3 5.17208 4.56462   1
  -9  -6   3 0.98094 5.93597   3
  -9  -6   3 1.75110 4.01514   1
   9   6   3 0.51335 3.91427   2
  -9   6  -3 1.47750 3.85086   2
 -10  -6  -3 82.2766 10.6716   3
 -10  -6  -3 78.3788 7.60998   1
  10   6  -3 78.2088 7.75434   2
  10  -6   3 96.0965 8.55273   1
 -10   6   3 73.8982 7.53066   2
 -10  -6   3 80.9572 10.2928   3
  10   6   3 77.0084 7.53422   2
  10  -6  -3 72.3247 7.84906   1
 -10  -6   3 87.7368 8.06121   1
 -10   6  -3 79.1074 7.62402   2
 -11  -6  -3 12.5256 5.10805   1
  11  -6   3 15.0992 5.29151   1
  11   6  -3 9.64039 5.12195   2
 -11   6   3 11.6542 5.28244   2
 -11  -6  -3 14.0273 6.88419   3
  11   6   3 2.38946 4.20899   2
 -11  -6   3 4.23478 4.85059   1
 -11   6  -3 6.29998 4.84482   2
  11  -6  -3 14.7332 5.33427   1
 -11  -6   3 11.3110 6.54622   3
 -12  -6  -3 34.1653 6.29617   1
  12   6  -3 30.5248 6.52408   2
  12  -6   3 26.3704 6.27871   1
 -12  -6  -3 21.5375 7.86752   3
 -12   6   3 29.7611 6.56901   2
  12   6   3 21.1424 5.68401   2
 -12  -6   3 28.8456 6.27837   1
 -12  -6   3 29.8859 8.06977   3
 -12   6  -3 26.6519 6.02216   2
  12  -6  -3 28.5925 6.45792   1
   0  -7  -3 177.966 12.8195   3
   0  -7  -3 177.728 11.7675   5
   0  -7   3 209.197 13.6949   3
   0  -7   3 186.907 11.7710   5
   1  -7   3 42.0394 6.93415   5
  -1  -7  -3 49.2364 7.41953   5
  -1  -7  -3 47.7329 8.18395   3
   1  -7   3 50.8033 8.37744   3
   1  -7  -3 39.1891 7.61801   3
   1  -7  -3 50.4682 7.39409   5
  -1  -7   3 49.6113 8.44961   3
   2  -7   3 6.28461 5.11607   5
  -2  -7  -3 -2.7677 5.37380   3
   2  -7   3 4.26962 5.38921   3
  -2   7  -3 3.70797 2.20926   2
   2  -7  -3 -5.0340 5.06698   3
  -2  -7   3 4.80892 5.81655   3
   2  -7  -3 1.33398 5.17303   5
  -3  -7  -3 37.1097 8.05270   3
   3  -7   3 40.0084 7.12601   5
   3   7  -3 44.9806 3.89310   2
  -3   7   3 47.2892 4.04907   2
   3  -7   3 41.8847 7.72351   3
  -3  -7   3 36.8312 8.05463   3
   3  -7  -3 46.3252 7.71611   5
  -3   7  -3 41.8965 3.86260   2
   3  -7  -3 38.9218 7.54222   3
   4  -7   3 198.552 13.5224   3
   4   7  -3 188.189 7.34508   2
  -4  -7  -3 208.698 14.6606   3
  -4   7   3 167.247 7.44795   2
   4  -7  -3 171.443 12.0411   5
  -4   7  -3 185.350 7.42498   2
  -4  -7   3 192.794 14.0490   3
   4   7   3 181.931 6.61718   2
   5   7  -3 2.81844 3.37937   2
   5  -7   3 9.17821 5.67669   5
  -5   7   3 4.22778 3.31984   2
   5  -7   3 7.04531 6.14119   3
  -5  -7  -3 12.0138 6.72343   3
  -5  -7   3 2.99479 6.06727   3
   5   7   3 7.90720 3.09299   2
  -5   7  -3 12.3169 3.40786   2
   5  -7  -3 8.71351 5.45536   5
  -6   7   3 9.19990 3.86490   2
   6   7  -3 13.1244 4.14750   2
   6  -7   3 13.7994 6.59096   3
   6  -7   3 15.8896 6.27580   5
  -6  -7  -3 16.3987 7.36986   3
  -6   7  -3 20.6388 4.15885   2
   6  -7  -3 15.4589 6.18811   5
  -6  -7   3 5.10241 6.15818   3
   6   7   3 13.0018 3.42461   2
  -7  -7  -3 1.32086 6.09373   3
  -7   7   3 2.05835 3.78995   2
   7  -7   3 0.66210 5.16521   5
   7   7  -3 4.62588 3.87080   2
  -7   7  -3 -1.9774 3.43842   2
   7   7   3 0.32221 3.34766   2
  -7  -7   3 2.44761 6.15907   3
   7  -7  -3 -3.5077 4.98265   5
  -8   7   3 244.770 11.1234   2
   8   7  -3 221.063 10.7532   2
  -8  -7  -3 266.258 16.8149   3
   8  -7   3 238.967 14.3427   5
   8   7   3 216.401 9.80258   2
  -8   7  -3 230.726 10.6604   2
  -8  -7   3 216.511 15.2008   3
   9   7  -3 38.6994 5.87413   2
  -9  -7  -3 35.7243 8.74636   3
  -9   7   3 33.7867 5.83220   2
   9  -7   3 47.8168 6.61223   1
   9  -7   3 35.8337 7.96262   5
  -9  -7   3 32.2414 8.43178   3
  -9   7  -3 29.2896 5.62601   2
   9   7   3 41.7677 5.72683   2
  10  -7   3 -0.7781 4.73151   1
 -10   7   3 4.53662 4.51471   2
  10  -7   3 2.75143 5.77476   5
 -10  -7  -3 -0.4543 6.29348   3
  10   7  -3 5.83538 4.65832   2
 -10   7  -3 10.1126 4.90572   2
  10   7   3 1.67700 4.06718   2
 -10  -7   3 -2.2584 5.90069   3
  10  -7  -3 11.0954 5.21639   1
   0  -8   3 4.14262 6.93524   3
   0  -8  -3 -6.3280 4.72717   5
   0  -8  -3 4.25456 6.30183   3
   1  -8   3 -1.7466 5.88560   3
   1  -8   3 -0.0953 5.22198   5
  -1  -8  -3 2.33611 6.04638   3
   1  -8  -3 0.42857 5.38902   5
   1  -8  -3 8.38305 6.50350   3
  -1  -8   3 -3.5359 6.26051   3
   2  -8   3 9.97064 6.85965   3
   2  -8   3 6.13495 5.58672   5
  -2  -8  -3 -5.5710 6.14267   3
   2  -8  -3 -2.9592 5.94596   3
   2  -8  -3 7.41834 5.81232   5
  -2  -8   3 -5.3183 6.28879   3
  -3  -8  -3 10.8264 6.98080   3
   3  -8   3 -8.7216 4.71719   5
   3  -8   3 -10.595 5.81321   3
   3  -8  -3 -11.313 5.38954   3
  -3  -8   3 -11.916 5.64344   3
   3  -8  -3 -0.6928 5.79354   5
   4  -8   3 49.8434 9.26256   3
  -4  -8  -3 49.7086 9.66450   3
   4  -8   3 58.9780 9.09910   5
  -4   8  -3 58.6021 4.92020   2
   4  -8  -3 40.7200 8.28564   5
  -4  -8   3 54.0250 9.70394   3
   5  -8   3 14.2018 6.84270   5
  -5   8   3 12.2614 3.93179   2
   5  -8   3 8.66411 6.86612   3
  -5  -8  -3 22.7475 8.22451   3
  -5  -8   3 14.9705 7.56561   3
  -5   8  -3 14.4123 3.80080   2
   5  -8  -3 18.2175 6.80835   5
   6  -8   3 20.9963 7.53788   5
  -6   8   3 25.6486 4.62102   2
  -6  -8  -3 9.94961 7.97340   3
   6   8  -3 28.7202 4.71383   2
   6   8   3 22.6460 4.12925   2
  -6  -8   3 13.8559 7.60909   3
   6  -8  -3 29.2939 7.80479   5
  -6   8  -3 25.5075 4.66788   2
  -7   8   3 46.4835 5.87653   2
   7   8  -3 41.3303 5.59662   2
   7   8   3 40.4378 5.31828   2
  -7   8  -3 47.0725 5.76675   2
   0   0   4 238.608 6.09486   4
   0   0  -4 237.463 6.10671   4
  -1   0   4 61.4683 3.39621   4
   1   0   4 63.6187 3.20406   4
  -1   0  -4 66.3351 3.25734   4
   1   0  -4 63.4422 3.45898   4
   2   0   4 151.566 5.10953   4
  -2   0  -4 161.844 5.16985   4
  -2   0   4 158.256 5.53568   4
   2   0  -4 159.572 5.53439   4
   3   0   4 567.025 12.5332   4
  -3   0  -4 558.640 12.4928   4
   3   0  -4 577.463 13.0919   4
  -3   0   4 591.851 13.0889   4
   4   0   4 12.4164 2.33717   4
   4   0  -4 13.3547 2.68046   4
  -4   0   4 16.1793 2.71710   4
  -5   0   4 354.494 10.1310   4
   5   0   4 351.241 9.71120   4
   5   0  -4 347.808 10.1475   4
   6   0  -4 1134.43 24.3388   4
   6   0   4 1104.65 23.6901   4
  -6   0   4 1134.02 24.3311   4
  -6   0   4 1158.94 24.4284   1
   7   0   4 121.778 6.28336   4
  -7   0   4 123.825 6.30119   7
   7   0  -4 112.118 6.21454   7
   7   0   4 122.263 6.66907   1
  -7   0   4 109.850 6.44924   4
  -7   0  -4 114.774 5.64552   7
   7   0  -4 123.088 6.80445   2
  -7   0   4 116.674 6.81345   1
   7   0  -4 117.073 6.49186   4
   7   0   4 120.533 5.85978   7
   7   0  -4 111.612 6.59039   1
  -7   0  -4 109.180 6.24341   1
   7   0   4 109.844 6.01693   4
   8   0  -4 10.1701 3.48619   1
  -8   0   4 14.0729 3.65980   1
   8   0   4 20.3792 3.71087   2
  -8   0  -4 14.9251 3.33109   2
   8   0  -4 12.5773 3.17286   7
   8   0  -4 16.2811 3.70282   2
   8   0   4 15.3814 3.30680   7
   8   0   4 15.3341 3.55017   1
  -8   0   4 9.03745 2.99131   4
  -8   0  -4 18.2865 3.69103   1
   8   0   4 11.6865 2.99250   4
  -8   0   4 11.9119 3.26621   7
  -8   0  -4 13.4111 3.09131   7
  -8   0   4 20.0999 3.79515   2
   9   0  -4 2.56649 3.26358   1
  -9   0  -4 1.86255 2.83555   2
  -9   0  -4 2.55853 3.06639   1
  -9   0   4 7.46756 3.16463   7
   9   0   4 5.60959 3.12592   2
   9   0  -4 8.49769 3.24114   7
   9   0   4 8.35930 3.05783   7
  -9   0  -4 5.21957 2.83118   7
  -9   0   4 -0.6697 3.17957   2
   9   0   4 1.21447 3.04786   1
  -9   0   4 8.53108 3.70287   1
   9   0  -4 1.57977 3.32422   2
  10   0  -4 81.1811 6.78300   2
  10   0   4 71.5110 5.99449   7
 -10   0   4 68.7690 5.89328   7
  10   0  -4 91.0924 6.96177   7
  10   0   4 96.8283 7.45575   1
 -10   0   4 86.4897 7.11223   2
 -10   0  -4 75.8068 6.91324   1
 -10   0   4 75.0750 7.31424   1
  10   0   4 85.3611 6.84254   2
 -10   0  -4 70.7911 5.74571   7
  10   0  -4 76.9205 7.14954   1
  11   0   4 -1.6612 3.80962   1
  11   0   4 2.72691 3.54535   2
 -11   0  -4 -1.5089 3.43678   1
  11   0  -4 -0.8353 3.90716   2
 -11   0   4 0.86557 3.70023   1
 -11   0  -4 -0.2575 2.93385   7
  11   0  -4 0.15352 3.26651   7
  11   0  -4 1.96131 3.94299   1
  11   0   4 -0.2345 3.12005   7
 -11   0   4 -0.0759 3.17648   7
 -12   0   4 96.6560 7.66808   7
  12   0   4 88.4035 7.41086   7
 -12   0  -4 90.2328 8.24622   1
  12   0  -4 90.6887 7.63700   7
  12   0  -4 82.9459 8.33148   1
  12   0   4 100.930 9.13166   1
 -12   0   4 98.9991 9.11015   1
 -12   0  -4 96.6646 7.44037   7
  13   0  -4 590.906 19.6353   1
 -13   0   4 547.726 19.3492   1
 -13   0  -4 529.920 16.4361   7
  13   0   4 528.527 16.7715   7
 -13   0  -4 543.471 18.8936   1
  13   0  -4 512.339 16.6178   7
  13   0   4 573.075 19.0713   1
 -13   0   4 534.547 16.9232   7
 -14   0   4 537.743 17.2378   7
  14   0   4 517.318 19.1866   1
  14   0  -4 519.215 17.0719   7
 -14   0   4 530.642 19.6222   1
  14   0   4 527.349 17.0777   7
 -14   0  -4 519.139 16.9145   7
  14   0  -4 519.686 19.6149   1
 -14   0  -4 543.848 19.4171   1
  15   0  -4 72.6752 7.86816   7
  15   0  -4 65.0176 8.98441   1
 -15   0   4 77.6287 9.63176   1
 -15   0   4 63.4369 7.39594   7
  15   0   4 61.2737 7.48399   7
 -15   0  -4 74.6582 9.07363   1
  15   0   4 61.7801 8.71094   1
 -16   0   4 325.961 16.9333   1
  16   0  -4 356.816 15.0258   7
 -16   0   4 340.411 14.5700   7
  16   0   4 335.321 14.8653   7
 -16   0  -4 358.835 16.9969   1
 -17   0   4 188.932 14.0756   1
 -17   0   4 183.400 11.9706   7
  17   0   4 210.531 12.7433   7
 -17   0  -4 191.913 14.1724   1
  17   0  -4 185.939 12.2338   7
   0   1  -4 -0.4525 1.44384   4
   0  -1   4 0.86637 1.45739   4
   0   1   4 0.54227 1.31889   4
   0  -1  -4 -0.2350 1.16673   4
   1  -1   4 95.2161 3.64714   4
  -1   1   4 92.7896 3.70921   4
  -1  -1  -4 85.7617 3.29292   4
   1   1  -4 87.0303 4.06270   4
   1   1   4 91.2603 3.54489   4
   1  -1  -4 99.6554 3.45528   4
  -1   1  -4 90.8015 3.75809   4
  -1  -1   4 88.9610 3.82150   4
   2  -1   4 315.314 7.47810   4
   2   1  -4 308.941 7.90214   4
  -2   1   4 282.000 7.54066   4
  -2  -1   4 304.264 7.65313   4
  -2   1  -4 317.292 7.58033   4
   2  -1  -4 295.598 7.32501   4
   2   1   4 305.520 7.49180   4
  -3   1   4 1405.49 27.3762   4
   3   1  -4 1387.10 27.3267   4
   3  -1   4 1463.72 26.9205   4
  -3  -1   4 1445.96 27.1136   4
   3   1   4 1413.49 26.9994   4
   3  -1  -4 1383.33 26.9919   4
  -3   1  -4 1440.38 27.0916   4
   4  -1   4 764.069 15.8005   4
   4   1  -4 732.806 16.2757   4
  -4   1   4 729.843 16.4035   4
   4  -1   4 739.664 15.8662   4
  -4  -1   4 716.151 15.8908   4
  -4   1  -4 725.515 15.8730   4
   4   1   4 748.415 15.9102   4
   4  -1  -4 755.208 16.2474   4
  -5   1   4 162.736 6.73978   2
   5  -1   4 165.929 6.58493   1
  -5  -1  -4 168.065 6.68852   1
   5   1  -4 172.004 6.79426   2
   5  -1   4 179.803 6.27049   4
  -5   1   4 177.361 7.01335   4
   5   1  -4 178.375 6.85248   4
   5  -1   4 175.561 6.49524   4
  -5   1  -4 176.666 6.50343   4
   5  -1  -4 168.013 7.05981   1
   5  -1  -4 178.564 6.90265   4
  -5  -1   4 165.924 6.88125   1
   5   1   4 169.971 6.39582   2
   5   1   4 171.733 4.60309   6
  -5  -1   4 168.967 6.46164   4
   5   1   4 174.874 6.60029   4
   6  -1   4 1.20685 2.47471   1
   6  -1   4 2.51346 1.62778   6
   6  -1   4 3.31289 2.10909   4
  -6  -1  -4 1.41141 2.35216   1
   6   1  -4 5.06435 2.55968   4
  -6   1   4 0.96071 2.46005   4
   6   1  -4 4.75022 2.67092   2
   6  -1   4 1.74725 2.16195   4
  -6   1   4 2.35518 2.65271   2
   6  -1   4 5.69543 2.20262   7
   6   1   4 4.66799 2.42174   4
   6  -1  -4 5.20298 2.50147   7
  -6  -1   4 2.92809 2.23728   7
  -6  -1   4 3.98960 2.38089   4
  -6  -1   4 6.54883 2.96286   1
   6  -1  -4 2.63554 2.75719   1
   6  -1  -4 2.71201 2.47196   4
  -6   1  -4 3.48997 2.37660   2
   6   1   4 4.52493 2.53868   2
  -7  -1  -4 223.662 8.57680   1
   7  -1   4 223.023 8.03881   4
  -7   1   4 239.148 8.94617   2
  -7   1   4 221.593 8.81204   4
   7  -1   4 213.156 8.36465   1
  -7   1   4 212.267 8.75827   1
  -7   1   4 212.060 8.21093   7
   7  -1   4 223.983 8.18615   4
   7   1  -4 229.003 8.78597   2
   7  -1   4 232.163 6.20054   6
   7  -1   4 223.984 7.42100   7
  -7   1  -4 222.305 8.25487   2
   7  -1  -4 231.009 7.93484   7
   7  -1  -4 223.015 8.97736   1
  -7   1  -4 223.246 7.83208   7
   7  -1  -4 226.087 8.68626   4
   7   1   4 212.631 8.22919   4
  -7  -1   4 249.640 9.18972   1
  -7   1  -4 210.572 8.52442   1
  -7  -1   4 220.328 8.16594   4
   7   1   4 202.878 8.13390   2
  -7  -1   4 219.499 7.54613   7
   8   1  -4 1056.98 23.6976   2
   8  -1   4 1100.27 23.9245   4
  -8   1   4 1048.63 24.4759   4
   8  -1   4 1084.35 23.5493   4
   8  -1   4 1067.82 21.9194   7
   8  -1   4 1066.19 24.2863   1
  -8   1   4 1073.43 23.0568   7
   8   1  -4 1075.29 22.9884   7
  -8   1   4 1060.72 24.5336   1
   8   1  -4 1084.90 24.5764   1
  -8   1   4 1082.50 23.9017   2
  -8  -1  -4 1039.99 24.1617   1
   8   1   4 1069.49 24.1137   4
   8   1   4 1028.76 23.3020   2
   8   1   4 1050.48 24.0269   1
  -8   1  -4 1091.98 24.5106   1
   8  -1  -4 1079.05 24.3270   4
  -8  -1   4 1013.73 23.5720   4
  -8   1  -4 1060.28 22.5655   7
  -8  -1   4 1061.95 22.1514   7
   8  -1  -4 1036.11 22.3855   7
  -8  -1   4 1073.40 24.6479   1
  -8   1  -4 1044.82 23.3364   2
   8   1   4 1062.01 22.4902   7
   8  -1  -4 1057.09 24.7743   1
   9  -1   4 56.3610 4.93160   7
   9   1  -4 60.2329 6.09489   1
   9   1  -4 43.4346 5.26512   2
  -9   1   4 60.0950 5.57448   7
   9   1  -4 51.4817 5.17002   7
  -9   1   4 63.3214 6.01732   2
   9  -1   4 45.9722 5.36864   1
  -9   1   4 47.8147 5.60049   1
  -9  -1  -4 58.0418 5.85399   1
   9   1   4 44.2998 5.03676   4
   9  -1  -4 46.5440 5.27554   4
  -9   1  -4 52.4479 5.33452   2
  -9   1  -4 54.3603 5.14499   7
   9   1   4 42.9730 5.04312   2
   9  -1  -4 53.2384 6.14251   1
  -9  -1   4 56.9152 5.81531   1
  -9  -1   4 57.6761 4.91780   7
   9   1   4 56.5803 5.74612   1
   9   1   4 63.6668 5.32796   7
   9  -1  -4 52.5215 4.97232   7
  -9   1  -4 52.8403 5.62240   1
  10   1  -4 71.5352 6.78602   2
 -10   1   4 75.7588 6.74853   2
 -10   1   4 87.7028 6.87189   7
 -10  -1  -4 77.9290 6.99892   1
  10   1  -4 75.4665 6.30346   7
 -10   1   4 60.0357 6.52283   1
  10  -1   4 75.5233 6.91498   1
  10  -1   4 80.5339 6.14582   7
  10   1  -4 82.9402 7.36622   1
 -10   1  -4 73.1507 6.31529   2
 -10   1  -4 76.6625 6.99636   1
 -10  -1   4 79.3480 6.17462   7
  10   1   4 81.5327 6.52355   7
 -10   1  -4 91.7331 6.63126   7
  10   1   4 93.2521 7.87578   1
  10  -1  -4 81.0937 7.62457   1
  10   1   4 82.8938 6.89585   2
  10  -1  -4 86.4389 6.46769   7
 -10  -1   4 86.1650 7.74030   1
  11  -1   4 135.376 7.80869   7
 -11   1   4 148.747 9.15732   1
  11   1  -4 154.691 9.46376   2
 -11   1   4 134.138 9.03466   2
  11   1  -4 143.327 9.47599   1
  11  -1   4 128.332 8.75430   1
 -11  -1  -4 140.381 8.82771   1
  11   1  -4 130.752 8.47785   7
 -11   1   4 136.278 8.50006   7
 -11  -1   4 140.924 9.35720   1
  11   1   4 132.291 9.18274   1
  11  -1  -4 132.270 9.48668   1
  11   1   4 137.472 8.46138   7
  11  -1  -4 147.485 8.25327   7
 -11   1  -4 132.872 8.51254   2
 -11   1  -4 145.628 9.35625   1
  11   1   4 142.159 8.89646   2
 -11   1  -4 133.289 8.26232   7
 -11  -1   4 144.292 7.96087   7
 -12   1   4 -1.2115 3.93377   1
 -12   1   4 15.1862 4.99954   2
 -12  -1  -4 18.4380 5.19607   1
  12   1  -4 13.5910 4.50235   7
  12  -1   4 12.4389 4.24933   7
  12  -1   4 13.4759 4.91320   1
 -12   1   4 8.26994 4.30051   7
  12   1  -4 11.3289 4.73883   2
  12  -1  -4 5.36058 4.55052   1
  12   1   4 14.2895 4.68390   2
 -12   1  -4 14.3857 5.17908   1
  12  -1  -4 2.96873 4.03483   7
 -12  -1   4 11.2995 4.02752   7
  12   1   4 14.6374 4.44241   7
 -12   1  -4 9.61645 4.02285   7
 -12   1  -4 10.0393 4.39549   2
 -12  -1   4 12.2670 4.97978   1
  13  -1   4 -2.6288 4.40935   1
  13  -1   4 -4.0129 3.71024   7
  13   1  -4 0.27244 4.37587   2
 -13   1   4 -4.7104 4.40666   1
  13   1  -4 6.17648 4.53477   7
 -13  -1  -4 -1.3926 4.36467   1
 -13   1   4 -0.0317 4.08451   7
  13  -1  -4 4.52035 4.72375   1
 -13  -1   4 6.67606 5.02326   1
 -13  -1   4 3.44274 3.81014   7
 -13   1  -4 -4.1315 3.91820   1
  13   1   4 0.78809 4.01291   7
  13  -1  -4 -1.1164 3.70792   7
 -13   1  -4 11.5208 4.61609   7
  13   1   4 -0.2224 4.52010   2
 -14   1   4 37.3002 6.29208   7
  14  -1   4 30.5645 5.49209   7
  14  -1   4 37.9689 6.98843   1
  14   1  -4 22.5993 5.68771   7
 -14  -1  -4 29.7845 6.63076   1
 -14  -1   4 36.1933 5.88713   7
  14   1   4 23.2449 5.65053   7
 -14   1  -4 31.3569 6.95773   1
 -14   1  -4 30.8716 5.99745   7
  14  -1  -4 23.3333 6.53811   1
 -14  -1   4 29.0270 6.67193   1
  14  -1  -4 24.3904 5.54864   7
  15  -1   4 6.60968 5.59322   1
  15  -1   4 0.82732 4.57059   7
 -15  -1  -4 19.7508 5.96659   1
  15   1  -4 8.79061 5.23386   7
 -15   1   4 0.66835 5.00465   7
 -15   1  -4 6.24253 4.88970   7
  15  -1  -4 10.4902 6.16308   1
  15   1   4 4.33686 5.11121   7
  15  -1  -4 1.62665 4.60271   7
 -15  -1   4 4.81699 4.52897   7
 -15  -1   4 4.18093 5.57879   1
 -16   1   4 270.554 13.6559   7
  16  -1   4 237.800 14.6898   1
  16  -1   4 228.917 12.5648   7
 -16  -1  -4 250.843 14.6344   1
  16   1  -4 259.272 13.4638   7
 -16  -1   4 253.860 11.9905   7
 -16   1  -4 225.949 12.8376   7
 -16  -1   4 249.770 15.1927   1
  16  -1  -4 228.530 12.4235   7
  16  -1  -4 239.629 15.4037   1
  16   1   4 263.108 13.8801   7
  17  -1   4 18.2793 6.53792   1
  17  -1   4 9.63414 5.45105   7
  17   1  -4 11.1820 5.92886   7
 -17  -1  -4 4.97185 5.94899   1
 -17   1   4 18.3874 6.25595   7
 -17  -1   4 27.0822 7.23153   1
  17  -1  -4 13.6141 6.89020   1
 -17  -1   4 14.4831 5.11373   7
 -17   1  -4 9.09466 5.87761   7
  17   1   4 16.0651 6.22263   7
  17  -1  -4 7.39897 5.09975   7
   0  -2   4 660.070 14.4987   5
   0   2  -4 621.938 12.7163   4
   0  -2   4 650.037 15.5253   3
   0   2   4 644.234 12.2070   4
  -1   2   4 789.930 15.4340   4
  -1  -2  -4 834.755 18.8960   3
  -1  -2  -4 818.268 17.2239   5
   1   2  -4 817.945 15.8555   4
   1  -2   4 852.335 17.5670   5
   1   2   4 809.959 15.3845   4
  -1   2  -4 816.113 15.8032   4
  -1  -2   4 820.472 18.6125   3
  -2  -2  -4 1060.76 23.4333   3
  -2   2   4 1050.32 20.1968   4
   2   2  -4 1047.48 20.3922   4
   2  -2   4 1063.21 23.2615   3
   2  -2   4 1100.89 21.7368   5
  -2  -2  -4 1039.11 21.4409   5
   2   2   4 1060.13 22.3352   6
  -2   2  -4 1072.29 20.3675   4
  -2  -2   4 1067.56 22.9003   3
   3   2  -4 68.4006 3.90563   4
  -3  -2  -4 69.4232 5.90474   3
  -3   2   4 57.4463 3.87754   4
  -3   2   4 65.4966 4.00228   2
   3  -2   4 67.0327 3.06929   4
   3  -2   4 62.2009 2.87966   4
   3   2  -4 64.2928 3.73810   2
  -3   2  -4 59.4866 3.72130   2
   3   2   4 60.6157 4.17497   6
  -3   2  -4 67.3773 3.67450   4
   3  -2  -4 62.3668 2.42900   4
  -3  -2   4 69.8863 5.19732   3
   3   2   4 55.0076 3.64656   2
   4   2  -4 494.267 11.9342   2
  -4   2   4 509.748 12.3975   4
  -4  -2  -4 516.019 14.7972   3
   4  -2   4 527.291 12.4176   1
   4   2  -4 524.028 12.2527   4
  -4   2   4 511.023 12.1779   2
   4  -2   4 521.142 12.9830   6
   4  -2   4 516.562 11.1135   4
   4  -2   4 525.834 11.4073   4
  -4  -2  -4 530.106 12.2975   1
  -4  -2   4 520.323 13.5561   3
   4  -2  -4 512.340 10.9471   4
  -4   2  -4 509.114 11.9335   2
   4   2   4 517.386 12.2422   6
  -4  -2   4 523.151 12.7166   1
   4  -2  -4 547.120 12.9960   1
  -4   2  -4 536.319 12.0571   4
   4   2   4 485.550 11.6276   2
   4  -2  -4 531.406 11.0509   4
   5  -2   4 29.6726 2.60732   4
   5   2  -4 34.3098 3.50115   4
   5  -2   4 25.1440 2.78470   4
   5  -2   4 27.3160 3.35068   1
  -5  -2  -4 27.7916 3.27767   1
   5   2  -4 29.0573 3.36479   2
  -5   2   4 27.6400 3.36815   2
  -5  -2  -4 30.2082 4.86936   3
   5  -2   4 21.1858 2.97996   6
  -5   2   4 20.0584 3.09295   4
  -5   2  -4 25.8382 3.14303   2
   5  -2  -4 27.7764 3.65568   1
   5   2   4 24.6746 2.92665   2
   5   2   4 25.5025 2.62210   6
  -5  -2   4 26.6667 3.63425   1
   5  -2  -4 22.3857 2.55197   4
  -5   2  -4 25.7415 2.93124   4
  -5  -2   4 28.1747 3.79632   3
   6  -2   4 723.424 15.9810   4
  -6   2   4 742.999 17.5479   4
  -6  -2  -4 721.413 17.1484   1
  -6  -2  -4 701.207 19.3463   3
   6   2  -4 701.253 16.8350   2
   6  -2   4 740.113 16.3991   4
  -6   2   4 718.294 17.0326   2
   6  -2   4 740.172 14.6729   7
   6  -2   4 753.312 16.8840   6
   6  -2   4 734.346 17.3030   1
  -6   2  -4 741.060 16.7567   2
  -6  -2   4 745.448 17.7187   3
   6  -2  -4 728.281 16.3431   4
   6   2   4 715.367 16.4649   2
  -6  -2   4 733.572 17.5679   1
   6  -2  -4 733.102 17.6310   1
   7   2  -4 510.051 13.8886   2
  -7   2   4 518.233 14.1031   2
   7  -2   4 524.154 13.4585   4
  -7  -2  -4 524.678 16.0798   3
   7  -2   4 511.653 11.8291   7
  -7  -2  -4 533.404 14.1532   1
   7  -2   4 515.568 12.9048   4
   7  -2   4 510.575 14.1353   1
   7  -2   4 535.322 13.0977   6
  -7   2   4 523.080 14.5578   4
   7  -2  -4 512.200 14.6697   1
   7  -2  -4 520.773 11.9313   7
   7   2   4 512.509 13.5682   2
   7  -2  -4 522.987 13.6317   4
  -7  -2   4 508.269 14.4184   1
  -7   2  -4 508.350 13.6967   2
  -7  -2   4 528.541 11.3737   7
  -7  -2   4 559.018 14.4869   3
  -8  -2  -4 41.0622 4.87934   1
  -8   2   4 53.8609 5.07016   7
   8  -2   4 37.6005 4.68637   1
  -8   2   4 39.3951 4.84577   2
   8  -2   4 32.9250 3.62284   7
  -8   2   4 37.3603 4.87932   4
   8  -2   4 47.5503 4.16144   4
  -8  -2  -4 35.3739 5.38645   3
   8  -2   4 43.1116 3.80585   6
   8   2  -4 34.5685 4.62897   2
   8   2   4 51.5307 4.87462   2
   8  -2  -4 41.2720 4.12006   4
  -8   2  -4 41.5914 4.67740   2
   8  -2  -4 39.4692 5.04388   1
  -8   2  -4 44.8139 4.74309   7
   8  -2  -4 41.6200 3.88985   7
  -8  -2   4 55.9842 5.23581   3
  -8  -2   4 45.6608 3.60162   7
  -8  -2   4 39.0575 4.82634   1
  -9   2   4 1009.70 24.4567   2
  -9   2   4 1065.57 23.7711   7
   9  -2   4 1071.09 21.8066   7
  -9  -2  -4 1068.36 25.1335   1
   9   2  -4 1032.29 24.3762   2
   9  -2   4 1049.90 25.1638   1
   9   2  -4 1035.22 23.4239   7
  -9  -2  -4 1049.60 26.7455   3
  -9  -2   4 1049.04 25.2278   1
  -9  -2   4 1096.07 24.8600   3
   9   2   4 1056.72 24.1771   2
   9  -2  -4 1036.32 25.5626   1
   9  -2  -4 1060.90 21.9251   7
  -9   2  -4 1075.80 23.5099   7
  -9  -2   4 1075.47 21.3429   7
   9   2   4 1021.22 22.9483   7
  -9   2  -4 1067.25 24.3540   2
  10  -2   4 519.594 13.6067   7
  10  -2   4 563.612 16.6492   1
 -10   2   4 494.695 16.1376   2
  10   2  -4 512.570 15.1449   7
  10   2  -4 526.121 16.2534   2
 -10  -2  -4 524.027 16.2063   1
 -10  -2  -4 507.239 17.1082   3
 -10   2   4 534.252 15.4718   7
  10  -2  -4 515.638 16.8032   1
  10   2   4 536.796 15.9129   2
  10   2   4 491.466 14.7274   7
 -10   2  -4 510.533 15.8117   2
  10  -2  -4 522.759 13.8514   7
 -10  -2   4 554.262 16.7851   1
 -10  -2   4 547.663 13.1733   7
 -10   2  -4 534.674 15.1411   7
 -11   2   4 12.6713 4.47969   2
  11   2  -4 17.2131 4.99591   2
 -11   2   4 15.2688 4.40110   7
  11  -2   4 21.3406 4.10557   7
  11  -2   4 13.9224 4.59297   1
 -11  -2  -4 12.6214 4.44021   1
 -11  -2  -4 11.6840 4.95039   3
  11   2  -4 17.4419 4.55773   7
 -11   2  -4 14.3648 4.29920   7
  11   2   4 14.6387 4.46637   7
  11   2   4 11.1652 4.26890   2
 -11  -2   4 16.7554 4.82753   1
  11  -2  -4 24.3490 5.55088   1
 -11  -2   4 10.7267 3.35184   7
 -11   2  -4 13.3132 4.28643   2
  11  -2  -4 17.0030 3.84953   7
 -12   2   4 1006.46 25.3589   7
  12   2  -4 1049.76 26.6244   2
 -12   2   4 1013.13 26.4181   2
 -12  -2  -4 1016.09 26.7989   1
  12  -2   4 1089.37 27.7312   1
 -12  -2  -4 1036.40 27.7841   3
  12  -2   4 1015.17 23.1754   7
  12   2  -4 1022.30 25.1928   7
  12  -2  -4 1030.98 23.4156   7
 -12  -2   4 1031.89 27.4680   1
 -12   2  -4 1010.70 26.0755   2
 -12   2  -4 1017.09 24.9905   7
  12   2   4 977.831 24.7398   7
  12  -2  -4 1024.36 27.5916   1
  12   2   4 1019.17 26.2957   2
 -12  -2   4 1018.98 22.2305   7
  13   2  -4 346.412 13.9995   7
  13  -2   4 335.062 15.1972   1
 -13   2   4 359.610 14.1453   7
 -13   2   4 366.484 15.1244   2
 -13  -2  -4 331.048 15.0470   3
 -13  -2  -4 335.677 14.9036   1
  13  -2   4 334.471 12.2875   7
  13   2  -4 360.005 15.0276   2
  13  -2  -4 345.606 12.5819   7
 -13  -2   4 323.496 15.0191   1
 -13   2  -4 359.864 14.6218   2
  13   2   4 338.126 13.7696   7
 -13  -2   4 335.758 11.3074   7
  13  -2  -4 346.397 15.5194   1
 -13   2  -4 348.776 13.9037   7
  13   2   4 385.383 15.1814   2
  14   2  -4 8.37398 5.08744   7
  14  -2   4 10.7506 5.44397   1
 -14  -2  -4 5.72475 5.25054   1
  14  -2   4 12.3852 4.61110   7
 -14   2   4 11.5359 5.47595   2
  14   2  -4 6.49291 5.24214   2
 -14   2   4 2.98912 4.68410   7
  14   2   4 8.89996 5.24759   2
  14   2   4 6.84696 4.92844   7
 -14  -2   4 3.54381 4.01427   7
 -14  -2   4 3.95212 5.07355   1
  14  -2  -4 4.69591 5.45556   1
  14  -2  -4 4.49449 4.39695   7
 -14   2  -4 1.25274 4.53683   7
 -14   2  -4 3.32000 4.84915   2
 -15  -2  -4 32.3022 6.98138   1
  15  -2   4 29.1525 5.55987   7
  15   2  -4 39.9639 7.43747   2
 -15   2   4 29.8748 6.78294   7
  15  -2   4 43.6568 7.91014   1
  15   2  -4 30.6992 6.58656   7
  15  -2  -4 38.8464 6.03869   7
  15   2   4 35.9928 6.82602   7
 -15   2  -4 38.9598 7.05236   7
  15   2   4 30.7716 7.36258   2
 -15  -2   4 23.2068 6.78333   1
  15  -2  -4 29.8517 7.30649   1
  16  -2   4 16.1993 6.95260   1
  16   2  -4 28.2202 6.74497   7
 -16   2   4 38.1507 7.27213   7
  16  -2   4 35.5534 6.18454   7
 -16  -2  -4 36.9072 7.81054   1
  16  -2  -4 24.1638 5.74900   7
 -16   2  -4 32.6964 7.00220   7
  16   2   4 28.7895 7.14638   7
  16  -2  -4 26.9618 7.73449   1
 -16  -2   4 22.5867 7.30089   1
 -17   2   4 57.2489 8.60042   7
 -17  -2  -4 47.4244 8.73516   1
  17  -2   4 56.5366 9.32607   1
  17  -2   4 55.8100 7.13412   7
  17   2  -4 48.2386 7.80243   7
  17  -2  -4 47.8438 9.07701   1
  17   2   4 57.3540 8.37397   7
 -17   2  -4 43.0494 7.42702   7
  17  -2  -4 43.2761 6.64838   7
 -17  -2   4 49.9472 8.78087   1
   0  -3  -4 0.69609 2.35171   5
   0  -3  -4 2.09604 2.76683   3
   0   3  -4 -1.0473 1.25831   2
   0  -3   4 -0.3098 2.84792   3
   0  -3   4 -1.4101 2.19717   5
   0   3   4 2.04846 1.23460   2
   0   3  -4 1.13632 1.02435   4
   1  -3   4 67.8682 4.91472   5
  -1  -3  -4 60.9239 5.37899   3
   1   3  -4 57.4459 2.47466   4
   1  -3   4 64.5262 5.64659   3
  -1   3   4 54.2646 2.89678   2
  -1  -3  -4 58.1197 4.66455   5
   1   3  -4 54.8084 2.84869   2
  -1   3  -4 61.1634 2.74193   4
  -1   3  -4 54.9668 2.98323   2
   1  -3  -4 62.3488 4.99758   3
   1   3   4 54.1719 2.77168   2
  -1  -3   4 59.4067 5.45767   3
   2   3  -4 161.293 4.73706   4
  -2  -3  -4 162.146 6.87248   5
  -2   3   4 170.437 4.62076   4
   2  -3   4 175.529 7.13266   5
   2  -3   4 165.380 7.87541   3
   2  -3   4 151.024 7.23698   6
  -2   3   4 163.103 5.12796   2
   2  -3   4 170.587 5.54782   1
   2   3  -4 164.532 4.86948   2
  -2  -3  -4 183.142 8.47003   3
  -2   3  -4 170.606 5.16902   2
  -2  -3   4 185.860 8.42869   3
   2   3   4 179.992 4.96765   2
  -2   3  -4 173.467 5.01668   4
   2  -3  -4 163.657 6.84259   3
  -2   3  -4 167.841 4.93760   4
   3  -3   4 977.730 23.4269   3
  -3   3   4 1002.36 19.7041   4
   3   3  -4 996.859 19.2704   2
  -3  -3  -4 984.222 23.9859   3
   3  -3   4 1035.22 20.2638   1
   3   3  -4 1000.17 19.6485   4
  -3   3   4 964.447 19.5068   2
   3  -3   4 1008.73 23.1305   6
  -3  -3  -4 997.413 19.8114   1
  -3  -3   4 1001.22 20.3353   1
   3  -3  -4 1004.99 20.4601   1
  -3  -3   4 986.539 23.4681   3
  -3   3  -4 1028.42 19.8504   4
   3   3   4 994.485 19.1205   2
  -3   3  -4 1003.34 19.5591   2
   3  -3  -4 997.973 21.5346   3
  -3   3  -4 1037.78 20.0011   4
  -4   3   4 545.291 12.8262   4
   4   3  -4 521.459 12.3884   2
   4  -3   4 540.258 15.7283   3
   4   3  -4 561.666 12.6545   4
   4  -3   4 543.916 14.7071   6
  -4  -3  -4 547.106 12.7198   1
   4  -3   4 546.408 12.9732   1
  -4   3  -4 564.900 12.8486   4
  -4   3  -4 550.629 12.6708   2
  -4  -3   4 527.318 13.1595   1
  -4  -3   4 555.225 15.6320   3
   4  -3  -4 540.807 13.4330   1
   4   3   4 555.356 12.3507   2
  -4   3  -4 565.918 12.6175   4
   5  -3   4 146.102 6.87819   6
  -5   3   4 143.892 6.31600   4
   5   3  -4 129.837 6.04152   2
  -5   3   4 130.289 6.14259   2
  -5  -3  -4 131.615 5.89966   1
   5   3  -4 134.648 5.90955   4
   5  -3   4 128.890 6.04822   1
  -5  -3  -4 135.869 8.47911   3
   5   3   4 138.032 5.92038   2
  -5  -3   4 135.981 7.68111   3
  -5   3  -4 139.841 6.00953   2
  -5  -3   4 131.721 6.21320   1
   5  -3  -4 129.762 6.33995   1
  -6  -3  -4 9.54613 2.85705   1
  -6   3   4 11.7636 3.06161   2
   6   3  -4 8.68630 2.81348   2
   6  -3   4 6.29747 2.87059   6
  -6   3   4 7.71074 2.82057   4
  -6  -3  -4 5.04678 3.87404   3
   6  -3   4 9.18564 1.40245   4
   6  -3   4 3.83849 2.58799   1
  -6  -3   4 5.63239 2.76746   1
   6   3   4 6.64635 2.75368   2
  -6  -3   4 10.6611 3.59261   3
  -6   3  -4 6.43871 2.62273   2
   6  -3  -4 3.78267 2.81121   1
  -7  -3  -4 160.723 7.53733   1
   7  -3   4 167.325 5.49193   4
   7  -3   4 174.440 7.65101   6
  -7   3   4 151.676 7.73806   2
  -7  -3  -4 163.904 9.70655   3
  -7   3   4 175.854 8.17106   4
   7   3  -4 156.509 7.63482   2
   7  -3   4 169.452 7.80879   1
  -7  -3   4 177.422 7.94787   1
  -7   3  -4 176.571 7.68716   2
  -7  -3   4 168.469 8.54934   3
   7   3   4 163.817 7.53332   2
   7  -3  -4 170.350 8.13860   1
   7  -3  -4 159.199 5.27778   4
   8  -3   4 854.027 21.1490   1
   8   3  -4 843.052 20.8209   2
  -8   3   4 864.069 21.0431   2
  -8  -3  -4 854.421 23.6859   3
   8  -3   4 900.735 20.9059   6
  -8  -3  -4 869.824 20.9161   1
   8  -3   4 873.368 18.3639   4
  -8  -3   4 874.460 21.5160   1
  -8   3  -4 864.164 20.7052   2
   8   3   4 873.131 20.5331   2
   8  -3  -4 821.316 18.6344   4
  -8  -3   4 890.132 22.2456   3
   8  -3  -4 854.107 21.5919   1
  -9  -3  -4 46.5334 5.44504   1
  -9  -3  -4 39.3108 6.40553   3
  -9   3   4 43.0390 5.52171   2
   9   3  -4 44.3303 5.52793   2
   9  -3   4 50.7708 5.83564   1
  -9   3  -4 42.0301 5.23912   2
   9  -3  -4 47.2724 5.98732   1
  -9  -3   4 42.5817 5.46909   1
   9   3   4 44.8747 5.27381   2
  -9  -3   4 43.5793 5.82730   3
 -10   3   4 61.6272 6.59200   2
 -10  -3  -4 53.6918 6.20233   1
 -10  -3  -4 59.1331 7.52568   3
  10  -3   4 42.5565 5.80004   1
  10   3  -4 49.3851 6.12303   2
 -10  -3   4 56.7983 6.70157   3
 -10  -3   4 61.9808 6.87870   1
 -10   3  -4 58.3919 6.08715   2
  10   3   4 58.3424 6.05948   2
  10  -3  -4 56.4170 6.71191   1
 -11  -3  -4 108.367 9.84336   3
  11  -3   4 123.301 8.93598   1
 -11  -3  -4 97.1572 8.26490   1
  11   3  -4 109.992 8.86702   2
 -11   3   4 108.027 8.68124   2
  11   3   4 115.248 8.64157   2
  11  -3  -4 113.136 9.14660   1
 -11  -3   4 98.8899 8.54077   1
 -11   3  -4 99.7116 8.14421   2
  12   3  -4 13.5106 5.04060   2
 -12   3   4 15.9997 5.41897   2
 -12  -3  -4 9.18941 4.57392   1
 -12  -3  -4 17.1970 5.88106   3
  12  -3   4 13.6006 5.15684   1
  12   3   4 14.9730 5.00184   2
 -12  -3   4 16.6880 5.26099   1
  12  -3  -4 10.3441 5.26541   1
 -12   3  -4 8.91951 4.79105   7
 -12   3  -4 10.1589 4.80177   2
 -13  -3  -4 -8.2376 3.71616   1
 -13   3   4 -7.5229 4.27829   7
 -13   3   4 -1.7395 4.55277   2
 -13  -3  -4 -0.3195 5.06570   3
  13  -3   4 -3.7642 4.51953   1
  13   3  -4 5.47320 4.67254   2
 -13   3  -4 1.35939 4.37751   2
  13   3   4 -5.4435 4.22220   2
 -13   3  -4 5.52858 4.59402   7
  13  -3  -4 3.67492 5.20775   1
 -13  -3   4 1.64517 4.49876   1
 -14  -3  -4 29.0483 7.07050   3
  14   3  -4 29.0492 7.02108   2
 -14  -3  -4 25.0905 6.49569   1
 -14   3   4 13.0475 5.93301   2
 -14   3   4 23.7460 6.24594   7
  14  -3   4 23.5911 6.27469   1
  14   3   4 24.2322 6.36008   2
 -14  -3   4 27.6983 6.62687   1
 -14   3  -4 15.5524 5.57129   7
  14  -3  -4 20.7472 6.28847   1
 -14   3  -4 23.6952 6.05129   2
 -15   3   4 11.8426 5.71731   2
 -15   3   4 9.71805 5.50347   7
 -15  -3  -4 7.60397 5.32775   1
  15  -3   4 3.93489 5.90206   1
  15   3  -4 8.61163 5.67243   2
  15  -3  -4 9.39246 5.84837   1
 -15   3  -4 11.0347 5.99141   7
  15   3   4 3.13856 5.58860   2
 -15  -3   4 9.62319 5.80689   1
 -15   3  -4 7.99824 5.68726   2
 -16   3   4 229.797 14.7219   2
  16  -3   4 222.833 14.4016   1
 -16   3   4 247.101 14.2534   7
  16   3  -4 231.165 14.8671   2
 -16  -3  -4 194.366 13.6396   1
  16   3   4 239.986 15.0443   2
 -16   3  -4 240.858 13.7790   7
 -16  -3   4 227.911 14.2344   1
  16  -3  -4 226.031 15.3174   1
   0   4   4 140.665 3.90511   2
   0  -4  -4 149.149 4.48311   1
   0  -4   4 142.219 7.88211   6
   0  -4  -4 132.361 7.12967   5
   0  -4  -4 138.918 7.84634   3
   0  -4   4 144.335 4.59513   1
   0   4  -4 141.993 4.21938   2
   0  -4   4 138.309 8.44289   3
   0  -4   4 133.524 7.41762   5
  -1  -4  -4 28.2662 4.74692   3
   1   4  -4 25.8854 2.05478   2
  -1  -4  -4 24.0123 2.19248   1
   1  -4   4 23.7513 4.19194   5
   1  -4   4 25.3838 2.41878   1
   1  -4   4 23.5840 4.63393   3
   1  -4   4 22.2726 4.21199   6
  -1  -4  -4 20.2779 3.93625   5
  -1   4   4 22.1217 2.02705   2
  -1  -4   4 21.7755 4.02424   6
  -1   4  -4 24.1325 2.12853   2
   1   4   4 24.5688 1.84818   2
  -1  -4   4 23.0720 4.11433   5
  -1  -4   4 25.9443 4.69997   3
   1  -4  -4 25.8628 4.19196   5
   1  -4  -4 21.7877 2.34803   1
  -1  -4   4 23.1022 2.30778   1
   1  -4  -4 30.4570 4.37935   3
   2   4  -4 49.0520 2.45043   4
   2  -4   4 38.8859 4.81121   6
  -2   4   4 53.7678 3.28862   2
   2  -4   4 52.8682 3.42449   1
  -2  -4  -4 47.3255 5.85315   3
   2   4  -4 52.7760 3.13742   2
   2  -4   4 50.0524 5.46886   3
  -2  -4  -4 50.1418 3.11995   1
   2  -4   4 45.6864 5.06268   5
  -2  -4  -4 54.8651 5.34530   5
  -2  -4   4 40.9982 5.01395   6
   2   4   4 53.7423 2.92676   2
  -2  -4   4 49.8046 3.42767   1
  -2   4  -4 51.0307 2.95595   4
   2  -4  -4 51.9485 3.64201   1
  -2   4  -4 47.4604 3.22012   2
   2  -4  -4 52.3418 5.25138   3
  -2  -4   4 51.2815 5.86414   3
   3  -4   4 270.421 10.3182   5
   3   4  -4 275.847 7.42943   2
   3  -4   4 284.539 10.7896   6
   3  -4   4 286.702 11.5473   3
   3   4  -4 288.325 7.11832   4
  -3  -4  -4 282.113 7.56582   1
   3  -4   4 275.649 7.91007   1
  -3  -4  -4 256.475 11.4170   3
  -3   4   4 276.926 7.78359   2
  -3  -4   4 287.619 8.06848   1
  -3  -4   4 266.491 11.5701   3
   3  -4  -4 282.198 8.31490   1
  -3   4  -4 289.921 7.47907   4
   3  -4  -4 289.821 10.1613   3
   3   4   4 282.190 7.33987   2
  -3   4  -4 289.376 7.82305   2
   4  -4   4 8.56184 3.52441   5
   4   4  -4 4.76805 1.84911   4
   4  -4   4 5.23454 2.29014   1
   4  -4   4 2.43379 2.92736   6
   4   4  -4 3.22739 2.18631   2
  -4  -4  -4 7.59133 4.10335   3
  -4  -4  -4 3.09014 2.11029   1
   4  -4   4 5.41204 3.84049   3
  -4  -4   4 3.12818 3.60266   3
   4  -4  -4 5.89059 2.46785   1
   4   4   4 2.98670 2.10610   2
  -4   4  -4 4.35188 2.23294   2
   4  -4  -4 2.15910 3.04630   3
  -4  -4   4 5.89845 2.41981   1
   5  -4   4 185.378 7.32110   1
   5  -4   4 177.019 9.78282   3
   5   4  -4 174.344 7.01321   2
   5  -4   4 173.165 8.80025   6
  -5  -4  -4 190.163 10.6685   3
  -5   4   4 187.167 7.43770   2
  -5  -4  -4 185.463 6.90317   1
  -5   4  -4 190.669 7.13855   2
  -5  -4   4 187.738 7.42608   1
  -5  -4   4 175.374 9.86070   3
   5   4   4 178.290 6.83199   2
   5  -4  -4 188.941 7.75581   1
   6  -4   4 567.687 16.6388   6
   6   4  -4 565.660 14.4709   2
  -6  -4  -4 552.410 14.3846   1
  -6   4   4 591.338 14.9723   2
   6  -4   4 585.592 14.9221   1
  -6  -4  -4 558.770 18.7895   3
  -6  -4   4 571.662 17.8556   3
  -6   4  -4 588.774 14.6432   2
   6  -4  -4 537.755 15.0765   1
  -6  -4   4 548.690 14.8494   1
   6   4   4 580.238 14.2234   2
   7   4  -4 85.0144 6.45322   2
  -7   4   4 72.4067 6.07191   2
   7  -4   4 78.5877 6.23818   1
   7  -4   4 91.4028 6.93040   6
  -7  -4  -4 69.0249 8.02956   3
  -7  -4  -4 75.7589 5.82859   1
   7  -4  -4 72.1533 6.05393   1
  -7  -4   4 83.8133 7.68819   3
  -7  -4   4 70.9225 5.88131   1
   7   4   4 65.6470 5.50055   2
  -7   4  -4 80.6165 6.11537   2
  -7  -4   4 80.0310 6.72477   6
  -8   4   4 8.74718 3.77280   2
  -8  -4  -4 4.34370 4.90060   3
   8  -4   4 12.0540 3.88476   6
   8   4  -4 11.2951 3.87761   2
   8  -4   4 11.8197 3.78025   1
  -8  -4  -4 7.57601 3.61441   1
  -8  -4   4 6.98596 4.51908   3
   8  -4  -4 4.46520 3.55706   1
   8   4   4 8.32876 3.57290   2
  -8   4  -4 9.42169 3.60375   2
  -8  -4   4 7.25232 3.66072   1
  -9  -4  -4 -0.8367 4.62958   3
  -9  -4  -4 0.30802 3.25443   1
   9   4  -4 -0.8343 3.44890   2
   9  -4   4 -0.4771 3.32474   1
  -9   4   4 5.22702 3.84146   2
  -9  -4   4 0.08789 3.44858   1
   9   4   4 1.44260 3.60157   2
  -9   4  -4 1.05690 3.36310   2
   9  -4  -4 -7.7156 3.22940   1
  -9  -4   4 13.4021 4.69037   3
 -10   4   4 38.5807 5.93609   2
 -10  -4  -4 44.7582 5.83568   1
  10  -4   4 42.2766 5.77282   1
  10   4  -4 39.3048 5.86634   2
 -10  -4  -4 37.4223 7.20104   3
  10   4   4 31.5362 5.22571   2
 -10  -4   4 43.5202 6.24718   1
 -10  -4   4 48.2514 6.95444   3
 -10   4  -4 39.7598 5.73898   2
  10  -4  -4 30.5974 5.66896   1
 -11  -4  -4 -4.3755 4.91704   3
 -11   4   4 -5.9623 3.76330   2
  11   4  -4 5.26665 4.57605   2
 -11  -4  -4 2.16507 3.91919   1
  11  -4   4 -1.6224 4.12001   1
 -11   4  -4 -3.0613 3.68267   2
 -11  -4   4 -3.2241 3.99852   1
  11   4   4 3.22553 4.07398   2
  11  -4  -4 2.41831 4.58413   1
  12   4  -4 78.6886 8.14919   2
 -12  -4  -4 79.1244 9.50770   3
 -12   4   4 64.0810 7.83078   2
  12  -4   4 75.1192 8.32695   1
 -12  -4  -4 57.9537 7.19525   1
 -12  -4   4 81.3923 8.36861   1
  12   4   4 77.4440 7.90390   2
  12  -4  -4 72.4456 8.27931   1
 -12   4  -4 88.4784 8.44840   2
 -13  -4  -4 383.612 15.7917   1
 -13  -4  -4 352.469 17.2813   3
  13  -4   4 358.979 15.7724   1
 -13   4   4 345.943 15.7398   2
  13   4  -4 356.865 15.5452   2
 -13   4  -4 383.738 15.8574   2
 -13  -4   4 391.403 15.9514   1
  13   4   4 378.740 15.7831   2
  13  -4  -4 375.300 16.2778   1
 -14  -4  -4 371.112 16.0518   1
 -14   4   4 378.934 16.6560   2
  14   4  -4 338.709 16.1470   2
  14  -4   4 354.576 16.2832   1
 -14  -4  -4 315.323 17.2937   3
 -14  -4   4 367.035 16.2950   1
 -14   4  -4 382.839 16.2886   2
  14  -4  -4 343.939 16.5457   1
  14   4   4 372.991 16.2296   2
 -15  -4  -4 39.1588 7.27666   1
  15  -4   4 58.5248 8.54669   1
  15   4  -4 45.1831 8.13821   2
 -15   4   4 54.6075 8.38885   2
 -15   4  -4 43.4530 7.74463   2
  15  -4  -4 42.2712 8.20004   1
  15   4   4 49.4973 8.09524   2
 -15  -4   4 55.2161 8.35462   1
   0  -5  -4 0.89295 3.71393   3
   0   5  -4 2.57945 1.50011   2
   0  -5   4 -3.3832 3.03159   5
   0  -5  -4 -0.4429 3.29416   5
   0  -5   4 -2.4150 3.16072   6
   0  -5   4 3.58783 4.23277   3
   0   5   4 1.51218 1.30385   2
   1   5  -4 34.3401 2.56304   2
   1  -5   4 35.0582 5.11117   5
   1  -5   4 36.8011 5.99133   3
  -1   5   4 34.1283 2.70151   2
  -1  -5  -4 31.2646 4.98922   5
   1  -5   4 38.1260 3.02922   1
  -1  -5  -4 38.3084 6.06277   3
   1  -5   4 38.5227 5.41463   6
  -1  -5   4 41.1481 6.41909   3
  -1  -5   4 28.4032 5.12974   6
  -1  -5   4 37.4188 5.38215   5
   1   5   4 35.9301 2.56901   2
   1  -5  -4 41.7527 5.54526   5
  -1   5  -4 34.0626 2.57289   2
   1  -5  -4 33.5527 5.45565   3
   2  -5   4 120.668 8.20664   5
  -2  -5  -4 115.283 9.16612   3
   2  -5   4 132.146 5.01477   1
  -2   5   4 123.332 4.82717   2
   2   5  -4 121.449 4.60809   2
   2  -5   4 124.587 9.14325   3
   2  -5   4 135.341 8.60988   6
  -2  -5  -4 116.761 8.01092   5
  -2  -5   4 127.092 4.69188   1
  -2  -5   4 122.344 9.14369   3
  -2  -5   4 122.428 8.35323   6
   2  -5  -4 120.906 8.34380   5
   2  -5  -4 132.510 8.46033   3
   2   5   4 129.094 4.29576   2
   2  -5  -4 130.499 5.00666   1
  -2   5  -4 129.034 4.92474   2
   3   5  -4 576.859 12.6244   2
   3  -5   4 592.999 17.6084   5
   3  -5   4 581.335 18.6953   3
  -3  -5  -4 576.983 12.6593   1
   3  -5   4 584.312 13.2493   1
   3  -5   4 562.824 17.8075   6
  -3  -5  -4 552.446 18.7824   3
  -3   5   4 571.562 12.9471   2
  -3  -5   4 565.035 17.7351   6
   3  -5  -4 545.288 16.9268   3
  -3  -5   4 561.197 12.8423   1
  -3   5  -4 583.175 12.9167   2
   3   5   4 568.945 12.1352   2
  -3  -5   4 568.190 18.9678   3
   3  -5  -4 586.068 13.3999   1
   4   5  -4 329.727 9.51206   2
   4  -5   4 329.297 12.8845   5
   4  -5   4 356.121 14.3157   3
   4  -5   4 328.364 13.1180   6
  -4  -5  -4 345.808 9.27278   1
   4  -5   4 351.619 9.91435   1
  -4   5   4 334.078 9.81124   2
  -4  -5  -4 345.632 14.9205   3
  -4   5  -4 345.230 9.66970   2
   4  -5  -4 328.520 12.4307   3
   4   5   4 348.734 9.13933   2
   4  -5  -4 354.069 10.1794   1
  -4  -5   4 356.055 14.7427   3
  -4  -5   4 345.999 9.72415   1
  -4  -5   4 336.175 13.2787   6
   5  -5   4 73.4162 6.93522   6
  -5  -5  -4 55.4489 7.73864   3
   5  -5   4 78.2244 7.36090   5
   5   5  -4 72.9396 5.57573   2
   5  -5   4 68.0646 7.55692   3
  -5   5   4 70.2768 5.29044   2
  -5  -5  -4 72.5243 4.94249   1
   5  -5   4 66.1182 5.16314   1
  -5   5  -4 68.8779 5.30247   2
   5   5   4 67.2022 5.07666   2
   5  -5  -4 77.9995 5.71350   1
  -5  -5   4 77.1207 5.57329   1
  -5  -5   4 74.3718 7.29605   6
  -5  -5   4 79.2087 8.12395   3
  -6  -5  -4 4.68377 5.02500   3
   6  -5   4 2.08909 3.60928   6
   6  -5   4 9.03712 3.16026   1
   6   5  -4 6.55608 3.21466   2
  -6   5   4 3.83212 3.14588   2
  -6  -5  -4 4.26189 2.84916   1
  -6  -5   4 -1.4875 4.41573   3
  -6  -5   4 5.34641 4.07767   6
   6   5   4 3.24949 2.89323   2
  -6  -5   4 6.23606 3.29002   1
   6  -5  -4 5.08100 3.43833   1
  -6   5  -4 6.39529 3.16947   2
   7  -5   4 120.966 7.29293   1
  -7  -5  -4 96.1678 10.0018   3
   7   5  -4 111.019 7.36456   2
  -7  -5  -4 104.803 6.57502   1
  -7   5   4 111.130 7.52766   2
  -7   5  -4 97.9139 6.95719   2
   7   5   4 115.824 7.10124   2
  -7  -5   4 109.843 7.03137   1
   7  -5  -4 123.415 7.92357   1
  -7  -5   4 119.517 9.98536   3
   8   5  -4 547.577 16.2282   2
  -8  -5  -4 538.823 20.5257   3
   8  -5   4 575.469 16.3850   1
  -8   5   4 554.354 16.3910   2
  -8  -5  -4 544.636 15.5749   1
   8   5   4 529.985 15.4698   2
  -8  -5   4 576.253 16.4333   1
   8  -5  -4 577.291 16.8729   1
  -8  -5   4 556.394 19.6673   3
  -8   5  -4 538.437 15.8476   2
  -9  -5  -4 30.6616 4.90048   1
   9  -5   4 22.2422 4.88027   1
   9   5  -4 27.2249 5.17514   2
  -9   5   4 36.5342 5.71083   2
  -9  -5  -4 31.4035 7.37907   3
  -9  -5   4 22.5020 6.26692   3
   9  -5  -4 27.0720 5.35140   1
   9   5   4 31.9553 5.09094   2
  -9  -5   4 22.2737 4.98283   1
  -9   5  -4 21.4341 4.87544   2
 -10   5   4 48.1582 6.67766   2
  10  -5   4 57.5455 6.92717   1
 -10  -5  -4 48.2676 6.18903   1
  10   5  -4 51.6697 6.63842   2
 -10  -5  -4 51.0923 8.66946   3
  10  -5  -4 55.8863 6.95157   1
 -10  -5   4 70.3944 8.90001   3
  10   5   4 47.9590 5.99747   2
 -10  -5   4 53.8561 6.68889   1
 -10   5  -4 50.1595 6.11107   2
 -11   5   4 76.5856 7.99290   2
  11  -5   4 72.9874 7.97869   1
 -11  -5  -4 89.4188 10.5479   3
  11   5  -4 74.3892 7.81651   2
 -11  -5  -4 81.5887 7.97692   1
  11  -5  -4 73.5797 8.16417   1
 -11  -5   4 69.6968 7.76988   1
  11   5   4 73.6226 7.36698   2
 -11   5  -4 69.9518 7.54290   2
 -11  -5   4 87.1585 9.52649   3
 -12  -5  -4 14.6993 6.88372   3
  12   5  -4 3.67826 4.85673   2
 -12   5   4 -2.2867 4.33913   2
  12  -5   4 0.06114 4.59498   1
 -12  -5  -4 3.48905 4.54769   1
 -12   5  -4 5.80961 4.78280   2
  12  -5  -4 8.31746 5.52949   1
 -12  -5   4 9.57176 4.88229   1
  12   5   4 7.29550 4.95761   2
  13   5  -4 0.34998 4.92126   2
 -13  -5  -4 -0.7712 4.57225   1
 -13  -5  -4 10.8958 6.81491   3
 -13   5   4 1.10196 4.91267   2
  13  -5   4 3.38175 5.28262   1
 -13  -5   4 -6.2156 4.63357   1
  13  -5  -4 0.79030 5.21887   1
  13   5   4 -2.5662 4.45199   2
 -13   5  -4 -1.4869 4.77502   2
 -14  -5  -4 19.0119 7.77136   3
 -14   5   4 17.2992 6.43432   2
  14  -5   4 15.3066 6.01513   1
 -14  -5  -4 15.1199 6.04155   1
  14   5  -4 11.6549 5.79819   2
  14  -5  -4 2.90028 5.70843   1
 -14  -5   4 16.3812 6.04515   1
 -14   5  -4 10.0899 5.54050   2
  14   5   4 20.7855 6.24625   2
   0  -6   4 239.077 13.0656   3
   0  -6  -4 240.841 12.7750   3
   0  -6  -4 228.705 11.8061   5
   0   6   4 245.532 6.00937   2
   0   6  -4 237.634 6.39450   2
   0  -6   4 231.062 11.8417   5
  -1  -6  -4 238.867 11.9203   5
   1  -6   4 238.674 13.3567   3
   1  -6   4 248.303 12.2335   5
   1   6  -4 258.944 6.71280   2
  -1   6   4 254.849 6.59807   2
  -1  -6  -4 257.769 13.0829   3
  -1   6  -4 251.954 6.80883   2
   1  -6  -4 245.846 12.2819   5
  -1  -6   4 244.158 13.2054   3
   1   6   4 242.493 6.13006   2
   1  -6  -4 247.438 12.4309   3
  -2  -6  -4 368.194 14.6284   5
   2   6  -4 374.761 9.02595   2
   2  -6   4 393.578 15.8141   3
  -2   6   4 378.805 9.26256   2
   2  -6   4 369.287 14.6372   5
  -2  -6  -4 338.303 15.5389   3
   2  -6  -4 359.266 14.7202   5
   2   6   4 366.185 8.47127   2
  -2   6  -4 362.755 9.32410   2
   2  -6  -4 376.383 15.2124   3
  -2  -6   4 362.534 15.9007   3
   3  -6   4 26.8942 6.39144   3
  -3  -6  -4 27.3374 6.69657   3
   3  -6   4 29.2027 5.90545   5
   3   6  -4 31.3295 3.33152   2
   3  -6  -4 30.4514 5.93888   5
  -3  -6   4 31.5588 6.80733   3
  -3   6  -4 34.1411 3.46744   2
   3   6   4 36.7803 3.16289   2
   3  -6  -4 40.8769 6.30055   3
  -4  -6  -4 177.076 12.2566   3
   4   6  -4 190.804 7.25723   2
   4  -6   4 194.701 11.2953   5
  -4   6   4 183.207 7.48887   2
   4  -6   4 192.193 12.0589   3
   4   6   4 192.586 6.64583   2
  -4   6  -4 172.667 7.13698   2
   4  -6  -4 197.960 11.2701   3
   4  -6  -4 163.569 10.9654   5
  -4  -6   4 186.533 12.6533   3
   5  -6   4 28.4553 6.01470   5
   5   6  -4 14.6342 3.67799   2
  -5  -6  -4 8.77762 5.72259   3
   5  -6   4 20.1756 6.29312   3
   5  -6   4 17.0347 3.42210   1
  -5   6   4 17.6808 3.75022   2
   5   6   4 19.2360 3.25657   2
  -5   6  -4 15.5578 3.33763   2
  -5  -6   4 17.2067 6.22593   3
   6  -6   4 242.855 13.7649   3
  -6   6   4 229.083 9.56120   2
   6  -6   4 239.719 12.9049   5
   6   6  -4 223.977 9.31712   2
  -6  -6  -4 231.206 14.4512   3
   6  -6   4 224.126 9.22258   1
  -6  -6   4 243.446 14.1439   3
   6  -6  -4 248.836 9.91339   1
  -6   6  -4 221.535 9.09813   2
   6   6   4 228.793 8.55205   2
   7  -6   4 230.791 9.84754   1
   7  -6   4 208.368 12.4797   5
  -7  -6  -4 228.367 14.6994   3
  -7   6   4 204.837 9.78563   2
   7   6  -4 208.974 9.57733   2
   7  -6  -4 207.778 9.90043   1
  -7   6  -4 208.071 9.50403   2
  -7  -6   4 188.818 13.0055   3
  -7  -6   4 205.083 9.27872   1
   7   6   4 207.233 8.80128   2
   8   6  -4 22.8742 4.94165   2
  -8   6   4 14.8659 4.55578   2
  -8  -6  -4 11.2770 4.10724   1
   8  -6   4 14.1973 4.41801   1
  -8  -6  -4 9.91562 6.63793   3
   8  -6   4 3.95049 5.23272   5
   8  -6  -4 16.7970 4.54570   1
   8   6   4 6.96802 3.82132   2
  -8  -6   4 8.28368 4.10470   1
  -8  -6   4 6.63163 5.64638   3
  -8   6  -4 15.7490 4.20761   2
  -9  -6  -4 427.114 14.4036   1
   9   6  -4 450.126 15.0388   2
  -9   6   4 429.125 15.1415   2
   9  -6   4 445.515 15.2840   1
  -9  -6  -4 430.221 20.0046   3
   9  -6  -4 448.841 15.6479   1
  -9   6  -4 437.657 14.7917   2
  -9  -6   4 457.384 19.1101   3
  -9  -6   4 454.471 15.1003   1
   9   6   4 408.851 14.1256   2
  10  -6   4 243.330 12.0638   1
 -10  -6  -4 223.768 15.4190   3
 -10   6   4 232.851 12.0378   2
  10   6  -4 218.727 11.6817   2
 -10  -6  -4 245.270 11.1631   1
  10  -6  -4 241.397 12.4078   1
  10   6   4 226.601 11.0403   2
 -10  -6   4 246.241 11.7761   1
 -10   6  -4 208.901 11.2627   2
 -10  -6   4 231.956 14.3799   3
 -11   6   4 6.41061 4.66157   2
 -11  -6  -4 5.96273 6.90660   3
  11  -6   4 5.10704 5.09068   1
 -11  -6  -4 15.8370 5.35129   1
  11   6  -4 6.61466 5.12282   2
  11   6   4 9.21882 4.76083   2
 -11   6  -4 2.91868 4.22689   2
 -11  -6   4 16.4183 6.46520   3
  11  -6  -4 4.29075 4.97307   1
 -11  -6   4 7.66130 5.22159   1
 -12  -6  -4 478.291 21.9547   3
  12   6  -4 474.365 17.8198   2
 -12   6   4 485.974 18.1372   2
  12  -6   4 505.663 18.5217   1
 -12  -6  -4 486.331 17.8183   1
  12  -6  -4 500.981 18.7231   1
 -12   6  -4 506.851 17.7446   2
 -12  -6   4 474.356 20.7320   3
  12   6   4 493.594 17.4883   2
 -12  -6   4 492.289 17.8459   1
   0  -7  -4 -0.9011 4.55210   5
   0  -7  -4 5.52461 5.35706   3
   0  -7   4 4.53796 4.80552   5
   0  -7   4 11.9186 6.12721   3
  -1  -7  -4 6.54569 5.14346   5
   1  -7   4 18.3734 5.70609   5
  -1  -7  -4 21.9131 6.83349   3
   1  -7   4 15.4095 6.60540   3
   1  -7  -4 30.8220 6.67846   5
   1  -7  -4 18.4794 6.67481   3
  -1   7  -4 16.9394 2.65382   2
  -1  -7   4 14.6131 6.57353   3
  -2  -7  -4 48.8516 8.82234   3
  -2   7   4 53.0467 3.95402   2
   2  -7   4 41.0567 7.10425   5
   2   7  -4 45.5581 3.67762   2
   2  -7   4 33.1803 7.56083   3
   2  -7  -4 32.5345 6.93597   5
  -2   7  -4 42.7010 3.74040   2
   2  -7  -4 51.2014 8.17393   3
  -2  -7   4 37.9002 7.93776   3
   3   7  -4 345.444 9.67055   2
   3  -7   4 318.570 16.6349   3
   3  -7   4 329.238 15.5865   5
  -3   7   4 342.862 9.77433   2
  -3  -7  -4 339.764 17.5022   3
   3  -7  -4 327.077 15.7708   5
   3  -7  -4 334.457 15.5348   3
  -3   7  -4 340.431 9.66918   2
  -3  -7   4 342.791 17.3792   3
  -4   7   4 214.030 8.37564   2
   4  -7   4 215.328 13.1830   5
  -4  -7  -4 222.031 15.0677   3
   4  -7   4 225.758 14.2513   3
   4   7  -4 206.140 8.30139   2
  -4  -7   4 210.462 14.4101   3
   4   7   4 222.624 7.42323   2
   4  -7  -4 187.497 12.6856   5
  -4   7  -4 220.509 8.18267   2
   5  -7   4 53.4566 8.75844   3
  -5   7   4 60.7486 5.43962   2
  -5  -7  -4 53.9393 9.30395   3
   5   7  -4 56.7054 5.30078   2
   5  -7   4 35.8248 7.26061   5
   5   7   4 58.4315 4.85647   2
  -5  -7   4 61.3580 9.26559   3
   5  -7  -4 56.1238 8.52455   5
  -5   7  -4 47.8841 4.93480   2
  -6  -7  -4 14.8596 7.03511   3
   6   7  -4 6.55679 3.68599   2
  -6   7   4 2.90107 3.51940   2
   6  -7   4 10.3953 6.71417   3
   6  -7   4 -0.1029 5.34959   5
  -6   7  -4 8.61497 3.75111   2
   6   7   4 7.03343 3.47710   2
  -6  -7   4 6.33471 6.38042   3
   6  -7  -4 6.76038 5.61889   5
   7  -7   4 61.0770 8.67289   5
   7   7  -4 58.6772 6.10047   2
  -7  -7  -4 56.5692 9.69476   3
  -7   7   4 65.5999 6.47060   2
  -7  -7   4 58.8253 9.83875   3
   7  -7  -4 56.6983 8.78114   5
   7   7   4 73.9319 6.16594   2
  -7   7  -4 60.7668 6.08842   2
  -8  -7  -4 369.791 19.7126   3
   8  -7   4 381.295 17.8151   5
  -8   7   4 350.413 13.6305   2
   8   7  -4 393.539 13.6550   2
  -8  -7   4 388.874 19.1966   3
  -8   7  -4 384.735 13.4443   2
   8   7   4 373.144 12.7083   2
  -9   7   4 27.3520 5.58804   2
   9   7  -4 25.6152 5.49455   2
   9  -7   4 22.6885 5.28626   1
  -9  -7  -4 11.3344 7.35531   3
   9  -7   4 4.18679 5.83281   5
   9   7   4 24.1669 5.13652   2
  -9  -7   4 14.3394 7.13043   3
  -9   7  -4 26.8371 5.31694   2
  10   7  -4 19.7033 5.80661   2
  10  -7   4 21.3631 5.37699   1
 -10   7   4 11.9624 5.24646   2
  10  -7   4 28.4369 7.67726   5
 -10  -7  -4 29.2592 8.58436   3
  10   7   4 32.8023 5.68868   2
 -10   7  -4 17.8332 5.59466   2
  10  -7  -4 20.3627 6.02587   1
 -10  -7   4 17.1153 7.48437   3
   0  -8  -4 69.3138 10.0987   3
   0  -8  -4 54.4247 8.61534   5
   0  -8   4 50.1288 9.24218   3
  -1  -8  -4 -2.2798 4.99436   5
  -1  -8  -4 -3.5356 6.04166   3
   1  -8   4 0.47597 5.27055   5
   1  -8   4 9.52062 6.68257   3
   1  -8  -4 10.9626 6.70078   3
   1  -8  -4 2.83939 5.46936   5
  -1  -8   4 -5.7738 5.80098   3
   2  -8   4 0.99771 6.45742   3
   2  -8   4 3.25120 5.51328   5
  -2  -8  -4 0.40967 6.17329   3
   2  -8  -4 4.54247 5.84557   5
   2  -8  -4 2.08819 6.30184   3
  -2  -8   4 3.53730 6.29555   3
   3  -8   4 69.2418 9.71879   5
  -3  -8  -4 72.1007 10.5194   3
   3  -8   4 114.572 12.3522   3
   3  -8  -4 78.4817 10.0165   5
  -3  -8   4 68.2901 10.5314   3
  -4   8   4 -0.7851 3.24140   2
  -4  -8  -4 4.04317 6.87427   3
   4  -8   4 6.07647 5.63083   5
   4  -8   4 6.84356 7.27258   3
  -4  -8   4 3.11707 6.81423   3
   4  -8  -4 2.28529 5.78290   5
  -4   8  -4 0.40999 3.20397   2
   5  -8   4 74.5329 9.88768   5
   5  -8   4 72.0495 10.4843   3
   5   8  -4 62.2374 5.64407   2
  -5  -8  -4 69.9705 11.1564   3
  -5   8   4 53.8364 5.57603   2
  -5  -8   4 53.3547 9.92842   3
  -5   8  -4 60.7441 5.58200   2
   5  -8  -4 48.5274 8.83813   5
   6  -8   4 156.345 13.3522   5
  -6  -8  -4 128.219 13.9249   3
  -6   8   4 135.184 8.45198   2
   6  -8   4 140.379 13.7390   3
   6   8  -4 137.326 8.26413   2
  -6  -8   4 148.551 14.1245   3
   6   8   4 147.011 7.79187   2
  -6   8  -4 149.704 8.18070   2
   6  -8  -4 131.538 12.8395   5
   0   0   5 0.85489 1.65142   4
   0   0  -5 1.36004 1.67438   4
   1   0  -5 207.673 6.26254   4
  -1   0   5 220.470 6.30644   4
   1   0   5 205.330 6.14866   4
  -1   0  -5 211.614 6.08882   4
   2   0  -5 126.158 5.20703   4
   2   0   5 132.617 4.95479   4
  -2   0   5 134.055 5.35938   4
  -3   0  -5 1184.91 23.3009   4
   3   0   5 1177.15 23.3563   4
   3   0  -5 1186.41 23.7640   4
  -3   0   5 1175.01 23.7369   4
  -4   0  -5 120.763 5.30482   4
   4   0   5 117.943 5.17212   4
   4   0  -5 108.172 5.73309   4
  -4   0   5 113.851 5.73723   4
  -5   0   5 1078.94 22.9051   4
   5   0   5 1041.50 22.1604   4
   5   0  -5 1076.55 22.9199   4
  -6   0   5 10.2037 3.11369   1
   6   0   5 13.2315 3.04963   1
   6   0  -5 9.67326 3.04405   1
   6   0  -5 11.5246 2.80903   4
  -6   0   5 7.66990 2.71254   7
  -6   0  -5 5.98586 2.76851   1
  -6   0   5 8.76321 2.79868   4
   6   0   5 6.09659 2.35207   4
   7   0   5 76.1129 5.73126   1
   7   0  -5 76.9475 5.90772   2
  -7   0   5 73.3805 5.93217   1
  -7   0  -5 68.3207 5.31274   1
   7   0   5 69.3505 5.22556   4
  -7   0   5 78.6393 5.72590   4
   7   0   5 72.3393 5.45368   2
  -7   0  -5 71.2241 4.99525   7
   7   0  -5 74.6506 6.11569   1
   7   0  -5 90.8364 5.68893   7
  -7   0   5 81.7972 5.53498   7
   7   0   5 75.1174 5.01019   7
   7   0   5 70.2322 5.29383   4
   7   0  -5 76.9338 5.66250   4
  -7   0   5 65.2411 5.31698   2
  -8   0   5 89.2385 6.39374   4
   8   0   5 95.3793 6.66612   1
  -8   0   5 99.2679 6.77560   2
  -8   0  -5 93.4520 6.54766   1
   8   0   5 94.7060 6.05085   4
   8   0   5 105.863 6.48211   2
  -8   0   5 90.0193 6.80572   1
   8   0  -5 84.1083 6.74191   1
   8   0   5 91.0405 5.86811   7
   8   0  -5 91.9482 6.69884   2
   8   0  -5 105.329 6.42535   7
  -8   0   5 87.3506 6.08678   7
  -8   0  -5 92.0689 5.73334   7
  -9   0  -5 320.092 10.4246   7
  -9   0  -5 335.943 11.9677   1
  -9   0   5 322.253 10.8816   7
  -9   0   5 320.432 12.0047   1
  -9   0  -5 319.759 11.1330   2
  -9   0   5 332.249 11.7154   2
   9   0  -5 319.760 10.9223   7
   9   0   5 315.941 11.5775   1
   9   0   5 323.065 11.2767   2
   9   0   5 313.606 10.4751   7
   9   0  -5 318.390 11.9883   1
   9   0  -5 311.304 11.5768   2
 -10   0  -5 42.9600 4.99974   7
  10   0  -5 43.1897 5.22418   7
  10   0   5 43.8124 5.37370   2
  10   0  -5 57.9788 6.19508   2
  10   0  -5 52.5674 6.32381   1
  10   0   5 47.3844 5.05441   7
 -10   0   5 35.5456 5.70731   1
 -10   0  -5 36.8495 5.33003   1
 -10   0   5 43.1889 5.09855   7
  10   0   5 48.8783 6.02235   1
  11   0   5 306.813 12.6567   1
 -11   0  -5 294.655 11.1987   7
 -11   0  -5 314.926 12.5907   1
 -11   0   5 284.260 12.6272   1
  11   0  -5 308.486 13.1985   1
  11   0   5 309.918 12.2911   2
 -11   0   5 306.284 11.4356   7
  11   0   5 304.898 11.3884   7
  11   0  -5 283.882 11.3479   7
 -12   0  -5 192.267 10.7966   1
  12   0   5 196.712 9.91666   7
  12   0  -5 194.992 11.6756   1
 -12   0   5 210.182 10.1718   7
 -12   0  -5 172.350 9.40768   7
  12   0   5 194.971 11.1757   1
 -12   0   5 192.622 11.3703   1
  12   0  -5 193.810 10.1697   7
 -13   0   5 704.557 21.7936   1
  13   0  -5 673.344 21.7972   1
 -13   0  -5 671.420 21.1492   1
  13   0   5 636.984 21.0202   1
  13   0  -5 663.509 19.3287   7
 -13   0   5 665.605 19.0619   7
  13   0   5 645.617 18.9247   7
  14   0  -5 16.4065 5.03552   7
 -14   0  -5 49.5438 7.65673   1
 -14   0   5 35.0249 6.21978   7
  14   0   5 34.2523 6.67361   1
 -14   0   5 37.4507 7.08531   1
  14   0  -5 40.3642 7.56897   1
  14   0   5 37.1836 6.09379   7
  15   0   5 -2.6808 4.47696   7
 -15   0   5 -3.5107 5.00381   1
  15   0  -5 -3.1494 4.39589   7
  15   0   5 4.98878 5.65757   1
 -15   0   5 4.01742 4.85395   7
 -15   0  -5 -5.1265 5.04030   1
  15   0  -5 2.65757 5.50378   1
 -16   0   5 14.3572 6.44602   1
  16   0   5 4.92973 5.25727   7
  16   0  -5 14.6486 5.65762   7
 -16   0   5 11.5648 5.13952   7
 -16   0  -5 0.82195 5.45423   1
  17   0   5 261.426 13.8440   7
 -17   0  -5 252.723 15.5091   1
 -17   0   5 248.735 13.1394   7
 -17   0   5 264.399 15.9937   1
  17   0  -5 249.787 13.5555   7
   0   1  -5 1384.41 25.9469   4
   0  -1   5 1344.19 25.7949   4
   0   1   5 1377.48 25.7580   4
   0  -1  -5 1393.86 25.5046   4
   1  -1   5 38.7647 3.17527   4
  -1   1   5 41.3277 3.26078   4
  -1  -1  -5 39.4240 2.87383   4
   1   1  -5 29.8793 2.78037   4
  -1  -1   5 39.1043 2.85128   4
  -1   1  -5 34.9859 2.68305   4
   1  -1  -5 39.3725 2.94243   4
   1   1   5 37.5241 3.14460   4
   2   1  -5 3.31217 2.10200   4
  -2  -1  -5 2.72117 1.65191   4
  -2   1   5 1.25943 1.82784   4
   2  -1   5 3.22227 1.75138   4
   2  -1  -5 4.94334 1.80700   4
   2   1   5 2.45675 1.77262   4
  -2   1  -5 1.31461 1.68275   4
  -2  -1   5 2.37090 2.00351   4
   3   1  -5 869.676 17.9834   4
  -3   1   5 818.466 17.8074   4
   3  -1   5 858.212 17.3471   4
  -3  -1   5 843.703 17.7494   4
   3  -1  -5 852.778 17.4944   4
   3   1   5 832.481 17.5184   4
  -3   1  -5 852.481 17.4851   4
   4  -1   5 60.9047 3.99492   4
  -4   1   5 53.9806 4.57348   4
   4   1  -5 52.4572 4.45269   4
   4   1   5 56.7387 4.08429   4
  -4   1  -5 60.9484 4.01787   4
  -4  -1   5 56.2134 4.35355   4
   4  -1  -5 50.3040 4.24916   4
  -5  -1  -5 -0.8647 2.19447   1
   5   1  -5 -1.4236 2.26598   2
  -5   1   5 0.28769 2.27394   4
   5  -1   5 -1.0316 1.91408   4
  -5   1   5 2.18046 2.40972   2
   5   1  -5 -0.8093 2.13294   4
   5  -1   5 0.84421 2.27280   1
   5  -1   5 -1.1333 1.89670   4
  -5   1  -5 3.47962 2.15426   2
   5  -1  -5 2.18395 2.62001   1
  -5  -1   5 -4.1847 2.19292   1
   5   1   5 -0.9656 1.94762   2
   5   1   5 2.18387 2.03902   4
  -5  -1   5 -0.1370 2.10268   4
   5  -1  -5 -2.2999 2.10749   4
  -5   1  -5 1.77571 1.92852   4
  -6   1   5 8.50256 3.02611   2
   6   1  -5 1.76881 2.57919   2
   6  -1   5 8.29904 2.40337   4
  -6   1   5 5.21687 2.62183   4
   6   1  -5 7.23001 2.56220   4
   6  -1   5 9.64295 2.86608   1
  -6  -1  -5 3.36545 2.58379   1
   6  -1   5 7.12379 2.56525   4
   6  -1   5 5.29868 2.34277   7
   6   1   5 6.07680 1.38809   6
  -6   1  -5 6.66612 2.48747   2
   6   1   5 7.11002 2.55324   4
  -6  -1   5 10.6517 2.79713   7
   6  -1  -5 6.47163 3.03779   1
   6  -1  -5 8.24134 2.56080   7
  -6  -1   5 7.82940 2.61868   4
   6   1   5 13.5505 2.86345   2
   6  -1  -5 6.94652 2.72560   4
  -6  -1   5 8.71264 3.08437   1
  -6   1  -5 4.52766 2.22644   4
  -7   1   5 211.468 8.40275   2
   7  -1   5 178.758 6.97911   7
   7   1  -5 189.717 8.16528   2
  -7   1   5 197.568 8.42976   1
   7   1  -5 205.956 7.97492   7
  -7   1   5 194.138 8.33315   4
   7  -1   5 186.198 5.75008   6
   7  -1   5 199.082 7.54291   4
   7  -1   5 181.276 7.61802   4
  -7   1   5 191.243 7.82450   7
   7   1  -5 213.337 8.59440   1
  -7  -1  -5 188.443 8.05824   1
   7  -1   5 176.677 7.98788   1
  -7   1  -5 183.052 7.82987   1
  -7   1  -5 195.801 7.50005   7
  -7  -1   5 196.693 7.82104   4
  -7  -1   5 186.898 8.28579   1
   7   1   5 188.606 7.68401   4
  -7  -1   5 189.765 7.16805   7
   7   1   5 188.836 7.82185   2
   7  -1  -5 185.730 8.48942   1
  -7   1  -5 185.025 7.68238   2
   7  -1  -5 177.869 7.89948   4
   7  -1  -5 195.620 7.44717   7
  -8   1   5 76.4823 6.13639   4
  -8  -1  -5 71.7979 5.97645   1
  -8   1   5 72.1237 5.66049   7
   8  -1   5 76.8582 5.30482   7
  -8   1   5 71.4384 5.96339   2
  -8   1   5 77.2168 6.44054   1
   8  -1   5 75.1231 6.15075   1
   8   1  -5 73.3837 5.98876   2
   8  -1   5 75.9278 5.56360   4
   8   1  -5 73.1422 6.15090   1
   8   1  -5 73.2102 5.75701   7
   8  -1   5 88.0589 5.92163   4
   8  -1  -5 84.6641 6.67395   1
  -8  -1   5 85.2203 5.99502   4
   8   1   5 78.8419 5.99818   2
   8   1   5 83.6341 5.85877   7
   8  -1  -5 83.7043 5.74043   7
  -8   1  -5 76.7890 6.28096   1
  -8   1  -5 77.6043 5.68867   7
   8   1   5 78.9641 5.82580   4
  -8  -1   5 82.3119 5.46894   7
   8  -1  -5 86.9577 6.30392   4
  -8   1  -5 96.5836 6.26999   2
  -8  -1   5 83.1743 6.33066   1
   8   1   5 81.3593 6.20967   1
   9   1  -5 326.184 10.9647   7
   9   1  -5 313.472 11.7014   1
   9  -1   5 277.563 9.85730   7
  -9   1   5 322.477 11.5598   2
   9  -1   5 301.835 11.5181   1
  -9  -1  -5 323.838 11.7741   1
  -9   1   5 304.678 11.7508   1
  -9   1   5 299.257 10.7614   7
   9   1  -5 323.576 11.5208   2
   9  -1  -5 312.811 11.8326   1
   9   1   5 298.871 11.0159   2
   9   1   5 287.362 11.2236   1
   9   1   5 312.571 10.5196   7
  -9  -1   5 294.832 11.7661   1
  -9  -1   5 307.584 10.2117   7
  -9   1  -5 315.495 11.0274   2
  -9   1  -5 312.148 10.5135   7
   9  -1  -5 335.324 10.6484   7
  -9   1  -5 312.513 11.6404   1
 -10  -1  -5 46.0959 5.79313   1
 -10   1   5 45.6949 5.89950   2
 -10   1   5 47.8779 5.49352   7
  10   1  -5 58.2306 5.93786   7
  10  -1   5 46.0453 4.91915   7
 -10   1   5 46.1245 5.94350   1
  10   1  -5 46.9432 5.85291   2
  10   1  -5 43.4776 5.87835   1
  10  -1   5 38.6781 5.59913   1
  10   1   5 44.1098 5.23072   7
  10   1   5 44.2679 5.65253   1
  10  -1  -5 33.8713 5.50069   1
 -10   1  -5 44.4963 5.66537   1
 -10  -1   5 40.6158 5.93334   1
 -10   1  -5 66.8752 5.98262   7
  10  -1  -5 53.9271 5.48846   7
 -10  -1   5 46.7371 4.97740   7
  10   1   5 42.9850 5.48540   2
 -10   1  -5 48.6997 5.42662   2
  11  -1   5 146.788 8.00468   7
 -11   1   5 142.489 9.49182   2
 -11   1   5 138.002 9.34311   1
 -11   1   5 147.322 8.88659   7
  11  -1   5 138.069 9.19208   1
  11   1  -5 133.982 8.63823   7
  11   1  -5 150.525 9.48415   2
  11   1  -5 130.661 9.53482   1
 -11  -1  -5 129.676 8.75609   1
  11  -1  -5 143.458 9.82885   1
 -11   1  -5 137.220 8.35527   7
 -11   1  -5 135.428 9.15205   1
  11   1   5 153.594 9.20946   2
 -11  -1   5 149.339 8.29132   7
 -11  -1   5 155.017 9.87102   1
 -11   1  -5 135.067 8.62601   2
  11   1   5 135.501 9.25068   1
  11  -1  -5 143.513 8.19332   7
  11   1   5 134.305 8.28564   7
  12  -1   5 326.662 13.8457   1
 -12   1   5 329.791 13.6323   2
 -12  -1  -5 327.424 13.7296   1
  12   1  -5 345.532 13.0361   7
  12  -1   5 322.192 11.9507   7
  12   1  -5 300.270 13.3647   2
 -12   1   5 334.594 12.7460   7
 -12   1   5 339.204 14.1190   1
 -12   1  -5 315.549 12.2776   7
 -12  -1   5 349.091 14.5456   1
  12  -1  -5 313.311 12.1173   7
 -12   1  -5 308.279 13.0406   2
  12   1   5 289.309 12.9436   2
  12   1   5 289.085 12.2319   7
 -12  -1   5 327.418 11.9907   7
  12  -1  -5 282.350 13.5742   1
 -12   1  -5 328.111 13.8267   1
 -13   1   5 4.55149 4.87763   1
 -13   1   5 10.4618 4.66559   7
  13  -1   5 12.5177 5.57239   1
  13   1  -5 9.73526 4.57788   7
 -13  -1  -5 -3.3737 4.19209   1
  13  -1   5 2.81187 4.21344   7
  13   1  -5 1.40977 4.56928   2
 -13   1  -5 3.44583 4.12357   7
  13  -1  -5 1.95017 5.08213   1
 -13  -1   5 1.31854 4.94819   1
 -13  -1   5 5.61789 3.97855   7
  13  -1  -5 7.24940 4.25877   7
  13   1   5 3.74932 4.25220   7
  13   1   5 4.06775 4.66709   2
 -13   1  -5 9.22072 4.96883   1
  14   1  -5 63.2365 7.41811   7
 -14  -1  -5 68.3834 8.19976   1
  14  -1   5 59.8190 6.92466   7
  14  -1   5 57.9684 8.24104   1
 -14   1   5 58.9435 7.21690   7
  14  -1  -5 44.5345 7.81440   1
 -14  -1   5 58.9667 8.27748   1
 -14   1  -5 55.5905 6.98527   7
  14   1   5 56.6185 7.09037   7
  14  -1  -5 58.9274 6.74013   7
 -14  -1   5 61.6502 6.81858   7
 -14   1  -5 64.1544 8.45749   1
  15  -1   5 194.406 11.0704   7
 -15   1   5 161.759 11.3206   7
  15  -1   5 183.875 12.5335   1
 -15  -1  -5 162.988 12.3526   1
  15   1  -5 167.054 11.5553   7
  15   1   5 190.279 12.1124   7
  15  -1  -5 194.259 11.2445   7
 -15  -1   5 189.705 13.0057   1
 -15  -1   5 178.369 10.4898   7
  15  -1  -5 201.379 13.6531   1
 -15   1  -5 182.142 11.4742   7
 -16  -1  -5 22.6767 6.91010   1
  16  -1   5 26.0889 6.47465   7
 -16   1   5 21.8014 6.33288   7
  16  -1   5 13.7442 6.80648   1
  16   1  -5 26.9124 6.08851   7
  16  -1  -5 13.9184 7.01813   1
  16   1   5 33.0882 6.77008   7
 -16  -1   5 17.4976 6.74582   1
 -16  -1   5 30.4009 5.85251   7
 -16   1  -5 22.5948 6.10369   7
  16  -1  -5 13.3681 5.33863   7
  17  -1   5 -4.3803 4.94507   7
 -17   1   5 1.60102 4.96994   7
 -17  -1  -5 1.42524 5.83184   1
  17  -1   5 6.58059 5.96620   1
  17   1  -5 2.00603 5.30510   7
  17  -1  -5 5.71723 6.40566   1
  17  -1  -5 4.85428 5.09669   7
 -17  -1   5 -2.6376 4.44650   7
  17   1   5 1.09717 5.43922   7
 -17  -1   5 11.4581 6.54653   1
   0  -2   5 0.33378 2.03240   5
   0   2   5 1.31573 1.37795   4
   0  -2   5 -0.1047 2.62521   3
   0   2  -5 -1.2985 1.61023   4
  -1   2   5 797.446 15.6787   4
  -1  -2  -5 787.011 18.5514   3
  -1  -2  -5 789.261 16.8125   5
   1  -2   5 794.515 18.6534   3
   1  -2   5 822.182 17.1410   5
   1   2  -5 793.041 16.1518   4
   1   2   5 801.431 15.5828   4
  -1   2  -5 785.323 15.9259   4
  -1  -2   5 785.180 18.3830   3
  -2  -2  -5 221.263 8.88957   3
   2  -2   5 225.327 5.33454   4
  -2   2   5 223.031 6.44727   2
  -2  -2  -5 217.972 6.78354   5
  -2   2   5 232.219 6.35009   4
   2  -2   5 226.447 7.00884   5
   2  -2   5 217.340 8.55342   3
   2   2  -5 222.078 6.29245   2
   2  -2   5 205.059 5.44445   4
   2   2  -5 225.517 6.65937   4
   2   2   5 215.274 6.19533   2
  -2   2  -5 227.488 6.41036   4
   2   2   5 218.364 6.07878   4
  -2  -2   5 224.793 8.16196   3
  -2   2  -5 223.449 6.35789   2
   3   2  -5 105.253 5.01559   4
  -3   2   5 110.976 4.98845   2
   3  -2   5 107.354 4.04414   4
   3  -2   5 107.562 4.10789   4
  -3   2   5 110.657 4.96117   4
   3  -2   5 109.742 4.97055   1
   3   2  -5 103.416 4.69256   2
  -3  -2   5 111.403 6.01700   3
   3   2   5 111.652 4.61250   4
  -3   2  -5 103.309 4.69827   2
   3  -2  -5 117.308 5.54552   1
  -3   2  -5 118.920 4.86738   4
   3   2   5 105.675 4.69464   2
   3   2   5 127.964 5.50725   6
   3  -2  -5 108.169 3.56075   4
   4  -2   5 458.235 10.3655   4
   4   2  -5 458.605 11.4816   4
  -4   2   5 436.495 11.2729   2
  -4  -2  -5 461.230 11.3421   1
   4   2  -5 450.655 11.1546   2
  -4   2   5 459.643 11.5391   4
   4  -2   5 465.305 10.5854   4
   4  -2   5 457.355 11.5854   1
  -4  -2   5 434.448 11.7668   1
  -4   2  -5 458.968 11.1540   4
   4   2   5 453.214 10.9461   2
   4  -2  -5 436.942 11.7721   1
   4  -2  -5 454.344 10.1615   4
  -4   2  -5 458.791 11.1197   2
  -4  -2   5 461.111 12.5280   3
   4   2   5 442.702 10.9746   4
   4   2   5 455.784 11.3753   6
   5  -2   5 271.575 8.34672   6
  -5  -2  -5 253.277 8.22055   1
   5   2  -5 245.354 8.22074   4
  -5   2   5 235.536 8.33021   4
   5  -2   5 237.786 8.22650   1
   5  -2   5 256.062 7.60225   4
   5  -2   5 248.851 7.26657   4
   5   2  -5 233.387 8.14594   2
  -5   2   5 236.949 8.34850   2
   5  -2  -5 245.040 8.81712   1
   5   2   5 248.877 7.31865   6
  -5   2  -5 242.171 7.95624   2
  -5  -2   5 259.817 8.89821   3
  -5  -2   5 241.168 8.63282   1
  -5   2  -5 251.971 7.94126   4
   5   2   5 239.550 7.84162   2
   5  -2  -5 247.081 7.36649   4
  -6   2   5 785.695 18.9930   4
   6  -2   5 823.935 17.8606   4
  -6   2   5 781.145 18.5529   2
   6   2  -5 796.356 18.3554   2
   6  -2   5 836.942 16.0535   7
  -6  -2  -5 797.181 18.5195   1
   6  -2   5 814.967 17.5267   4
   6  -2   5 841.917 18.3840   6
   6  -2   5 783.629 18.5622   1
  -6   2  -5 791.281 17.9778   2
   6  -2  -5 788.952 19.1627   1
   6  -2  -5 818.935 16.1133   7
  -6  -2   5 814.053 19.1079   1
  -6  -2   5 830.386 19.2446   3
   6   2   5 798.523 17.8686   2
   6   2   5 800.233 16.9629   6
   6  -2  -5 773.968 17.6369   4
   7  -2   5 59.9751 4.48185   4
   7  -2   5 57.1042 4.56926   4
  -7  -2  -5 56.5448 4.99433   1
  -7   2   5 65.5259 5.50334   4
   7  -2   5 59.9195 5.25001   1
   7  -2   5 61.4963 4.28335   7
   7  -2   5 59.7915 4.46941   6
  -7   2   5 51.6358 5.13856   2
   7   2  -5 58.5983 5.29999   2
   7  -2  -5 47.4166 4.38259   4
   7  -2  -5 55.5090 4.26206   7
  -7   2  -5 62.6018 5.17032   2
  -7  -2   5 64.4623 5.37087   3
   7  -2  -5 57.5651 5.47760   1
  -7  -2   5 58.1539 3.97192   7
  -7  -2   5 53.9140 5.12469   1
   7   2   5 47.7572 4.67233   2
  -8   2   5 305.913 11.3505   2
  -8   2   5 334.297 10.8591   7
   8  -2   5 343.916 9.52545   7
   8  -2   5 329.983 11.4352   1
   8   2  -5 340.612 10.8973   7
  -8   2   5 319.620 11.4652   4
  -8  -2  -5 332.144 11.3070   1
   8   2  -5 325.587 11.3982   2
   8   2   5 312.809 10.8561   2
   8  -2  -5 321.424 11.7670   1
  -8  -2   5 337.109 10.9941   3
   8   2   5 323.472 10.3891   7
   8   2   5 336.371 10.9905   4
  -8   2  -5 338.667 10.6460   7
  -8  -2   5 314.380 11.6870   1
  -8  -2   5 330.341 9.09511   7
   8  -2  -5 338.249 9.62499   7
  -8   2  -5 314.836 10.9475   2
  -9  -2  -5 91.4722 6.94134   1
   9   2  -5 88.0405 6.97214   2
   9  -2   5 86.3580 5.78838   7
   9   2  -5 92.9320 6.76072   7
  -9   2   5 94.7148 6.91462   7
  -9   2   5 86.3390 7.16987   2
   9  -2   5 90.8677 7.30018   1
   9   2   5 89.7277 6.95894   2
  -9  -2   5 88.9448 5.40329   7
  -9  -2   5 87.7633 7.23365   1
   9   2   5 82.7511 6.70093   4
   9  -2  -5 96.7865 7.75188   1
   9   2   5 89.2202 6.44962   7
  -9   2  -5 88.1863 6.54808   7
   9  -2  -5 85.9625 5.96024   7
  -9   2  -5 95.3514 6.95892   2
 -10  -2  -5 25.7873 4.77572   1
 -10   2   5 24.5064 4.61327   7
  10  -2   5 21.8163 3.85634   7
 -10  -2  -5 34.2654 5.95196   3
  10   2  -5 34.6199 4.98486   7
  10  -2   5 26.7811 5.02319   1
 -10   2   5 29.7918 5.12016   2
  10   2  -5 22.4043 4.95555   2
  10   2   5 23.1047 4.55403   2
 -10   2  -5 19.4804 4.23154   2
 -10  -2   5 32.3871 4.14215   7
  10   2   5 23.3726 4.52857   7
  10  -2  -5 22.5623 4.04215   7
 -10   2  -5 30.6064 4.63396   7
  10  -2  -5 22.4975 4.90678   1
 -10  -2   5 27.6003 5.17328   1
 -11   2   5 129.050 9.44842   2
  11   2  -5 140.113 8.70312   7
 -11   2   5 110.858 8.41603   7
  11  -2   5 135.929 7.61430   7
 -11  -2  -5 125.825 9.75979   3
  11  -2   5 128.009 9.07185   1
 -11  -2  -5 124.302 8.83972   1
  11   2  -5 133.075 9.42579   2
 -11   2  -5 132.887 8.91170   2
  11  -2  -5 139.406 7.75403   7
  11   2   5 121.317 8.70609   2
 -11   2  -5 125.715 8.33524   7
  11  -2  -5 123.470 9.53512   1
  11   2   5 133.877 8.47996   7
 -11  -2   5 123.584 6.83265   7
 -11  -2   5 126.548 8.97139   1
 -12  -2  -5 23.6548 5.32968   1
  12   2  -5 18.6589 4.93794   7
 -12  -2  -5 17.0937 5.83506   3
 -12   2   5 15.1688 5.12166   2
 -12   2   5 26.0668 5.45922   7
  12  -2   5 12.9548 5.05771   1
  12  -2   5 20.2383 4.38453   7
  12   2  -5 28.2606 5.70315   2
  12   2   5 30.9012 5.96188   2
 -12   2  -5 26.3005 5.32728   7
  12  -2  -5 24.8845 4.69685   7
 -12   2  -5 25.6751 5.50442   2
 -12  -2   5 21.8964 5.66888   1
  12  -2  -5 19.3695 5.53475   1
 -12  -2   5 21.4267 4.11653   7
  12   2   5 31.6500 5.50611   7
 -13   2   5 478.502 17.7171   2
 -13  -2  -5 457.479 17.1877   1
  13  -2   5 451.584 17.5997   1
 -13   2   5 457.161 16.2707   7
  13   2  -5 489.620 16.4959   7
  13   2  -5 473.511 17.4172   2
  13  -2   5 486.863 14.7312   7
 -13  -2  -5 448.524 17.7822   3
 -13  -2   5 469.766 13.7197   7
  13  -2  -5 484.955 14.8069   7
 -13  -2   5 451.360 17.7089   1
  13   2   5 461.449 16.2112   7
  13   2   5 492.337 17.4327   2
  13  -2  -5 479.224 18.4379   1
 -13   2  -5 459.244 16.0623   7
 -13   2  -5 443.144 16.6802   2
 -14  -2  -5 148.447 11.0769   1
  14  -2   5 134.825 9.08573   7
 -14   2   5 115.423 9.68676   7
  14   2  -5 123.639 9.90598   7
  14  -2   5 138.029 11.2274   1
 -14   2   5 112.091 10.1784   2
  14   2  -5 121.497 10.6466   2
  14   2   5 123.887 9.78025   7
 -14  -2   5 111.101 10.2808   1
  14  -2  -5 109.652 10.7916   1
 -14   2  -5 117.837 9.71647   7
  14   2   5 134.229 10.8546   2
  14  -2  -5 121.561 8.82412   7
 -14  -2   5 117.350 7.86457   7
 -14   2  -5 109.675 9.96874   2
  15  -2   5 114.909 8.76274   7
  15   2  -5 98.2878 10.1997   2
 -15   2   5 111.673 9.93775   7
  15   2  -5 100.308 9.36045   7
  15  -2   5 90.4976 10.2511   1
 -15  -2  -5 96.9459 10.2197   1
  15   2   5 122.046 10.2341   7
  15  -2  -5 101.654 11.0771   1
 -15   2  -5 93.4128 9.04623   7
 -15  -2   5 90.8690 7.25535   7
 -15  -2   5 88.6396 9.95666   1
  15   2   5 104.304 10.3366   2
  15  -2  -5 107.045 8.47552   7
 -16  -2  -5 47.4786 8.36660   1
  16   2  -5 54.1893 7.98146   7
 -16   2   5 40.7941 7.42520   7
  16  -2   5 50.0693 6.81513   7
  16  -2   5 57.8308 9.00505   1
  16  -2  -5 40.9713 6.30321   7
 -16   2  -5 49.3179 7.60713   7
  16   2   5 43.5336 7.58616   7
  16  -2  -5 40.1551 8.55319   1
 -16  -2   5 56.2929 8.98177   1
   0  -3  -5 1005.67 22.6279   3
   0  -3  -5 970.139 21.5398   5
   0   3   5 962.457 18.1264   2
   0   3   5 961.173 18.0956   4
   0  -3   5 987.025 19.2954   1
   0   3  -5 983.812 18.3615   2
   0  -3   5 962.436 23.0718   3
   0  -3   5 963.516 21.6428   5
   0   3  -5 990.598 18.8821   4
   1  -3   5 31.1309 2.74256   1
   1   3  -5 28.7587 2.45972   2
   1   3  -5 31.1125 2.48308   4
   1  -3   5 37.4725 3.96928   5
  -1  -3  -5 26.1453 3.52549   5
  -1  -3  -5 27.9011 4.25010   3
  -1   3   5 28.4406 2.44556   2
  -1   3   5 26.7739 2.25312   4
   1  -3   5 31.5244 4.60105   3
   1  -3  -5 31.6192 4.04893   3
  -1   3  -5 33.3879 2.78160   4
   1   3   5 33.6383 2.47395   2
   1  -3  -5 29.2367 2.81175   1
  -1  -3   5 35.3300 2.91874   1
  -1  -3   5 27.5049 4.22506   3
  -1   3  -5 29.5197 2.47224   2
   1   3   5 28.7766 2.21151   4
   2   3  -5 0.95292 1.58425   2
  -2   3   5 3.01060 1.43168   4
  -2  -3  -5 2.98496 1.74349   1
  -2  -3  -5 0.74322 3.11969   3
  -2  -3  -5 -1.3071 2.15734   5
   2  -3   5 0.30260 2.38546   5
   2  -3   5 -1.5897 2.92562   3
   2  -3   5 -2.7173 1.67214   1
  -2   3   5 2.04315 1.70016   2
   2   3  -5 4.10337 1.69472   4
  -2   3  -5 2.19965 1.66010   2
   2  -3  -5 2.19240 2.50759   3
   2  -3  -5 2.89781 2.03772   1
  -2  -3   5 -2.2460 2.86860   3
  -2  -3   5 -0.7319 1.72667   1
  -2   3  -5 2.66417 1.57484   4
   2   3   5 2.32484 1.61668   2
   3  -3   5 633.371 13.8992   1
   3   3  -5 606.855 13.2422   2
   3  -3   5 611.390 15.3049   5
   3   3  -5 619.193 13.6018   4
  -3   3   5 611.741 13.4138   4
  -3  -3  -5 607.207 13.5754   1
  -3   3   5 618.841 13.5315   2
  -3  -3  -5 590.385 17.1306   3
   3  -3   5 589.800 16.9140   3
  -3   3  -5 612.094 13.4094   2
   3   3   5 614.922 13.0912   2
  -3   3  -5 613.453 13.5041   4
  -3  -3   5 628.124 14.0949   1
  -3  -3   5 612.811 16.6978   3
   3  -3  -5 622.650 14.7444   3
   3  -3  -5 617.393 14.3130   1
  -4   3   5 46.9694 3.97609   2
   4  -3   5 42.1592 4.47863   6
  -4  -3  -5 49.2691 5.75500   3
   4  -3   5 48.3714 4.03422   1
  -4   3   5 44.3245 3.68485   4
  -4  -3  -5 54.4975 4.06504   1
   4   3  -5 52.8246 4.06722   4
   4   3  -5 50.7622 3.90542   2
  -4   3  -5 50.5728 3.92915   2
  -4  -3   5 45.6418 5.23851   3
   4   3   5 44.6027 3.55404   2
  -4  -3   5 45.6095 4.11826   1
   4  -3  -5 53.0506 4.36265   1
  -4   3  -5 52.5398 3.90232   4
  -5   3   5 -0.5232 2.16778   4
   5  -3   5 0.25995 2.37462   6
  -5  -3  -5 2.46793 2.23896   1
   5   3  -5 0.42318 2.19772   2
  -5   3   5 -0.2688 2.33982   2
  -5  -3  -5 -0.9338 3.34138   3
   5  -3   5 -1.5873 2.12868   1
   5   3   5 1.83803 2.08318   2
   5  -3  -5 1.24845 2.57658   1
  -5  -3   5 -6.5253 2.61617   3
  -5  -3   5 0.51690 2.43727   1
  -5   3  -5 -0.0745 2.04216   2
   6   3  -5 2.87497 2.52117   2
   6  -3   5 5.06408 1.54358   4
  -6  -3  -5 3.55533 2.55425   1
  -6   3   5 1.56325 2.68209   4
  -6   3   5 13.0073 3.18149   2
   6  -3   5 1.16801 2.48073   6
  -6  -3  -5 3.77748 3.95497   3
   6  -3   5 3.11157 2.64186   1
  -6  -3   5 -0.1402 3.05517   3
  -6  -3   5 2.93750 2.75514   1
   6   3   5 -2.5257 2.18778   2
   6  -3  -5 4.09845 2.87925   1
  -6   3  -5 9.08347 2.71879   2
  -7  -3  -5 141.586 7.23559   1
   7  -3   5 138.487 7.16560   6
   7   3  -5 147.724 7.50451   2
  -7  -3  -5 141.387 9.47672   3
  -7   3   5 141.954 7.73466   2
  -7   3   5 144.548 7.73494   4
   7  -3   5 151.551 5.33296   4
   7  -3   5 158.409 7.51658   1
  -7  -3   5 140.656 7.44503   1
  -7  -3   5 138.347 8.41149   3
   7   3   5 150.178 7.12306   2
   7  -3  -5 138.960 7.91285   1
   7  -3  -5 143.362 5.62535   4
  -7   3  -5 156.558 7.33194   2
   8  -3   5 67.7084 5.64414   6
   8   3  -5 67.3603 5.88378   2
   8  -3   5 69.2982 4.65523   4
  -8  -3  -5 71.4501 6.17189   1
   8  -3   5 67.0557 6.11180   1
  -8   3   5 76.7373 6.31740   2
  -8  -3  -5 67.7707 7.47686   3
   8   3   5 61.9720 5.52362   2
  -8   3  -5 69.6971 5.78154   2
  -8  -3   5 74.2135 6.70449   3
   8  -3  -5 59.3249 6.05891   1
  -8  -3   5 62.4218 5.94427   1
  -9   3   5 222.667 10.4303   2
  -9  -3  -5 215.416 11.6680   3
   9   3  -5 226.536 10.2862   2
  -9  -3  -5 220.579 9.84208   1
   9  -3   5 214.121 9.93195   1
   9   3   5 231.253 9.87693   2
  -9  -3   5 244.110 10.4481   1
   9  -3  -5 229.184 10.5742   1
  -9   3  -5 230.923 10.0966   2
  -9  -3   5 219.321 10.4329   3
 -10  -3  -5 21.7959 4.69232   1
 -10  -3  -5 28.0447 6.20867   3
  10  -3   5 25.5753 5.11882   1
  10   3  -5 39.2420 5.66788   2
 -10   3   5 29.0033 5.39217   2
 -10  -3   5 32.3168 5.54767   1
  10  -3  -5 31.7210 5.52567   1
  10   3   5 36.5696 5.50641   2
 -10   3  -5 20.1659 4.77628   2
  11  -3   5 109.520 8.89182   1
 -11  -3  -5 125.785 9.01162   1
 -11   3   5 124.694 9.56399   2
  11   3  -5 120.035 9.46326   2
 -11  -3  -5 120.391 10.4159   3
 -11  -3   5 130.430 9.26059   1
  11  -3  -5 118.592 9.37629   1
  11   3   5 114.569 8.96354   2
 -11   3  -5 118.153 9.08783   2
 -12  -3  -5 281.391 14.5993   3
  12  -3   5 272.149 13.0732   1
 -12   3   5 290.419 13.5983   2
  12   3  -5 260.300 12.9389   2
 -12  -3  -5 282.450 12.9841   1
  12   3   5 272.535 12.8009   2
 -12   3  -5 291.087 12.5117   7
 -12   3  -5 273.837 12.7859   2
  12  -3  -5 268.686 13.6336   1
 -12  -3   5 286.851 13.3108   1
  13  -3   5 -3.5615 4.50513   1
 -13   3   5 6.66387 5.01288   7
 -13   3   5 4.89134 4.87381   2
 -13  -3  -5 -7.8618 3.74543   1
  13   3  -5 1.75014 4.82930   2
 -13  -3  -5 2.26002 5.29522   3
 -13  -3   5 0.48245 4.33955   1
 -13   3  -5 3.70177 4.65369   7
  13  -3  -5 -2.9696 4.84948   1
  13   3   5 3.07074 4.72359   2
 -13   3  -5 -1.2949 4.28551   2
 -14   3   5 53.2911 7.43250   7
  14   3  -5 51.1290 7.72898   2
 -14   3   5 64.6122 8.44886   2
 -14  -3  -5 59.2826 7.90361   1
 -14  -3  -5 57.0271 8.81509   3
  14  -3   5 58.7540 8.25086   1
  14   3   5 44.0867 7.73516   2
  14  -3  -5 33.9106 7.43550   1
 -14  -3   5 45.9632 7.45735   1
 -14   3  -5 47.1924 7.43261   2
 -14   3  -5 51.2375 7.58520   7
  15  -3   5 151.664 12.2426   1
 -15   3   5 138.958 11.7145   2
  15   3  -5 153.975 12.0914   2
 -15   3   5 147.959 11.5878   7
 -15  -3  -5 144.192 11.5661   1
 -15  -3   5 136.498 11.7895   1
  15   3   5 148.023 12.1678   2
 -15   3  -5 142.807 11.3488   7
 -15   3  -5 166.270 12.4647   2
  15  -3  -5 133.099 12.1351   1
 -16  -3  -5 30.4890 7.19016   1
  16   3  -5 30.4783 7.19415   2
  16  -3   5 23.3478 7.61897   1
  16   3  -5 21.6377 7.05442   7
 -16   3   5 19.5955 6.76586   7
  16  -3  -5 14.8286 6.93252   1
  16   3   5 24.5858 6.73378   2
 -16  -3   5 10.1905 6.36069   1
 -16   3  -5 30.2659 7.11675   7
   0  -4  -5 -1.2229 2.63840   5
   0  -4  -5 -1.9220 2.98120   3
   0  -4   5 7.45842 3.78060   3
   0   4  -5 3.16066 1.46844   4
   0  -4   5 0.08810 1.64585   1
   0   4  -5 -0.6870 1.40049   2
   0  -4  -5 1.88252 1.53339   1
   0   4   5 1.39177 1.41898   2
   0  -4   5 4.09208 2.99763   5
   1  -4   5 83.5137 6.95089   3
  -1   4   5 75.8824 3.70261   2
   1  -4   5 84.4304 4.08424   1
  -1  -4  -5 75.3090 6.75346   3
   1   4  -5 85.1304 3.59225   4
   1  -4   5 86.6721 6.18217   5
  -1  -4  -5 82.8399 3.78735   1
  -1  -4  -5 71.3669 5.80239   5
   1   4  -5 81.7657 3.75725   2
   1  -4   5 82.8825 6.51026   6
   1   4   5 83.6532 3.53735   2
  -1  -4   5 72.5643 6.76095   3
   1  -4  -5 86.3198 6.25755   5
   1  -4  -5 75.2711 6.44623   3
  -1   4  -5 87.7718 3.68928   4
  -1  -4   5 80.5729 3.95020   1
  -1   4  -5 78.1347 3.75425   2
   1  -4  -5 73.7231 3.94334   1
   2  -4   5 45.1486 5.09259   6
   2  -4   5 52.5657 5.36019   5
   2   4  -5 49.5655 3.26768   4
  -2  -4  -5 45.7247 5.80665   3
   2  -4   5 54.9536 6.29922   3
  -2  -4  -5 52.5317 5.45595   5
   2  -4   5 57.2717 3.86999   1
  -2  -4  -5 53.3184 3.50124   1
  -2   4   5 53.8620 3.59173   2
   2   4  -5 56.6739 3.55555   2
   2   4   5 56.1094 3.37769   2
  -2   4  -5 53.9289 3.36649   4
  -2  -4   5 51.2791 3.79660   1
  -2   4  -5 51.7369 3.54050   2
   2  -4  -5 55.2455 5.44330   3
   2  -4  -5 45.8359 3.78864   1
  -2  -4   5 44.2322 5.78739   3
  -3  -4  -5 577.536 13.1568   1
   3  -4   5 565.498 17.6555   3
   3   4  -5 584.187 13.0058   2
   3  -4   5 570.824 16.1031   5
   3  -4   5 588.233 16.8478   6
   3  -4   5 606.477 13.6629   1
  -3  -4  -5 579.422 18.1607   3
  -3   4   5 597.370 13.3052   2
   3   4  -5 611.906 13.1067   4
   3  -4  -5 580.192 15.6728   3
   3   4   5 589.214 12.7237   2
  -3  -4   5 571.919 13.6208   1
  -3  -4   5 581.951 17.7094   3
  -3   4  -5 581.308 13.1472   2
   3  -4  -5 590.032 13.9178   1
  -3   4  -5 606.221 13.2273   4
  -4  -4  -5 51.1477 6.49350   3
   4   4  -5 56.4562 4.28597   2
   4  -4   5 42.9286 5.19412   6
   4  -4   5 54.9702 6.41608   3
  -4   4   5 53.0314 4.33816   2
   4  -4   5 50.4509 4.17447   1
   4  -4   5 53.2646 5.51491   5
  -4  -4  -5 57.5777 4.14840   1
   4   4   5 55.1813 3.94846   2
  -4  -4   5 48.0972 6.18313   3
  -4  -4   5 47.7422 4.10505   1
  -4   4  -5 55.6698 4.26088   2
   4  -4  -5 49.7780 4.46930   1
   4  -4  -5 48.6704 4.94024   3
   5   4  -5 564.638 13.9902   2
  -5  -4  -5 577.645 14.0091   1
  -5  -4  -5 531.415 18.3725   3
   5  -4   5 590.046 14.4574   1
   5  -4   5 568.810 16.7038   6
  -5   4   5 557.572 14.3120   2
  -5  -4   5 569.422 17.5749   3
  -5  -4   5 570.221 14.5378   1
  -5   4  -5 585.294 14.0985   2
   5   4   5 562.001 13.5021   2
   5  -4  -5 554.490 14.6647   1
  -6  -4  -5 9.79297 2.89433   1
  -6   4   5 16.8475 3.55480   2
  -6  -4  -5 13.6595 5.04714   3
   6  -4   5 12.1220 3.19063   1
   6  -4   5 10.2001 3.62560   6
   6   4  -5 8.40763 3.26272   2
  -6  -4   5 11.3393 3.41759   1
   6  -4  -5 5.95648 3.32509   1
  -6   4  -5 10.8912 3.02215   2
  -6  -4   5 9.84165 4.39185   3
   6   4   5 10.8562 3.00932   2
   7   4  -5 40.2028 4.75726   2
  -7   4   5 33.0566 4.58597   2
  -7  -4  -5 33.7280 4.35652   1
   7  -4   5 35.0709 5.03273   6
  -7  -4  -5 40.0928 6.77764   3
   7  -4   5 34.4623 4.55065   1
  -7  -4   5 31.5190 4.63379   1
   7   4   5 38.2332 4.41042   2
  -7   4  -5 39.7198 4.61699   2
   7  -4  -5 36.4569 5.17257   1
  -7  -4   5 35.5746 5.89087   3
   8   4  -5 60.0539 5.87556   2
   8  -4   5 81.5491 6.98233   6
  -8  -4  -5 66.1633 5.97620   1
   8  -4   5 69.2487 6.41554   1
  -8  -4  -5 66.0851 8.19811   3
  -8   4   5 57.7121 5.96782   2
   8  -4  -5 81.5280 6.99692   1
  -8   4  -5 84.3072 6.54098   2
  -8  -4   5 68.6827 7.56373   3
   8   4   5 67.9799 5.85275   2
  -8  -4   5 64.0577 6.14697   1
  -9  -4  -5 196.786 9.63686   1
   9   4  -5 225.094 10.4767   2
   9  -4   5 197.195 10.0384   1
  -9  -4  -5 232.077 13.0976   3
  -9   4   5 212.453 10.6449   2
  -9   4  -5 209.910 9.97906   2
  -9  -4   5 219.024 10.3027   1
   9  -4  -5 201.275 10.6068   1
   9   4   5 222.921 9.81058   2
  -9  -4   5 216.078 11.4911   3
 -10  -4  -5 23.5915 4.72806   1
 -10   4   5 39.2132 5.94344   2
  10   4  -5 33.1698 5.50959   2
 -10  -4  -5 38.6671 7.24494   3
  10  -4   5 32.4106 5.51628   1
  10   4   5 38.8546 5.56595   2
 -10  -4   5 27.4378 6.08955   3
 -10   4  -5 24.1458 5.12460   2
 -10  -4   5 21.4858 5.07515   1
  10  -4  -5 31.6803 5.91626   1
  11  -4   5 188.082 10.9772   1
 -11   4   5 206.157 11.6229   2
 -11  -4  -5 202.000 13.1829   3
 -11  -4  -5 208.057 10.8018   1
  11   4  -5 237.049 11.8833   2
  11  -4  -5 207.253 11.7504   1
  11   4   5 207.732 11.1750   2
 -11   4  -5 229.840 11.5471   2
 -11  -4   5 221.043 11.5976   1
 -12  -4  -5 127.393 9.71669   1
 -12  -4  -5 112.309 11.1323   3
 -12   4   5 131.207 10.4848   2
  12   4  -5 132.723 10.3656   2
  12  -4   5 136.737 10.3001   1
 -12  -4   5 122.562 9.96247   1
  12   4   5 127.068 9.75086   2
 -12   4  -5 142.851 10.1552   2
  12  -4  -5 131.357 10.5819   1
  13   4  -5 425.560 17.0372   2
  13  -4   5 418.874 17.2047   1
 -13  -4  -5 424.947 18.9921   3
 -13   4   5 421.861 17.0634   2
 -13  -4  -5 419.540 16.7811   1
  13   4   5 421.791 16.6537   2
 -13   4  -5 415.543 16.6291   2
  13  -4  -5 407.339 17.3548   1
 -13  -4   5 434.811 17.1609   1
  14  -4   5 25.3698 6.77500   1
 -14  -4  -5 20.4122 6.28032   1
 -14   4   5 20.1489 6.37063   2
  14   4  -5 16.4535 6.12942   2
 -14  -4  -5 34.9676 8.08598   3
  14  -4  -5 20.8305 6.79135   1
  14   4   5 15.1103 6.25823   2
 -14   4  -5 18.4744 5.92943   2
 -14  -4   5 21.3609 6.43751   1
  15  -4   5 3.04074 5.58304   1
  15   4  -5 1.43498 5.62229   2
 -15  -4  -5 4.29412 5.15294   1
 -15   4   5 0.74158 5.05347   2
 -15  -4  -5 -5.2115 5.75020   3
 -15   4  -5 5.31640 5.61470   2
  15  -4  -5 -8.3376 5.09235   1
 -15  -4   5 -0.2698 4.94716   1
  15   4   5 -6.3322 5.26641   2
   0  -5   5 561.937 12.3143   1
   0  -5   5 583.161 17.4091   5
   0   5   5 564.164 11.5739   2
   0  -5   5 579.348 18.8419   3
   0  -5  -5 549.111 16.9931   5
   0  -5  -5 546.988 17.6950   3
   0   5  -5 584.285 12.0001   2
   0  -5   5 539.867 17.5253   6
   1   5  -5 5.11247 1.97881   2
   1  -5   5 4.53719 4.43594   3
  -1  -5  -5 6.91802 4.34588   3
   1  -5   5 5.20202 3.71927   5
   1  -5   5 14.0871 2.44572   1
  -1   5   5 11.6207 2.07786   2
   1  -5   5 6.83185 3.67194   6
  -1  -5  -5 2.94766 3.62357   5
  -1  -5   5 11.1783 4.82484   3
   1  -5  -5 5.33604 1.98353   1
   1  -5  -5 1.03128 3.50744   5
  -1  -5   5 6.07537 3.62487   6
   1   5   5 10.0408 1.93506   2
  -1   5  -5 12.5124 2.20187   2
   1  -5  -5 6.95760 4.08009   3
  -1  -5   5 9.63543 2.11254   1
   2  -5   5 3.31566 2.17099   1
  -2  -5  -5 1.99846 3.45191   5
   2  -5   5 2.57345 4.41887   3
   2  -5   5 2.78278 3.65140   5
  -2   5   5 0.91005 2.00554   2
   2  -5   5 1.10972 3.48424   6
  -2  -5  -5 2.54351 4.35911   3
  -2  -5  -5 3.14591 1.84479   1
   2   5  -5 2.23396 1.84785   2
   2  -5  -5 -1.8986 3.57276   3
   2   5   5 0.65409 1.81854   2
   2  -5  -5 1.69929 2.13199   1
   2  -5  -5 2.38945 3.65068   5
  -2  -5   5 -3.6919 4.19006   3
  -2   5  -5 5.26267 2.01631   2
  -2  -5   5 1.75643 2.02301   1
  -2  -5   5 -1.7938 3.33321   6
  -3   5   5 340.996 9.67351   2
   3  -5   5 387.465 14.0851   6
  -3  -5  -5 339.675 14.6810   3
   3  -5   5 381.368 10.0320   1
   3  -5   5 362.633 14.8172   3
   3   5  -5 372.813 9.52870   2
  -3  -5  -5 382.478 9.50460   1
   3  -5   5 374.135 13.4935   5
  -3  -5   5 367.532 9.73418   1
  -3  -5   5 335.357 13.7266   6
  -3  -5   5 343.095 14.7376   3
   3   5   5 369.406 9.11889   2
  -3   5  -5 362.451 9.68627   2
   3  -5  -5 348.638 9.97652   1
   3  -5  -5 351.379 12.9806   3
   4  -5   5 27.5294 5.05969   5
   4   5  -5 29.6074 3.58726   2
   4  -5   5 22.3686 4.91520   6
  -4  -5  -5 23.4681 6.02975   3
  -4  -5  -5 32.0179 3.45546   1
   4  -5   5 33.0312 3.73093   1
  -4   5   5 25.5214 3.64995   2
   4  -5   5 26.8774 5.59164   3
  -4  -5   5 28.9329 3.62279   1
  -4  -5   5 15.2009 4.69503   6
   4  -5  -5 20.9640 4.57559   3
   4  -5  -5 20.5476 3.53283   1
  -4   5  -5 24.8712 3.42303   2
  -4  -5   5 31.3808 6.09588   3
   4   5   5 33.3774 3.41555   2
  -5  -5  -5 -0.9167 2.44990   1
   5  -5   5 2.04617 3.54156   6
  -5   5   5 -3.7190 2.62346   2
  -5  -5  -5 2.32286 4.66497   3
   5  -5   5 -0.8894 2.62304   1
   5   5  -5 -1.6073 2.61369   2
   5  -5   5 1.69370 4.43435   3
   5  -5   5 0.63138 3.73481   5
  -5  -5   5 0.40475 2.66174   1
  -5  -5   5 -1.5359 3.66368   6
   5  -5  -5 2.22095 3.09979   1
  -5  -5   5 3.30364 4.61172   3
   5   5   5 0.59085 2.43169   2
  -5   5  -5 0.38979 2.43512   2
   6  -5   5 6.14646 3.17362   1
   6  -5   5 10.4237 4.52142   5
  -6  -5  -5 8.71051 3.20427   1
  -6   5   5 11.0078 3.66265   2
   6   5  -5 14.2961 3.66713   2
  -6  -5  -5 4.08720 4.95369   3
   6  -5  -5 7.01992 3.58255   1
  -6   5  -5 8.74975 3.20760   2
   6   5   5 4.14068 2.82549   2
  -6  -5   5 9.02229 4.26633   6
  -6  -5   5 5.26136 3.32564   1
  -6  -5   5 2.00340 4.61861   3
  -7  -5  -5 92.4826 9.78175   3
  -7   5   5 77.8826 6.60324   2
   7  -5   5 102.146 7.03440   1
   7   5  -5 99.5910 7.14876   2
  -7  -5  -5 88.6328 6.45306   1
   7  -5  -5 99.3503 7.29035   1
   7   5   5 94.0929 6.46814   2
  -7  -5   5 93.0308 9.04636   3
  -7  -5   5 81.5511 6.50886   1
  -7   5  -5 94.0194 6.80453   2
  -8   5   5 41.8934 5.68066   2
  -8  -5  -5 43.8363 5.38631   1
  -8  -5  -5 41.1671 7.46877   3
   8  -5   5 41.2640 5.47215   1
   8   5  -5 37.5936 5.30842   2
   8  -5  -5 34.6002 5.53481   1
   8   5   5 38.4775 4.92276   2
  -8  -5   5 34.4903 6.77512   3
  -8   5  -5 41.0635 5.23082   2
  -8  -5   5 33.7769 5.13970   1
  -9  -5  -5 188.255 9.35891   1
  -9  -5  -5 189.766 13.3535   3
   9  -5   5 184.847 9.89299   1
  -9   5   5 184.096 10.2640   2
   9   5  -5 188.296 10.2679   2
   9   5   5 189.826 9.63546   2
   9  -5  -5 191.173 10.4818   1
  -9  -5   5 183.816 11.7838   3
  -9   5  -5 186.681 9.85807   2
  -9  -5   5 175.602 9.85131   1
 -10   5   5 24.3828 5.60275   2
  10  -5   5 28.6242 5.62268   1
  10   5  -5 10.2381 4.72684   2
 -10  -5  -5 25.0210 5.17839   1
 -10  -5  -5 33.0377 7.66439   3
 -10  -5   5 28.6469 6.63475   3
  10  -5  -5 32.6024 5.96986   1
  10   5   5 18.7958 4.90336   2
 -10  -5   5 29.8162 5.78899   1
 -10   5  -5 28.8938 5.48858   2
  11   5  -5 84.2830 8.41579   2
 -11   5   5 99.4019 8.90627   2
 -11  -5  -5 79.3371 8.07397   1
  11  -5   5 74.8319 8.10400   1
 -11  -5  -5 82.1255 10.5801   3
  11   5   5 83.2131 8.05412   2
  11  -5  -5 100.404 9.38137   1
 -11  -5   5 76.9551 8.10846   1
 -11  -5   5 92.3518 9.94890   3
 -11   5  -5 91.8073 8.27762   2
 -12  -5  -5 189.029 11.6311   1
  12  -5   5 182.380 11.7944   1
 -12  -5  -5 169.218 14.3343   3
  12   5  -5 215.159 12.2540   2
 -12   5   5 176.320 11.6886   2
  12  -5  -5 190.879 12.2918   1
 -12  -5   5 189.565 11.7322   1
 -12   5  -5 188.204 11.5207   2
  12   5   5 185.918 11.2217   2
 -13  -5  -5 7.42715 6.67955   3
  13  -5   5 -2.8493 4.65344   1
 -13   5   5 2.98293 5.36071   2
  13   5  -5 -2.4855 4.75225   2
 -13  -5  -5 0.73497 4.56200   1
  13  -5  -5 -0.5143 5.07871   1
  13   5   5 0.20462 4.92997   2
 -13   5  -5 0.74789 4.65543   2
 -13  -5   5 3.69270 4.96686   1
 -14   5   5 53.1214 8.05669   2
  14  -5   5 43.2774 8.08291   1
 -14  -5  -5 45.1079 8.93365   3
 -14  -5  -5 33.1596 6.90110   1
  14   5  -5 41.6130 7.33055   2
  14   5   5 39.7247 7.34891   2
 -14  -5   5 42.2396 7.67346   1
  14  -5  -5 45.6087 8.22724   1
 -14   5  -5 41.8328 7.37382   2
   0   6   5 0.70907 1.80443   2
   0  -6   5 -2.1573 4.67071   3
   0  -6   5 1.71305 4.14451   5
   0   6  -5 -1.0922 1.88883   2
   0  -6  -5 3.94568 4.86528   3
   0  -6  -5 4.62764 4.36916   5
   1  -6   5 216.391 12.9733   3
   1  -6   5 224.200 11.6885   5
  -1  -6  -5 246.844 11.9049   5
   1   6  -5 238.864 6.94201   2
  -1   6   5 240.161 6.90595   2
  -1  -6  -5 225.123 12.8436   3
   1  -6  -5 218.635 11.7348   5
  -1   6  -5 247.585 7.08463   2
   1   6   5 235.044 6.43946   2
  -1  -6   5 244.089 13.3509   3
   1  -6  -5 253.128 12.6860   3
  -2   6   5 76.1955 4.69874   2
   2   6  -5 63.4884 4.40023   2
   2  -6   5 71.8001 7.60470   5
  -2  -6  -5 66.8815 7.70770   5
  -2  -6  -5 64.1657 8.22469   3
   2  -6   5 71.7525 8.74681   3
   2  -6  -5 66.8820 7.72630   5
   2  -6  -5 61.8732 7.47802   3
  -2  -6   5 72.6109 8.72990   3
  -2   6  -5 69.4335 4.58465   2
   2   6   5 75.6121 4.04831   2
   3  -6   5 31.6760 6.91177   3
  -3   6   5 19.3442 3.26242   2
  -3  -6  -5 23.6281 6.71059   3
   3  -6   5 14.0011 5.30226   5
   3   6  -5 14.7925 3.02824   2
   3  -6  -5 26.2154 5.70825   3
   3  -6  -5 28.2715 5.82313   5
  -3  -6   5 27.9433 6.72902   3
  -3   6  -5 26.0850 3.31772   2
   3   6   5 23.9032 2.97021   2
   4  -6   5 151.900 11.5142   3
  -4  -6  -5 145.852 11.5868   3
   4  -6   5 136.225 10.0254   5
   4   6  -5 157.280 6.99685   2
  -4   6   5 151.852 7.23986   2
  -4   6  -5 163.519 6.97198   2
   4  -6  -5 143.969 10.3866   5
  -4  -6   5 169.347 12.1637   3
   4   6   5 165.827 6.44497   2
  -5   6   5 61.7956 5.42722   2
  -5  -6  -5 68.6930 9.44319   3
   5  -6   5 61.3785 5.27251   1
   5  -6   5 58.5132 8.48646   3
   5   6  -5 57.4572 5.25165   2
   5  -6   5 64.1790 7.90741   5
   5   6   5 69.5615 5.08695   2
  -5   6  -5 60.2597 5.24332   2
  -5  -6   5 62.9145 8.60768   3
   5  -6  -5 67.5427 5.63550   1
  -6   6   5 314.920 11.2534   2
   6  -6   5 318.281 14.4756   5
   6   6  -5 340.726 11.2951   2
   6  -6   5 317.125 11.2142   1
  -6  -6  -5 314.310 16.3522   3
  -6  -6   5 341.572 11.7511   1
  -6  -6   5 284.744 15.3909   3
  -6   6  -5 329.452 11.1261   2
   6   6   5 317.450 10.5019   2
   6  -6  -5 334.045 11.8337   1
  -7   6   5 22.5577 4.61477   2
   7  -6   5 29.6543 4.86573   1
   7  -6   5 32.0638 6.63711   5
  -7  -6  -5 21.6613 7.11328   3
   7   6  -5 25.1025 4.80379   2
  -7  -6  -5 25.8237 4.23562   1
  -7  -6   5 26.0348 4.70530   1
   7  -6  -5 34.9341 5.37427   1
   7   6   5 26.3181 4.38284   2
  -7  -6   5 27.4398 7.17653   3
  -7   6  -5 19.2913 4.32982   2
   8   6  -5 153.892 9.27503   2
   8  -6   5 159.751 9.12075   1
  -8  -6  -5 158.859 12.8958   3
   8  -6   5 168.421 11.6343   5
  -8  -6  -5 153.160 8.56419   1
  -8   6   5 156.839 9.55292   2
   8   6   5 141.655 8.37871   2
  -8  -6   5 150.061 12.2930   3
  -8   6  -5 143.859 8.80641   2
  -8  -6   5 147.211 8.75850   1
   8  -6  -5 144.198 9.47217   1
   9  -6   5 44.5200 7.68677   5
   9  -6   5 57.8185 7.02457   1
   9   6  -5 38.9100 6.06925   2
  -9   6   5 56.9909 6.78182   2
  -9  -6  -5 55.5130 6.34670   1
  -9  -6  -5 48.2048 8.99572   3
  -9  -6   5 56.6406 8.76420   3
   9   6   5 59.6303 6.41784   2
   9  -6  -5 59.8300 7.00481   1
  -9   6  -5 61.3236 6.80010   2
  -9  -6   5 58.6351 6.88038   1
  10   6  -5 7.22047 4.79796   2
  10  -6   5 4.11897 4.63587   1
 -10   6   5 10.0812 4.95370   2
 -10  -6  -5 9.84138 6.69230   3
 -10  -6  -5 8.85199 4.45389   1
 -10   6  -5 1.44176 4.20366   2
 -10  -6   5 8.65456 4.59218   1
  10   6   5 8.12750 4.45328   2
 -10  -6   5 6.74151 6.23058   3
  10  -6  -5 11.4026 5.15348   1
 -11   6   5 55.4917 7.39661   2
 -11  -6  -5 72.7347 10.5217   3
 -11  -6  -5 75.3059 7.91301   1
  11  -6   5 75.8961 8.15431   1
  11   6  -5 62.9428 7.73890   2
  11  -6  -5 69.6545 8.07115   1
 -11   6  -5 65.1653 7.54696   2
  11   6   5 64.2115 7.28553   2
 -11  -6   5 74.0674 9.79744   3
 -11  -6   5 62.2924 7.49080   1
  12   6  -5 6.83185 5.23628   2
 -12  -6  -5 11.5630 5.10470   1
 -12  -6  -5 9.31135 6.94640   3
  12  -6   5 2.88073 5.10679   1
 -12   6   5 14.5425 5.65093   2
 -12   6  -5 7.06434 4.93338   2
  12   6   5 1.40195 5.07044   2
 -12  -6   5 8.60527 5.31241   1
  12  -6  -5 -0.0049 4.93539   1
   0  -7  -5 316.676 15.2776   5
   0  -7  -5 353.591 16.3808   3
   0  -7   5 352.877 17.3278   3
   0   7  -5 360.922 9.22978   2
   1   7  -5 11.8128 2.69199   2
  -1  -7  -5 9.17666 6.22401   3
  -1  -7  -5 10.9412 5.29744   5
   1  -7   5 11.5189 6.03699   3
   1  -7   5 7.22977 5.22455   5
  -1  -7   5 18.7406 6.99017   3
   1  -7  -5 6.04100 5.70795   3
   1  -7  -5 15.4799 5.81283   5
  -1   7  -5 11.3258 2.76116   2
  -2  -7  -5 5.67575 6.16944   3
  -2   7   5 -2.3216 2.39556   2
   2  -7   5 2.15070 6.01468   3
   2   7  -5 5.81406 2.63275   2
  -2  -7  -5 3.14152 4.86575   5
   2  -7   5 2.03060 5.00898   5
  -2  -7   5 -9.6628 4.93318   3
   2  -7  -5 3.10368 5.03259   5
  -2   7  -5 2.81924 2.57825   2
   2  -7  -5 -4.3850 4.82384   3
  -3   7   5 236.328 8.35938   2
   3  -7   5 237.385 14.8438   3
  -3  -7  -5 197.977 14.4746   3
   3   7  -5 232.495 8.07875   2
   3  -7   5 232.375 13.4082   5
   3  -7  -5 234.174 13.4726   5
   3   7   5 227.902 7.37973   2
  -3  -7   5 238.068 14.9706   3
  -3   7  -5 233.891 8.13581   2
  -4  -7  -5 20.3138 7.38958   3
   4   7  -5 14.2111 3.61376   2
  -4   7   5 17.5805 3.86038   2
   4  -7   5 25.1780 7.22639   3
   4  -7   5 17.0039 6.10737   5
   4  -7  -5 21.2231 6.43372   5
  -4  -7   5 14.6453 6.78153   3
  -4   7  -5 23.9952 3.97207   2
   4   7   5 21.9355 3.48136   2
  -5   7   5 2.25454 3.26233   2
   5  -7   5 2.61092 6.01268   3
   5   7  -5 4.95967 3.36604   2
   5  -7   5 -0.8277 5.06990   5
  -5  -7  -5 0.70237 6.35431   3
  -5  -7   5 4.14375 5.74749   3
  -5   7  -5 5.46207 3.19114   2
   5  -7  -5 8.99959 5.65526   5
   5   7   5 -1.6835 2.79675   2
  -6  -7  -5 -6.0861 6.10247   3
   6  -7   5 4.37124 6.74232   3
  -6   7   5 4.57354 3.65046   2
   6  -7   5 1.55462 5.35874   5
   6   7  -5 1.13540 3.79903   2
   6   7   5 5.04511 3.30671   2
   6  -7  -5 9.99444 6.15014   5
  -6  -7   5 -2.1299 5.64281   3
  -6   7  -5 2.04241 3.42461   2
  -7  -7  -5 51.6083 9.61552   3
   7   7  -5 47.5838 6.00670   2
   7  -7   5 60.9233 8.76178   5
  -7   7   5 61.0655 6.31519   2
   7   7   5 51.0861 5.42937   2
  -7   7  -5 56.9156 5.94287   2
  -7  -7   5 46.2134 8.94312   3
  -8   7   5 31.8798 5.60761   2
   8  -7   5 40.8259 8.21920   5
  -8  -7  -5 32.0901 8.56759   3
   8   7  -5 27.6365 5.34885   2
  -8   7  -5 22.7739 4.95127   2
   8   7   5 25.3200 4.77287   2
  -8  -7   5 24.9655 8.07763   3
   9   7  -5 81.8759 7.97071   2
  -9  -7  -5 88.6659 11.9915   3
   9  -7   5 101.954 10.9133   5
   9  -7   5 92.5574 8.11243   1
  -9   7   5 93.3869 8.20203   2
   9  -7  -5 80.0190 8.81786   1
  -9   7  -5 86.6072 7.76508   2
   9   7   5 84.0399 7.36121   2
  -9  -7   5 94.3726 11.3507   3
 -10   7   5 3.12086 4.69660   2
  10  -7   5 19.8973 5.81092   1
 -10  -7  -5 -1.1717 7.00121   3
  10   7  -5 16.8781 5.37112   2
  10  -7   5 12.3995 6.90347   5
  10  -7  -5 6.76128 5.46656   1
  10   7   5 8.77100 4.69818   2
 -10   7  -5 6.52212 4.68048   2
 -10  -7   5 8.52834 7.14283   3
   0  -8  -5 -3.5249 5.18366   5
   0  -8   5 -5.6160 5.75342   3
   0  -8  -5 11.9850 6.89978   3
  -1  -8  -5 19.4441 7.43904   3
  -1  -8  -5 12.0680 5.91926   5
   1  -8   5 9.30713 7.17940   3
   1  -8  -5 17.5900 6.01413   5
  -1  -8   5 18.0256 7.46285   3
   1  -8  -5 5.32553 6.41019   3
  -2  -8  -5 12.3151 7.01933   3
   2  -8   5 4.15253 5.57574   5
   2  -8   5 10.2943 6.87729   3
   2  -8  -5 18.2330 7.11888   3
  -2  -8   5 16.4697 7.68741   3
   2  -8  -5 16.8250 6.72650   5
   3  -8   5 158.089 12.5597   5
  -3  -8  -5 154.651 14.1591   3
   3  -8   5 137.825 13.4113   3
   3  -8  -5 161.898 13.4133   5
  -3  -8   5 155.582 14.1495   3
  -3   8  -5 174.176 7.43966   2
  -4  -8  -5 -2.3305 6.66239   3
  -4   8   5 4.28292 3.66061   2
   4  -8   5 14.3086 7.53336   3
   4  -8   5 6.28690 6.10250   5
   4  -8  -5 3.27435 5.88661   5
  -4  -8   5 13.7600 7.09645   3
  -4   8  -5 7.00159 3.61581   2
  -5   8   5 147.575 8.41889   2
   5  -8   5 125.134 12.0263   5
  -5  -8  -5 156.288 15.4560   3
   5  -8   5 134.445 13.5566   3
   5   8  -5 161.081 8.49191   2
  -5   8  -5 163.957 8.30240   2
   5  -8  -5 167.608 13.4346   5
  -5  -8   5 171.098 14.9599   3
   6  -8   5 8.93345 6.44533   5
   6   8  -5 7.47416 4.21357   2
  -6  -8  -5 16.6288 8.35104   3
  -6   8   5 13.6564 4.25903   2
   6  -8  -5 -3.4486 5.85199   5
   6   8   5 12.4517 4.03075   2
  -6  -8   5 10.7944 7.56966   3
  -6   8  -5 15.3789 4.36282   2
   0   0  -6 3564.09 62.7938   4
   0   0   6 3442.79 62.7727   4
   1   0   6 4313.09 77.8539   4
   1   0  -6 4481.53 77.9698   4
  -1   0  -6 4392.85 77.8473   4
  -1   0   6 4334.45 78.0039   4
   2   0  -6 21.7688 2.83699   4
   2   0   6 19.4363 2.48378   4
  -2   0   6 25.1558 2.97926   4
  -2   0  -6 22.7254 2.51747   4
   3   0   6 125.815 5.37462   4
  -3   0   6 125.077 5.81785   4
  -3   0  -6 130.939 5.31582   4
   3   0  -6 126.967 5.82195   4
   4   0  -6 332.090 9.79914   4
   4   0   6 328.904 9.35550   4
  -4   0  -6 333.087 9.24667   4
  -4   0   6 334.706 9.79296   4
  -5   0   6 13.1793 2.96301   4
  -5   0  -6 11.6689 2.63289   4
  -5   0  -6 10.9897 2.94130   1
   5   0  -6 8.20766 2.74110   4
   5   0   6 9.18013 2.44995   4
   6   0  -6 24.7346 3.61151   4
  -6   0   6 23.0629 3.47876   4
   6   0   6 16.8433 2.91938   4
   6   0   6 30.0993 3.68732   2
  -6   0   6 18.8993 3.75882   1
   6   0  -6 26.4995 4.06647   1
   6   0  -6 22.1030 3.51750   7
   6   0   6 24.9861 3.67520   1
   6   0   6 29.5704 3.45142   7
  -6   0   6 29.6487 3.64073   7
  -6   0  -6 20.4663 3.52497   1
  -7   0   6 757.952 19.1509   1
  -7   0   6 786.484 18.6684   2
   7   0   6 760.360 18.2548   4
   7   0   6 756.858 17.1722   7
   7   0  -6 768.453 18.4411   2
  -7   0   6 753.883 17.6336   7
   7   0   6 753.462 18.4801   1
   7   0  -6 762.262 19.1093   1
  -7   0   6 754.327 18.8168   4
  -7   0  -6 756.108 17.7576   2
   7   0  -6 779.613 19.1020   4
   7   0  -6 763.739 17.6445   7
  -7   0  -6 768.399 18.7598   1
   7   0   6 828.552 18.3085   2
   8   0  -6 878.729 22.1478   1
   8   0   6 933.866 21.1169   2
   8   0  -6 888.649 20.4075   7
  -8   0  -6 888.894 21.7257   1
   8   0   6 905.185 19.9163   7
  -8   0   6 914.303 22.2901   1
  -8   0  -6 936.684 20.9053   2
   8   0   6 904.864 21.6943   1
  -8   0   6 870.260 20.2243   7
  -8   0   6 927.786 21.4232   2
   8   0  -6 903.244 21.2884   2
   8   0   6 880.427 21.2227   4
   9   0   6 1943.80 37.0762   7
   9   0   6 1964.67 38.5930   2
   9   0  -6 1913.45 37.6817   7
   9   0  -6 1908.14 39.1816   2
   9   0  -6 1925.71 40.5549   1
  -9   0   6 1867.48 37.4113   7
   9   0   6 1906.01 39.7402   1
  -9   0   6 1952.91 39.0461   2
  -9   0  -6 1881.94 39.8856   1
  -9   0  -6 1927.66 38.2821   2
  -9   0   6 1878.50 40.3461   1
  10   0   6 25.0075 4.29501   7
  10   0  -6 21.4987 4.39764   7
 -10   0   6 23.3717 5.05396   1
  10   0  -6 28.2643 4.84237   2
 -10   0   6 30.0091 4.85746   7
  10   0  -6 31.0326 5.44238   1
  10   0   6 25.3315 4.54460   2
 -10   0  -6 31.5931 5.12399   1
  10   0   6 30.4236 5.05673   1
 -11   0  -6 9.10666 3.99299   1
  11   0   6 0.33053 3.75576   1
  11   0  -6 -2.1373 3.78741   1
  11   0  -6 -1.0387 3.47513   7
 -11   0   6 4.91577 4.23729   1
 -11   0   6 -2.0893 3.39386   7
  11   0   6 3.09286 3.65003   7
  12   0  -6 3.42565 3.86702   7
  12   0   6 9.97465 4.64746   1
  12   0  -6 9.88392 4.97739   1
 -12   0  -6 4.71167 4.41443   1
 -12   0   6 10.8305 5.08117   1
  12   0   6 0.56425 3.70319   7
 -12   0   6 8.14080 4.04856   7
  13   0   6 45.4409 6.33821   7
 -13   0  -6 36.6144 6.51951   1
 -13   0   6 34.6177 5.89614   7
  13   0  -6 42.3459 6.32877   7
  13   0  -6 45.4599 7.32748   1
 -13   0   6 41.8840 7.13009   1
  13   0   6 33.2069 6.83131   1
  14   0   6 41.4716 6.25075   7
 -14   0   6 48.4430 7.71629   1
  14   0   6 29.6935 6.76320   1
 -14   0  -6 35.0084 6.73773   1
  14   0  -6 30.5159 5.76920   7
 -14   0   6 38.7994 6.24602   7
  14   0  -6 38.7008 7.47919   1
 -15   0   6 4.43183 4.89105   7
  15   0   6 1.16713 5.48783   1
 -15   0  -6 -8.6424 4.62444   1
  15   0  -6 -0.3850 4.58542   7
 -15   0   6 5.32156 5.68887   1
  15   0   6 1.31588 4.85931   7
  15   0  -6 6.28935 5.95786   1
  16   0  -6 125.874 10.0745   7
  16   0   6 142.537 11.0000   7
 -16   0   6 125.975 9.98893   7
 -16   0   6 133.019 12.4692   1
 -16   0  -6 140.026 12.1710   1
 -17   0   6 124.300 10.3476   7
  17   0   6 113.124 10.2295   7
 -17   0  -6 135.657 12.5842   1
  17   0  -6 113.426 9.92707   7
 -17   0   6 142.229 13.3111   1
   0  -1   6 -5.0805 1.74117   4
   0   1  -6 1.47096 1.90271   4
   0  -1  -6 -3.1765 1.59526   4
   0   1   6 -2.4224 1.68832   4
   1   1  -6 1354.80 26.1907   4
   1  -1   6 1332.39 25.7383   4
  -1   1   6 1367.72 25.8990   4
  -1  -1  -6 1347.62 25.4657   4
   1   1   6 1307.09 25.7222   4
   1  -1  -6 1347.25 25.5436   4
  -1   1  -6 1347.41 25.9648   4
  -1  -1   6 1376.22 26.0101   4
  -2  -1  -6 11.5679 2.03020   4
  -2   1   6 10.7700 2.35513   4
   2   1  -6 10.3602 2.37553   4
   2  -1   6 10.5331 2.16530   4
   2  -1  -6 10.7572 2.14561   4
   2   1   6 10.6205 2.22567   4
  -2   1  -6 10.1226 2.12752   4
  -2  -1   6 8.14830 2.27980   4
   3   1  -6 437.682 11.2441   4
   3  -1   6 433.877 10.5777   4
  -3   1   6 413.841 10.8492   4
  -3   1  -6 426.465 10.6632   4
   3   1   6 431.224 10.5903   4
   3  -1  -6 427.965 10.6312   4
  -3  -1   6 438.818 10.9851   4
   4  -1   6 5.35806 2.40567   1
   4   1  -6 11.0665 2.67974   2
  -4   1   6 8.80167 2.62305   4
   4   1  -6 10.3301 2.83955   4
  -4  -1  -6 8.90420 2.59973   1
   4  -1   6 7.45035 2.21268   4
  -4   1   6 10.9129 2.77830   2
  -4  -1   6 8.14923 2.49873   4
  -4  -1   6 6.37835 2.66087   1
   4  -1  -6 9.38423 2.47567   4
   4   1   6 9.68264 2.43506   4
  -4   1  -6 14.0120 2.72837   2
  -4   1  -6 13.0194 2.49442   4
   4   1   6 8.26654 2.36155   2
   4  -1  -6 11.0861 3.06252   1
   5  -1   6 1152.95 21.9014   7
   5   1  -6 1105.35 23.3817   2
  -5  -1  -6 1176.13 23.9843   1
   5   1  -6 1095.74 24.1128   4
  -5   1   6 1123.23 23.5791   2
   5  -1   6 1116.32 23.4258   4
  -5   1   6 1141.26 24.3371   4
   5  -1   6 1147.41 24.0305   1
  -5  -1   6 1143.37 23.8869   4
   5  -1  -6 1147.64 22.5862   7
   5   1   6 1108.63 23.0337   2
  -5   1  -6 1152.55 23.1090   2
  -5  -1   6 1093.95 24.2944   1
   5   1   6 1126.32 23.7058   4
   5  -1  -6 1143.73 24.0647   4
  -5   1  -6 1174.82 23.8024   4
   5  -1  -6 1122.45 24.4467   1
   6  -1   6 226.655 8.08718   4
   6   1  -6 221.695 8.46303   2
   6  -1   6 235.337 8.50180   1
   6  -1   6 225.479 7.95575   4
  -6  -1  -6 234.617 8.63928   1
   6  -1   6 221.894 7.39553   7
  -6   1   6 226.938 8.72473   2
  -6   1   6 221.311 8.60577   4
   6   1   6 234.044 8.27599   2
   6  -1  -6 232.525 8.55659   4
  -6   1  -6 226.873 8.62220   1
  -6   1  -6 232.579 8.13049   2
   6  -1  -6 231.258 7.85968   7
  -6  -1   6 240.899 7.76904   7
  -6  -1   6 223.952 8.28677   4
  -6   1  -6 222.486 8.03477   4
  -6  -1   6 221.632 8.87435   1
   6  -1  -6 212.961 8.79752   1
   6   1   6 210.642 8.02809   4
  -7   1   6 547.545 14.5881   2
   7   1  -6 507.299 14.7221   1
   7  -1   6 506.094 13.7188   4
   7  -1   6 518.745 11.9733   6
  -7  -1  -6 522.971 14.4435   1
  -7   1   6 530.736 13.7041   7
   7  -1   6 497.543 14.3532   1
   7  -1   6 545.034 14.0852   4
   7   1  -6 521.803 14.2209   2
  -7   1   6 508.468 14.6431   1
  -7   1   6 498.535 14.5662   4
   7   1  -6 514.271 13.6978   7
   7  -1   6 532.755 12.8608   7
   7   1   6 533.115 13.9790   2
   7  -1  -6 527.029 13.2916   7
   7   1   6 499.482 14.0577   1
  -7  -1   6 517.137 14.1050   4
  -7   1  -6 522.723 13.8318   2
   7   1   6 513.496 13.9675   4
  -7  -1   6 509.976 14.8697   1
   7  -1  -6 514.144 14.9438   1
   7  -1  -6 560.945 14.6499   4
  -7   1  -6 517.261 13.2522   7
   7   1   6 524.256 13.1727   7
  -7  -1   6 513.438 13.0803   7
  -7   1  -6 544.622 14.5354   1
   8  -1   6 -1.6434 2.71356   1
  -8   1   6 1.76052 3.16374   1
  -8   1   6 1.24755 2.91188   7
  -8   1   6 3.15817 2.92287   4
   8  -1   6 -0.3243 2.52973   4
  -8   1   6 7.26062 3.40745   2
   8   1  -6 4.40766 2.86722   7
   8   1  -6 -0.5507 3.11900   1
   8   1  -6 1.78236 3.04366   2
   8  -1   6 -4.4033 2.14081   7
  -8  -1  -6 0.90993 2.73538   1
   8  -1  -6 3.85675 2.79522   7
  -8  -1   6 0.25979 2.97600   1
  -8   1  -6 1.85119 2.67865   7
  -8   1  -6 4.20990 3.11853   1
  -8  -1   6 2.22829 2.62697   7
   8  -1  -6 0.84489 2.63666   4
   8   1   6 2.26455 3.06371   1
   8  -1  -6 2.93935 3.36102   1
   8   1   6 3.15044 2.79674   2
  -8   1  -6 2.88592 2.65009   2
   8   1   6 1.10940 2.57116   7
   8   1   6 8.24664 2.84074   4
   9   1  -6 263.564 10.0178   7
   9   1  -6 240.841 10.3181   2
   9  -1   6 268.863 9.42539   7
  -9   1   6 250.372 10.8775   1
   9   1  -6 271.765 11.0627   1
  -9  -1  -6 237.100 10.2002   1
   9  -1   6 248.348 10.6791   1
  -9   1   6 248.949 9.94349   7
  -9   1   6 252.377 10.5799   2
   9   1   6 249.107 9.61589   7
  -9   1  -6 262.211 10.7782   1
  -9  -1   6 271.608 9.38706   7
   9  -1  -6 244.389 9.46829   7
  -9   1  -6 251.323 10.0849   2
  -9   1  -6 244.244 9.52259   7
  -9  -1   6 252.413 10.9903   1
   9  -1  -6 245.284 11.0653   1
   9   1   6 255.404 10.1693   2
   9   1   6 253.770 10.4242   1
  10   1  -6 135.184 8.16947   7
 -10   1   6 141.827 8.37428   7
 -10   1   6 142.429 8.82349   2
 -10  -1  -6 128.450 8.53810   1
  10   1  -6 136.692 8.94643   1
  10   1  -6 134.859 8.82282   2
  10  -1   6 136.011 7.63093   7
  10  -1   6 132.956 8.64995   1
 -10   1   6 118.028 8.59299   1
  10  -1  -6 136.558 7.83223   7
 -10  -1   6 139.521 7.71080   7
 -10   1  -6 139.924 7.98711   7
  10  -1  -6 144.586 9.40309   1
  10   1   6 132.929 7.92598   7
 -10   1  -6 134.311 8.26429   2
 -10   1  -6 150.325 8.89409   1
 -10  -1   6 147.273 8.94922   1
  10   1   6 124.230 8.19008   1
  10   1   6 155.947 8.69008   2
  11  -1   6 24.4221 4.48704   7
 -11   1   6 26.2880 5.38687   1
  11  -1   6 34.8087 5.70359   1
 -11  -1  -6 25.1079 5.21689   1
 -11   1   6 18.3413 4.70816   7
  11   1  -6 25.0816 4.88332   7
  11   1  -6 21.2195 5.30290   1
  11   1  -6 34.0306 5.80135   2
 -11   1   6 30.1398 5.52313   2
 -11   1  -6 25.4426 4.95134   2
 -11  -1   6 21.1923 4.49575   7
  11   1   6 23.1707 4.86987   2
  11  -1  -6 16.1937 5.30778   1
 -11  -1   6 30.0169 5.62778   1
  11  -1  -6 29.1129 4.86241   7
 -11   1  -6 26.9753 4.82527   7
 -11   1  -6 21.1984 5.12171   1
  11   1   6 19.2368 4.40588   7
  11   1   6 22.8164 5.61132   1
  12  -1   6 37.6181 5.27207   7
 -12   1   6 39.8993 6.28084   2
  12  -1   6 34.9338 6.27021   1
  12   1  -6 26.8591 5.90675   2
 -12  -1  -6 36.7630 6.15073   1
 -12   1   6 23.7626 5.81054   1
 -12   1   6 23.2572 5.40361   7
  12   1  -6 25.4708 5.33062   7
 -12   1  -6 38.1910 6.22143   1
 -12  -1   6 35.6387 6.60697   1
 -12  -1   6 45.3443 5.66605   7
  12   1   6 38.7217 5.61904   7
  12  -1  -6 25.1471 6.24147   1
  12  -1  -6 28.3482 5.08929   7
 -12   1  -6 27.1119 5.04925   7
  12   1   6 27.3903 5.40660   2
 -13  -1  -6 148.264 10.3825   1
 -13   1   6 146.508 9.96347   7
  13  -1   6 151.090 9.52846   7
  13  -1   6 134.279 10.5245   1
 -13   1   6 129.392 10.6573   1
  13   1  -6 142.889 9.89595   7
  13   1  -6 169.919 11.1428   2
 -13   1  -6 154.074 9.78101   7
  13   1   6 141.964 10.5343   2
  13  -1  -6 138.841 9.36181   7
 -13  -1   6 134.871 10.4867   1
 -13   1  -6 152.959 10.7903   1
  13  -1  -6 150.488 11.4700   1
 -13  -1   6 133.267 8.90091   7
  13   1   6 135.486 9.97465   7
 -14  -1  -6 -9.0698 4.15223   1
  14   1  -6 1.03898 4.25314   7
 -14   1   6 5.38076 4.79929   7
  14  -1   6 -3.6288 4.44709   1
  14  -1   6 -0.0411 4.32323   7
  14   1   6 5.47385 4.82919   7
  14  -1  -6 -4.4219 3.88154   7
 -14  -1   6 2.37188 4.06808   7
 -14  -1   6 -4.7391 4.70338   1
  14  -1  -6 -2.7810 4.98360   1
 -14   1  -6 3.65544 4.63242   7
 -15   1   6 16.7589 5.88659   7
  15  -1   6 10.0758 5.17655   7
  15   1  -6 23.0606 6.01588   7
  15  -1   6 12.1223 6.01287   1
 -15  -1  -6 25.2713 6.75735   1
  15  -1  -6 22.7833 6.90216   1
  15  -1  -6 26.8193 5.75879   7
 -15  -1   6 10.7507 6.02213   1
  15   1   6 8.56617 5.51770   7
 -15   1  -6 17.8396 5.81532   7
 -15  -1   6 13.5548 5.02213   7
 -16  -1  -6 75.9880 9.72441   1
 -16   1   6 89.5111 9.26422   7
  16   1  -6 86.3138 9.20970   7
  16  -1   6 90.3192 8.82561   7
  16  -1   6 92.1566 10.7181   1
 -16  -1   6 92.0627 8.27621   7
  16   1   6 82.5779 8.80596   7
 -16  -1   6 88.4661 10.4043   1
  16  -1  -6 101.938 9.03845   7
  16  -1  -6 89.9135 10.8763   1
 -17  -1  -6 11.0087 6.41449   1
 -17   1   6 13.4436 6.00908   7
  17  -1   6 17.3059 5.91216   7
  17   1  -6 11.1987 5.92663   7
  17  -1   6 22.2164 7.55495   1
 -17  -1   6 14.9607 6.93186   1
  17  -1  -6 11.9237 7.32910   1
  17   1   6 15.5380 6.45980   7
  17  -1  -6 20.7842 5.87706   7
 -17  -1   6 6.78112 4.85184   7
   0   2   6 4.40535 1.88626   2
   0  -2  -6 3.48827 2.92872   3
   0  -2   6 5.02984 3.07539   3
   0   2  -6 3.91304 1.85671   4
   0   2  -6 0.21684 1.71160   2
   0  -2   6 4.23403 1.44043   4
   0   2   6 7.34157 1.83130   4
   1  -2   6 263.078 6.48049   4
  -1   2   6 269.347 7.23462   4
   1  -2   6 284.785 8.02634   5
   1  -2   6 272.911 9.60648   3
  -1   2   6 276.529 7.34209   2
   1   2  -6 276.045 7.22042   2
  -1  -2  -6 271.512 7.62227   5
   1   2  -6 273.613 7.67024   4
   1   2   6 266.784 7.07946   4
  -1  -2   6 258.285 9.09989   3
  -1  -2   6 283.931 6.29338   4
  -1   2  -6 268.547 7.19782   2
   1   2   6 283.722 7.23478   2
  -1   2  -6 270.664 7.46487   4
   2  -2   6 72.0660 4.21897   1
  -2  -2  -6 63.6241 3.90009   5
  -2   2   6 56.2773 3.83437   4
   2   2  -6 59.8206 4.15111   4
  -2   2   6 59.5188 3.92760   2
   2  -2   6 57.5917 3.11903   4
   2  -2   6 60.5144 4.11625   5
   2   2  -6 56.1459 3.77187   2
   2  -2   6 56.6234 3.25289   4
  -2   2  -6 61.8399 3.96369   4
   2  -2  -6 57.6102 2.57902   4
   2   2   6 57.1148 3.71867   2
  -2  -2   6 60.9669 5.17558   3
  -2   2  -6 62.4681 3.88762   2
  -2  -2   6 61.6904 3.10776   4
  -2  -2   6 62.9709 4.23935   1
   2   2   6 62.4020 3.66634   4
   3   2  -6 468.261 11.2307   2
   3  -2   6 469.352 10.6032   4
  -3   2   6 473.097 11.4646   2
   3  -2   6 506.263 11.9853   1
   3  -2   6 476.652 10.6285   4
   3  -2   6 498.899 11.6211   5
  -3  -2  -6 492.442 11.6368   1
   3   2  -6 470.530 11.7434   4
  -3   2   6 483.200 11.5984   4
  -3   2  -6 464.823 11.1950   2
  -3   2  -6 474.839 11.3940   4
  -3  -2   6 464.226 10.3919   4
   3  -2  -6 455.578 12.0137   1
   3   2   6 458.717 11.0176   2
  -3  -2   6 477.489 12.0216   1
  -3  -2   6 481.694 12.8574   3
   3  -2  -6 472.552 10.2152   4
   3   2   6 463.903 11.2298   4
   4  -2   6 5.40245 2.40541   1
  -4   2   6 7.14201 2.38122   4
   4   2  -6 8.87227 2.56609   2
  -4   2   6 7.99187 2.53514   2
   4  -2   6 2.62416 1.78016   4
  -4  -2  -6 5.07968 2.28548   1
   4  -2   6 3.04798 1.90472   4
   4   2  -6 6.07837 2.46228   4
   4   2   6 9.24291 2.41647   2
  -4   2  -6 4.32548 2.15965   2
   4   2   6 5.66605 2.09776   4
   4  -2  -6 6.02181 2.71973   1
  -4   2  -6 1.62588 1.90720   4
   4  -2  -6 7.51122 1.87441   4
  -4  -2   6 6.46731 2.88647   3
  -4  -2   6 7.31689 2.74938   1
  -4  -2   6 6.45459 1.96136   4
   5  -2   6 202.528 7.84359   1
   5  -2   6 219.937 7.18839   4
   5   2  -6 220.926 8.15551   4
  -5   2   6 214.535 7.99706   2
   5   2  -6 202.540 7.64560   2
  -5  -2  -6 215.443 7.84264   1
  -5   2   6 223.569 8.19580   4
   5  -2   6 212.417 6.96494   4
   5   2   6 214.754 7.56385   4
   5  -2  -6 219.371 8.45115   1
   5   2   6 220.907 7.14828   6
  -5  -2   6 213.636 6.92345   4
  -5  -2   6 234.267 8.44627   1
   5   2   6 215.637 7.55041   2
   5  -2  -6 224.705 7.07642   4
  -5   2  -6 225.470 7.76196   2
  -5  -2   6 226.738 8.29064   3
   6  -2   6 310.962 10.2342   1
  -6  -2  -6 321.838 10.2597   1
   6  -2   6 318.924 9.54916   6
   6   2  -6 321.694 10.2040   2
   6  -2   6 314.228 9.06270   4
   6  -2   6 303.923 8.22318   7
  -6   2   6 289.806 10.1080   2
  -6   2   6 311.480 10.4639   4
   6  -2   6 319.590 9.43519   4
   6   2   6 313.945 8.53282   6
  -6  -2   6 315.569 8.00823   7
   6  -2  -6 322.690 8.42239   7
  -6  -2   6 323.132 9.07761   4
   6   2   6 298.916 9.83663   4
  -6   2  -6 319.499 9.84174   2
  -6  -2   6 347.202 10.5807   3
   6   2   6 316.357 9.74999   2
  -6  -2   6 307.793 10.5937   1
   6  -2  -6 310.347 9.28607   4
   6  -2  -6 300.586 10.6980   1
   7   2  -6 62.1903 5.35877   2
  -7   2   6 62.3541 5.35388   4
  -7  -2  -6 59.5261 5.32279   1
  -7   2   6 50.2167 5.15818   2
   7  -2   6 60.1272 5.32481   1
   7  -2   6 54.7732 4.44146   6
   7  -2   6 61.2410 4.62027   4
   7  -2   6 67.9292 4.51154   7
   7  -2   6 62.6388 5.16736   4
  -7  -2   6 56.8037 4.19697   7
   7   2   6 47.5305 4.68308   2
  -7   2  -6 74.7760 5.52750   7
  -7  -2   6 68.8711 5.57917   3
  -7   2  -6 60.7453 5.11938   2
   7   2   6 62.6858 5.24360   4
  -7  -2   6 52.3578 5.35418   1
   7  -2  -6 53.1922 5.46968   1
   7  -2  -6 60.2106 4.57485   7
  -8   2   6 521.673 15.4612   4
   8  -2   6 534.518 12.8045   7
   8   2  -6 528.825 14.3656   7
   8  -2   6 528.840 15.2421   1
  -8  -2  -6 513.794 14.9416   1
   8   2  -6 489.436 14.7484   2
  -8   2   6 519.166 15.2658   2
  -8   2   6 528.413 14.3238   7
  -8   2  -6 553.121 14.1726   7
   8   2   6 506.295 14.7459   4
   8   2   6 499.177 14.4875   2
  -8  -2   6 529.717 12.3840   7
   8   2   6 515.234 13.8000   7
   8  -2  -6 540.186 13.0079   7
  -8   2  -6 511.727 14.5929   2
  -8  -2   6 527.372 15.5575   1
   8  -2  -6 483.729 15.5370   1
   9   2  -6 -0.2708 3.25590   7
  -9   2   6 -0.4527 3.32743   2
   9  -2   6 5.32798 2.83398   7
   9   2  -6 3.45750 3.58135   2
  -9  -2  -6 5.92162 3.37651   1
   9  -2   6 3.58346 3.38786   1
  -9   2   6 5.76029 3.34580   7
   9  -2  -6 8.24740 3.19154   7
  -9  -2   6 -0.0210 2.49037   7
   9   2   6 1.66305 3.24582   2
  -9   2  -6 1.80130 3.04307   2
  -9  -2   6 3.57807 3.58711   1
   9  -2  -6 6.37528 3.91837   1
   9   2   6 2.90752 3.08859   7
  -9   2  -6 2.27266 3.01088   7
  10  -2   6 288.886 12.1175   1
 -10   2   6 292.520 12.2273   2
  10   2  -6 297.211 12.1367   2
 -10  -2  -6 275.870 11.7658   1
  10  -2   6 300.922 10.0510   7
 -10   2   6 289.977 11.5359   7
  10   2  -6 282.354 11.1808   7
 -10   2  -6 289.265 11.1832   7
  10  -2  -6 295.304 10.2226   7
  10   2   6 306.876 11.9803   2
 -10   2  -6 305.573 11.9433   2
  10   2   6 295.484 11.2430   7
  10  -2  -6 290.264 12.6889   1
 -10  -2   6 291.140 12.3928   1
 -10  -2   6 291.305 9.61689   7
  11  -2   6 5.88880 4.36576   1
 -11   2   6 8.55833 3.94380   7
  11  -2   6 6.89779 3.62783   7
 -11   2   6 5.31912 4.40292   2
  11   2  -6 4.03345 4.41164   2
  11   2  -6 3.08542 3.82852   7
 -11  -2  -6 1.80344 3.85677   1
  11  -2  -6 10.8296 4.84920   1
 -11  -2   6 5.66247 3.39500   7
  11   2   6 16.0275 4.32287   7
  11   2   6 5.74655 4.15044   2
 -11   2  -6 3.42205 3.67720   7
 -11   2  -6 -0.5089 3.56476   2
 -11  -2   6 6.09684 4.46793   1
  11  -2  -6 0.16328 3.40746   7
 -12   2   6 49.0278 6.76153   2
 -12  -2  -6 43.3812 7.23039   3
  12  -2   6 46.9615 5.49456   7
  12  -2   6 44.3357 6.84650   1
 -12   2   6 35.0444 5.94917   7
 -12  -2  -6 40.2171 6.17669   1
  12   2  -6 56.5254 6.79711   7
  12   2  -6 45.2960 6.71603   2
 -12  -2   6 51.2411 6.98969   1
  12  -2  -6 44.0859 5.49790   7
 -12   2  -6 50.3887 6.52851   7
  12  -2  -6 43.0569 7.13639   1
  12   2   6 44.2231 6.22189   7
 -12  -2   6 41.2059 4.99224   7
  12   2   6 42.4537 6.46572   2
 -12   2  -6 48.2075 6.51657   2
  13   2  -6 3.29437 4.28862   7
 -13   2   6 10.4638 5.22166   2
  13  -2   6 5.18973 4.10372   7
 -13  -2  -6 1.73999 4.25604   1
  13  -2   6 8.04029 5.29249   1
 -13   2   6 -3.4244 4.29690   7
  13   2  -6 0.93714 4.93229   2
 -13  -2  -6 8.83089 5.51817   3
  13   2   6 15.6593 5.09713   7
  13  -2  -6 -0.8241 5.02390   1
  13   2   6 9.25091 4.83087   2
 -13   2  -6 1.74025 4.55316   7
 -13  -2   6 5.01265 3.76467   7
 -13   2  -6 2.70757 4.17037   2
 -13  -2   6 -4.1594 4.73522   1
  13  -2  -6 10.4585 4.41908   7
  14   2  -6 11.9913 5.47494   2
  14   2  -6 13.1342 5.26484   7
 -14  -2  -6 4.39797 5.07795   1
 -14  -2  -6 5.96603 5.46581   3
 -14   2   6 17.5390 5.40208   7
  14  -2   6 8.96334 4.53435   7
  14  -2   6 1.45578 5.15747   1
 -14   2   6 9.23922 5.72752   2
  14   2   6 14.2407 5.53850   7
 -14   2  -6 15.5857 5.22470   7
 -14  -2   6 3.35542 5.15708   1
  14  -2  -6 12.7017 4.61667   7
 -14  -2   6 19.2105 4.37739   7
  14  -2  -6 6.66239 5.70118   1
  14   2   6 8.44469 5.40999   2
  15  -2   6 -8.0184 4.69953   1
  15  -2   6 -1.4916 4.47215   7
 -15  -2  -6 -2.9065 4.98716   1
  15   2  -6 1.83568 4.89318   7
  15   2  -6 4.62952 5.63558   2
 -15   2   6 1.06034 4.80110   7
  15  -2  -6 -3.1918 5.54727   1
  15  -2  -6 1.04159 4.44546   7
  15   2   6 -3.2516 5.04612   2
 -15  -2   6 0.46312 5.60121   1
 -15  -2   6 -2.3291 3.70198   7
  15   2   6 2.58171 5.12715   7
 -15   2  -6 0.09464 4.75271   7
  16  -2   6 4.75463 4.66235   7
 -16   2   6 3.74735 5.75988   7
 -16  -2  -6 -3.7045 5.40518   1
  16  -2   6 -4.0913 5.41676   1
  16   2  -6 3.30775 5.57348   7
  16  -2  -6 0.75757 5.88496   1
 -16   2  -6 3.79478 5.38999   7
  16  -2  -6 -4.1790 4.32461   7
 -16  -2   6 1.72389 5.86735   1
  16   2   6 3.37102 5.82273   7
   0   3   6 0.77110 1.43469   4
   0   3  -6 2.11537 1.56563   2
   0  -3  -6 3.23337 1.88611   1
   0  -3  -6 -0.3272 2.30286   5
   0   3  -6 -1.3264 1.60712   4
   0  -3  -6 -0.4851 2.77376   3
   0   3   6 2.43864 1.65630   2
   0  -3   6 -6.9806 2.44760   3
   0  -3   6 1.03845 1.84935   1
   0  -3   6 1.27659 2.43365   5
   1   3  -6 967.391 18.6839   2
  -1   3   6 937.849 18.5850   2
   1  -3   6 915.255 22.9080   3
  -1  -3  -6 928.207 20.9198   5
   1  -3   6 982.411 19.4107   1
  -1  -3  -6 957.790 22.8416   3
  -1  -3  -6 964.079 19.2219   1
  -1   3   6 939.718 18.6716   4
   1  -3   6 986.948 21.4915   5
   1   3  -6 984.153 19.3765   4
  -1   3  -6 959.779 19.1806   4
   1   3   6 940.997 18.4069   2
  -1  -3   6 935.996 22.8401   3
  -1   3  -6 972.518 18.6951   2
   1  -3  -6 953.874 19.4507   1
  -1  -3   6 941.252 19.2954   1
   1  -3  -6 960.364 21.8059   3
   1   3   6 968.129 18.6119   4
   2   3  -6 6.75760 1.94659   2
   2   3  -6 9.87100 2.22835   4
  -2  -3  -6 9.57017 2.66080   5
  -2  -3  -6 14.5688 4.00818   3
  -2   3   6 8.72080 1.88474   4
  -2   3   6 13.3632 2.36288   2
   2  -3   6 3.79480 3.41751   3
   2  -3   6 6.46306 2.67762   5
  -2  -3  -6 5.58050 2.05433   1
   2  -3   6 11.2915 2.37706   1
  -2   3  -6 9.01888 2.03853   2
   2  -3  -6 8.00789 2.41481   1
   2   3   6 8.73932 2.03397   2
  -2  -3   6 11.7392 3.74014   3
   2   3   6 11.0927 1.80160   4
  -2  -3   6 8.31602 2.34062   1
   2  -3  -6 7.36103 2.85454   3
  -2   3  -6 12.3746 2.09608   4
   3   3  -6 314.847 8.86263   4
   3  -3   6 325.638 9.04992   1
  -3   3   6 293.256 8.63457   2
   3  -3   6 284.510 11.4763   3
  -3   3   6 296.434 8.52824   4
   3   3  -6 323.718 8.59656   2
  -3  -3  -6 326.020 12.0526   3
  -3  -3  -6 296.253 8.60934   1
   3  -3   6 326.196 9.85053   5
   3   3   6 303.458 8.38670   2
   3   3   6 315.702 8.30596   4
  -3   3  -6 311.439 8.59332   4
  -3  -3   6 318.584 9.12274   1
  -3  -3   6 314.760 11.2018   3
  -3   3  -6 314.353 8.59732   2
   3  -3  -6 314.802 9.33675   3
   3  -3  -6 312.198 9.27839   1
  -4   3   6 11.5009 2.75304   2
   4  -3   6 17.0274 2.89602   1
  -4   3   6 10.2196 2.62168   4
   4   3  -6 11.4284 2.56023   2
  -4  -3  -6 13.4781 4.29663   3
   4   3  -6 16.5511 2.92126   4
  -4  -3  -6 12.7206 2.52989   1
   4   3   6 12.2429 2.47579   4
  -4  -3   6 9.22964 3.46944   3
  -4  -3   6 7.87079 2.83771   1
   4  -3  -6 8.83911 2.87602   1
  -4   3  -6 10.7886 2.61808   2
   4   3   6 16.9985 2.74513   2
   5  -3   6 829.280 20.1090   6
  -5  -3  -6 818.542 18.4426   1
  -5   3   6 799.874 18.3640   2
   5   3  -6 780.424 18.0769   2
  -5  -3  -6 797.873 22.3149   3
  -5   3   6 846.693 18.9696   4
   5  -3   6 842.431 18.7342   1
   5  -3  -6 826.244 19.3412   1
   5   3   6 791.316 17.8032   2
  -5  -3   6 817.006 20.8370   3
  -5  -3   6 834.405 19.1569   1
  -5   3  -6 795.310 18.0948   2
   6   3  -6 166.273 7.53842   2
   6  -3   6 164.859 5.19328   4
  -6  -3  -6 156.791 7.12668   1
   6  -3   6 168.934 7.43627   1
  -6   3   6 162.692 7.69655   4
  -6   3   6 162.240 7.58040   2
  -6  -3  -6 161.526 9.66271   3
   6  -3   6 160.857 7.51219   6
  -6  -3   6 142.547 8.33098   3
  -6  -3   6 172.744 7.92862   1
   6   3   6 156.264 7.11381   2
   6  -3  -6 157.325 7.74233   1
  -6   3  -6 169.648 7.35828   2
   7  -3   6 433.493 10.4259   4
   7  -3   6 446.395 13.0014   6
  -7  -3  -6 426.198 15.7908   3
   7   3  -6 396.775 12.6830   2
   7  -3   6 438.542 13.0464   1
  -7   3   6 409.590 12.9182   2
  -7  -3  -6 402.168 12.5084   1
  -7   3  -6 413.412 12.4892   2
   7  -3  -6 419.329 13.5579   1
  -7  -3   6 435.901 13.9891   3
   7   3   6 414.485 12.4026   2
  -7  -3   6 432.387 13.4092   1
   8   3  -6 -1.0082 3.18329   2
   8  -3   6 4.80420 2.36577   4
  -8  -3  -6 3.40132 4.50590   3
   8  -3   6 -0.9894 2.95392   1
  -8   3   6 5.65154 3.44636   2
  -8  -3  -6 -4.9434 2.58569   1
   8   3   6 1.89143 2.99755   2
   8  -3  -6 -0.6737 3.41175   1
  -8  -3   6 3.35245 3.72764   3
  -8   3  -6 4.31457 3.04337   2
  -8  -3   6 1.29121 3.33922   1
  -9  -3  -6 194.087 11.7638   3
  -9   3   6 195.010 10.0911   2
   9   3  -6 191.229 9.83153   2
   9  -3   6 211.830 9.97368   1
  -9  -3  -6 216.937 9.85594   1
  -9   3  -6 205.400 9.67775   2
  -9  -3   6 208.010 10.2041   1
   9   3   6 201.869 9.65536   2
  -9  -3   6 209.836 10.4977   3
   9  -3  -6 200.335 10.3728   1
  10   3  -6 106.293 8.45371   2
 -10  -3  -6 106.554 9.77105   3
  10  -3   6 104.642 8.20364   1
 -10  -3  -6 100.215 8.06751   1
 -10   3   6 109.706 8.67603   2
 -10   3  -6 114.208 8.14598   2
  10  -3  -6 98.1388 8.57996   1
  10   3   6 98.2370 7.97600   2
 -10  -3   6 115.104 8.41326   1
 -11   3   6 19.0202 5.21109   2
 -11  -3  -6 24.2043 6.31160   3
  11   3  -6 12.9300 4.96482   2
  11  -3   6 18.6863 5.11293   1
 -11  -3  -6 30.2591 5.41350   1
  11   3   6 13.2016 5.00700   2
  11  -3  -6 16.3878 5.43900   1
 -11   3  -6 12.8300 4.56136   2
 -11  -3   6 22.1600 5.32090   1
  12  -3   6 31.2984 6.14002   1
 -12   3   6 36.1031 6.59127   2
  12   3  -6 23.7337 5.81605   2
 -12  -3  -6 35.9626 7.12079   3
 -12  -3  -6 27.3768 5.82861   1
  12  -3  -6 19.8648 6.08736   1
  12   3   6 23.0814 5.72217   2
 -12   3  -6 23.0100 5.57281   2
 -12  -3   6 20.5323 5.48558   1
 -12   3  -6 15.4948 5.22143   7
 -13   3   6 124.210 9.79705   7
  13  -3   6 102.148 9.58905   1
  13   3  -6 97.7937 9.22796   2
 -13  -3  -6 85.3447 8.70749   1
 -13  -3  -6 118.551 11.1758   3
 -13   3   6 105.203 9.70351   2
 -13   3  -6 111.586 9.42016   2
 -13   3  -6 101.400 9.18458   7
  13   3   6 134.137 10.3435   2
 -13  -3   6 99.0505 9.51631   1
  13  -3  -6 94.9499 9.90012   1
 -14  -3  -6 10.6648 6.42114   3
 -14   3   6 -3.0848 5.00994   2
  14  -3   6 4.34213 5.37606   1
 -14  -3  -6 6.59265 5.28920   1
 -14   3   6 -5.7752 4.63314   7
  14   3  -6 -2.0955 4.92645   2
 -14   3  -6 -4.1859 4.67340   7
  14  -3  -6 -0.5161 5.26309   1
 -14  -3   6 0.61502 5.00172   1
  14   3   6 6.28592 5.19273   2
 -14   3  -6 8.03433 5.06179   2
  15  -3   6 5.22357 5.54362   1
  15   3  -6 4.08625 6.12472   2
 -15   3   6 2.17306 5.54383   2
 -15  -3  -6 14.3666 5.97526   1
 -15   3   6 19.4501 6.29923   7
 -15  -3   6 13.2481 6.17343   1
  15  -3  -6 5.26310 6.03939   1
  15   3   6 14.6030 5.99917   2
 -15   3  -6 11.4668 5.83816   7
 -15   3  -6 5.47404 5.40262   2
 -16   3   6 87.6884 9.56535   7
 -16  -3  -6 55.9305 8.49777   1
  16   3  -6 86.0810 9.34548   7
  16   3  -6 71.6115 9.59026   2
  16  -3   6 91.6093 10.9721   1
  16  -3  -6 62.3932 9.60224   1
  16   3   6 76.4540 9.60431   2
 -16  -3   6 83.3951 10.3138   1
 -16   3  -6 72.6098 9.07740   7
   0  -4   6 1723.56 36.6258   5
   0  -4   6 1669.65 38.2779   3
   0  -4   6 1751.93 32.4731   1
   0   4   6 1698.70 31.1716   2
   0  -4  -6 1730.57 36.2741   5
   0  -4  -6 1753.10 32.3742   1
   0   4  -6 1735.48 31.4788   2
   0  -4  -6 1756.00 37.6000   3
   0   4  -6 1756.32 32.4986   4
   1  -4   6 2226.16 47.6588   3
   1  -4   6 2186.30 41.2145   1
   1  -4   6 2238.44 45.5056   5
  -1  -4  -6 2245.32 47.2195   3
   1   4  -6 2314.81 40.1537   2
  -1  -4  -6 2230.80 40.8872   1
  -1  -4  -6 2193.65 45.0863   5
  -1   4   6 2287.84 40.0069   2
   1   4  -6 2362.88 41.5109   4
  -1   4  -6 2331.96 41.4293   4
   1  -4  -6 2175.48 45.3232   5
  -1  -4   6 2195.37 47.3594   3
  -1   4  -6 2205.70 40.0589   2
  -1  -4   6 2251.59 41.2479   1
   1  -4  -6 2247.47 41.2762   1
   1   4   6 2252.05 39.7397   2
   1  -4  -6 2224.68 45.8645   3
  -2   4   6 7.93133 2.32452   2
  -2  -4  -6 11.9228 3.52607   5
   2  -4   6 15.6249 4.51111   3
   2  -4   6 13.7859 3.71634   6
  -2  -4  -6 11.5232 2.34141   1
   2  -4   6 10.0900 3.50647   5
   2  -4   6 15.4325 2.64686   1
   2   4  -6 8.39172 2.16683   2
  -2  -4  -6 4.09680 3.81602   3
   2   4  -6 7.40128 2.20496   4
  -2   4  -6 9.81359 2.17334   4
   2  -4  -6 6.90598 2.38137   1
   2   4   6 5.27178 2.07842   2
  -2   4  -6 11.7578 2.34106   2
   2  -4  -6 8.10762 3.30600   3
  -2  -4   6 9.10813 2.45963   1
  -2  -4   6 8.65140 4.15411   3
  -3   4   6 64.1968 4.76116   2
   3  -4   6 92.0245 6.38615   5
  -3  -4  -6 82.7035 6.16580   5
   3  -4   6 90.9100 6.83134   6
   3   4  -6 85.5146 4.87543   4
   3   4  -6 70.9031 4.49946   2
  -3  -4  -6 82.8364 4.58288   1
   3  -4   6 72.8368 4.63289   1
  -3  -4  -6 81.4041 7.63988   3
   3  -4   6 79.3316 7.34288   3
  -3   4  -6 75.5359 4.56670   2
   3  -4  -6 83.5543 6.00421   3
  -3  -4   6 80.4566 7.33606   3
   3   4   6 75.7091 4.43799   2
   3  -4  -6 80.2153 5.14345   1
  -3  -4   6 82.6079 4.97243   1
  -4  -4  -6 160.030 10.2809   3
  -4   4   6 166.630 6.97776   2
   4   4  -6 173.979 6.79137   2
   4  -4   6 193.875 10.6426   3
   4  -4   6 188.914 8.96116   6
  -4  -4  -6 184.137 6.85158   1
   4  -4   6 179.107 7.00083   1
   4  -4   6 183.320 8.48653   5
   4   4   6 165.099 6.42402   2
  -4  -4   6 178.721 9.84404   3
  -4   4  -6 168.018 6.78569   2
   4  -4  -6 178.817 7.60675   1
  -4  -4   6 174.255 7.21485   1
   5  -4   6 8.31534 3.37849   6
  -5  -4  -6 7.15037 4.51288   3
  -5  -4  -6 11.6960 3.05800   1
   5  -4   6 9.02027 2.91389   1
  -5   4   6 9.18926 3.13037   2
   5   4  -6 5.04880 2.80442   2
   5  -4   6 6.22648 3.39168   5
  -5  -4   6 3.45968 2.82427   1
  -5  -4   6 14.3937 4.67097   3
   5   4   6 9.20185 2.86707   2
   5  -4  -6 11.5025 3.31906   1
  -5   4  -6 6.12372 2.81380   2
  -6  -4  -6 0.92526 4.39476   3
   6   4  -6 7.36102 3.35739   2
   6  -4   6 9.11854 3.17740   1
   6  -4   6 8.75177 3.66941   6
  -6  -4  -6 12.2832 3.10749   1
  -6   4   6 1.31480 3.01050   2
   6   4   6 13.2194 3.25509   2
  -6  -4   6 9.64894 3.24015   1
  -6   4  -6 10.1751 3.08743   2
  -6  -4   6 10.1756 4.47155   3
   6  -4  -6 14.6607 3.81925   1
  -7  -4  -6 458.679 13.4812   1
  -7   4   6 442.388 13.8761   2
   7  -4   6 439.893 13.6706   1
   7  -4   6 463.127 14.7896   6
  -7  -4  -6 456.911 17.4705   3
   7   4  -6 461.247 13.7189   2
   7   4   6 448.015 13.1548   2
  -7   4  -6 453.407 13.3844   2
  -7  -4   6 451.235 13.9578   1
   7  -4  -6 455.496 14.2342   1
  -7  -4   6 465.299 16.0295   3
   8   4  -6 535.730 15.5151   2
   8  -4   6 503.075 15.3761   1
  -8  -4  -6 502.356 15.0295   1
  -8   4   6 527.975 15.8136   2
  -8  -4  -6 500.979 19.0910   3
  -8  -4   6 495.899 17.0554   3
   8   4   6 508.865 14.8254   2
  -8   4  -6 507.489 15.0742   2
  -8  -4   6 503.448 15.5994   1
   8  -4  -6 512.490 16.0304   1
   9  -4   6 1160.87 27.5853   1
  -9  -4  -6 1168.48 27.2052   1
   9   4  -6 1175.28 27.1854   2
  -9  -4  -6 1142.19 31.7478   3
  -9   4   6 1137.18 27.5191   2
  -9  -4   6 1192.46 29.6171   3
  -9  -4   6 1140.15 27.7752   1
   9  -4  -6 1118.93 28.0467   1
   9   4   6 1145.82 26.5589   2
  -9   4  -6 1158.77 26.9389   2
 -10  -4  -6 20.8522 4.84353   1
 -10  -4  -6 20.2876 6.56600   3
  10   4  -6 24.0933 5.18021   2
 -10   4   6 13.9940 4.67662   2
  10  -4   6 11.6085 4.58438   1
 -10   4  -6 17.7780 4.67653   2
 -10  -4   6 15.4317 4.90554   1
  10   4   6 20.2854 4.85372   2
  10  -4  -6 17.5847 5.07889   1
  11   4  -6 4.66440 4.45737   2
 -11  -4  -6 4.79223 5.69122   3
 -11  -4  -6 -3.9247 3.94379   1
 -11   4   6 0.83347 4.34553   2
  11  -4   6 -0.6162 4.05510   1
 -11  -4   6 -2.7885 3.94766   1
  11   4   6 -0.8585 3.93957   2
 -11   4  -6 1.39520 4.14730   2
  11  -4  -6 7.23753 4.85488   1
 -12  -4  -6 8.89828 4.68746   1
  12   4  -6 11.6579 5.27298   2
 -12   4   6 1.83889 4.81298   2
  12  -4   6 -2.5032 4.41114   1
 -12  -4  -6 1.83153 5.44935   3
  12   4   6 13.0917 5.20898   2
 -12   4  -6 12.9146 5.17006   2
  12  -4  -6 2.40003 4.88565   1
 -12  -4   6 12.2002 5.43254   1
  13   4  -6 32.9628 6.94905   2
 -13  -4  -6 32.3326 6.64965   1
 -13   4   6 25.8921 6.40735   2
  13  -4   6 20.9935 5.84079   1
 -13  -4  -6 21.7098 7.32536   3
 -13   4  -6 33.2862 6.74358   2
  13  -4  -6 24.3668 6.53855   1
  13   4   6 23.9297 6.05938   2
 -13  -4   6 29.9496 6.63612   1
 -14  -4  -6 21.7205 7.26220   3
 -14   4   6 27.0504 6.82308   2
  14  -4   6 20.8069 6.69086   1
 -14  -4  -6 16.7128 5.93550   1
  14   4  -6 14.7324 6.08860   2
 -14   4  -6 25.4274 6.25410   2
 -14  -4   6 17.4730 6.30077   1
  14   4   6 22.3562 6.43725   2
  14  -4  -6 33.8419 7.48626   1
 -15  -4  -6 3.98197 6.64400   3
 -15   4   6 11.8156 6.00251   2
  15   4  -6 -3.9315 5.11536   2
  15  -4   6 1.20755 5.27628   1
 -15  -4  -6 4.54875 5.18341   1
 -15  -4   6 12.2586 6.06589   1
  15   4   6 -4.1217 5.00821   2
 -15   4  -6 7.70699 5.38380   2
  15  -4  -6 -7.8324 5.31449   1
   0  -5   6 -0.5875 3.28854   5
   0  -5   6 -4.3694 3.87173   3
   0   5   6 -0.6341 1.76555   2
   0  -5   6 -0.5843 1.97431   1
   0  -5  -6 -2.2848 3.74288   3
   0  -5  -6 -0.0268 3.39975   5
   0   5  -6 -1.5867 1.70303   2
   0  -5  -6 1.98404 1.95269   1
   0  -5   6 0.05367 3.41896   6
   1  -5   6 560.956 18.5351   3
  -1  -5  -6 542.594 18.0740   3
   1  -5   6 555.387 16.9018   5
  -1  -5  -6 554.453 16.8221   5
   1  -5   6 541.060 12.6504   1
   1   5  -6 543.543 12.3461   2
   1  -5   6 550.909 17.6267   6
  -1   5   6 555.197 12.1269   2
  -1  -5  -6 549.168 12.2155   1
  -1  -5   6 538.823 17.5611   6
  -1  -5   6 549.543 12.5442   1
  -1  -5   6 545.633 18.6428   3
   1   5   6 570.099 12.0131   2
   1  -5  -6 544.873 12.4752   1
   1  -5  -6 538.878 16.8494   5
   1  -5  -6 546.049 17.0844   3
  -1   5  -6 532.568 12.2772   2
  -2  -5  -6 3.56725 3.74737   5
   2  -5   6 9.54280 4.17387   5
   2  -5   6 5.04724 3.60498   6
  -2   5   6 7.16016 2.39869   2
   2  -5   6 10.1739 4.82552   3
  -2  -5  -6 6.79825 4.66961   3
   2   5  -6 1.83642 2.19449   2
  -2  -5  -6 4.97099 2.10568   1
   2  -5   6 4.90845 2.24722   1
   2   5   6 0.02998 1.89494   2
  -2  -5   6 4.12425 2.20883   1
  -2  -5   6 3.66077 3.58489   6
  -2  -5   6 6.27850 4.65378   3
  -2   5  -6 4.05715 2.24590   2
   2  -5  -6 7.18745 4.01767   5
   2  -5  -6 7.29563 2.43948   1
   2  -5  -6 4.34091 4.01873   3
   3  -5   6 200.553 10.6327   6
   3  -5   6 234.070 12.2664   3
   3  -5   6 225.175 10.4940   5
   3   5  -6 211.297 7.43471   2
   3  -5   6 230.429 7.74099   1
  -3   5   6 202.768 7.53125   2
  -3  -5  -6 221.780 7.23886   1
  -3  -5  -6 226.330 12.3726   3
   3  -5  -6 221.248 10.1289   3
  -3  -5   6 219.124 7.54036   1
   3  -5  -6 222.302 7.89065   1
  -3  -5   6 219.488 11.0414   6
   3   5   6 220.723 7.07961   2
  -3   5  -6 204.899 7.42237   2
  -3  -5   6 225.100 12.1027   3
   4  -5   6 1.38302 3.60417   5
  -4  -5  -6 2.42250 2.53661   1
   4   5  -6 3.11236 2.61676   2
   4  -5   6 0.86645 2.50794   1
  -4   5   6 5.44822 2.93006   2
  -4  -5  -6 2.84650 4.70024   3
   4  -5   6 1.82642 4.79235   3
   4  -5   6 -0.6795 3.35678   6
   4   5   6 4.22445 2.45140   2
  -4  -5   6 0.86796 2.64457   1
  -4  -5   6 2.36914 4.55444   3
   4  -5  -6 2.99422 2.81122   1
  -4  -5   6 2.96567 3.86258   6
  -4   5  -6 2.84943 2.47322   2
   5  -5   6 627.163 18.4741   5
   5  -5   6 605.384 20.2491   3
  -5  -5  -6 609.807 14.8580   1
  -5   5   6 582.380 15.3857   2
  -5  -5  -6 597.578 20.8194   3
   5   5  -6 574.361 14.9671   2
   5  -5   6 587.337 15.3538   1
  -5  -5   6 601.936 19.1340   6
  -5  -5   6 573.881 15.1615   1
   5   5   6 578.995 14.4410   2
   5  -5  -6 617.953 15.9724   1
  -5  -5   6 614.064 20.1758   3
  -5   5  -6 599.584 15.0534   2
   6   5  -6 117.966 7.30620   2
  -6  -5  -6 107.959 10.2525   3
   6  -5   6 121.987 8.90652   5
   6  -5   6 127.782 7.20309   1
  -6  -5  -6 118.065 6.72735   1
  -6   5   6 117.853 7.43357   2
  -6   5  -6 119.511 7.05226   2
   6   5   6 126.689 6.93000   2
  -6  -5   6 120.323 10.0952   3
   6  -5  -6 113.928 7.60003   1
  -6  -5   6 132.383 9.36964   6
  -6  -5   6 121.496 7.28696   1
   7  -5   6 262.128 10.6006   1
   7   5  -6 281.609 10.9024   2
  -7  -5  -6 283.607 10.3409   1
   7  -5   6 279.282 12.7125   5
  -7  -5  -6 283.182 14.8399   3
  -7   5   6 286.204 11.1777   2
   7   5   6 285.776 10.4267   2
  -7  -5   6 271.846 10.9512   1
   7  -5  -6 266.873 11.1860   1
  -7   5  -6 296.202 10.8328   2
  -7  -5   6 261.139 13.5684   3
  -8  -5  -6 2.94747 3.35643   1
  -8  -5  -6 -2.1991 5.38779   3
   8   5  -6 4.16266 3.86353   2
   8  -5   6 0.73438 3.63672   1
  -8   5   6 2.30141 3.84494   2
  -8  -5   6 -9.4319 4.04921   3
  -8   5  -6 1.80650 3.39342   2
  -8  -5   6 0.74260 3.49572   1
   8  -5  -6 -2.6467 3.68435   1
   8   5   6 3.42093 3.53573   2
   9  -5   6 128.300 8.96615   1
   9   5  -6 113.560 9.01522   2
  -9   5   6 127.786 9.24552   2
  -9  -5  -6 117.657 11.6145   3
  -9  -5  -6 134.049 8.63141   1
  -9  -5   6 132.783 10.8633   3
   9   5   6 129.227 8.63155   2
   9  -5  -6 114.351 8.93454   1
  -9  -5   6 129.430 8.90823   1
  -9   5  -6 133.586 8.75973   2
 -10   5   6 76.0402 8.01652   2
 -10  -5  -6 79.6124 7.45518   1
 -10  -5  -6 70.1670 9.97655   3
  10   5  -6 79.3284 7.77982   2
  10  -5   6 73.3579 7.59697   1
  10  -5  -6 90.7767 8.62419   1
 -10  -5   6 96.2657 9.89218   3
 -10   5  -6 77.7416 7.41576   2
  10   5   6 79.2431 7.33668   2
 -10  -5   6 90.1557 8.23487   1
 -11  -5  -6 8.06108 6.84910   3
 -11  -5  -6 12.2518 5.01805   1
 -11   5   6 13.8247 5.20210   2
  11  -5   6 22.5306 5.56354   1
  11   5  -6 20.7640 5.72914   2
 -11   5  -6 19.5841 5.22194   2
  11  -5  -6 25.5716 5.97919   1
 -11  -5   6 12.8927 5.43921   1
  11   5   6 17.8201 5.27646   2
 -12  -5  -6 9.92812 5.20604   1
  12  -5   6 17.0350 5.89641   1
  12   5  -6 20.6611 5.97063   2
 -12  -5  -6 27.9537 8.02174   3
 -12   5   6 15.2289 5.69761   2
 -12  -5   6 29.9611 6.10278   1
 -12   5  -6 20.1703 5.55170   2
  12   5   6 20.2383 5.57706   2
  12  -5  -6 13.0065 5.75549   1
 -13  -5  -6 97.0253 9.61942   1
  13  -5   6 81.6939 9.32608   1
 -13  -5  -6 110.025 12.1965   3
  13   5  -6 103.878 9.79170   2
 -13   5   6 93.9009 9.65109   2
 -13   5  -6 72.2315 8.37024   2
 -13  -5   6 85.2942 9.26842   1
  13   5   6 93.8985 9.43534   2
  13  -5  -6 98.5826 9.93423   1
  14   5  -6 4.19487 5.60861   2
 -14   5   6 -5.8561 5.19884   2
 -14   5  -6 2.22901 4.91696   2
  14   5   6 9.17060 5.41986   2
   0   6  -6 -1.9549 2.13063   2
   0  -6   6 5.46802 5.12116   3
   0   6   6 -3.4219 2.00348   2
   0  -6  -6 2.79438 4.17087   5
   0  -6  -6 2.26797 4.65271   3
  -1   6   6 155.726 6.02786   2
  -1  -6  -6 168.826 11.2116   3
   1  -6   6 159.082 11.8158   3
   1   6  -6 159.825 6.01303   2
   1  -6   6 142.268 9.85303   5
  -1  -6  -6 149.515 9.96900   5
   1   6   6 160.658 5.67816   2
  -1  -6   6 160.146 12.1867   3
   1  -6  -6 147.133 10.7190   3
   1  -6  -6 159.784 10.5208   5
  -1   6  -6 153.887 6.01693   2
  -2  -6  -6 28.3893 6.78347   3
  -2   6   6 22.5770 3.33910   2
   2  -6   6 15.3113 6.05504   3
   2   6  -6 23.3864 3.23679   2
  -2  -6  -6 28.6798 5.70943   5
   2  -6   6 23.0872 5.44695   5
  -2   6  -6 22.5721 3.31417   2
  -2  -6   6 26.5572 6.52157   3
   2  -6  -6 10.5121 4.93088   3
   2  -6  -6 13.8012 5.24668   5
   2   6   6 23.1689 3.01079   2
   3   6  -6 182.807 7.20756   2
  -3  -6  -6 190.145 12.8640   3
  -3   6   6 178.432 7.35005   2
   3  -6   6 185.068 10.7547   5
   3  -6   6 189.928 12.6889   3
   3  -6  -6 189.538 11.3763   5
  -3  -6   6 192.288 12.6853   3
  -3   6  -6 189.025 7.30406   2
   3   6   6 182.424 6.69242   2
   3  -6  -6 179.545 10.8179   3
   4  -6   6 7.01471 2.95734   1
  -4   6   6 6.41643 3.17109   2
   4  -6   6 7.37305 4.91252   5
  -4  -6  -6 -7.4937 5.24578   3
   4  -6   6 1.34747 5.33190   3
   4   6  -6 7.73187 3.03379   2
   4  -6  -6 9.40303 4.97777   5
   4   6   6 6.62204 2.89081   2
  -4  -6   6 9.48014 5.74782   3
  -4   6  -6 3.38739 2.93116   2
  -5   6   6 88.9930 6.71973   2
  -5  -6  -6 67.9017 9.53146   3
   5  -6   6 79.1948 9.54818   3
   5   6  -6 82.7302 6.34921   2
   5  -6   6 86.8904 8.79713   5
   5  -6   6 74.3216 5.94969   1
   5  -6  -6 82.8506 6.59024   1
  -5  -6   6 68.5278 9.01640   3
   5   6   6 77.2075 5.73469   2
  -5   6  -6 77.2079 5.94738   2
   6  -6   6 105.732 9.58477   5
   6   6  -6 113.181 7.81365   2
   6  -6   6 130.037 7.78114   1
  -6   6   6 114.813 7.74900   2
  -6  -6  -6 112.210 11.4990   3
   6   6   6 113.873 6.90041   2
  -6  -6   6 124.479 11.3999   3
   6  -6  -6 141.127 8.16509   1
  -6  -6   6 119.682 7.42784   1
  -6   6  -6 95.9823 7.12369   2
  -7   6   6 32.5338 5.17737   2
  -7  -6  -6 43.0664 4.98374   1
  -7  -6  -6 28.9462 7.61983   3
   7  -6   6 33.8224 5.01469   1
   7  -6   6 27.1315 6.36651   5
   7   6  -6 33.9294 5.32450   2
   7  -6  -6 32.7083 5.57781   1
  -7  -6   6 33.3104 5.20198   1
   7   6   6 28.3872 4.46984   2
  -7   6  -6 38.0895 5.02150   2
  -7  -6   6 28.5256 7.26869   3
  -8  -6  -6 185.869 8.98672   1
   8   6  -6 162.987 9.60804   2
  -8  -6  -6 192.815 14.8814   3
  -8   6   6 173.472 10.0792   2
   8  -6   6 187.554 9.60618   1
   8  -6   6 181.358 11.9097   5
  -8   6  -6 171.949 9.45455   2
   8   6   6 177.565 9.12411   2
  -8  -6   6 176.952 9.68607   1
  -8  -6   6 183.486 13.4107   3
   8  -6  -6 163.419 9.94257   1
   9  -6   6 6.90919 5.35678   5
  -9  -6  -6 -1.4161 3.84407   1
  -9   6   6 5.05333 4.47468   2
  -9  -6  -6 9.72580 6.73745   3
   9  -6   6 16.5659 4.87089   1
   9   6  -6 5.67812 4.57257   2
  -9  -6   6 -8.3611 5.13718   3
   9  -6  -6 2.86687 4.64474   1
  -9  -6   6 2.80346 4.20266   1
  -9   6  -6 9.35850 4.32185   2
   9   6   6 2.85330 4.09754   2
  10  -6   6 118.020 10.9494   5
 -10  -6  -6 134.470 9.47575   1
  10  -6   6 127.418 9.84424   1
  10   6  -6 126.263 9.85090   2
 -10   6   6 112.418 9.24754   2
 -10  -6  -6 123.684 12.8240   3
 -10  -6   6 139.480 12.5449   3
 -10  -6   6 142.385 10.1217   1
  10   6   6 146.725 9.49351   2
  10  -6  -6 126.481 10.1143   1
 -10   6  -6 134.497 9.49475   2
  11   6  -6 2.02894 4.81849   2
 -11  -6  -6 5.92420 7.20450   3
 -11  -6  -6 3.41696 4.47105   1
  11  -6   6 1.78952 4.65524   1
 -11   6   6 11.2333 5.17374   2
  11  -6  -6 -6.5555 4.61639   1
  11   6   6 7.55998 4.64472   2
 -11  -6   6 9.78512 5.08009   1
 -11   6  -6 4.54515 4.53783   2
 -11  -6   6 7.02190 6.29184   3
 -12   6   6 24.1151 6.24934   2
 -12  -6  -6 19.4779 8.18679   3
  12   6  -6 13.4998 5.63069   2
 -12  -6  -6 18.7537 5.33133   1
  12  -6   6 9.78621 5.52039   1
  12   6   6 24.5673 5.90468   2
  12  -6  -6 24.3591 6.56864   1
 -12  -6   6 9.57430 5.26536   1
 -12   6  -6 14.9486 5.33563   2
   0   7   6 1.07574 2.54875   2
   0  -7   6 -3.9774 5.47111   3
   0  -7  -6 2.82148 5.67272   3
   0  -7  -6 4.43027 4.94174   5
   0   7  -6 2.47164 2.38048   2
   1  -7   6 320.656 17.2168   3
  -1  -7  -6 298.958 16.5145   3
   1   7  -6 352.878 9.58724   2
   1  -7   6 348.983 15.4764   5
  -1   7   6 345.338 9.58049   2
  -1  -7  -6 341.636 15.4966   5
   1   7   6 329.085 8.99520   2
  -1   7  -6 354.902 9.67311   2
   1  -7  -6 354.117 16.0866   3
   1  -7  -6 307.767 15.2577   5
  -1  -7   6 348.320 17.3880   3
   2   7  -6 2.79131 2.73394   2
  -2  -7  -6 4.42233 5.18225   5
   2  -7   6 4.05836 4.83624   5
   2  -7   6 7.09460 6.29161   3
  -2   7   6 5.10278 2.74783   2
  -2  -7  -6 7.67060 6.40895   3
   2  -7  -6 -0.2178 5.11077   3
   2  -7  -6 7.63318 5.47222   5
  -2  -7   6 4.06159 6.04806   3
   2   7   6 5.45403 2.59880   2
  -2   7  -6 3.26264 2.70714   2
   3  -7   6 117.749 11.8345   3
   3   7  -6 120.947 6.61842   2
  -3  -7  -6 110.806 11.7030   3
   3  -7   6 135.688 10.8562   5
   3   7   6 109.664 5.93486   2
   3  -7  -6 114.740 10.9017   5
  -3   7  -6 127.052 6.56763   2
  -3  -7   6 124.281 11.6243   3
  -4   7   6 9.45728 3.76852   2
   4  -7   6 6.98148 6.21497   3
   4   7  -6 8.88519 3.54945   2
  -4  -7  -6 -0.6867 6.02975   3
   4  -7   6 3.05469 5.32503   5
  -4   7  -6 9.64382 3.35255   2
   4  -7  -6 15.5628 5.96345   5
   4   7   6 3.10416 2.92858   2
  -4  -7   6 2.38120 6.32145   3
   5  -7   6 321.771 15.9209   5
   5  -7   6 335.332 17.5818   3
  -5  -7  -6 328.518 18.0485   3
   5   7  -6 311.322 11.2475   2
  -5   7   6 305.141 11.0686   2
   5   7   6 317.180 10.2406   2
  -5  -7   6 282.123 16.8412   3
   5  -7  -6 300.082 15.6584   5
  -5   7  -6 312.397 10.9853   2
   6   7  -6 58.2391 6.08850   2
  -6  -7  -6 50.6820 9.81725   3
  -6   7   6 58.8521 6.12142   2
   6  -7   6 78.7645 9.28469   5
  -6   7  -6 56.0203 5.65274   2
   6  -7  -6 62.8803 8.97122   5
  -6  -7   6 58.4312 9.27153   3
   6   7   6 47.3292 5.23065   2
   7   7  -6 182.972 9.86565   2
   7  -7   6 211.569 13.6685   5
  -7  -7  -6 203.755 15.3329   3
  -7   7   6 178.918 9.92206   2
   7   7   6 190.306 9.19814   2
  -7  -7   6 173.688 13.9615   3
  -7   7  -6 194.840 9.58436   2
  -8   7   6 -1.8757 4.06529   2
  -8  -7  -6 0.43421 6.33319   3
   8  -7   6 10.6012 6.13358   5
   8   7  -6 5.97410 4.44976   2
   8  -7   6 1.91851 4.32821   1
  -8   7  -6 -4.1033 3.36185   2
   8   7   6 0.25691 3.81563   2
  -8  -7   6 3.71602 6.43368   3
  -9   7   6 70.3532 7.65181   2
   9  -7   6 92.4527 8.16678   1
   9   7  -6 82.9166 7.89370   2
   9  -7   6 77.9932 10.0682   5
  -9  -7  -6 70.6667 11.0531   3
  -9  -7   6 84.8608 11.1260   3
   9   7   6 75.3878 7.35071   2
   9  -7  -6 78.5456 8.13192   1
  -9   7  -6 77.4444 7.43957   2
   0  -8  -6 429.396 18.7113   5
   0  -8   6 417.747 20.8008   3
   0  -8  -6 450.570 20.2830   3
  -1  -8  -6 711.374 25.7419   3
   1  -8   6 697.844 26.2682   3
  -1  -8  -6 641.797 23.3072   5
   1  -8  -6 693.177 24.3246   5
   1  -8  -6 672.822 24.8121   3
  -1  -8   6 670.824 25.7868   3
   2  -8   6 3.30155 5.42216   5
   2  -8   6 2.59631 6.64545   3
  -2  -8  -6 -5.7706 5.43604   3
  -2  -8   6 0.62771 6.68783   3
   2  -8  -6 4.40859 5.73142   5
  -2   8  -6 5.27616 3.13234   2
  -3   8   6 39.4247 4.93952   2
   3  -8   6 25.9821 8.44669   3
  -3  -8  -6 42.4260 9.57791   3
   3  -8   6 31.7520 7.52740   5
   3  -8  -6 39.2757 8.36384   5
  -3   8  -6 43.5797 4.69171   2
  -3  -8   6 39.5392 9.15925   3
  -4   8   6 61.7397 5.59729   2
  -4  -8  -6 67.9409 10.7409   3
   4  -8   6 66.8572 9.31001   5
   4   8  -6 49.3438 5.51556   2
   4  -8   6 46.2138 9.75030   3
  -4   8  -6 57.5553 5.43587   2
   4  -8  -6 65.7215 9.49630   5
  -4  -8   6 54.8412 10.2408   3
   5  -8   6 -0.1113 6.88598   3
   5   8  -6 2.93810 3.95222   2
   5  -8   6 7.11887 6.19085   5
  -5   8   6 -4.2146 3.47776   2
  -5  -8  -6 0.16719 7.32554   3
  -5  -8   6 12.1678 7.19038   3
   5   8   6 1.36477 3.43728   2
   5  -8  -6 7.05308 6.59223   5
  -5   8  -6 6.85633 3.89654   2
  -6  -8  -6 3.11761 7.28180   3
  -6   8   6 3.08671 3.90564   2
   6   8  -6 3.41330 4.00534   2
   6  -8   6 -7.1293 5.11617   5
   6  -8  -6 2.30139 5.84188   5
  -6   8  -6 4.34707 3.83962   2
   6   8   6 1.33674 3.68367   2
  -6  -8   6 -3.0179 5.85293   3
   0   0   7 -1.1547 1.81187   4
   0   0  -7 -0.2697 1.87291   4
   1   0  -7 183.471 6.33866   4
  -1   0   7 174.495 6.38426   4
  -1   0  -7 171.780 6.07365   4
   1   0   7 176.416 6.14625   4
  -2   0   7 2.79773 2.14423   4
  -2   0  -7 6.36559 2.05985   4
   2   0  -7 5.21062 2.32764   4
   2   0   7 5.06108 2.24189   4
   3   0  -7 404.594 10.9505   4
  -3   0  -7 400.595 10.4456   4
   3   0   7 406.400 10.5444   4
  -3   0   7 410.026 11.0086   4
  -4   0  -7 3675.68 67.1843   4
   4   0  -7 3726.03 68.0221   4
  -4   0   7 3646.12 67.7965   4
   4   0   7 3679.00 67.2976   4
  -5   0   7 1645.48 33.6480   4
   5   0  -7 1683.39 33.7684   4
  -5   0  -7 1648.49 33.0437   4
  -5   0  -7 1667.58 33.2267   1
   5   0   7 1628.22 33.1032   4
   5   0  -7 1695.35 33.8913   1
  -5   0   7 1687.31 33.8533   1
   6   0   7 3.78820 2.57656   2
  -6   0   7 9.74978 3.19700   2
   6   0  -7 4.97106 2.65663   7
  -6   0   7 7.03190 2.84082   7
  -6   0  -7 10.1656 3.05274   1
   6   0  -7 8.43496 3.25219   1
   6   0  -7 7.41473 3.01207   2
  -6   0   7 4.43509 2.97703   1
  -6   0   7 10.9852 3.05549   4
   6   0   7 9.05984 2.55559   7
   6   0  -7 8.19235 2.97643   4
   6   0   7 7.06784 2.89782   1
   6   0   7 4.67497 2.36613   4
   7   0   7 605.293 15.7064   4
   7   0   7 595.552 16.0270   1
  -7   0   7 588.311 16.6626   1
  -7   0  -7 617.952 16.3059   1
  -7   0  -7 608.028 15.3387   2
   7   0  -7 633.948 16.1892   2
  -7   0   7 633.193 16.2615   2
  -7   0   7 641.707 15.4507   7
   7   0  -7 615.809 17.0131   1
  -7   0   7 622.236 16.4902   4
   7   0   7 621.195 15.6827   2
   7   0   7 620.445 14.7832   7
   7   0  -7 611.024 15.2539   7
  -8   0   7 33.7138 4.64099   2
   8   0   7 26.9418 3.78194   7
  -8   0   7 29.2851 4.81646   1
  -8   0  -7 31.2437 4.20445   2
   8   0   7 29.6983 4.26972   2
   8   0   7 34.0522 4.85328   1
   8   0  -7 28.9639 4.24101   7
   8   0  -7 23.3758 4.21107   2
   8   0  -7 29.6968 4.86704   1
  -8   0  -7 32.4148 4.57243   1
  -8   0   7 29.5110 4.26829   7
   9   0   7 88.3265 7.05601   1
  -9   0   7 82.1151 6.96444   2
   9   0   7 95.4440 6.56526   7
  -9   0   7 85.8672 6.57240   7
   9   0  -7 96.9739 7.80281   1
  -9   0   7 90.1837 7.30087   1
  -9   0  -7 86.4916 7.31800   1
   9   0  -7 92.2758 6.89762   7
   9   0   7 95.2045 7.17368   2
  -9   0  -7 89.7734 6.80439   2
   9   0  -7 98.4788 7.51221   2
 -10   0   7 249.335 10.5105   7
  10   0   7 264.951 10.1678   7
  10   0  -7 243.987 10.3877   7
 -10   0   7 243.519 11.3401   1
  10   0   7 232.578 11.0423   1
  10   0  -7 257.152 11.4443   2
  10   0   7 261.718 10.8340   2
 -10   0  -7 255.095 11.2712   1
  10   0  -7 257.209 11.5255   1
 -11   0   7 486.710 15.1281   7
  11   0  -7 481.909 15.0786   7
  11   0   7 486.562 16.5804   1
 -11   0  -7 509.780 16.8709   1
 -11   0   7 488.483 17.0327   1
  11   0   7 480.916 14.7897   7
  11   0  -7 490.496 17.1361   1
  12   0   7 194.993 11.0772   1
 -12   0   7 196.413 10.1352   7
 -12   0   7 203.253 11.4918   1
 -12   0  -7 194.433 11.1891   1
  12   0   7 180.998 9.89181   7
  12   0  -7 204.033 11.9142   1
  12   0  -7 195.576 10.4180   7
 -13   0  -7 115.120 9.91354   1
  13   0   7 122.343 9.09644   7
  13   0  -7 92.2601 8.11366   7
  13   0   7 94.8626 9.30273   1
  13   0  -7 103.990 10.0989   1
 -13   0   7 85.0358 7.90253   7
 -13   0   7 103.799 9.75717   1
  14   0   7 52.1206 8.03661   1
  14   0   7 46.3760 6.64776   7
 -14   0   7 45.1279 7.82681   1
 -14   0   7 55.6940 6.91232   7
  14   0  -7 54.2524 7.15940   7
 -14   0  -7 43.2480 7.27322   1
  14   0  -7 61.1252 8.67279   1
 -15   0   7 34.4989 6.52056   7
  15   0  -7 36.4554 7.82404   1
  15   0   7 25.8761 6.23013   7
  15   0  -7 36.4288 6.40801   7
 -15   0   7 33.0130 7.58817   1
 -15   0  -7 33.5277 7.10304   1
  15   0   7 34.6303 7.59690   1
  16   0  -7 21.0325 6.09304   7
 -16   0  -7 18.4212 6.86230   1
 -16   0   7 25.3932 7.77348   1
  16   0   7 35.0981 6.74184   7
 -16   0   7 16.9484 5.65435   7
  17   0  -7 25.6093 6.59329   7
 -17   0   7 40.2463 8.56594   1
 -17   0   7 19.8729 6.10394   7
  17   0   7 26.3504 6.94404   7
 -17   0  -7 42.2994 8.27099   1
   0   1   7 220.299 6.86661   4
   0  -1   7 236.380 6.99997   4
   0  -1  -7 221.139 6.60923   4
   0   1  -7 213.794 6.96288   4
  -1  -1  -7 510.309 11.3711   4
   1   1  -7 488.780 11.9719   4
  -1   1   7 504.676 11.7922   4
   1  -1   7 510.552 11.6946   4
  -1   1  -7 490.227 11.7552   4
   1   1   7 491.072 11.6184   4
  -1  -1   7 507.381 11.8621   4
   1  -1  -7 492.567 11.4036   4
  -2  -1  -7 73.9596 4.12030   4
   2  -1   7 74.8015 4.30811   4
   2   1  -7 69.3626 4.70068   4
  -2   1   7 75.3460 4.60575   4
   2   1   7 71.3269 4.29629   4
   2  -1  -7 67.9935 4.26606   4
  -2  -1   7 70.8313 4.63595   4
  -2   1  -7 67.5932 4.20515   4
  -3   1   7 407.366 10.7285   2
   3   1  -7 413.850 11.1748   4
   3  -1   7 441.602 11.2596   1
  -3  -1  -7 427.291 11.0053   1
  -3   1   7 400.643 10.9732   4
   3   1  -7 395.044 10.5384   2
   3  -1   7 418.876 10.6351   4
  -3  -1  -7 403.149 10.3115   4
  -3  -1   7 417.974 10.9730   4
   3  -1  -7 428.893 11.4599   1
   3   1   7 410.938 10.4570   2
  -3  -1   7 424.706 11.3256   1
   3  -1  -7 422.907 10.7186   4
  -3   1  -7 418.885 10.7280   4
   3   1   7 415.873 10.7096   4
   4   1  -7 196.190 7.31557   2
   4  -1   7 198.062 6.86033   4
  -4   1   7 197.297 7.55410   4
  -4  -1  -7 205.069 7.43925   1
   4  -1   7 202.885 7.54795   1
   4   1  -7 203.025 7.71057   4
  -4   1   7 204.159 7.54913   2
   4   1   7 206.645 7.16419   4
  -4  -1   7 198.475 7.68154   1
  -4   1  -7 197.454 7.09748   2
   4  -1  -7 202.375 7.24419   4
   4   1   7 202.694 7.07061   2
   4  -1  -7 196.848 7.98597   1
  -4  -1   7 192.333 7.39086   4
  -4   1  -7 208.780 7.16847   4
   5  -1   7 568.468 13.6470   4
   5   1  -7 531.334 14.2851   4
   5  -1   7 544.643 14.1013   1
  -5   1   7 563.786 14.1581   2
   5  -1   7 564.725 12.6762   7
   5   1  -7 548.948 14.0190   2
  -5   1   7 554.217 14.3704   4
  -5  -1  -7 563.888 14.1600   1
  -5   1  -7 542.247 13.6894   4
   5  -1  -7 535.471 13.0392   7
  -5   1  -7 539.469 13.3351   2
   5   1   7 550.394 13.5756   2
  -5  -1   7 542.942 14.0250   4
  -5  -1   7 535.919 12.9523   7
   5  -1  -7 554.189 14.0792   4
  -5  -1   7 556.458 14.6261   1
   5  -1  -7 570.202 14.8242   1
   5   1   7 538.819 13.7035   4
  -6   1   7 5.97724 2.65637   4
  -6   1   7 2.56407 2.78460   1
   6  -1   7 0.47570 2.08925   4
   6  -1   7 3.20308 2.28325   7
   6   1  -7 -0.1483 2.42686   2
   6   1  -7 1.11811 2.68054   1
  -6  -1  -7 3.43726 2.59713   1
   6  -1   7 4.36579 2.67321   1
  -6   1   7 -0.2572 2.42221   7
  -6   1   7 4.34760 2.65754   2
   6  -1  -7 2.77210 2.54036   4
  -6   1  -7 1.11723 2.68820   1
  -6   1  -7 7.19397 2.58698   2
  -6  -1   7 2.03518 2.73428   1
  -6   1  -7 0.89974 2.40076   7
   6   1   7 1.77482 2.38050   2
   6  -1  -7 4.39194 2.49936   7
  -6  -1   7 3.19851 2.51880   7
  -6  -1   7 4.20492 2.53509   4
   6  -1  -7 3.78490 2.90974   1
   6   1   7 3.88248 2.42963   4
   7   1  -7 34.2677 4.72536   1
  -7   1   7 34.7626 4.42091   2
  -7   1   7 39.9301 4.62741   4
   7  -1   7 38.6382 4.07714   4
   7  -1   7 36.0878 3.93500   7
  -7  -1  -7 31.7001 4.33259   1
   7  -1   7 31.0504 3.70325   4
  -7   1   7 37.9901 4.46808   7
  -7   1   7 31.3042 4.52175   1
   7   1  -7 28.5496 4.19093   2
   7  -1   7 29.7981 4.20043   1
   7   1  -7 36.3534 4.42385   7
  -7   1  -7 35.4227 4.01951   7
   7  -1  -7 39.4427 4.13560   7
  -7  -1   7 30.9180 4.14480   4
  -7   1  -7 35.2947 4.49123   1
   7   1   7 29.9848 4.20186   1
  -7  -1   7 34.2828 3.92657   7
   7   1   7 32.3697 3.94579   7
  -7   1  -7 33.1038 4.15215   2
   7  -1  -7 35.9799 4.22533   4
   7  -1  -7 33.2174 4.86056   1
   7   1   7 32.5764 4.26500   2
  -7  -1   7 34.8133 4.86193   1
   7   1   7 35.8822 4.14538   4
  -8   1   7 94.0629 6.68331   7
   8   1  -7 99.8798 6.63307   7
  -8   1   7 99.7425 7.30416   1
   8  -1   7 97.7835 6.01273   7
  -8   1   7 102.587 7.18631   2
   8  -1   7 105.596 7.03049   1
   8   1  -7 109.056 7.18353   2
  -8  -1  -7 88.6579 6.43254   1
   8   1  -7 95.6719 7.25430   1
   8   1   7 103.725 6.48263   7
  -8  -1   7 93.5800 7.33323   1
   8   1   7 98.1249 6.81823   1
   8  -1  -7 104.136 7.31755   1
  -8  -1   7 96.5176 6.34066   7
  -8   1  -7 112.353 6.56524   7
   8   1   7 105.087 6.80335   2
  -8   1  -7 99.8002 6.66643   1
  -8   1  -7 105.511 6.77974   2
   8  -1  -7 105.598 6.44124   7
   8   1   7 111.352 6.84284   4
   8  -1  -7 109.513 7.06776   4
   9   1  -7 53.6701 5.52815   7
  -9   1   7 59.0208 5.89705   7
   9   1  -7 55.9057 6.02902   2
  -9   1   7 63.3836 6.15742   2
   9  -1   7 60.1039 5.30513   7
   9  -1   7 53.1742 6.10264   1
  -9  -1  -7 57.9922 6.11611   1
  -9   1   7 50.8860 6.00190   1
   9   1  -7 51.0864 6.32989   1
   9   1   7 59.6905 5.87902   2
  -9  -1   7 62.6093 5.52847   7
   9   1   7 56.4336 6.12457   1
  -9   1  -7 51.1717 5.33245   2
  -9   1  -7 48.7845 5.71927   1
  -9   1  -7 62.0227 5.52136   7
   9   1   7 68.0416 5.78750   7
   9  -1  -7 52.3762 5.26423   7
  -9  -1   7 47.4614 5.99812   1
   9  -1  -7 47.2093 6.14027   1
 -10   1   7 67.6945 6.53114   7
  10  -1   7 60.5939 5.64251   7
 -10   1   7 49.4172 6.21585   2
  10  -1   7 53.3944 6.49998   1
 -10   1   7 76.6022 7.49719   1
  10   1  -7 63.6422 6.82051   1
  10   1  -7 57.2119 5.92818   7
  10   1  -7 59.6836 6.32428   2
 -10  -1  -7 58.1374 6.50459   1
  10   1   7 52.5531 5.91590   2
  10  -1  -7 65.9979 7.46541   1
 -10   1  -7 60.9797 6.09917   2
  10  -1  -7 58.1573 5.86605   7
 -10  -1   7 57.1252 6.70999   1
 -10  -1   7 59.9753 5.58848   7
  10   1   7 60.9411 6.03633   7
 -10   1  -7 53.3242 5.67101   7
  10   1   7 59.8465 6.46015   1
 -10   1  -7 72.4410 7.05429   1
  11   1  -7 98.2578 7.84303   7
  11  -1   7 97.7469 8.50821   1
  11  -1   7 88.9901 6.90420   7
 -11  -1  -7 98.8990 8.12571   1
  11   1  -7 101.971 8.82362   1
  11   1  -7 96.3116 8.32777   2
 -11   1   7 95.5183 7.80749   7
 -11   1   7 112.696 8.93102   2
 -11   1   7 96.6291 8.76188   1
 -11   1  -7 118.467 8.79082   1
 -11   1  -7 92.4287 7.40810   7
  11   1   7 97.2595 7.66287   7
 -11  -1   7 88.4914 7.12618   7
 -11  -1   7 105.468 9.32658   1
  11   1   7 107.041 8.54550   2
  11  -1  -7 111.835 7.99893   7
  11  -1  -7 86.1605 8.52942   1
 -11   1  -7 85.5656 7.37262   2
  12   1  -7 55.7450 6.65551   7
  12  -1   7 61.0768 7.25213   1
 -12   1   7 43.7840 6.97989   1
  12   1  -7 48.2165 6.78655   2
 -12   1   7 41.9845 6.16773   7
  12  -1   7 60.6503 6.27044   7
 -12  -1  -7 53.5549 6.99410   1
 -12  -1   7 48.2466 7.13284   1
  12   1   7 55.4894 6.47017   7
  12  -1  -7 53.7193 7.86095   1
 -12   1  -7 55.4018 7.18275   1
 -12   1  -7 45.4964 6.10823   7
  12  -1  -7 56.9672 6.31936   7
  12   1   7 57.0069 6.94782   2
 -12  -1   7 48.2494 5.91212   7
  13  -1   7 12.4439 4.59474   7
  13  -1   7 6.36640 5.14502   1
 -13   1   7 12.8455 5.60173   1
  13   1  -7 12.9847 5.04251   7
 -13  -1  -7 11.5977 5.28573   1
 -13   1   7 17.2522 5.40447   7
 -13   1  -7 9.01764 5.21426   1
 -13  -1   7 2.62516 5.10571   1
 -13  -1   7 12.8007 4.65849   7
 -13   1  -7 16.6817 5.22253   7
  13  -1  -7 8.31586 4.48916   7
  13  -1  -7 10.2679 5.64521   1
  13   1   7 12.5098 4.98009   2
  13   1   7 13.2015 4.96735   7
  14  -1   7 3.41774 5.42766   1
  14   1  -7 10.2906 5.10946   7
 -14  -1  -7 6.42921 5.26630   1
 -14   1   7 3.69389 4.49361   7
  14  -1   7 6.85506 4.69990   7
  14  -1  -7 15.2194 6.29197   1
 -14  -1   7 3.46219 5.47020   1
  14  -1  -7 1.38794 4.34156   7
 -14  -1   7 13.7083 4.72221   7
  14   1   7 4.89798 4.62577   7
 -15   1   7 140.807 10.8109   7
  15  -1   7 158.796 12.4871   1
 -15  -1  -7 167.137 12.2128   1
  15  -1   7 145.883 10.6730   7
  15   1  -7 160.273 11.3469   7
 -15  -1   7 140.694 12.2846   1
  15  -1  -7 159.127 10.4490   7
  15  -1  -7 164.958 13.0641   1
 -15  -1   7 148.584 9.90747   7
  15   1   7 167.820 11.6321   7
 -16   1   7 91.8809 9.22959   7
  16  -1   7 105.302 11.5111   1
  16  -1   7 82.6470 8.47142   7
  16   1  -7 83.9038 9.28673   7
 -16  -1  -7 73.2338 9.56765   1
 -16  -1   7 101.573 11.0558   1
 -16  -1   7 72.2042 7.68550   7
  16   1   7 73.1483 8.63408   7
  16  -1  -7 102.729 11.1627   1
  16  -1  -7 84.6563 8.40124   7
   0   2  -7 4.22101 1.91827   4
   0  -2  -7 -2.5811 1.87657   1
   0  -2   7 0.52380 1.63197   4
   0   2   7 0.69611 1.67079   4
   0   2  -7 -1.1740 1.71136   2
   0  -2  -7 2.02611 1.11051   4
   0  -2   7 3.82753 2.05418   1
   0   2   7 -1.0833 1.74661   2
   0  -2   7 -1.5714 2.84810   3
   1  -2   7 371.785 9.73170   5
  -1   2   7 368.635 9.34899   2
   1  -2   7 380.819 8.89946   4
   1  -2   7 383.267 9.90598   1
   1   2  -7 393.049 9.98324   4
   1  -2   7 361.342 11.8189   3
  -1   2   7 377.820 9.41715   4
  -1  -2  -7 371.289 9.46569   5
   1   2  -7 362.826 9.22931   2
  -1   2  -7 360.223 9.16184   2
  -1  -2   7 399.422 10.0320   1
  -1   2  -7 378.783 9.68417   4
   1  -2  -7 369.609 9.97641   1
  -1  -2   7 370.763 11.3769   3
   1   2   7 369.757 9.22191   2
   1  -2  -7 365.181 8.06002   4
   1   2   7 382.002 9.40585   4
  -1  -2   7 379.987 8.81701   4
   2  -2   7 256.566 7.80379   1
   2  -2   7 257.000 7.54423   5
  -2  -2  -7 245.311 7.64333   1
   2   2  -7 251.788 7.89520   4
   2   2  -7 233.870 7.25786   2
   2  -2   7 244.194 6.78365   4
  -2  -2  -7 240.406 7.00629   5
  -2   2   7 250.597 7.49389   2
  -2   2   7 251.130 7.50956   4
   2   2   7 243.688 7.24987   4
   2  -2  -7 243.979 6.23795   4
   2   2   7 229.000 7.15593   2
   2  -2  -7 251.858 8.00363   1
  -2   2  -7 239.593 7.45177   4
  -2  -2   7 245.007 6.80556   4
  -2  -2   7 249.895 8.99418   3
  -2   2  -7 237.331 7.19074   2
  -2  -2   7 254.112 7.91750   1
   3   2  -7 7.94472 2.32726   4
  -3   2   7 3.56402 2.27259   2
  -3   2   7 2.60254 2.01409   4
   3  -2   7 5.36673 2.31826   1
  -3  -2  -7 1.24301 2.08405   1
   3  -2   7 2.80960 1.77898   4
   3  -2   7 2.27086 2.05089   5
   3  -2   7 3.05699 1.76898   4
   3   2  -7 1.40380 1.94207   2
   3   2   7 2.89873 1.89111   4
  -3   2  -7 4.79937 2.02657   4
   3   2   7 1.83805 1.94282   2
   3  -2  -7 3.80449 2.46702   1
  -3  -2   7 3.37222 1.89693   4
  -3   2  -7 2.22472 2.09300   2
  -3  -2   7 2.45954 2.39867   1
   3  -2  -7 6.74601 1.73421   4
  -3  -2   7 8.21617 2.95433   3
  -4  -2  -7 14.4541 2.85098   1
   4  -2   7 13.5061 2.36465   4
   4  -2   7 18.1553 2.49836   4
   4   2  -7 22.2696 3.22221   2
   4   2  -7 11.2639 2.63527   4
   4  -2   7 13.3211 2.82181   1
  -4   2   7 12.8630 2.81366   4
  -4   2   7 13.4767 2.92354   2
   4   2   7 11.2603 2.52629   2
  -4   2  -7 17.2943 2.93877   2
   4   2   7 13.5884 2.62295   4
   4  -2  -7 10.7963 3.05728   1
   4  -2  -7 12.5037 2.19295   4
  -4   2  -7 16.2069 2.67258   4
  -4  -2   7 11.2272 2.87316   1
  -4  -2   7 17.8537 3.33386   3
  -4  -2   7 16.3873 2.45930   4
   5  -2   7 26.5793 2.95006   4
   5  -2   7 30.4305 2.85182   7
  -5   2   7 33.6332 3.93729   4
   5  -2   7 28.8927 3.28284   4
   5   2  -7 32.6067 3.85824   2
   5  -2   7 32.5526 3.89362   1
  -5   2   7 36.1463 3.98127   2
  -5  -2  -7 30.9465 3.76727   1
  -5   2  -7 35.6280 3.91662   2
   5  -2  -7 34.6761 4.32183   1
   5   2   7 30.0744 3.65026   2
   5  -2  -7 27.5024 3.03839   4
  -5  -2   7 30.6276 3.94193   1
   5  -2  -7 33.3402 3.10095   7
  -5  -2   7 30.8463 3.18023   4
  -5  -2   7 37.9484 4.25943   3
   5   2   7 23.4267 3.20563   4
   6  -2   7 77.8722 4.87292   4
  -6  -2  -7 80.0840 5.57746   1
   6   2  -7 77.0026 5.82467   2
   6  -2   7 74.0511 4.92913   4
  -6   2   7 71.4296 5.62394   2
  -6   2   7 77.8315 5.93390   4
   6  -2   7 69.3877 5.54925   1
   6  -2   7 77.2873 4.38565   7
   6   2   7 66.6030 5.21347   4
   6  -2  -7 80.2305 4.76550   7
   6   2   7 66.9671 4.37347   6
  -6   2  -7 67.4012 5.37744   2
  -6  -2   7 81.1068 4.38225   7
   6  -2  -7 70.9726 6.01734   1
   6  -2  -7 71.7048 5.12846   4
  -6  -2   7 74.6443 4.92809   4
  -6  -2   7 71.0047 5.85047   1
   6   2   7 70.9461 5.37515   2
  -6  -2   7 72.3064 5.60437   3
  -7   2   7 27.8359 4.42879   2
   7   2  -7 16.0384 3.51151   7
  -7   2   7 23.5302 3.94862   7
  -7  -2  -7 20.6716 3.73600   1
   7  -2   7 17.1640 3.02708   6
  -7   2   7 25.7657 3.97847   4
   7  -2   7 22.9643 3.23553   4
   7   2  -7 16.1305 3.76287   2
   7  -2   7 25.7428 4.04406   1
   7  -2   7 23.0113 3.11784   7
  -7   2  -7 32.2478 4.10674   2
   7   2   7 18.6840 3.45177   4
   7  -2  -7 30.4098 3.51167   7
  -7  -2   7 21.3709 3.81092   3
  -7  -2   7 16.2659 2.84315   7
   7   2   7 22.0586 3.80297   2
  -7   2  -7 19.9492 3.57880   7
  -7  -2   7 17.2133 3.12996   4
   7  -2  -7 19.4335 4.15525   1
  -7  -2   7 17.6583 3.92596   1
  -8   2   7 343.085 11.5103   7
  -8   2   7 327.433 12.0209   2
  -8   2   7 328.639 12.0232   4
   8   2  -7 328.159 11.9869   2
   8  -2   7 353.699 12.1359   1
  -8  -2  -7 355.176 11.9977   1
   8   2  -7 340.215 11.2760   7
   8  -2   7 354.246 10.0370   7
  -8  -2   7 341.544 9.78441   7
   8  -2  -7 326.549 12.3728   1
  -8   2  -7 325.885 11.5138   2
   8  -2  -7 346.904 10.2712   7
  -8  -2   7 328.560 12.4009   1
   8   2   7 342.143 10.8756   7
   8   2   7 340.780 11.6140   4
  -8   2  -7 353.704 11.2816   7
   8   2   7 341.752 11.5793   2
   9  -2   7 65.4287 6.35647   1
  -9   2   7 68.4280 6.59454   2
   9   2  -7 62.8795 6.34975   2
  -9  -2  -7 68.0324 6.43994   1
   9  -2   7 67.6945 5.21390   7
  -9   2   7 65.2153 6.17754   7
   9   2  -7 77.3873 6.51043   7
   9   2   7 65.7660 6.14356   2
   9   2   7 67.9845 5.99729   7
   9  -2  -7 67.4946 7.24871   1
  -9  -2   7 70.1643 6.87957   1
  -9   2  -7 67.2723 6.03403   7
  -9  -2   7 70.0153 5.13922   7
   9  -2  -7 63.5645 5.39189   7
  -9   2  -7 63.6054 6.10584   2
  10  -2   7 61.5604 6.60285   1
 -10  -2  -7 53.0300 6.29053   1
 -10   2   7 55.8310 6.22199   7
 -10   2   7 51.3891 6.22544   2
  10   2  -7 52.9320 6.23459   2
  10  -2   7 58.7231 5.18953   7
  10   2  -7 57.8087 6.17077   7
 -10   2  -7 64.2999 6.37182   7
 -10  -2   7 56.5748 6.84121   1
 -10   2  -7 65.1703 6.64133   2
  10   2   7 53.7057 6.15935   2
 -10  -2   7 52.3885 4.92581   7
  10   2   7 53.8388 5.93513   7
  10  -2  -7 51.5279 6.64853   1
  10  -2  -7 54.8555 5.34776   7
  11  -2   7 9.18701 3.73341   7
  11   2  -7 9.42628 4.33819   7
 -11   2   7 11.8985 4.36575   7
  11   2  -7 8.44703 4.58285   2
 -11  -2  -7 25.9413 5.38325   1
 -11   2   7 21.6374 5.25722   2
  11  -2   7 21.0317 5.14019   1
 -11   2  -7 16.2745 4.61635   2
 -11   2  -7 15.9012 4.49281   7
  11   2   7 3.67776 4.03273   2
  11  -2  -7 13.9474 5.06036   1
 -11  -2   7 11.8097 3.67416   7
  11   2   7 5.84271 4.23484   7
  11  -2  -7 11.2627 3.91884   7
 -11  -2   7 9.05115 4.67798   1
  12   2  -7 226.880 12.4131   2
 -12   2   7 245.368 11.9116   7
  12  -2   7 241.068 10.3804   7
 -12  -2  -7 238.475 12.2205   1
  12  -2   7 247.667 12.7134   1
 -12   2   7 257.053 13.1148   2
  12   2  -7 242.812 11.7566   7
  12  -2  -7 218.837 12.7095   1
  12  -2  -7 266.369 10.8398   7
  12   2   7 230.548 11.2834   7
 -12  -2   7 250.427 12.9262   1
  12   2   7 254.309 12.3774   2
 -12   2  -7 244.924 11.5640   7
 -12  -2   7 251.885 9.87608   7
 -12   2  -7 250.474 12.1842   2
  13  -2   7 -1.5117 4.49949   1
  13  -2   7 -4.2201 3.72539   7
  13   2  -7 -0.8164 4.58583   2
 -13  -2  -7 3.75727 5.55806   3
 -13  -2  -7 -4.0322 4.05657   1
 -13   2   7 -3.6515 4.28383   7
 -13   2   7 -2.9814 4.46154   2
  13   2  -7 -1.2107 4.22158   7
 -13   2  -7 6.62345 4.28250   7
 -13  -2   7 0.87686 3.41213   7
  13  -2  -7 0.41993 5.07654   1
 -13   2  -7 -0.5696 4.27320   2
  13  -2  -7 4.67844 4.03905   7
 -13  -2   7 0.30830 4.67905   1
  13   2   7 -0.7966 4.52823   2
  13   2   7 0.29678 4.18122   7
  14   2  -7 158.347 11.7746   2
 -14  -2  -7 141.627 11.7633   3
  14   2  -7 166.206 11.0005   7
  14  -2   7 133.298 9.40436   7
 -14   2   7 149.834 10.7014   7
  14  -2   7 150.162 11.7131   1
 -14  -2  -7 139.744 11.0568   1
  14  -2  -7 165.382 12.6303   1
  14   2   7 143.455 10.9105   7
 -14   2  -7 149.649 10.5619   7
 -14  -2   7 177.982 12.4505   1
  14   2   7 160.330 11.7551   2
  14  -2  -7 150.586 9.53417   7
 -14  -2   7 150.114 8.54948   7
  15  -2   7 268.267 15.0088   1
 -15  -2  -7 227.860 13.8988   1
  15   2  -7 259.075 14.7669   2
  15   2  -7 273.976 13.8744   7
 -15   2   7 262.078 13.7856   7
  15  -2   7 252.836 12.0938   7
 -15   2  -7 275.736 13.9111   7
  15  -2  -7 236.298 11.5633   7
  15   2   7 286.142 14.1726   7
  15  -2  -7 260.082 15.6467   1
 -15  -2   7 278.788 15.5415   1
 -15  -2   7 278.974 10.9474   7
  15   2   7 267.612 14.7458   2
 -16  -2  -7 287.313 15.8525   1
 -16   2   7 319.156 15.2635   7
  16  -2   7 307.982 13.2037   7
  16  -2   7 289.789 16.1969   1
  16   2  -7 293.553 15.0769   7
 -16  -2   7 302.341 16.7678   1
  16   2   7 316.911 15.4420   7
  16  -2  -7 305.494 16.9426   1
  16  -2  -7 292.738 12.8768   7
 -16   2  -7 302.512 14.9170   7
   0  -3  -7 138.100 7.51646   3
   0  -3  -7 135.560 5.56136   1
   0   3   7 134.495 5.21662   2
   0  -3   7 139.557 5.51130   1
   0  -3   7 139.765 7.99355   3
   0   3  -7 141.712 5.31078   2
   0   3   7 135.992 4.98817   4
   0   3  -7 141.920 5.48781   4
   1   3  -7 343.049 9.35279   4
  -1  -3  -7 371.465 12.2753   3
  -1   3   7 347.897 9.05273   2
  -1  -3  -7 348.524 10.2526   5
   1   3  -7 341.632 8.93069   2
  -1   3   7 341.085 8.80943   4
   1  -3   7 350.722 9.41376   1
   1  -3   7 343.207 12.1756   3
  -1  -3  -7 355.011 9.31715   1
   1  -3   7 347.152 10.4996   5
   1  -3  -7 361.345 11.2519   3
   1   3   7 345.322 8.72457   4
   1  -3  -7 348.898 9.51156   1
  -1  -3   7 351.593 11.9625   3
  -1   3  -7 365.823 9.29172   4
  -1  -3   7 340.054 9.35974   1
   1   3   7 347.346 8.83750   2
  -1   3  -7 337.676 8.93240   2
   2   3  -7 56.7248 4.23609   4
  -2   3   7 60.4158 4.21410   2
  -2  -3  -7 64.5815 4.14332   1
   2  -3   7 63.2963 4.96312   5
   2   3  -7 49.3546 3.76475   2
   2  -3   7 51.8961 4.13794   1
  -2   3   7 56.5395 3.90530   4
   2  -3   7 51.7773 5.81372   3
  -2  -3  -7 57.1776 4.65484   5
  -2  -3  -7 60.8883 6.38131   3
   2  -3  -7 50.1243 4.10842   1
   2   3   7 59.5391 3.75195   4
   2   3   7 47.5441 3.58414   2
  -2  -3   7 49.7104 5.44305   3
  -2   3  -7 59.7506 4.06035   4
  -2   3  -7 55.2237 4.03651   2
   2  -3  -7 59.1918 4.85387   3
  -2  -3   7 55.8085 4.18684   1
   3  -3   7 319.763 9.45963   1
  -3  -3  -7 313.344 12.3897   3
   3   3  -7 319.026 9.35332   4
   3   3  -7 302.960 8.89109   2
  -3  -3  -7 312.124 9.07713   1
   3  -3   7 329.775 10.0431   5
  -3   3   7 315.306 9.14314   2
  -3   3   7 311.545 9.03783   4
  -3  -3   7 295.571 11.0032   3
   3  -3  -7 328.305 9.81149   1
   3   3   7 314.085 8.79515   4
   3  -3  -7 310.928 9.32664   3
  -3   3  -7 316.237 9.54311   4
   3   3   7 324.190 8.81454   2
  -3  -3   7 307.202 9.41945   1
  -3   3  -7 304.851 8.86946   2
   4  -3   7 158.078 6.75812   1
  -4   3   7 155.700 6.83257   2
  -4  -3  -7 155.817 9.10224   3
  -4  -3  -7 157.942 6.54173   1
   4  -3   7 159.874 7.00096   5
   4   3  -7 160.422 6.55932   2
  -4   3   7 157.919 6.74616   4
  -4  -3   7 149.698 8.18079   3
   4  -3  -7 153.495 7.16085   1
   4   3   7 157.644 6.39691   2
   4   3   7 155.184 6.23531   4
  -4  -3   7 147.655 6.89508   1
  -4   3  -7 151.700 6.45751   2
   5   3  -7 415.143 11.6618   2
  -5   3   7 399.728 11.8440   2
  -5   3   7 416.564 12.0953   4
  -5  -3  -7 413.597 11.7247   1
  -5  -3  -7 397.092 14.8193   3
   5  -3   7 413.521 9.03974   4
   5  -3   7 403.274 11.8214   1
  -5   3  -7 408.345 11.4310   2
   5   3   7 407.508 11.2982   2
   5  -3  -7 417.757 12.5176   1
  -5  -3   7 398.204 12.0798   1
  -5  -3   7 413.763 13.2972   3
   6  -3   7 5.92001 2.89371   1
   6   3  -7 -0.9808 2.72720   2
   6  -3   7 2.97926 2.82179   6
  -6   3   7 1.55999 2.86396   2
   6  -3   7 0.05832 1.74661   4
  -6   3   7 5.85876 2.98156   4
  -6  -3  -7 -0.5136 4.01119   3
  -6  -3  -7 3.72060 2.69365   1
   6  -3  -7 -1.2992 2.78070   1
  -6  -3   7 2.15661 2.77171   1
   6   3   7 -0.4655 2.52416   2
  -6  -3   7 5.63690 3.55863   3
  -6   3  -7 2.39385 2.62699   2
   7   3  -7 35.2877 4.71427   2
  -7  -3  -7 21.3270 5.53602   3
  -7  -3  -7 30.0221 4.28273   1
  -7   3   7 34.7552 4.73129   2
   7  -3   7 29.2132 3.14503   4
   7  -3   7 32.2760 4.32446   6
   7  -3   7 27.2182 4.28731   1
   7  -3  -7 30.6182 4.75843   1
  -7   3  -7 26.0705 4.06621   2
   7   3   7 29.7145 4.14259   2
  -7  -3   7 35.4143 5.23709   3
  -7  -3   7 21.6181 4.29579   1
   8  -3   7 68.1749 4.97092   4
  -8  -3  -7 58.9282 7.59512   3
   8  -3   7 76.5619 6.47820   1
  -8  -3  -7 79.9459 6.65125   1
  -8   3   7 62.1833 6.34100   2
   8   3  -7 63.0012 6.03226   2
  -8   3  -7 70.5744 6.07669   2
  -8  -3   7 76.7352 6.91434   3
   8   3   7 72.4918 6.02887   2
  -8  -3   7 75.0147 6.63665   1
   8  -3  -7 65.6532 6.50186   1
   9   3  -7 34.2644 5.39437   2
   9  -3   7 31.5407 5.10784   1
  -9  -3  -7 37.2806 5.24503   1
  -9  -3  -7 33.6280 6.67677   3
  -9   3   7 45.5484 5.78904   2
  -9  -3   7 42.7332 5.79341   1
   9  -3  -7 38.8248 5.77136   1
   9   3   7 35.4305 5.00917   2
  -9   3  -7 33.7492 5.04966   2
 -10  -3  -7 46.7179 7.49703   3
 -10  -3  -7 28.9060 5.25393   1
  10   3  -7 45.9430 6.07204   2
 -10   3   7 32.6477 5.76750   2
  10  -3   7 44.8866 6.14361   1
 -10  -3   7 47.2835 6.43630   1
  10   3   7 50.0741 5.92417   2
  10  -3  -7 23.2410 5.57428   1
 -10   3  -7 40.2034 5.55971   2
 -11  -3  -7 69.9606 9.13900   3
  11   3  -7 84.4684 7.97141   2
 -11   3   7 80.1042 8.00899   2
  11  -3   7 75.7833 7.77932   1
 -11  -3  -7 94.9523 8.32832   1
  11   3   7 64.1344 7.07145   2
 -11   3  -7 94.7700 9.02395   7
 -11   3  -7 81.5880 7.65337   2
  11  -3  -7 83.8625 8.62342   1
 -11  -3   7 80.9192 8.21697   1
  12  -3   7 46.2364 6.89288   1
  12   3  -7 56.6952 7.26269   2
 -12  -3  -7 55.0411 7.22472   1
 -12  -3  -7 40.7229 7.89093   3
 -12   3   7 49.8228 7.10257   2
 -12   3  -7 47.1689 6.73610   2
  12  -3  -7 41.9575 7.26806   1
  12   3   7 43.9400 6.48307   2
 -12   3  -7 45.7553 6.67164   7
 -12  -3   7 49.5165 7.34612   1
  13   3  -7 14.3621 5.41871   2
 -13  -3  -7 18.3538 6.27520   3
 -13   3   7 9.97812 5.44265   2
 -13   3   7 8.50971 5.17305   7
 -13  -3  -7 7.03499 4.84557   1
  13  -3   7 9.46148 5.19624   1
 -13   3  -7 1.24023 4.43851   2
  13   3   7 11.9107 5.35769   2
  13  -3  -7 16.5159 6.11164   1
 -13  -3   7 12.9163 5.78019   1
 -13   3  -7 12.3984 5.30691   7
  14  -3   7 -3.0411 5.04291   1
 -14   3   7 -0.8349 5.01665   2
 -14  -3  -7 -1.1848 4.91682   1
 -14   3   7 3.17350 5.30716   7
 -14  -3  -7 9.35542 6.28689   3
  14   3  -7 2.05282 5.21820   2
 -14   3  -7 14.0798 5.75202   2
 -14   3  -7 3.21210 5.17246   7
 -14  -3   7 13.4949 5.78662   1
  14  -3  -7 8.17532 5.90935   1
  14   3   7 -4.9053 4.52730   2
 -15   3   7 139.427 11.4005   7
 -15  -3  -7 119.317 11.1502   1
 -15  -3  -7 142.539 12.8212   3
 -15   3   7 143.349 12.3868   2
  15   3  -7 123.611 11.3012   2
  15  -3   7 113.230 11.2649   1
  15   3   7 127.035 11.5065   2
  15  -3  -7 123.059 11.7290   1
 -15   3  -7 129.632 10.9627   2
 -15  -3   7 130.266 11.9014   1
 -15   3  -7 149.654 11.4986   7
  16   3  -7 90.0835 9.75645   7
   0  -4  -7 2.90866 2.80092   5
   0  -4   7 1.51960 3.72389   3
   0   4  -7 -2.3719 1.74599   2
   0  -4  -7 3.13799 3.56165   3
   0  -4   7 0.35143 1.91754   1
   0   4   7 -1.6966 1.77943   2
   0   4  -7 1.84687 1.92430   4
   0  -4  -7 0.43414 1.92866   1
  -1  -4  -7 73.6289 6.02902   5
  -1  -4  -7 81.4289 4.34015   1
  -1   4   7 79.2564 4.49384   2
   1  -4   7 80.0324 4.56786   1
   1  -4   7 78.2567 7.32665   3
   1   4  -7 77.5315 4.37071   2
  -1  -4  -7 81.0025 7.23212   3
   1   4  -7 92.2329 4.88010   4
   1  -4   7 81.4322 6.20798   5
  -1  -4   7 79.2433 4.61006   1
  -1   4  -7 77.8898 4.59039   4
   1  -4  -7 77.0330 6.59747   3
   1  -4  -7 93.7708 4.84661   1
  -1  -4   7 64.4843 6.68859   3
   1   4   7 78.5702 4.24187   2
  -1   4  -7 76.1583 4.36786   2
   2  -4   7 6.14961 2.33775   1
  -2  -4  -7 0.67480 2.77784   5
   2   4  -7 2.85260 2.04210   2
  -2  -4  -7 1.71482 2.02925   1
  -2   4   7 1.96141 2.18513   2
   2  -4   7 1.35053 3.91461   3
  -2  -4  -7 0.17951 3.75273   3
   2  -4   7 2.87213 2.91457   5
   2   4   7 3.72573 2.08113   2
  -2   4  -7 2.48091 2.01852   2
   2  -4  -7 8.84276 3.47089   3
  -2  -4   7 2.82619 4.01301   3
   2  -4  -7 2.72255 2.18861   1
  -2  -4   7 -0.0095 2.22649   1
   3  -4   7 215.014 11.1842   3
   3  -4   7 231.648 7.93824   1
  -3  -4  -7 225.357 9.26948   5
   3  -4   7 235.268 9.45638   5
   3  -4   7 230.471 10.1999   6
  -3  -4  -7 223.921 11.4242   3
  -3  -4  -7 236.574 7.63065   1
  -3   4   7 227.307 7.83390   2
   3   4  -7 226.533 7.57704   2
   3  -4  -7 225.485 8.20146   1
   3   4   7 211.626 7.25142   2
  -3  -4   7 219.965 10.8744   3
  -3  -4   7 224.150 7.90590   1
  -3   4  -7 233.809 7.67222   2
   3  -4  -7 231.631 9.03889   3
   4  -4   7 2057.13 41.8956   5
   4  -4   7 2008.85 39.1169   1
   4   4  -7 1978.59 37.9879   2
  -4  -4  -7 1992.63 38.6908   1
  -4   4   7 1993.59 38.4219   2
  -4  -4  -7 2088.30 45.4795   3
   4  -4   7 2037.04 43.5248   6
   4   4   7 2001.85 37.6343   2
  -4  -4   7 2021.35 43.9166   3
  -4  -4   7 2054.08 39.3951   1
   4  -4  -7 2017.42 39.6754   1
  -4   4  -7 1963.90 38.0538   2
   5  -4   7 977.485 21.6601   1
   5   4  -7 965.188 21.3235   2
  -5  -4  -7 984.682 21.4069   1
  -5   4   7 930.981 21.4942   2
  -5  -4  -7 960.311 26.7579   3
   5  -4   7 987.072 24.3684   6
   5  -4   7 976.963 23.5511   5
   5   4   7 950.982 20.8235   2
  -5  -4   7 954.598 21.9939   1
   5  -4  -7 968.331 22.3741   1
  -5   4  -7 934.454 21.0279   2
  -5  -4   7 949.597 25.0892   3
   6  -4   7 8.45111 3.70216   6
  -6   4   7 6.49117 3.43281   2
   6  -4   7 1.82356 2.83439   1
   6   4  -7 2.24860 2.98910   2
  -6  -4  -7 0.50549 4.47290   3
  -6  -4  -7 1.38630 2.73514   1
  -6   4  -7 9.11821 3.13526   2
   6  -4  -7 11.0817 3.73426   1
  -6  -4   7 5.66955 3.37775   1
   6   4   7 2.34009 2.80953   2
  -6  -4   7 2.63189 3.93534   3
  -7  -4  -7 394.384 16.4399   3
   7   4  -7 367.610 12.4198   2
   7  -4   7 354.218 12.9666   6
   7  -4   7 386.477 12.5972   1
  -7  -4  -7 376.218 12.1977   1
  -7   4   7 360.515 12.4962   2
  -7  -4   7 373.450 14.3690   3
   7  -4  -7 364.123 13.0405   1
   7   4   7 368.802 11.8578   2
  -7  -4   7 361.625 12.6677   1
  -7   4  -7 374.607 12.1900   2
  -8  -4  -7 22.7654 4.40701   1
  -8   4   7 25.4234 4.97294   2
   8   4  -7 19.0556 4.43026   2
   8  -4   7 22.0609 4.45168   1
  -8  -4  -7 24.5151 6.45354   3
  -8   4  -7 28.0709 4.47795   2
   8  -4  -7 25.8698 5.03710   1
   8   4   7 26.6884 4.41393   2
  -8  -4   7 32.5138 6.05929   3
  -8  -4   7 28.3987 4.88587   1
   9  -4   7 61.1932 6.59701   1
   9   4  -7 52.3207 6.24029   2
  -9   4   7 69.6929 7.06502   2
  -9  -4  -7 61.2028 8.44285   3
  -9  -4  -7 57.1495 6.17974   1
  -9  -4   7 56.0232 6.41624   1
  -9   4  -7 58.1375 6.19186   2
   9   4   7 67.8283 6.40560   2
   9  -4  -7 61.1299 6.78888   1
  -9  -4   7 67.1628 7.70957   3
 -10  -4  -7 163.001 9.64485   1
  10   4  -7 159.724 10.1096   2
  10  -4   7 177.329 9.99233   1
 -10  -4  -7 141.509 12.0992   3
 -10   4   7 161.604 10.3210   2
  10   4   7 174.634 9.77697   2
 -10   4  -7 159.427 9.49491   2
  10  -4  -7 160.336 10.5098   1
 -10  -4   7 155.586 9.81527   1
  11   4  -7 328.982 14.0432   2
 -11   4   7 320.675 14.2443   2
 -11  -4  -7 323.399 13.5289   1
 -11  -4  -7 331.424 16.6089   3
  11  -4   7 328.209 13.8579   1
  11  -4  -7 315.980 14.2047   1
 -11  -4   7 322.560 14.1134   1
  11   4   7 299.937 13.1636   2
 -11   4  -7 325.980 13.4934   2
  12  -4   7 107.701 9.32420   1
  12   4  -7 106.362 9.49314   2
 -12  -4  -7 119.773 11.8317   3
 -12  -4  -7 103.711 9.07127   1
 -12   4   7 122.585 10.2063   2
  12   4   7 129.499 9.96261   2
  12  -4  -7 114.749 10.3531   1
 -12   4  -7 133.185 9.91535   2
 -12  -4   7 132.643 10.2787   1
 -13  -4  -7 56.0168 9.45691   3
  13   4  -7 73.6571 8.54986   2
 -13  -4  -7 72.6803 8.24641   1
 -13   4   7 61.8333 8.14207   2
  13  -4   7 61.6902 8.13717   1
  13   4   7 53.1613 7.64983   2
 -13  -4   7 70.8891 8.68521   1
  13  -4  -7 59.4915 8.16505   1
 -13   4  -7 63.3258 7.93707   2
 -14  -4  -7 19.8604 6.15288   1
 -14   4   7 36.7793 7.44442   2
  14   4  -7 31.0573 7.16328   2
  14  -4   7 29.8951 6.48718   1
 -14  -4  -7 33.2418 8.10895   3
 -14  -4   7 37.1689 7.54184   1
  14  -4  -7 16.6710 6.40396   1
 -14   4  -7 31.6043 6.86225   2
  14   4   7 16.5097 6.06514   2
 -15   4   7 30.9021 7.11326   2
  15   4  -7 22.4657 6.74425   2
 -15  -4  -7 22.4660 6.49588   1
  15  -4   7 38.2733 7.45989   1
 -15  -4  -7 32.2140 8.18064   3
  15   4   7 13.2930 6.24829   2
 -15   4  -7 31.7722 7.11767   2
 -15  -4   7 10.3922 6.01521   1
  15  -4  -7 27.1773 7.43752   1
   0   5   7 117.282 5.19936   2
   0  -5   7 136.137 5.70103   1
   0  -5   7 127.283 9.73562   3
   0  -5  -7 127.242 5.46692   1
   0   5  -7 119.913 5.48078   2
   0  -5  -7 113.637 9.17357   3
   0  -5  -7 111.826 7.94250   5
   0  -5   7 120.115 8.81595   6
   1   5  -7 260.187 7.89139   2
   1  -5   7 256.046 11.1204   5
   1  -5   7 249.294 8.00355   1
  -1  -5  -7 260.022 12.3928   3
   1  -5   7 250.911 11.7720   6
  -1   5   7 253.346 7.69271   2
  -1  -5  -7 248.983 7.63289   1
   1  -5   7 270.429 13.1390   3
  -1  -5  -7 262.484 11.1314   5
   1   5   7 242.939 7.42185   2
  -1  -5   7 257.888 7.94800   1
  -1   5  -7 251.157 7.78958   2
  -1  -5   7 243.351 12.3856   3
   1  -5  -7 247.482 11.0400   5
   1  -5  -7 246.314 11.4816   3
   1  -5  -7 259.582 7.95066   1
  -1  -5   7 251.740 11.8760   6
   2  -5   7 49.4004 7.22027   3
  -2  -5  -7 38.5216 5.49588   5
  -2  -5  -7 41.3408 3.62220   1
   2  -5   7 46.0629 6.23998   6
   2   5  -7 37.8644 3.66055   2
  -2   5   7 42.6553 3.83192   2
   2  -5   7 40.1465 4.00906   1
   2  -5   7 30.5213 5.35053   5
  -2  -5  -7 36.4266 6.55921   3
   2  -5  -7 35.8267 5.64874   5
   2  -5  -7 39.1136 5.73272   3
   2   5   7 38.0202 3.52139   2
  -2  -5   7 39.5360 6.59917   3
  -2  -5   7 41.8372 3.84705   1
   2  -5  -7 39.3904 3.85325   1
  -2   5  -7 41.7010 3.79535   2
   3  -5   7 203.048 7.61928   1
  -3  -5  -7 211.918 12.2553   3
  -3   5   7 204.989 7.78885   2
  -3  -5  -7 198.226 9.92040   5
   3   5  -7 202.334 7.57243   2
  -3  -5  -7 210.428 7.27438   1
   3  -5   7 218.946 11.8351   3
   3  -5   7 181.965 9.87754   5
   3  -5  -7 199.422 9.91315   3
  -3  -5   7 215.344 11.5840   3
  -3  -5   7 203.245 7.74558   1
   3  -5  -7 223.115 7.96859   1
  -3   5  -7 201.651 7.51498   2
   3   5   7 186.952 6.98678   2
  -4   5   7 91.8894 6.08280   2
  -4  -5  -7 92.2278 9.55780   3
  -4  -5  -7 99.7379 5.65857   1
   4  -5   7 97.9905 7.73182   5
   4   5  -7 90.3817 5.82550   2
   4  -5   7 104.398 9.69419   3
   4  -5   7 92.1815 5.89186   1
  -4  -5   7 101.036 6.09720   1
   4  -5  -7 98.1415 6.36209   1
   4   5   7 103.387 5.80905   2
  -4  -5   7 105.010 9.36804   3
  -4   5  -7 101.378 5.97308   2
   5   5  -7 257.855 9.52473   2
  -5  -5  -7 264.451 9.23761   1
   5  -5   7 261.727 9.46832   1
   5  -5   7 288.124 11.9395   5
  -5   5   7 257.752 9.73897   2
  -5  -5  -7 246.951 14.0557   3
  -5   5  -7 267.754 9.48589   2
   5   5   7 264.209 9.14884   2
   5  -5  -7 247.033 10.1090   1
  -5  -5   7 259.424 9.65264   1
  -5  -5   7 265.157 13.2595   3
   6  -5   7 -2.3171 3.58983   5
  -6  -5  -7 3.57677 5.32225   3
  -6  -5  -7 -0.0992 2.79756   1
   6   5  -7 -1.1323 3.20838   2
  -6   5   7 0.68652 3.33535   2
   6  -5   7 -4.8402 2.84731   1
  -6  -5   7 -3.6813 3.10940   1
   6   5   7 3.06661 3.08319   2
  -6   5  -7 4.00826 2.99453   2
  -6  -5   7 2.00699 4.87196   3
   6  -5  -7 0.59601 3.30425   1
   7  -5   7 19.2238 5.14422   5
   7  -5   7 4.82728 3.52960   1
  -7   5   7 12.2209 4.23957   2
  -7  -5  -7 24.3778 6.91355   3
  -7  -5  -7 10.8778 3.75324   1
   7   5  -7 11.4170 4.03132   2
   7   5   7 12.8871 3.85472   2
   7  -5  -7 20.7283 4.68221   1
  -7  -5   7 11.7069 3.97751   1
  -7  -5   7 10.6540 5.56718   3
  -7   5  -7 14.6266 3.83100   2
   8  -5   7 59.8425 6.48525   1
  -8  -5  -7 71.9639 6.42521   1
   8   5  -7 68.9358 6.75882   2
  -8   5   7 55.6283 6.40458   2
  -8  -5  -7 49.3677 8.58657   3
  -8  -5   7 60.5969 6.39251   1
  -8  -5   7 46.4414 7.47575   3
   8  -5  -7 47.0679 6.26258   1
   8   5   7 59.9050 6.04547   2
  -8   5  -7 69.3646 6.46384   2
   9   5  -7 30.1151 5.48030   2
  -9  -5  -7 34.2754 7.83555   3
   9  -5   7 50.0204 6.18580   1
  -9  -5  -7 46.8629 5.98621   1
  -9   5   7 37.0065 5.81609   2
   9   5   7 29.9827 5.07040   2
  -9  -5   7 47.0591 7.64739   3
   9  -5  -7 29.5018 5.69956   1
  -9  -5   7 36.5911 5.84109   1
  -9   5  -7 46.3031 5.83303   2
  10   5  -7 57.1808 6.91692   2
  10  -5   7 31.3531 5.91324   1
 -10   5   7 43.2995 6.51029   2
 -10  -5  -7 42.4095 6.11685   1
 -10  -5  -7 25.2703 7.69867   3
 -10  -5   7 53.3200 8.11439   3
 -10  -5   7 50.3371 6.63382   1
 -10   5  -7 35.4885 5.59461   2
  10   5   7 32.5722 5.37726   2
  10  -5  -7 38.7856 6.69323   1
 -11  -5  -7 50.4122 6.72279   1
  11   5  -7 63.3769 7.34084   2
  11  -5   7 68.0481 7.72126   1
 -11  -5  -7 62.7236 9.68499   3
 -11   5   7 74.6013 8.16571   2
 -11   5  -7 52.2609 6.82565   2
 -11  -5   7 44.4272 6.91530   1
  11   5   7 48.9202 6.52127   2
  11  -5  -7 69.9099 8.37352   1
 -12  -5  -7 39.9682 8.76196   3
  12  -5   7 31.7920 6.31072   1
  12   5  -7 18.3089 5.96836   2
 -12  -5  -7 19.9468 5.87690   1
 -12   5   7 24.5928 6.49247   2
 -12  -5   7 23.5002 6.11579   1
 -12   5  -7 27.3579 6.01692   2
  12  -5  -7 38.7429 6.97120   1
  12   5   7 29.1548 6.05020   2
 -13  -5  -7 -7.0422 6.21644   3
 -13   5   7 11.9624 5.71158   2
  13   5  -7 12.6337 6.02490   2
 -13  -5  -7 4.02186 5.05392   1
  13  -5   7 11.2430 5.73621   1
  13  -5  -7 2.28384 5.17022   1
 -13  -5   7 5.52605 5.22458   1
  13   5   7 6.61134 5.07709   2
 -13   5  -7 2.01316 4.81123   2
   0  -6  -7 2.58272 4.47314   5
   0  -6   7 3.43020 5.07888   3
   0   6  -7 -2.7773 2.20012   2
   0  -6  -7 1.00570 4.69635   3
   0   6   7 0.56373 2.36371   2
  -1  -6  -7 136.955 10.9347   3
   1   6  -7 119.233 5.71203   2
   1  -6   7 110.688 10.7415   3
  -1   6   7 124.931 5.85718   2
  -1  -6  -7 116.539 8.93011   5
   1  -6   7 123.972 9.31793   5
   1  -6  -7 108.974 9.19936   5
   1   6   7 116.450 5.50442   2
   1  -6  -7 111.441 9.73465   3
  -1   6  -7 119.228 5.68713   2
  -1  -6   7 127.800 11.3154   3
   2   6  -7 86.9889 5.41143   2
  -2  -6  -7 95.3679 9.83851   3
   2  -6   7 94.6514 8.64879   5
  -2   6   7 95.0532 5.62026   2
  -2  -6  -7 92.3209 8.48721   5
   2  -6   7 69.9294 8.84700   3
   2  -6  -7 84.2062 8.41547   3
   2   6   7 76.8624 4.97887   2
  -2   6  -7 86.1503 5.22573   2
   2  -6  -7 81.0630 8.36790   5
  -2  -6   7 93.1763 9.82772   3
   3  -6   7 5.29490 2.86424   1
   3  -6   7 5.29640 4.57221   5
  -3  -6  -7 -0.0482 5.51178   3
   3   6  -7 2.22533 2.87040   2
   3  -6   7 3.97918 5.52220   3
  -3   6   7 -1.1152 2.72274   2
   3   6   7 4.40800 2.65892   2
  -3  -6   7 13.8041 5.82054   3
  -3   6  -7 0.84768 2.69269   2
   3  -6  -7 -0.2063 4.14908   5
  -4  -6  -7 -7.1694 5.00087   3
   4   6  -7 -0.3366 2.94658   2
  -4   6   7 4.15121 3.26725   2
   4  -6   7 0.75172 4.52312   5
   4  -6   7 3.73564 2.86994   1
   4  -6   7 -6.6726 4.96744   3
   4  -6  -7 1.30572 3.35307   1
  -4  -6   7 0.23650 5.11405   3
   4   6   7 2.14909 2.78965   2
  -4   6  -7 5.60110 2.96326   2
   4  -6  -7 1.65618 4.63182   5
   5  -6   7 30.5074 4.53817   1
   5  -6   7 39.3027 6.89651   5
  -5  -6  -7 29.6855 7.62845   3
   5   6  -7 30.6412 4.55307   2
  -5   6   7 31.2072 4.87947   2
   5  -6  -7 30.7498 4.72909   1
  -5  -6   7 22.5453 6.93089   3
   5   6   7 28.4645 4.18091   2
  -5  -6   7 31.2198 4.56974   1
  -5   6  -7 33.3075 4.60675   2
  -6   6   7 24.9031 4.75985   2
   6  -6   7 28.3842 6.17742   5
  -6  -6  -7 24.9173 4.44372   1
  -6  -6  -7 27.0993 7.60861   3
   6   6  -7 26.8867 4.93858   2
   6  -6   7 27.7945 4.62827   1
   6   6   7 23.5581 4.34239   2
   6  -6  -7 34.9429 5.19558   1
  -6  -6   7 30.1064 4.80793   1
  -6   6  -7 34.9510 4.77751   2
  -6  -6   7 17.3918 6.58252   3
   7   6  -7 21.9909 4.85739   2
  -7  -6  -7 17.8326 7.24308   3
   7  -6   7 23.0946 6.17910   5
  -7   6   7 19.0525 4.73983   2
  -7  -6  -7 16.6194 4.13424   1
   7  -6   7 17.6330 4.42535   1
  -7  -6   7 13.4465 6.24703   3
   7  -6  -7 8.33560 4.13022   1
  -7   6  -7 14.6380 4.03810   2
  -7  -6   7 19.8081 4.55885   1
   7   6   7 20.4079 4.30973   2
  -8  -6  -7 129.934 12.9154   3
   8   6  -7 139.475 9.43246   2
  -8   6   7 153.871 9.79780   2
   8  -6   7 146.947 11.2044   5
  -8  -6  -7 159.820 9.02704   1
   8  -6   7 150.225 9.34288   1
  -8  -6   7 148.613 12.2572   3
   8   6   7 144.210 8.83129   2
   8  -6  -7 166.467 9.97255   1
  -8   6  -7 155.994 9.00717   2
  -8  -6   7 147.657 9.35161   1
   9  -6   7 31.0771 6.97347   5
  -9   6   7 25.7624 5.54657   2
  -9  -6  -7 37.2549 8.91003   3
   9   6  -7 37.9421 5.95859   2
   9  -6   7 37.8125 5.78212   1
  -9  -6  -7 37.9580 5.59684   1
  -9  -6   7 41.3099 6.22412   1
   9  -6  -7 26.7802 5.83240   1
  -9   6  -7 36.1583 5.77628   2
  -9  -6   7 35.5517 7.76297   3
   9   6   7 38.2335 5.72979   2
  10   6  -7 3.33060 4.75722   2
 -10   6   7 12.6819 5.16853   2
 -10  -6  -7 13.2715 7.15918   3
 -10  -6  -7 12.8191 4.94706   1
  10  -6   7 15.8081 6.15867   5
  10  -6   7 17.8498 5.27149   1
  10  -6  -7 14.4099 5.48753   1
  10   6   7 19.5612 5.18616   2
 -10   6  -7 20.9724 5.21597   2
 -10  -6   7 10.3753 6.30279   3
 -10  -6   7 12.7803 5.16132   1
  11  -6   7 -3.5710 4.49797   1
 -11  -6  -7 15.8153 7.21780   3
 -11   6   7 4.84987 5.10485   2
 -11  -6  -7 1.23447 4.46569   1
  11   6  -7 -2.4875 4.62498   2
  11  -6  -7 5.25952 5.12733   1
 -11  -6   7 4.23220 4.85440   1
  11   6   7 -0.3060 4.52933   2
 -11   6  -7 5.50612 4.53493   2
  12   6  -7 98.2369 9.60505   2
 -12   6   7 109.519 9.94134   2
 -12  -6  -7 109.216 9.87002   1
  12  -6   7 100.336 9.70037   1
 -12  -6  -7 88.6652 12.0797   3
  12   6   7 97.8934 9.08497   2
  12  -6  -7 108.406 10.2629   1
 -12  -6   7 98.4756 9.39556   1
 -12   6  -7 102.501 9.31558   2
   0  -7  -7 36.4166 6.99623   5
   0  -7  -7 56.7331 8.58569   3
   0  -7   7 50.8342 9.24490   3
   0   7  -7 54.1416 4.55503   2
   0   7   7 48.5744 4.27006   2
  -1  -7  -7 143.007 10.9183   5
  -1   7   7 124.229 6.32843   2
  -1  -7  -7 116.236 11.4072   3
   1  -7   7 134.514 12.5642   3
   1   7  -7 121.824 6.27672   2
  -1   7  -7 130.539 6.59192   2
   1  -7  -7 101.766 10.4875   3
   1  -7  -7 124.241 11.1442   5
   1   7   7 128.399 6.05983   2
  -1  -7   7 124.619 11.8676   3
  -2   7   7 27.3194 3.93709   2
  -2  -7  -7 25.5391 7.46639   3
   2  -7   7 27.3499 7.81758   3
   2   7  -7 26.4879 3.82162   2
   2  -7   7 11.2941 5.43426   5
  -2  -7  -7 24.5488 6.14978   5
  -2  -7   7 23.2557 7.25056   3
  -2   7  -7 23.1778 3.58861   2
   2   7   7 22.6583 3.39881   2
   2  -7  -7 22.8984 6.62133   5
  -3   7   7 116.565 6.98190   2
   3  -7   7 123.506 10.7567   5
  -3  -7  -7 133.027 12.7089   3
   3   7  -7 122.247 6.98150   2
   3  -7   7 123.032 12.0817   3
   3   7   7 124.584 6.25766   2
  -3  -7   7 122.783 12.0862   3
   3  -7  -7 105.461 10.4399   5
  -3   7  -7 125.954 6.68709   2
   4   7  -7 60.6989 5.60252   2
  -4  -7  -7 76.3443 10.5679   3
   4  -7   7 71.3439 8.96414   5
   4  -7   7 60.9506 9.64314   3
  -4   7   7 56.0623 5.51349   2
   4  -7  -7 66.6467 8.67353   5
   4   7   7 71.1049 5.47164   2
  -4   7  -7 59.1992 5.50878   2
  -4  -7   7 56.8719 9.04704   3
  -5  -7  -7 158.111 14.1769   3
  -5   7   7 152.256 8.44755   2
   5  -7   7 165.396 14.2891   3
   5   7  -7 159.149 8.63534   2
   5  -7   7 150.354 11.6610   5
   5   7   7 154.466 7.71306   2
  -5  -7   7 112.363 11.7058   3
   5  -7  -7 141.808 11.7771   5
  -5   7  -7 148.011 8.08643   2
  -6   7   7 -2.6250 3.57768   2
   6  -7   7 7.61204 5.59337   5
   6   7  -7 5.45612 4.04375   2
  -6  -7  -7 1.79101 6.52356   3
   6  -7  -7 3.28868 5.66065   5
  -6  -7   7 8.66841 6.72859   3
  -6   7  -7 -3.3208 3.52932   2
   6   7   7 -1.7252 3.30171   2
  -7  -7  -7 4.70056 6.82809   3
   7  -7   7 12.8236 6.28807   5
  -7   7   7 18.5910 5.00389   2
   7   7  -7 14.1733 4.90527   2
  -7   7  -7 13.6820 4.43558   2
   7   7   7 13.6748 4.19386   2
  -7  -7   7 16.3109 7.11741   3
  -8  -7  -7 13.4444 7.46066   3
   8   7  -7 21.1917 5.46975   2
   8  -7   7 35.6340 5.95174   1
  -8   7   7 20.6836 5.28584   2
   8  -7   7 35.3294 7.57512   5
  -8  -7   7 20.2968 7.45156   3
  -8   7  -7 24.5547 5.15171   2
   8   7   7 27.1559 5.21085   2
   9  -7   7 17.7552 6.74835   5
  -9  -7  -7 30.0016 8.76648   3
   9  -7   7 32.1967 6.04945   1
   9   7  -7 10.0674 5.13837   2
  -9   7   7 26.4440 5.80041   2
  -9  -7   7 24.2363 8.00216   3
   9   7   7 16.3431 5.09383   2
  -9   7  -7 19.1695 5.00479   2
   9  -7  -7 9.93573 5.43111   1
   0   8  -7 2.91089 3.04797   2
   0  -8  -7 -9.9035 5.63830   3
   0  -8  -7 2.20343 5.65914   5
   0  -8   7 8.67372 7.07360   3
   1   8  -7 20.9844 3.63280   2
  -1  -8  -7 12.7515 6.24307   5
   1  -8   7 20.0553 8.02337   3
  -1  -8  -7 13.7359 7.35665   3
  -1   8  -7 21.2035 3.67065   2
   1  -8  -7 22.6540 7.83549   3
   1  -8  -7 12.8659 6.56253   5
  -1  -8   7 22.4366 8.21887   3
   2   8  -7 0.14849 3.11785   2
   2  -8   7 -3.3621 6.61570   3
  -2  -8  -7 -3.8838 6.70504   3
  -2   8  -7 -0.4787 3.20022   2
   2  -8  -7 -1.9230 5.40276   5
  -2  -8   7 -4.8693 5.68773   3
   3  -8   7 45.7589 8.38227   5
   3   8  -7 66.2906 5.73842   2
  -3  -8  -7 80.6561 11.3364   3
  -3   8   7 67.7395 5.72300   2
   3  -8   7 62.9022 10.5705   3
  -3  -8   7 66.3454 10.1364   3
  -3   8  -7 73.3437 5.78440   2
   3  -8  -7 57.1787 9.69403   5
   4   8  -7 592.044 16.1458   2
  -4   8   7 574.298 16.0407   2
  -4  -8  -7 597.388 25.1896   3
   4  -8   7 620.180 25.3410   3
   4  -8   7 630.469 23.0561   5
  -4  -8   7 600.039 24.8586   3
  -4   8  -7 627.715 16.2135   2
   4  -8  -7 532.488 22.3940   5
   5   8  -7 338.347 12.2189   2
  -5   8   7 314.161 11.8175   2
  -5  -8  -7 338.836 19.9557   3
   5  -8   7 329.985 17.2275   5
  -5  -8   7 321.387 19.1442   3
   5  -8  -7 315.289 17.2662   5
  -5   8  -7 325.534 11.8644   2
   5   8   7 342.293 11.1208   2
   0   0  -8 1280.73 25.2298   4
   0   0   8 1236.08 25.1729   4
   1   0  -8 19.4433 2.81867   4
  -1   0   8 24.1923 3.10279   4
  -1   0  -8 29.6421 3.09018   4
   1   0   8 25.4713 2.94884   4
  -2   0   8 76.0155 4.92975   4
   2   0  -8 77.2882 5.00720   4
   2   0   8 80.7395 4.88215   4
  -2   0  -8 96.3427 4.82269   4
   3   0  -8 492.315 12.7061   4
  -3   0  -8 487.628 12.2678   4
  -3   0   8 489.237 12.7098   4
   3   0   8 506.427 12.4451   4
  -4   0   8 784.927 18.4023   1
  -4   0  -8 784.656 18.0348   1
   4   0  -8 826.011 18.5021   4
   4   0   8 778.086 18.2203   1
   4   0   8 774.839 17.7533   4
   4   0  -8 755.749 18.2603   1
  -4   0   8 770.280 18.2134   4
  -4   0  -8 822.241 17.8710   4
   5   0  -8 164.982 7.46844   4
   5   0   8 156.002 7.11779   1
   5   0   8 161.344 6.93629   4
   5   0  -8 162.674 6.83507   7
   5   0   8 164.989 6.51784   7
   5   0  -8 172.336 7.67708   1
  -5   0  -8 160.585 7.16610   1
  -5   0  -8 158.655 6.80147   4
  -5   0   8 151.481 7.27296   4
   5   0   8 163.501 7.01538   2
  -5   0   8 151.866 6.78435   7
   6   0   8 289.624 9.49732   2
   6   0  -8 289.939 9.96531   2
  -6   0  -8 287.364 9.35127   2
  -6   0   8 276.231 10.0266   2
  -6   0  -8 281.470 9.93859   1
   6   0   8 269.888 9.56444   1
  -6   0   8 285.110 10.3707   1
   6   0  -8 287.479 10.0742   4
   6   0  -8 271.326 10.2630   1
   6   0   8 280.696 9.01202   7
   6   0   8 287.909 9.59429   4
   6   0  -8 282.042 9.48474   7
  -6   0   8 272.463 9.36536   7
  -6   0  -8 283.432 9.43178   4
  -6   0   8 268.524 9.89648   4
   7   0   8 224.092 8.78691   4
   7   0   8 228.471 8.52662   7
  -7   0   8 236.836 10.0153   1
   7   0  -8 241.504 9.08425   7
   7   0  -8 243.924 10.0064   1
  -7   0   8 239.174 9.02098   7
  -7   0  -8 241.250 9.69918   1
   7   0  -8 240.041 9.51586   2
   7   0   8 237.275 9.29481   1
   7   0   8 264.437 9.44769   2
  -7   0   8 238.613 9.66933   4
  -7   0  -8 242.168 9.06832   2
  -8   0   8 208.432 9.45230   2
  -8   0   8 204.272 8.79086   7
  -8   0   8 203.326 9.49543   1
  -8   0  -8 191.735 9.08779   1
   8   0  -8 204.698 9.34220   2
   8   0  -8 208.084 9.92936   1
   8   0   8 184.058 9.13254   1
   8   0   8 213.451 8.93748   2
   8   0  -8 195.007 8.55830   7
   8   0   8 210.998 8.36139   7
  -8   0  -8 194.024 8.62770   2
  -9   0   8 11.7182 3.72445   7
   9   0  -8 10.2763 4.19180   1
  -9   0  -8 3.50660 3.43814   1
   9   0   8 8.86601 3.44559   7
   9   0   8 13.4558 3.89959   2
   9   0   8 9.41918 3.99966   1
  -9   0   8 7.00257 3.97174   1
   9   0  -8 7.48812 3.53833   7
  -9   0   8 0.73877 3.52471   2
   9   0  -8 10.4234 3.93509   2
  10   0   8 159.251 8.94421   2
 -10   0   8 149.410 9.37644   1
  10   0  -8 147.285 8.58939   7
 -10   0  -8 154.707 9.30020   1
  10   0   8 150.365 9.45706   1
 -10   0   8 169.155 8.91592   7
  10   0   8 162.377 8.64703   7
  10   0  -8 160.468 10.1221   1
 -11   0   8 556.406 18.1753   1
 -11   0  -8 521.668 17.4079   1
  11   0   8 503.710 15.5310   7
  11   0  -8 515.433 15.9562   7
  11   0   8 507.259 17.0656   1
 -11   0   8 521.342 16.0526   7
  11   0  -8 551.903 18.3877   1
 -12   0   8 446.077 14.9285   7
 -12   0  -8 438.777 16.4011   1
 -12   0   8 470.152 17.3352   1
  12   0   8 448.543 16.5520   1
  12   0  -8 449.566 15.1786   7
  12   0   8 415.856 14.6763   7
  12   0  -8 432.006 17.1632   1
  13   0  -8 62.9217 8.42962   1
 -13   0   8 50.4188 6.48645   7
  13   0   8 48.6660 7.49381   1
 -13   0   8 57.5967 7.97785   1
  13   0  -8 50.9252 6.47454   7
  13   0   8 61.8831 7.01666   7
 -13   0  -8 74.2485 8.55296   1
 -14   0   8 280.993 14.7915   1
  14   0  -8 262.088 14.9016   1
 -14   0   8 262.760 12.6294   7
  14   0   8 268.007 14.1899   1
  14   0   8 255.437 12.5406   7
 -14   0  -8 255.187 13.8185   1
  14   0  -8 251.007 12.4671   7
 -15   0  -8 254.818 14.7406   1
  15   0  -8 273.430 15.8445   1
 -15   0   8 277.156 15.4617   1
  15   0  -8 311.667 13.8812   7
 -15   0   8 276.466 13.1977   7
  15   0   8 277.474 13.5685   7
  16   0   8 18.7241 6.24040   7
 -16   0  -8 28.4691 7.19346   1
 -16   0   8 20.5388 5.92562   7
 -16   0   8 20.6441 7.29043   1
  16   0  -8 10.9131 5.53110   7
   0   1  -8 0.68282 1.98317   4
   0   1   8 -0.1945 1.86201   4
   0  -1  -8 -3.1141 1.64553   4
   0  -1   8 2.14106 2.00781   4
   1  -1   8 98.0972 4.98523   4
   1   1  -8 95.9524 5.15538   4
  -1  -1  -8 94.7937 4.57642   4
  -1   1   8 90.5511 5.00554   2
  -1   1   8 102.609 5.04714   4
  -1  -1   8 89.2641 5.03795   4
   1   1   8 84.2881 4.82734   2
  -1   1  -8 93.0839 4.94100   4
   1   1   8 95.8096 4.89348   4
   1  -1  -8 99.8470 4.76357   4
   2  -1   8 12.4966 2.77771   1
   2  -1   8 10.9614 2.32249   4
  -2  -1  -8 10.7023 2.72470   1
   2   1  -8 11.2615 2.66369   2
  -2   1   8 8.52712 2.55869   2
  -2  -1  -8 8.43059 2.20211   4
  -2   1   8 9.72123 2.45670   4
   2   1  -8 14.3605 2.68974   4
   2   1   8 9.64331 2.43396   2
   2  -1  -8 12.8007 2.98912   1
  -2   1  -8 12.7603 2.47152   2
  -2   1  -8 8.88804 2.25792   4
   2   1   8 8.14043 2.30425   4
  -2  -1   8 11.9057 2.89587   1
  -2  -1   8 7.08595 2.45116   4
   2  -1  -8 14.2676 2.50273   4
  -3  -1  -8 61.2020 4.16438   4
  -3   1   8 65.3449 4.84324   4
   3   1  -8 70.0430 4.71652   2
  -3   1   8 62.0382 4.91993   2
  -3  -1  -8 66.7533 4.77317   1
   3   1  -8 56.2497 4.41422   4
   3  -1   8 71.8868 4.56647   4
   3  -1   8 58.1173 4.59272   1
   3   1   8 59.2793 4.58528   2
  -3  -1   8 70.2364 4.96078   4
  -3  -1   8 59.2704 4.69766   1
   3  -1  -8 72.5004 5.23327   1
   3   1   8 54.9884 4.41919   4
  -3   1  -8 68.9328 4.51373   2
  -3   1  -8 73.1579 4.56425   4
   3  -1  -8 64.4939 4.49914   4
  -4  -1  -8 50.6186 4.08220   4
  -4  -1  -8 52.9307 4.45605   1
  -4   1   8 43.9704 4.20971   4
   4  -1   8 45.0533 4.19683   1
   4   1  -8 55.4634 4.56720   4
   4  -1   8 43.8785 3.80133   4
   4  -1   8 50.1732 3.81174   7
  -4   1   8 48.6447 4.51014   2
   4   1  -8 49.6538 4.37008   2
   4  -1  -8 54.8931 4.24257   7
   4   1   8 46.2946 4.04964   4
  -4  -1   8 56.4289 5.01506   1
  -4   1  -8 51.9131 4.27471   4
   4   1   8 50.9081 4.29140   2
   4  -1  -8 54.1884 4.86472   1
  -4  -1   8 52.9607 4.40793   4
  -4   1  -8 53.9796 4.33696   2
  -4  -1   8 50.4896 4.12636   7
   4  -1  -8 48.6041 4.17747   4
   5  -1   8 162.941 7.29855   1
  -5   1   8 154.097 7.24677   2
   5  -1   8 157.658 6.34072   7
   5  -1   8 152.969 6.55683   4
   5   1  -8 154.098 7.13178   2
  -5  -1  -8 158.603 7.09434   1
  -5   1   8 170.881 7.51422   4
   5  -1  -8 154.198 7.00879   4
   5   1   8 159.352 6.86142   4
  -5  -1   8 158.975 6.58421   7
  -5   1  -8 157.585 7.16984   1
  -5  -1   8 176.325 7.40060   4
  -5   1  -8 163.445 6.88827   2
  -5  -1   8 164.365 7.73376   1
   5  -1  -8 163.866 6.69782   7
   5   1   8 160.230 6.83120   2
   5  -1  -8 157.736 7.62521   1
   6   1  -8 3.39415 2.98239   1
   6  -1   8 5.40926 2.48935   7
  -6   1   8 2.61757 2.65402   4
  -6  -1  -8 2.78939 2.62165   1
  -6   1   8 6.84338 2.87899   7
  -6   1   8 9.17693 3.24511   2
   6  -1   8 0.33499 2.63076   1
   6   1  -8 10.1548 3.08587   2
  -6   1   8 4.51965 2.98435   1
   6   1  -8 5.43060 2.82790   7
   6  -1   8 3.50391 2.30532   4
  -6   1  -8 9.82139 2.83825   2
  -6  -1   8 0.05764 2.69231   1
   6  -1  -8 5.95719 3.20133   1
  -6  -1   8 4.24105 2.66368   7
   6   1   8 1.40559 2.45685   7
   6  -1  -8 1.86533 2.44601   4
  -6   1  -8 6.41940 3.00642   1
  -6  -1   8 3.05635 2.64055   4
   6   1   8 3.50331 2.74098   1
   6   1   8 1.65905 2.39026   4
   6   1   8 3.17155 2.59639   2
   6  -1  -8 0.62716 2.46662   7
   7   1  -8 1.53905 2.93898   7
  -7  -1  -8 1.67086 2.98115   1
   7  -1   8 -1.9681 2.57275   1
  -7   1   8 2.45533 3.06397   1
   7  -1   8 -1.9579 2.19514   4
   7  -1   8 1.49453 2.51885   7
   7   1  -8 -0.9776 2.99504   1
  -7   1   8 3.81148 3.14182   2
   7   1  -8 1.18129 2.95771   2
  -7   1   8 -0.0120 2.85689   7
  -7   1   8 6.43303 3.05716   4
   7  -1  -8 0.84119 2.58288   4
  -7   1  -8 0.08477 2.85593   1
   7  -1  -8 -1.5960 2.46732   7
  -7  -1   8 -6.1338 2.62180   1
  -7   1  -8 -2.5496 2.31372   2
  -7  -1   8 2.70125 2.68020   7
   7   1   8 1.41005 2.43286   4
   7  -1  -8 0.25313 3.07957   1
   7   1   8 0.04484 2.64817   2
   7   1   8 -1.1267 2.49019   7
   7   1   8 1.87384 2.96218   1
  -8   1   8 557.671 16.2296   2
   8   1  -8 555.112 15.2255   7
   8  -1   8 571.872 14.4842   7
   8   1  -8 567.058 16.8126   1
  -8  -1  -8 567.570 16.3473   1
  -8   1   8 545.256 16.4372   1
   8   1  -8 585.723 16.2472   2
  -8   1   8 581.024 15.5710   7
   8  -1   8 575.543 16.2576   1
   8  -1  -8 575.955 15.0042   7
  -8  -1   8 559.125 14.7308   7
  -8  -1   8 565.878 16.8229   1
  -8   1  -8 590.766 15.7371   2
   8   1   8 576.795 14.9044   7
   8  -1  -8 560.264 17.1449   1
   8   1   8 556.341 16.1059   1
  -8   1  -8 566.447 16.3064   1
   8   1   8 589.961 15.9031   2
  -9  -1  -8 5.74577 3.60244   1
   9  -1   8 3.05332 3.03075   7
   9   1  -8 7.94420 3.97712   1
  -9   1   8 1.86767 3.65949   1
   9  -1   8 6.24218 3.75000   1
   9   1  -8 10.8643 4.07253   2
  -9   1   8 10.0211 3.89579   2
  -9   1   8 6.43885 3.73593   7
   9   1  -8 8.60689 3.61818   7
   9   1   8 10.2126 3.48069   7
  -9  -1   8 8.59556 3.88766   1
  -9  -1   8 0.82938 3.12396   7
  -9   1  -8 2.92080 3.51323   1
   9  -1  -8 16.5920 4.49871   1
  -9   1  -8 7.03317 3.58109   2
   9  -1  -8 4.17852 3.33024   7
   9   1   8 4.69556 3.91994   1
   9   1   8 12.6465 3.86397   2
  10  -1   8 310.953 12.7183   1
 -10   1   8 308.526 11.9650   7
 -10  -1  -8 330.506 12.8527   1
  10   1  -8 312.840 11.8502   7
  10   1  -8 321.712 13.2982   1
  10  -1   8 326.761 11.1151   7
 -10   1   8 339.348 12.9754   2
  10   1  -8 313.786 12.5946   2
 -10   1   8 331.283 13.2447   1
 -10   1  -8 334.307 12.9638   1
  10  -1  -8 318.661 11.5868   7
  10   1   8 303.441 12.2132   2
 -10  -1   8 314.858 11.2731   7
  10  -1  -8 301.872 13.2615   1
 -10  -1   8 327.721 13.3559   1
 -10   1  -8 317.259 12.1577   2
  10   1   8 297.652 11.3240   7
  10   1   8 322.072 12.8424   1
 -11  -1  -8 336.694 13.7894   1
 -11   1   8 359.558 13.2766   7
  11  -1   8 362.648 14.1801   1
 -11   1   8 347.919 13.9349   2
  11   1  -8 364.675 14.9027   1
  11   1  -8 362.097 13.2379   7
  11  -1   8 343.946 12.2358   7
 -11   1   8 354.774 14.5643   1
  11   1  -8 365.672 14.1206   2
 -11  -1   8 341.193 14.4881   1
 -11   1  -8 368.487 14.4286   1
  11   1   8 363.194 12.8950   7
  11  -1  -8 350.958 12.6618   7
 -11  -1   8 379.414 12.6534   7
  11   1   8 350.891 13.6337   2
 -11   1  -8 336.780 13.3313   2
  11  -1  -8 350.067 14.5906   1
  12  -1   8 164.063 9.35440   7
  12   1  -8 153.668 10.6504   2
  12  -1   8 135.377 10.0193   1
 -12   1   8 155.438 10.9931   1
 -12  -1  -8 148.125 10.1593   1
  12   1  -8 148.195 9.74445   7
 -12   1   8 153.782 9.94599   7
  12  -1  -8 138.823 9.32237   7
  12   1   8 175.751 10.6956   2
  12   1   8 155.549 9.58755   7
 -12  -1   8 152.354 11.0218   1
  12  -1  -8 169.332 11.5967   1
 -12   1  -8 151.783 10.4090   1
 -12  -1   8 148.824 8.99694   7
  13  -1   8 3.22840 4.78742   1
  13  -1   8 5.38360 4.36234   7
 -13   1   8 -2.9786 4.18111   7
  13   1  -8 2.22849 4.28802   7
 -13  -1  -8 2.90787 4.74775   1
  13  -1  -8 1.55292 5.18801   1
 -13   1  -8 -1.3521 4.79893   1
  13  -1  -8 1.85520 4.07150   7
 -13  -1   8 6.72014 4.47946   7
  13   1   8 4.47685 5.32014   2
 -13  -1   8 3.83538 5.20668   1
  13   1   8 -0.1713 4.29932   7
 -14   1   8 24.1559 6.01167   7
  14  -1   8 19.7315 5.21087   7
  14   1  -8 29.5234 6.13289   7
  14  -1   8 28.3459 6.68834   1
 -14  -1  -8 18.5607 6.01982   1
 -14  -1   8 29.1051 7.13322   1
  14   1   8 7.08044 5.06747   7
  14  -1  -8 28.3227 7.19041   1
  14  -1  -8 28.7608 5.69675   7
 -14  -1   8 26.5380 5.60573   7
  15  -1   8 127.358 11.7977   1
 -15  -1  -8 127.797 11.4650   1
 -15   1   8 151.977 11.1348   7
  15  -1   8 151.606 10.4186   7
  15   1  -8 160.503 11.3175   7
  15  -1  -8 135.184 9.98825   7
 -15  -1   8 138.276 12.0943   1
  15  -1  -8 145.558 12.6722   1
 -15  -1   8 150.206 9.83680   7
  15   1   8 142.750 10.9446   7
  16   1  -8 313.965 15.3100   7
 -16   1   8 362.442 15.7597   7
 -16  -1  -8 343.265 17.2471   1
  16  -1   8 329.568 17.3410   1
  16  -1   8 346.874 14.7923   7
 -16  -1   8 349.756 14.1449   7
  16  -1  -8 349.561 18.1343   1
 -16  -1   8 343.746 17.5912   1
  16  -1  -8 341.452 14.5570   7
  16   1   8 333.633 15.4770   7
   0   2  -8 126.326 5.65793   4
   0   2  -8 118.794 5.30706   2
   0   2   8 135.563 5.40357   4
   0  -2  -8 134.408 4.32146   4
   0  -2   8 123.032 4.97325   4
   0  -2   8 122.346 7.23393   3
   0   2   8 131.259 5.45625   2
   0  -2   8 134.875 5.74587   1
   0  -2  -8 134.278 5.79769   1
   1   2  -8 509.501 11.8898   2
  -1   2   8 497.447 12.0704   4
   1   2  -8 507.299 12.5018   4
   1  -2   8 505.282 11.5644   4
   1  -2   8 498.842 12.4335   1
  -1  -2  -8 500.740 11.7041   5
  -1  -2  -8 510.073 10.7532   4
  -1   2   8 505.780 11.9892   2
   1   2   8 497.364 11.9803   4
   1   2   8 490.350 11.8026   2
  -1   2  -8 498.040 11.8432   2
   1  -2  -8 490.637 10.7566   4
  -1  -2   8 517.932 11.6202   4
  -1  -2   8 498.462 12.4480   1
   1  -2  -8 512.717 12.6880   1
  -1   2  -8 497.885 12.2659   4
  -1  -2   8 490.733 14.0847   3
   2  -2   8 23.9018 2.83843   5
  -2   2   8 22.6273 3.01432   2
   2   2  -8 18.8513 2.89345   2
  -2  -2  -8 17.2497 2.92542   1
   2  -2   8 20.9604 3.08503   1
   2   2  -8 18.9129 2.86311   4
  -2   2   8 20.4646 2.78220   4
   2  -2   8 21.0469 2.63197   4
  -2  -2  -8 17.0516 2.54747   5
   2  -2  -8 17.5118 2.14775   4
   2   2   8 19.8953 2.78924   2
  -2  -2   8 23.4222 2.69236   4
  -2  -2   8 22.0282 3.79396   3
  -2   2  -8 23.1778 2.93035   2
  -2  -2   8 23.7602 3.30719   1
  -2   2  -8 21.6174 2.78936   4
   2   2   8 14.5288 2.57473   4
   2  -2  -8 19.9579 3.19505   1
   3  -2   8 1176.36 23.3603   5
  -3   2   8 1149.11 23.3598   2
   3  -2   8 1170.13 23.0359   4
   3  -2   8 1147.64 23.9576   1
  -3   2   8 1131.91 24.0020   4
   3   2  -8 1151.92 23.2631   2
   3   2  -8 1151.53 24.3953   4
  -3  -2  -8 1111.95 23.8190   1
  -3   2  -8 1136.32 23.1705   2
   3   2   8 1156.95 23.1413   2
  -3  -2   8 1163.30 23.1779   4
  -3   2  -8 1151.51 23.9119   4
   3  -2  -8 1164.51 24.4573   1
   3   2   8 1142.41 23.7087   4
  -3  -2   8 1141.10 24.2029   1
  -3  -2   8 1140.38 25.3835   3
   3  -2  -8 1149.11 22.6353   4
   4  -2   8 396.254 10.0939   5
  -4   2   8 365.460 10.9527   2
   4  -2   8 389.972 10.0787   4
  -4  -2  -8 380.474 10.9245   1
   4  -2   8 390.824 10.1975   4
   4  -2   8 385.900 9.11677   7
   4  -2   8 397.938 11.2412   1
  -4   2   8 393.328 11.2061   4
   4   2  -8 380.618 10.7131   2
  -4  -2   8 393.859 11.6568   3
   4  -2  -8 374.601 11.5444   1
   4  -2  -8 389.733 9.99714   4
  -4   2  -8 374.848 10.6620   2
   4   2   8 387.568 10.5745   2
  -4  -2   8 360.914 11.2855   1
   4   2   8 373.280 10.6931   4
  -4  -2   8 386.531 10.2700   4
   5  -2   8 1872.01 33.8887   7
  -5   2   8 1867.91 37.9490   4
   5  -2   8 1909.04 36.5847   4
   5  -2   8 1915.77 36.7543   4
  -5  -2  -8 1905.14 37.3966   1
   5   2  -8 1927.36 36.7723   2
   5  -2   8 1920.71 37.7434   1
  -5   2   8 1863.72 36.8424   2
  -5   2  -8 1901.04 36.4127   2
  -5  -2   8 1916.97 36.6872   4
   5  -2  -8 1923.47 38.3927   1
   5  -2  -8 1866.53 36.5143   4
  -5  -2   8 1862.87 33.6746   7
  -5  -2   8 1925.66 38.1904   1
   5   2   8 1839.55 36.2465   2
  -5  -2   8 1868.65 38.1843   3
   5   2   8 1870.63 37.4420   4
   5  -2  -8 1896.89 33.9729   7
   6  -2   8 368.075 10.3663   4
   6  -2   8 363.977 9.40014   7
  -6   2   8 341.112 11.4294   2
   6  -2   8 369.327 10.6205   4
   6   2  -8 356.440 11.4880   2
  -6   2   8 358.696 11.6786   4
  -6  -2  -8 338.353 11.1862   1
   6  -2   8 362.702 11.6792   1
   6   2   8 341.029 10.8562   2
  -6   2  -8 342.735 10.9050   2
  -6   2  -8 345.180 10.3157   7
  -6  -2   8 359.222 11.9858   1
   6  -2  -8 352.431 9.65511   7
  -6  -2   8 355.774 10.5205   4
   6   2   8 345.492 11.0025   4
   6  -2  -8 358.061 12.1524   1
  -6  -2   8 355.052 10.9361   3
  -6  -2   8 363.425 9.24591   7
   7   2  -8 236.649 9.00458   7
  -7   2   8 217.478 9.43556   4
  -7   2   8 215.947 9.36077   2
  -7  -2  -8 205.274 9.11884   1
  -7   2   8 211.187 8.89600   7
   7  -2   8 203.229 7.31104   7
   7  -2   8 207.697 9.22241   1
   7   2  -8 198.584 9.00649   2
  -7  -2   8 209.742 8.32016   4
   7  -2  -8 223.433 9.93375   1
  -7  -2   8 214.018 9.58291   1
  -7   2  -8 222.993 8.45204   7
   7  -2  -8 222.130 8.00550   7
   7   2   8 231.120 8.61485   7
   7   2   8 222.160 8.94933   4
  -7  -2   8 218.874 7.36768   7
   7   2   8 224.022 9.02723   2
  -7   2  -8 208.151 8.89887   2
  -8  -2  -8 29.1027 4.47397   1
   8   2  -8 18.0166 3.83737   7
  -8   2   8 19.7663 4.27888   7
   8   2  -8 15.0196 4.17027   2
  -8   2   8 17.5335 4.19881   2
   8  -2   8 19.5581 3.42406   7
   8  -2   8 23.7974 4.34171   1
   8   2   8 18.4652 4.11583   2
  -8  -2   8 20.5253 4.40230   1
  -8   2  -8 23.8201 4.13300   7
   8  -2  -8 21.7715 4.70090   1
   8   2   8 17.1016 3.79055   4
   8  -2  -8 19.9649 3.66270   7
  -8  -2   8 15.6186 3.24001   7
   8   2   8 24.4679 4.12803   7
  -8   2  -8 27.3371 4.25520   2
   9  -2   8 6.11055 3.05752   7
  -9   2   8 1.36273 3.55128   2
   9   2  -8 0.78437 3.34427   7
   9   2  -8 -2.7318 3.28913   2
  -9   2   8 4.16027 3.39633   7
   9  -2   8 -1.3901 3.35672   1
  -9  -2  -8 1.54851 3.45341   1
  -9   2  -8 -1.6887 3.24261   2
  -9  -2   8 3.97824 3.77692   1
  -9   2  -8 1.57452 3.00170   7
   9  -2  -8 3.62466 2.97070   7
   9  -2  -8 0.38727 3.61758   1
   9   2   8 5.56008 3.49757   2
   9   2   8 -1.4052 3.08428   7
  -9  -2   8 -1.2526 2.80365   7
  10   2  -8 38.7055 5.63115   7
  10   2  -8 38.9415 5.82595   2
  10  -2   8 37.3703 4.62484   7
  10  -2   8 35.6715 5.57343   1
 -10   2   8 33.8762 5.50514   7
 -10  -2  -8 33.2298 5.51121   1
 -10   2   8 39.9501 5.82516   2
 -10  -2   8 28.3172 4.13219   7
 -10  -2   8 32.7012 5.92057   1
  10  -2  -8 35.8291 6.22043   1
  10   2   8 45.5686 5.51498   7
 -10   2  -8 34.4265 5.31465   2
  10  -2  -8 31.4175 4.52892   7
 -10   2  -8 27.0204 4.76124   7
  10   2   8 38.4763 5.54047   2
 -11  -2  -8 318.545 13.6600   1
  11   2  -8 356.989 14.2203   2
  11  -2   8 341.436 14.1995   1
  11   2  -8 342.508 13.1113   7
 -11   2   8 314.832 13.8027   2
 -11   2   8 354.405 13.4278   7
  11  -2   8 346.486 11.6073   7
 -11  -2   8 349.531 14.4718   1
  11   2   8 338.416 12.8782   7
  11   2   8 355.835 13.7768   2
  11  -2  -8 340.444 11.7641   7
 -11   2  -8 342.474 13.4067   2
  11  -2  -8 358.711 15.0006   1
 -11   2  -8 358.941 13.0385   7
 -11  -2   8 342.130 11.1993   7
 -12   2   8 794.006 21.9274   7
 -12  -2  -8 762.244 23.1717   1
  12   2  -8 781.139 21.7794   7
  12  -2   8 779.208 23.3644   1
  12   2  -8 822.468 23.2596   2
 -12   2   8 809.780 23.2292   2
  12  -2   8 764.552 19.5908   7
  12  -2  -8 792.510 24.1713   1
 -12  -2   8 811.656 24.0239   1
  12   2   8 772.497 21.4748   7
  12  -2  -8 772.123 19.8841   7
  12   2   8 855.153 23.1256   2
 -12  -2   8 799.905 19.2622   7
 -12   2  -8 821.350 21.6233   7
 -12   2  -8 802.572 22.4897   2
  13   2  -8 99.4705 8.95044   7
  13  -2   8 98.9482 9.39089   1
 -13   2   8 102.260 8.94048   7
 -13   2   8 94.7134 9.58930   2
  13   2  -8 94.7938 9.25353   2
  13  -2   8 101.849 7.74863   7
 -13  -2  -8 102.385 9.61143   1
 -13  -2  -8 88.6774 10.0545   3
  13   2   8 102.133 9.29843   2
  13  -2  -8 80.2832 9.20477   1
 -13  -2   8 93.6982 7.22559   7
 -13   2  -8 115.268 9.40315   7
  13   2   8 91.1853 8.44825   7
 -13   2  -8 108.686 9.47280   2
  13  -2  -8 86.5883 7.50561   7
 -13  -2   8 95.5184 9.64455   1
  14   2  -8 19.6910 6.50505   2
  14  -2   8 39.3652 7.30814   1
 -14   2   8 32.1980 6.87684   7
 -14  -2  -8 20.1632 5.92554   1
 -14  -2  -8 18.9402 6.93343   3
  14  -2   8 41.1545 5.90206   7
  14   2  -8 25.0918 6.04909   7
 -14   2  -8 43.8600 6.91998   7
 -14  -2   8 28.9225 5.11221   7
 -14  -2   8 37.5739 7.41643   1
  14  -2  -8 20.3945 5.04096   7
  14   2   8 39.3736 6.79041   7
  14  -2  -8 31.7844 7.25660   1
  14   2   8 18.5229 6.23590   2
 -15  -2  -8 63.6842 9.61014   3
 -15   2   8 55.8644 7.70686   7
  15  -2   8 76.2887 7.59748   7
 -15  -2  -8 67.7749 8.88305   1
  15   2  -8 84.3415 8.81960   7
  15  -2   8 90.3485 10.1582   1
  15  -2  -8 74.1861 7.20590   7
  15  -2  -8 67.9951 9.67102   1
 -15  -2   8 55.9525 8.71159   1
  15   2   8 96.6786 10.2313   2
  15   2   8 67.8722 8.46625   7
 -15  -2   8 65.5522 6.62242   7
  16  -2   8 282.549 16.5031   1
 -16   2   8 333.993 15.3198   7
 -16  -2  -8 306.571 16.5024   1
  16  -2   8 333.748 13.6878   7
  16   2  -8 329.687 15.3169   7
  16   2   8 315.550 15.6008   7
 -16  -2   8 318.994 17.2939   1
  16  -2  -8 303.564 17.2130   1
  16  -2  -8 327.133 13.2731   7
   0   3  -8 -1.0641 1.89533   2
   0   3   8 -1.7151 1.71511   4
   0  -3  -8 -1.0840 2.93632   3
   0  -3   8 -0.3496 2.05557   1
   0   3  -8 -2.3048 1.78844   4
   0  -3  -8 -3.3899 1.89577   1
   0  -3   8 1.75726 3.44799   3
   0   3   8 0.36593 1.92234   2
  -1   3   8 60.6222 4.10124   4
  -1  -3  -8 54.5546 5.83995   3
   1  -3   8 65.4210 4.48203   1
   1   3  -8 62.8797 4.58343   4
  -1  -3  -8 58.2179 4.30901   1
   1   3  -8 61.7002 4.09084   2
   1  -3   8 45.6153 5.72144   3
  -1  -3  -8 58.4845 4.67888   5
  -1   3   8 60.0823 4.19442   2
   1  -3   8 61.0487 4.85038   5
   1  -3  -8 61.5028 4.48070   1
   1   3   8 60.1487 4.02883   4
   1   3   8 58.0401 4.17432   2
  -1  -3   8 44.3521 5.50679   3
  -1   3  -8 60.5792 4.06200   2
  -1   3  -8 56.6551 4.35039   4
   1  -3  -8 60.3542 5.35364   3
  -1  -3   8 63.9887 4.46252   1
  -2  -3  -8 7.69225 2.62079   5
  -2  -3  -8 5.72782 2.41907   1
   2  -3   8 8.90417 3.94291   3
  -2  -3  -8 5.00540 3.95604   3
   2  -3   8 7.49363 2.67270   5
   2  -3   8 5.69603 2.34933   1
   2   3  -8 7.84161 2.31272   2
  -2   3   8 4.11605 2.11506   4
  -2   3   8 7.82350 2.37799   2
   2  -3  -8 7.85172 3.05847   3
  -2   3  -8 6.69242 2.17954   2
   2   3   8 2.47918 2.05601   2
  -2  -3   8 7.44254 2.52852   1
   2  -3  -8 2.82478 2.34927   1
   2   3   8 6.89899 2.05900   4
  -2  -3   8 6.36422 3.41273   3
   3   3  -8 57.1773 4.52371   2
  -3   3   8 60.1352 4.71696   4
   3  -3   8 63.2979 4.76524   1
   3  -3   8 60.1031 4.88357   5
  -3   3   8 53.4467 4.41037   2
  -3  -3  -8 49.3105 6.27784   3
  -3  -3  -8 54.3234 4.37180   1
   3  -3  -8 54.9552 4.63917   3
  -3  -3   8 48.0936 5.24567   3
   3   3   8 57.4356 4.33486   2
   3   3   8 56.8153 4.24090   4
  -3   3  -8 46.9872 4.05062   2
  -3  -3   8 61.1473 4.79611   1
   3  -3  -8 62.0109 4.97078   1
  -4  -3  -8 19.8785 4.99582   3
   4   3  -8 34.6884 3.80618   2
   4  -3   8 34.5990 3.98744   5
   4  -3   8 31.0664 3.91895   1
  -4  -3  -8 24.4373 3.39199   1
  -4   3   8 28.9847 3.81715   2
   4  -3   8 32.8178 2.60257   4
  -4   3   8 37.1054 3.98515   4
  -4  -3   8 36.6903 4.37648   1
   4  -3  -8 29.8633 4.05844   1
   4   3   8 40.5263 3.83733   2
  -4   3  -8 31.7144 3.69501   2
  -4  -3   8 38.0033 4.96548   3
  -5   3   8 120.029 6.76716   2
   5   3  -8 129.271 6.67325   2
   5  -3   8 124.935 6.72186   1
  -5  -3  -8 125.527 6.64543   1
   5  -3   8 126.860 4.71161   4
   5  -3   8 122.550 6.53761   5
  -5  -3  -8 125.315 9.47131   3
  -5   3   8 127.978 7.14693   4
  -5   3  -8 112.007 6.26402   2
   5   3   8 141.715 6.59800   2
   5  -3  -8 117.123 7.04205   1
  -5  -3   8 120.691 7.01528   1
  -5  -3   8 135.662 7.80218   3
  -6  -3  -8 2.47851 4.34914   3
  -6  -3  -8 10.7756 3.19764   1
  -6   3   8 3.04425 3.07050   2
   6  -3   8 0.31091 2.62757   1
   6  -3   8 3.32377 2.80704   6
   6  -3   8 4.80993 2.03113   4
   6   3  -8 3.82173 3.01024   2
  -6   3  -8 3.58506 2.80911   2
  -6  -3   8 4.94205 3.21100   1
  -6  -3   8 4.77874 3.67026   3
   6   3   8 5.88632 2.85624   2
   6  -3  -8 7.79941 3.49354   1
   7  -3   8 -2.2477 2.80643   1
  -7   3   8 -0.8152 3.06178   2
   7  -3   8 0.56471 2.77761   6
  -7  -3  -8 -0.9651 4.42457   3
   7  -3   8 -3.4559 1.94567   4
   7   3  -8 2.60664 3.30045   2
  -7  -3  -8 5.70409 3.14092   1
  -7   3  -8 -1.2672 2.87094   2
  -7  -3   8 -1.3554 3.00003   1
   7   3   8 2.91369 3.05769   2
   7  -3  -8 -0.1799 3.26184   1
  -7  -3   8 1.12763 3.50755   3
  -8  -3  -8 461.855 14.5920   1
  -8  -3  -8 457.974 17.8250   3
   8  -3   8 477.881 15.0842   1
  -8   3   8 480.093 15.1308   2
   8   3  -8 500.153 15.0809   2
  -8   3  -8 472.169 14.4982   2
   8  -3  -8 462.376 15.6534   1
  -8  -3   8 484.581 15.7464   3
   8   3   8 432.653 14.0408   2
  -8  -3   8 489.922 15.5345   1
   9   3  -8 7.13118 4.01954   2
   9  -3   8 -2.0126 3.26595   1
  -9  -3  -8 8.24093 5.24120   3
  -9   3   8 6.40135 3.92085   2
  -9  -3  -8 5.85427 3.63368   1
   9   3   8 13.7506 4.13302   2
  -9  -3   8 4.55342 3.81126   1
   9  -3  -8 6.09705 4.18079   1
  -9   3  -8 -1.9725 3.15081   2
 -10  -3  -8 262.484 14.2149   3
  10   3  -8 257.828 11.9744   2
 -10  -3  -8 276.750 11.8516   1
 -10   3   8 239.742 11.9326   2
  10  -3   8 263.376 12.0350   1
  10   3   8 241.723 11.4537   2
 -10   3  -8 248.583 11.3077   2
  10  -3  -8 243.638 12.2199   1
 -10  -3   8 256.116 12.2081   1
 -11   3   8 299.843 13.5226   2
  11   3  -8 305.082 13.5052   2
 -11  -3  -8 306.493 15.5231   3
 -11  -3  -8 279.739 12.8562   1
  11  -3   8 303.638 13.3974   1
 -11   3  -8 312.211 12.5971   7
 -11   3  -8 283.204 12.6216   2
 -11  -3   8 300.289 13.6539   1
  11  -3  -8 307.583 14.0587   1
  11   3   8 304.463 13.1232   2
  12   3  -8 171.289 11.1039   2
 -12  -3  -8 133.852 10.1851   1
 -12   3   8 123.598 10.4209   7
 -12   3   8 142.172 10.8308   2
 -12  -3  -8 145.902 12.2468   3
  12  -3   8 112.873 9.75337   1
 -12  -3   8 146.944 10.9062   1
 -12   3  -8 145.085 10.1311   2
 -12   3  -8 157.886 10.1929   7
  12   3   8 163.014 10.6612   2
  12  -3  -8 132.333 10.9045   1
 -13  -3  -8 0.61005 5.86184   3
 -13   3   8 2.26549 4.97720   2
  13   3  -8 -0.6358 5.01980   2
 -13  -3  -8 1.98682 4.46293   1
 -13   3   8 0.20034 4.69293   7
  13  -3   8 3.98150 4.83175   1
  13   3   8 4.84218 4.72517   2
 -13   3  -8 0.84097 4.66465   2
 -13  -3   8 6.38330 5.21800   1
  13  -3  -8 7.02633 5.36652   1
 -13   3  -8 4.50149 4.82740   7
  14   3  -8 20.9335 6.36082   2
 -14  -3  -8 20.1903 5.80444   1
 -14   3   8 20.9569 6.56707   2
 -14   3   8 16.2875 5.89613   7
 -14  -3  -8 8.72003 6.57591   3
  14  -3   8 22.6268 6.26774   1
 -14   3  -8 15.9241 5.85736   2
  14  -3  -8 17.8736 6.88790   1
 -14   3  -8 12.1075 5.69569   7
 -14  -3   8 8.14715 5.95390   1
  14   3   8 12.7074 5.76743   2
  15  -3   8 119.900 11.3199   1
  15   3  -8 112.489 10.7980   2
 -15  -3  -8 108.959 11.8789   3
 -15   3   8 114.581 11.1010   2
 -15   3   8 126.528 11.1659   7
 -15  -3  -8 109.198 10.4476   1
 -15   3  -8 131.410 10.8092   7
 -15   3  -8 97.7888 10.2664   2
 -15  -3   8 108.637 11.0481   1
  15   3   8 104.012 10.7067   2
  15  -3  -8 119.819 11.9113   1
   0  -4  -8 632.538 17.1347   5
   0  -4   8 671.504 15.2847   1
   0  -4  -8 655.746 18.6337   3
   0   4   8 666.693 14.6453   2
   0   4  -8 670.331 14.9399   2
   0  -4   8 643.899 19.5154   3
   1  -4   8 20.0073 3.08619   1
  -1  -4  -8 20.1236 3.91911   5
  -1  -4  -8 25.8727 5.22293   3
  -1  -4  -8 25.1357 3.07345   1
   1   4  -8 12.2864 2.57688   2
  -1   4   8 19.6082 2.93767   2
   1  -4   8 18.1102 4.92640   3
   1  -4   8 12.6032 3.67639   5
  -1   4  -8 21.6758 2.95355   2
   1  -4  -8 17.9624 3.16354   1
  -1  -4   8 21.0709 3.06665   1
   1   4   8 14.1145 2.66077   2
  -1  -4   8 20.1682 4.72662   3
   1  -4  -8 12.7668 4.02232   3
  -2  -4  -8 38.1364 4.71895   5
   2   4  -8 38.4877 3.74429   2
  -2  -4  -8 34.6101 5.81140   3
   2  -4   8 39.9482 3.94431   1
   2  -4   8 41.3047 4.95732   5
  -2   4   8 44.6266 3.99499   2
   2  -4   8 42.6550 6.14703   3
  -2  -4  -8 46.1014 3.96486   1
   2  -4  -8 37.1764 3.90882   1
  -2  -4   8 45.1931 4.11073   1
  -2  -4   8 33.3034 5.48827   3
   2   4   8 33.3169 3.43999   2
  -2   4  -8 40.3535 3.69605   2
   2  -4  -8 44.1639 5.18562   3
  -3   4   8 230.879 8.33921   2
   3  -4   8 239.050 9.83351   5
   3  -4   8 233.720 12.0336   3
  -3  -4  -8 271.068 9.87786   5
  -3  -4  -8 227.680 8.06346   1
  -3  -4  -8 214.229 11.7378   3
   3   4  -8 243.962 8.21852   2
   3  -4   8 256.585 8.76341   1
  -3   4  -8 246.452 8.34416   2
   3   4   8 239.782 7.97854   2
  -3  -4   8 235.350 11.1810   3
   3  -4  -8 243.043 8.70146   1
   3  -4  -8 235.782 9.45500   3
  -3  -4   8 255.121 8.72300   1
   4   4  -8 468.526 12.6362   2
  -4  -4  -8 447.220 16.9316   3
  -4  -4  -8 422.346 12.1475   1
  -4   4   8 461.257 12.7723   2
   4  -4   8 461.929 12.7191   1
   4  -4   8 445.344 14.9606   6
   4  -4   8 488.002 14.2871   5
  -4  -4   8 461.393 13.0038   1
  -4   4  -8 461.072 12.4663   2
   4   4   8 441.277 11.9972   2
   4  -4  -8 462.716 13.2103   1
  -4  -4   8 455.149 15.6369   3
   5  -4   8 117.646 7.97491   6
  -5   4   8 109.583 6.88920   2
  -5  -4  -8 112.885 9.51481   3
   5   4  -8 103.219 6.74611   2
   5  -4   8 100.681 7.05301   5
   5  -4   8 119.444 6.73624   1
  -5  -4  -8 101.556 6.21242   1
   5   4   8 108.304 6.37834   2
  -5  -4   8 115.624 7.02129   1
  -5   4  -8 112.399 6.47870   2
  -5  -4   8 125.697 8.88312   3
   5  -4  -8 99.4775 6.86698   1
   6   4  -8 191.686 8.58603   2
  -6  -4  -8 184.542 11.9654   3
   6  -4   8 173.882 8.95024   5
   6  -4   8 187.507 9.44935   6
  -6   4   8 192.995 9.08272   2
  -6  -4  -8 171.933 8.10416   1
   6  -4   8 186.116 8.43031   1
   6  -4  -8 188.141 9.05272   1
  -6  -4   8 190.744 10.5566   3
  -6   4  -8 171.597 8.22434   2
  -6  -4   8 184.867 8.89979   1
   6   4   8 167.143 8.10331   2
  -7  -4  -8 128.193 11.2790   3
  -7   4   8 145.485 8.54971   2
   7  -4   8 130.636 7.76422   1
   7   4  -8 140.875 8.49031   2
   7  -4   8 150.310 8.63164   6
  -7  -4  -8 151.468 8.05885   1
  -7   4  -8 143.581 7.99755   2
   7  -4  -8 138.923 8.64422   1
  -7  -4   8 135.801 9.57822   3
  -7  -4   8 136.017 8.31090   1
   7   4   8 128.249 7.62211   2
  -8   4   8 127.860 8.74050   2
  -8  -4  -8 117.873 7.84419   1
   8  -4   8 112.909 7.92536   1
  -8  -4  -8 147.014 11.3427   3
   8   4  -8 120.403 8.50750   2
   8   4   8 114.934 7.75657   2
  -8  -4   8 127.940 8.67877   1
  -8  -4   8 118.802 9.45019   3
   8  -4  -8 113.277 8.63943   1
  -8   4  -8 116.657 7.89745   2
  -9  -4  -8 2.68914 3.64638   1
  -9   4   8 0.03501 3.97742   2
   9   4  -8 12.7605 4.72209   2
  -9  -4  -8 2.50037 5.56546   3
   9  -4   8 10.0159 4.22844   1
   9  -4  -8 2.84517 4.32044   1
  -9  -4   8 2.03863 3.81549   1
   9   4   8 3.02683 3.80873   2
  -9   4  -8 4.90126 3.80843   2
  10  -4   8 89.6982 8.21414   1
  10   4  -8 112.080 8.79611   2
 -10  -4  -8 110.599 8.76494   1
 -10   4   8 97.5292 8.71173   2
 -10  -4  -8 79.9351 9.94492   3
 -10   4  -8 107.927 8.38287   2
 -10  -4   8 100.366 8.68528   1
  10   4   8 88.0435 7.79286   2
  10  -4  -8 107.968 9.25636   1
  11  -4   8 333.638 14.1367   1
 -11   4   8 324.027 14.2297   2
 -11  -4  -8 301.405 13.5108   1
  11   4  -8 321.827 14.0158   2
 -11  -4  -8 302.432 16.4943   3
  11   4   8 316.673 13.6128   2
 -11  -4   8 317.111 14.1376   1
 -11   4  -8 324.941 13.5827   2
  11  -4  -8 322.421 14.6626   1
 -12   4   8 332.260 15.1259   2
  12  -4   8 306.374 14.4090   1
 -12  -4  -8 309.649 14.0174   1
  12   4  -8 333.152 14.8239   2
 -12  -4  -8 303.689 16.8228   3
  12   4   8 307.914 14.1499   2
 -12   4  -8 333.816 14.3198   2
 -12  -4   8 323.371 14.8142   1
  12  -4  -8 318.439 15.1360   1
  13  -4   8 40.2289 6.87893   1
 -13  -4  -8 55.5029 9.26611   3
 -13   4   8 48.5029 7.85506   2
  13   4  -8 42.0787 7.34540   2
 -13  -4  -8 19.7329 5.73336   1
 -13  -4   8 27.0110 6.43377   1
  13  -4  -8 32.9980 7.40083   1
 -13   4  -8 44.1807 7.15871   2
  13   4   8 48.3576 7.16474   2
  14  -4   8 181.476 12.6264   1
 -14  -4  -8 181.666 12.2610   1
 -14   4   8 204.587 13.7560   2
  14   4  -8 204.762 13.4650   2
 -14  -4  -8 180.603 14.7416   3
 -14   4  -8 200.983 12.8319   2
  14   4   8 199.973 12.9700   2
 -14  -4   8 181.551 12.8238   1
  14  -4  -8 188.081 13.5995   1
   0   5  -8 -3.6746 2.04835   2
   0  -5  -8 5.21691 4.22943   3
   0  -5   8 -1.8377 2.18524   1
   0  -5  -8 0.15422 3.46137   5
   0  -5   8 1.45506 4.28988   3
   0   5   8 -1.3143 2.22864   2
   0  -5  -8 -0.6618 2.20376   1
  -1   5   8 48.9062 4.21524   2
   1  -5   8 45.0291 6.99650   3
   1   5  -8 52.7164 4.25199   2
  -1  -5  -8 60.2351 7.33873   3
   1  -5   8 57.7449 6.46012   5
  -1  -5  -8 47.2187 5.99888   5
  -1  -5  -8 52.3489 4.15393   1
   1  -5   8 49.7339 4.31043   1
   1  -5  -8 44.3455 6.13581   3
   1  -5  -8 50.9964 6.20129   5
  -1   5  -8 51.5138 4.09214   2
   1  -5  -8 48.0705 4.23042   1
   1   5   8 38.9096 3.69865   2
  -1  -5   8 53.8239 4.33769   1
  -1  -5   8 60.8376 7.72743   3
   2   5  -8 7.96375 2.75011   2
  -2  -5  -8 -1.5809 4.11479   3
  -2  -5  -8 3.87726 3.82065   5
   2  -5   8 8.21515 5.02206   3
   2  -5   8 5.07334 2.64538   1
  -2  -5  -8 2.91912 2.46000   1
  -2   5   8 5.05849 2.72086   2
   2  -5   8 8.60474 3.98057   5
  -2  -5   8 4.64497 2.61317   1
   2  -5  -8 4.72931 2.69195   1
  -2   5  -8 7.64541 2.60759   2
   2  -5  -8 -2.4657 3.66936   5
   2   5   8 6.52960 2.52325   2
  -2  -5   8 4.53757 4.67327   3
   2  -5  -8 4.09577 3.94275   3
   3  -5   8 32.4067 3.93241   1
   3  -5   8 23.7930 4.90936   5
  -3   5   8 24.7086 3.77252   2
   3   5  -8 29.0128 3.85981   2
  -3  -5  -8 23.0811 6.19988   3
  -3  -5  -8 28.4367 3.66540   1
   3  -5   8 37.4601 6.82905   3
  -3  -5  -8 30.2415 5.21791   5
  -3  -5   8 23.4190 5.98322   3
  -3  -5   8 32.2628 3.97552   1
   3  -5  -8 30.3956 4.08723   1
   3   5   8 25.2890 3.53704   2
  -3   5  -8 29.4062 3.89701   2
  -4  -5  -8 34.0030 6.97444   3
  -4   5   8 41.4071 4.57108   2
   4   5  -8 36.7811 4.35176   2
   4  -5   8 40.2438 5.78413   5
   4  -5   8 43.7480 7.41761   3
  -4  -5  -8 37.7321 4.19026   1
   4  -5   8 34.7569 4.32851   1
   4   5   8 44.0645 4.39948   2
  -4  -5   8 40.5064 6.78921   3
  -4   5  -8 39.7527 4.34876   2
   4  -5  -8 37.8233 4.58711   1
  -4  -5   8 42.1838 4.73425   1
  -5  -5  -8 61.2787 8.54522   3
   5  -5   8 74.4708 6.07261   1
  -5  -5  -8 74.6958 5.73025   1
   5  -5   8 78.5325 7.45249   5
   5   5  -8 72.6079 5.82039   2
  -5   5   8 75.7022 6.26377   2
   5   5   8 73.0255 5.65859   2
  -5  -5   8 70.1389 8.25951   3
   5  -5  -8 81.1762 6.50951   1
  -5  -5   8 77.8661 6.20977   1
  -5   5  -8 68.6502 5.65185   2
  -6  -5  -8 3.00825 3.22174   1
   6  -5   8 6.35472 4.41901   5
   6  -5   8 5.47126 3.35841   1
  -6   5   8 1.71161 3.48675   2
  -6  -5  -8 7.49359 5.97922   3
   6   5  -8 8.55527 3.71190   2
   6   5   8 5.68952 3.28686   2
   6  -5  -8 1.61119 3.61195   1
  -6  -5   8 3.15579 3.56850   1
  -6   5  -8 3.60058 3.32018   2
  -6  -5   8 -0.8749 4.87029   3
   7  -5   8 -0.7609 4.02281   5
  -7  -5  -8 4.45140 5.63126   3
   7  -5   8 5.85295 3.68001   1
  -7   5   8 -3.1092 3.52475   2
  -7  -5  -8 1.66327 3.33412   1
   7   5  -8 5.13183 3.83135   2
  -7  -5   8 -5.6843 4.55981   3
   7   5   8 -0.1011 3.23817   2
  -7  -5   8 -4.6190 3.41199   1
   7  -5  -8 -1.1027 3.69406   1
  -7   5  -8 0.84916 3.37173   2
  -8  -5  -8 328.096 12.0881   1
   8   5  -8 321.014 12.7478   2
  -8   5   8 289.392 12.4939   2
   8  -5   8 322.355 13.8493   5
   8  -5   8 302.241 12.2709   1
  -8  -5  -8 305.697 16.8392   3
  -8   5  -8 312.678 12.1267   2
  -8  -5   8 324.724 14.9625   3
  -8  -5   8 307.743 12.5350   1
   8  -5  -8 312.497 12.9342   1
   8   5   8 295.937 11.6812   2
  -9  -5  -8 4.97227 5.89328   3
   9  -5   8 -5.8456 3.66137   1
  -9   5   8 3.05020 4.14129   2
  -9  -5  -8 -6.0390 3.47023   1
   9   5  -8 -2.6582 4.14246   2
   9  -5  -8 4.30139 4.68244   1
  -9   5  -8 1.92995 3.67411   2
  -9  -5   8 15.7446 5.83534   3
   9   5   8 4.86351 4.06252   2
  -9  -5   8 -2.1153 4.04602   1
  10  -5   8 199.478 11.1133   1
 -10   5   8 217.473 11.7366   2
 -10  -5  -8 194.260 14.7435   3
 -10  -5  -8 197.099 10.5254   1
  10   5  -8 197.048 11.4739   2
  10  -5  -8 175.017 11.3423   1
 -10  -5   8 207.957 11.3167   1
  10   5   8 186.957 10.6678   2
 -10   5  -8 181.453 10.5003   2
  11   5  -8 209.343 12.0360   2
 -11  -5  -8 192.947 11.0980   1
  11  -5   8 186.333 11.3772   1
 -11   5   8 198.483 12.0252   2
 -11  -5  -8 181.579 14.5984   3
  11   5   8 213.957 11.4716   2
  11  -5  -8 200.865 12.2452   1
 -11  -5   8 183.043 11.4931   1
 -11   5  -8 199.820 11.3493   2
 -12  -5  -8 76.6479 10.7399   3
 -12   5   8 78.4845 8.89013   2
 -12  -5  -8 82.9667 8.37245   1
  12  -5   8 78.5987 8.61345   1
  12   5  -8 90.1477 8.97827   2
  12  -5  -8 84.9968 9.29360   1
 -12  -5   8 78.8785 8.91781   1
  12   5   8 82.0264 8.48718   2
 -12   5  -8 81.7614 8.63376   2
 -13   5   8 -6.6896 4.97600   2
  13  -5   8 -1.5058 4.75507   1
 -13  -5  -8 6.94510 5.10271   1
 -13  -5  -8 4.57649 7.11816   3
  13   5  -8 -3.9343 5.05928   2
 -13   5  -8 -0.6681 4.75937   2
  13   5   8 0.69055 4.69390   2
 -13  -5   8 1.26152 5.08173   1
  13  -5  -8 1.73238 5.31201   1
   0  -6  -8 20.6585 5.97373   3
   0  -6  -8 33.3078 6.25384   5
   0   6   8 26.5526 3.53269   2
   0   6  -8 26.2053 3.64716   2
   0  -6   8 23.4816 6.62881   3
   1  -6   8 170.643 12.5798   3
  -1  -6  -8 179.226 10.6329   5
  -1  -6  -8 183.417 12.2324   3
  -1   6   8 171.580 7.13992   2
   1   6  -8 161.606 7.13979   2
  -1   6  -8 183.839 7.37484   2
   1  -6  -8 157.657 10.4982   5
   1  -6  -8 188.050 11.5897   3
   1   6   8 179.432 6.98552   2
  -1  -6   8 165.621 11.9120   3
   2  -6   8 2.24354 2.84067   1
  -2  -6  -8 3.55993 4.27603   5
   2  -6   8 10.7776 5.89271   3
   2   6  -8 2.12186 2.92915   2
  -2  -6  -8 2.85816 5.39755   3
   2  -6   8 -1.4306 4.33081   5
  -2   6   8 1.90071 2.93893   2
   2  -6  -8 7.16024 5.11197   3
   2  -6  -8 10.3844 4.98434   5
   2   6   8 9.17331 2.72545   2
  -2   6  -8 2.89862 2.85657   2
  -2  -6   8 3.46452 5.36041   3
   3   6  -8 385.930 11.5889   2
  -3  -6  -8 418.272 18.1078   3
   3  -6   8 395.686 11.7050   1
   3  -6   8 392.309 17.7384   3
  -3   6   8 394.343 11.6990   2
   3  -6   8 382.373 15.2859   5
   3   6   8 376.976 10.8927   2
   3  -6  -8 360.115 15.5886   5
  -3  -6   8 387.501 17.4785   3
  -3   6  -8 376.218 11.3539   2
   4  -6   8 219.218 14.3837   3
   4  -6   8 183.728 8.27428   1
  -4   6   8 190.349 8.63313   2
   4  -6   8 172.023 10.9147   5
  -4  -6  -8 162.948 12.8224   3
   4   6  -8 180.067 8.24477   2
   4   6   8 177.206 7.81581   2
  -4   6  -8 177.807 8.16596   2
  -4  -6   8 171.125 7.91180   1
  -4  -6   8 181.029 12.8405   3
   4  -6  -8 176.465 8.27605   1
   5  -6   8 752.691 18.8832   1
   5   6  -8 735.080 18.7215   2
  -5  -6  -8 744.829 26.2021   3
   5  -6   8 742.134 22.6755   5
  -5   6   8 721.489 18.8591   2
   5   6   8 743.081 17.8967   2
  -5  -6   8 746.865 18.7007   1
  -5  -6   8 731.504 24.2933   3
  -5   6  -8 737.457 18.5066   2
   5  -6  -8 757.911 19.1416   1
   6  -6   8 163.937 11.2142   5
  -6  -6  -8 155.054 8.11351   1
   6   6  -8 161.612 9.14445   2
   6  -6   8 141.386 8.33831   1
  -6  -6  -8 158.900 13.9691   3
  -6   6   8 161.744 9.07572   2
  -6   6  -8 159.408 8.53400   2
  -6  -6   8 174.201 8.83285   1
   6  -6  -8 172.756 9.35857   1
  -6  -6   8 162.022 12.4641   3
   6   6   8 172.529 8.44311   2
  -7   6   8 81.1390 7.32346   2
   7  -6   8 84.5333 7.17237   1
  -7  -6  -8 75.1997 10.5245   3
   7   6  -8 69.2264 6.88560   2
   7  -6   8 85.5595 8.94435   5
  -7  -6  -8 88.6995 7.16614   1
   7  -6  -8 86.5392 7.75815   1
  -7  -6   8 72.3228 9.29649   3
   7   6   8 75.2564 6.54148   2
  -7   6  -8 89.6946 7.36281   2
  -7  -6   8 79.0518 6.99850   1
  -8  -6  -8 8.65363 4.12150   1
   8  -6   8 6.90287 5.53934   5
  -8   6   8 7.98745 4.51059   2
   8   6  -8 4.84058 4.41919   2
  -8  -6  -8 1.48681 6.15303   3
   8  -6   8 9.76383 4.62554   1
  -8  -6   8 8.56779 4.66162   1
   8   6   8 4.17024 4.01549   2
  -8  -6   8 1.00662 5.69485   3
  -8   6  -8 6.82743 4.32908   2
   8  -6  -8 12.0391 4.79905   1
  -9   6   8 -4.0088 3.90873   2
   9   6  -8 5.27315 4.40456   2
  -9  -6  -8 0.76457 3.96987   1
   9  -6   8 10.2722 4.63459   1
   9  -6   8 -0.8756 4.92441   5
  -9  -6  -8 0.49071 6.35133   3
  -9  -6   8 -1.1867 5.35680   3
   9   6   8 -3.2028 3.80601   2
  -9   6  -8 0.15267 3.92208   2
   9  -6  -8 1.69202 4.54550   1
  -9  -6   8 -0.5067 4.30428   1
 -10  -6  -8 11.8233 7.54032   3
 -10  -6  -8 10.1568 4.95123   1
  10  -6   8 12.5442 4.85196   1
  10   6  -8 6.39512 4.93984   2
 -10   6   8 8.54386 5.15378   2
 -10  -6   8 26.0702 5.98562   1
 -10   6  -8 16.0469 5.03444   2
  10   6   8 14.2882 5.19954   2
  10  -6  -8 9.47279 5.13781   1
 -10  -6   8 15.8788 6.74283   3
 -11  -6  -8 131.084 13.7405   3
 -11  -6  -8 151.810 10.5241   1
  11   6  -8 144.383 10.9854   2
  11  -6   8 161.139 10.8915   1
 -11   6   8 122.259 10.4758   2
  11  -6  -8 152.298 11.4443   1
 -11   6  -8 129.216 10.2332   2
 -11  -6   8 142.106 10.7261   1
  11   6   8 126.279 10.1122   2
   0  -7  -8 -2.5809 4.51401   5
   0  -7   8 1.68607 6.01627   3
   0   7   8 -4.9581 2.67495   2
   0   7  -8 -1.3597 2.77382   2
   0  -7  -8 1.99279 6.14054   3
  -1  -7  -8 19.3634 6.17341   5
  -1  -7  -8 22.6190 7.11005   3
   1  -7   8 33.0525 8.01003   3
  -1   7   8 20.9144 3.60599   2
   1   7  -8 21.5745 3.88848   2
   1  -7  -8 2.47633 5.78940   3
  -1   7  -8 22.7506 3.71177   2
  -1  -7   8 13.0542 6.99273   3
   1   7   8 10.8446 3.33098   2
   1  -7  -8 21.5630 6.49553   5
   2  -7   8 -0.6747 6.42252   3
  -2  -7  -8 4.83667 5.12298   5
   2   7  -8 5.44404 3.22846   2
   2  -7   8 0.84305 4.77054   5
  -2   7   8 6.00539 3.33744   2
  -2  -7  -8 -2.9875 5.31015   3
  -2  -7   8 -0.5442 5.79303   3
  -2   7  -8 -4.1185 2.72595   2
   2   7   8 3.10074 3.00108   2
   2  -7  -8 -1.2000 5.04492   5
   3  -7   8 30.5580 7.96611   3
  -3   7   8 17.9880 4.23197   2
   3  -7   8 28.9088 6.63952   5
  -3  -7  -8 11.6386 6.87689   3
   3   7  -8 30.2624 4.46521   2
  -3   7  -8 29.3922 4.33798   2
   3   7   8 25.5804 3.90989   2
  -3  -7   8 11.6952 6.43925   3
   3  -7  -8 30.6519 6.76859   5
   4  -7   8 6.28144 6.73380   3
   4  -7   8 18.2592 6.06101   5
  -4   7   8 14.4913 4.11816   2
   4   7  -8 17.5186 4.24732   2
  -4  -7  -8 7.77423 7.33303   3
  -4  -7   8 8.28892 6.57851   3
   4  -7  -8 21.7156 6.39595   5
   4   7   8 14.4535 3.72076   2
  -4   7  -8 3.14825 3.47114   2
  -5   7   8 50.8475 5.69790   2
   5  -7   8 52.9528 8.02755   5
  -5  -7  -8 36.1508 9.19694   3
   5   7  -8 46.3501 5.60040   2
   5   7   8 49.0518 5.36083   2
  -5  -7   8 53.9994 9.45560   3
  -5   7  -8 55.7330 5.70411   2
   5  -7  -8 56.6753 8.95661   5
  -6  -7  -8 3.88358 7.10577   3
  -6   7   8 1.10092 3.96549   2
   6  -7   8 3.14262 5.42365   5
   6   7  -8 0.28102 4.32398   2
   6   7   8 -2.9062 3.55517   2
  -6  -7   8 5.60769 6.56921   3
  -6   7  -8 -3.5785 3.49527   2
   6  -7  -8 0.48591 5.52203   5
   7   7  -8 1.54690 4.47932   2
  -7  -7  -8 -3.2795 6.67139   3
   7  -7   8 0.24080 5.61141   5
  -7   7   8 1.80659 4.17696   2
  -7  -7   8 -0.8690 5.88142   3
   7   7   8 2.13675 3.77150   2
  -7   7  -8 -3.9982 3.83058   2
   8  -7   8 227.497 14.3336   5
  -8  -7  -8 212.713 17.0758   3
   8   7  -8 209.967 11.2069   2
  -8   7   8 206.162 11.2643   2
   8  -7   8 228.508 11.2116   1
  -8  -7   8 205.766 15.1268   3
  -8   7  -8 215.543 11.0194   2
   8   7   8 214.677 10.6783   2
   9  -7   8 12.2105 5.17045   1
  -9   7   8 3.17822 4.58216   2
   9   7  -8 2.78272 4.78579   2
  -9  -7  -8 7.03646 7.88380   3
   9  -7  -8 10.4265 5.23776   1
  -9  -7   8 5.82885 6.79804   3
   9   7   8 8.00735 4.52671   2
  -9   7  -8 -3.3626 4.08479   2
   0  -8   8 203.599 16.0423   3
   0   8  -8 208.048 8.57859   2
   0  -8  -8 194.296 14.6829   3
   0  -8  -8 200.252 13.6404   5
   1  -8   8 -1.7977 6.67201   3
  -1  -8  -8 10.9430 6.12055   5
  -1  -8  -8 3.89618 6.72947   3
   1   8  -8 10.2290 3.59859   2
  -1  -8   8 7.29140 6.82829   3
  -1   8  -8 11.6867 3.69468   2
   1  -8  -8 6.85731 6.09129   5
  -2   8   8 4.37306 3.59982   2
   2  -8   8 22.0837 8.30399   3
  -2  -8  -8 8.65408 7.13018   3
   2   8  -8 11.8712 3.90368   2
   2  -8  -8 8.93547 6.53728   5
  -2   8  -8 12.0668 4.01332   2
  -2  -8   8 7.24023 6.93207   3
  -3  -8  -8 46.8958 9.80235   3
   3   8  -8 49.7467 5.48152   2
  -3   8   8 59.7744 5.80008   2
   3  -8   8 44.3485 9.67070   3
   3   8   8 60.8179 5.39055   2
  -3   8  -8 58.5099 5.64206   2
  -3  -8   8 47.0113 8.88295   3
   3  -8  -8 50.6455 8.83492   5
   4  -8   8 181.143 15.8635   3
   4  -8   8 168.982 13.0697   5
   4   8  -8 179.928 9.15319   2
  -4   8   8 163.814 8.99095   2
  -4  -8  -8 136.123 14.5648   3
   4   8   8 183.081 8.50074   2
  -4   8  -8 194.281 9.17294   2
   4  -8  -8 165.832 13.4595   5
  -4  -8   8 183.428 15.2134   3
   0   0   9 -2.7476 1.90242   4
   0   0  -9 1.42549 2.13311   4
   1   0   9 33.5490 3.41544   4
   1   0  -9 44.7548 3.78918   4
  -1   0   9 29.5524 3.26378   4
  -1   0  -9 32.3217 3.17460   4
   2   0   9 1.41610 2.04737   4
   2   0  -9 1.28093 2.12912   4
  -2   0  -9 4.33282 2.13588   4
  -2   0   9 3.50056 2.27574   4
  -3   0  -9 360.908 10.5790   1
  -3   0  -9 352.304 10.1815   4
  -3   0   9 359.960 10.7812   4
   3   0  -9 371.632 10.7827   4
   3   0   9 365.224 10.3719   4
   3   0  -9 371.300 11.1667   1
  -3   0   9 370.398 11.0270   1
   3   0   9 376.353 10.6236   1
  -4   0  -9 8.29616 2.58595   4
   4   0  -9 11.5593 3.18942   1
  -4   0  -9 4.13336 2.63255   1
   4   0  -9 9.78286 2.92321   4
   4   0   9 8.64268 2.57099   7
  -4   0   9 6.94531 2.75224   4
  -4   0   9 5.02339 2.62269   7
  -4   0   9 5.34198 2.90531   1
   4   0   9 8.69776 2.82996   1
   4   0   9 7.61925 2.74638   2
   4   0   9 4.26977 2.40325   4
   5   0  -9 124.994 6.53360   7
   5   0  -9 149.242 7.26690   4
   5   0  -9 145.564 7.33941   1
  -5   0  -9 136.543 6.49196   4
   5   0   9 143.015 6.69567   4
  -5   0  -9 143.534 6.87406   1
  -5   0   9 143.883 7.16694   4
   5   0   9 142.973 6.49465   7
   5   0  -9 143.380 7.17408   2
   5   0   9 138.442 7.00500   1
  -5   0   9 139.291 6.75048   7
  -5   0   9 138.038 7.42576   1
   6   0   9 395.506 11.9672   2
  -6   0   9 413.467 12.6086   4
  -6   0   9 402.074 11.7516   7
   6   0   9 417.729 12.6246   1
   6   0   9 397.200 11.2247   7
   6   0   9 419.585 12.2497   4
   6   0  -9 403.751 11.7954   7
   6   0  -9 399.720 13.0287   1
  -6   0   9 396.711 12.2986   2
  -6   0   9 394.752 12.8115   1
   6   0  -9 410.412 12.5060   2
  -6   0  -9 415.042 12.5049   1
   7   0   9 100.018 6.18877   7
   7   0   9 92.5072 6.77874   1
   7   0  -9 109.118 7.18154   2
  -7   0   9 117.379 6.72648   7
  -7   0   9 99.9765 7.13721   2
   7   0  -9 115.149 7.72659   1
   7   0   9 108.772 6.75506   2
  -7   0   9 103.347 7.26036   1
   7   0  -9 96.6195 6.53499   7
  -7   0  -9 123.310 7.35526   1
  -7   0  -9 98.0777 6.33684   2
  -8   0   9 892.350 21.7653   2
  -8   0  -9 848.445 20.7361   2
  -8   0  -9 847.709 21.8192   1
   8   0  -9 882.216 20.5622   7
   8   0   9 856.036 19.9500   7
   8   0  -9 872.316 21.4249   2
  -8   0   9 888.321 20.5959   7
   8   0   9 865.280 21.7321   1
   8   0   9 879.084 21.1188   2
  -8   0   9 860.140 22.4749   1
   9   0  -9 1.04076 3.94897   1
   9   0   9 11.2633 3.79359   7
   9   0  -9 6.36620 3.60552   7
   9   0   9 10.9117 3.86246   2
  -9   0   9 14.6093 4.00139   7
  -9   0  -9 7.14114 3.74639   1
   9   0  -9 8.14381 3.79475   2
   9   0   9 6.85503 3.83649   1
  -9   0   9 12.7578 4.25657   1
 -10   0   9 32.7350 5.20226   7
  10   0  -9 35.1699 6.19933   1
 -10   0  -9 31.2964 5.44793   1
 -10   0   9 21.5495 5.39260   1
  10   0  -9 29.3606 4.95046   7
  10   0   9 31.7435 4.91605   7
  10   0   9 26.5285 5.34441   1
 -11   0   9 656.572 20.4354   1
  11   0   9 623.727 17.8588   7
 -11   0   9 607.049 18.0324   7
  11   0  -9 659.170 20.6517   1
  11   0  -9 635.549 18.2733   7
  11   0   9 653.743 19.8775   1
 -11   0  -9 669.278 20.2403   1
  12   0   9 3.72404 4.77537   1
  12   0   9 1.72172 4.16486   7
  12   0  -9 1.64579 4.62756   1
 -12   0   9 8.09378 5.11902   1
  12   0  -9 4.77396 4.05964   7
 -12   0  -9 7.53345 4.61858   1
 -12   0   9 2.13034 4.15967   7
  13   0   9 44.7736 6.53491   7
  13   0   9 30.3161 6.57534   1
  13   0  -9 58.0602 8.06421   1
 -13   0  -9 44.5461 7.13435   1
 -13   0   9 40.5632 6.11463   7
 -13   0   9 43.1548 7.35230   1
  13   0  -9 30.7679 5.80162   7
  14   0   9 9.10058 5.50980   1
 -14   0   9 1.84756 4.57290   7
 -14   0  -9 5.85375 5.46795   1
 -14   0   9 7.72693 5.75255   1
  14   0   9 -2.5929 4.60563   7
  14   0  -9 4.38887 4.79851   7
  14   0  -9 2.56183 5.47953   1
  15   0  -9 142.489 12.7098   1
 -15   0   9 138.930 10.3557   7
  15   0  -9 117.008 10.0600   7
 -15   0   9 135.721 11.7668   1
  15   0   9 141.947 10.9703   7
 -15   0  -9 92.7529 10.0808   1
  16   0  -9 180.802 11.6277   7
  16   0   9 170.715 12.0229   7
 -16   0   9 163.424 11.4610   7
 -16   0  -9 166.731 12.9572   1
 -16   0   9 179.762 13.7966   1
   0   1   9 414.245 10.8679   4
   0  -1   9 408.977 10.9281   4
   0   1   9 400.618 10.7396   2
   0   1  -9 389.800 10.8923   4
   0  -1  -9 421.501 11.3728   1
   0  -1   9 398.988 11.0451   1
   0  -1  -9 421.366 10.5279   4
   0   1  -9 412.291 10.5599   2
   1   1  -9 259.956 8.47672   4
  -1   1   9 271.973 8.35913   2
  -1   1   9 255.264 8.30351   4
   1   1  -9 246.136 7.98896   2
  -1  -1  -9 267.545 8.55603   1
   1  -1   9 272.607 8.32986   4
   1  -1   9 255.858 8.53158   1
  -1  -1  -9 265.221 7.93003   4
   1  -1  -9 263.921 8.01996   4
  -1   1  -9 261.460 8.31492   4
  -1  -1   9 264.878 8.70472   1
  -1  -1   9 254.566 8.29370   4
   1   1   9 258.126 8.19039   4
   1   1   9 270.096 8.25436   2
  -1   1  -9 255.981 8.08448   2
   1  -1  -9 266.743 8.81592   1
  -2  -1  -9 23.6891 3.02247   4
  -2   1   9 26.9006 3.39602   4
   2   1  -9 28.0996 3.41042   2
   2  -1   9 26.2357 3.45667   1
   2  -1   9 24.0081 2.97503   4
  -2   1   9 27.3721 3.37262   2
   2   1  -9 30.5718 3.40765   4
  -2  -1  -9 31.9532 3.69850   1
  -2  -1   9 28.6668 3.44376   4
   2   1   9 26.7271 3.22392   4
   2  -1  -9 25.2542 3.63383   1
  -2   1  -9 24.9656 3.04680   2
  -2  -1   9 31.0255 3.81371   1
  -2   1  -9 28.5882 3.10254   4
   2   1   9 27.4988 3.27606   2
   2  -1  -9 37.6102 3.43151   4
  -3  -1  -9 53.9845 4.56889   1
   3  -1   9 55.9259 4.69191   1
  -3  -1  -9 44.2664 3.68894   4
  -3   1   9 44.5959 4.18976   2
   3   1  -9 48.8125 4.23325   2
   3  -1   9 57.9572 4.19126   7
   3   1  -9 49.4917 4.43200   4
   3  -1   9 47.5577 3.90806   4
  -3   1   9 39.4689 3.83314   4
   3  -1  -9 42.8781 4.45702   1
  -3   1  -9 58.1246 4.31765   2
   3  -1  -9 54.2710 4.14404   7
   3  -1  -9 50.0088 4.01059   4
  -3  -1   9 53.3009 4.13766   7
   3   1   9 41.0712 3.73772   4
  -3   1  -9 52.3234 4.34716   4
  -3  -1   9 42.6094 4.02108   4
   3   1   9 45.6387 4.05403   2
  -3  -1   9 51.3880 4.54523   1
   4  -1   9 0.79743 2.40671   1
  -4   1   9 -0.5259 2.32790   2
  -4   1   9 8.93075 2.77813   4
  -4  -1  -9 3.82564 2.22605   4
   4  -1   9 7.77152 2.36274   7
   4   1  -9 4.19126 2.62383   2
   4  -1   9 2.24883 2.20146   4
  -4  -1  -9 4.47238 2.63632   1
  -4  -1   9 5.53935 2.67166   4
   4  -1  -9 6.21751 2.50547   7
   4  -1  -9 5.71874 2.55242   4
  -4  -1   9 2.63717 2.34490   7
  -4   1  -9 5.83910 2.21914   4
  -4  -1   9 6.16307 3.00806   1
  -4   1  -9 5.51908 2.76864   1
   4   1   9 5.50225 2.47258   4
   4  -1  -9 4.35295 2.90162   1
  -4   1  -9 0.65098 2.09466   2
   4   1   9 7.52661 2.55045   2
   5  -1   9 23.3711 3.15557   7
   5  -1   9 24.3417 3.82536   1
   5  -1   9 25.5201 3.43906   4
  -5  -1  -9 22.1274 3.59391   1
  -5   1   9 27.4569 3.90886   2
  -5   1   9 23.5207 3.58221   7
   5   1  -9 25.4784 3.64384   2
  -5   1   9 20.7074 3.52399   4
  -5   1   9 28.8319 4.36212   1
   5   1  -9 25.5742 4.05004   1
   5  -1  -9 25.1838 3.53439   7
  -5   1  -9 27.3829 3.88477   1
  -5  -1   9 27.4129 4.24155   1
  -5  -1   9 27.2320 3.67758   4
   5   1   9 28.6503 3.80471   7
  -5   1  -9 25.2628 3.58149   2
  -5  -1   9 26.4566 3.64148   7
   5   1   9 21.0514 3.32946   4
   5  -1  -9 26.0845 3.63202   4
   5   1   9 29.6977 3.88781   2
   5  -1  -9 30.7342 4.32985   1
   5   1   9 31.6037 4.07872   1
  -6   1   9 9.15537 3.39635   1
  -6   1   9 1.38531 2.81977   4
  -6   1   9 6.49774 3.05622   7
  -6   1   9 3.10370 3.06162   2
   6  -1   9 7.71241 3.23345   1
  -6  -1  -9 9.42818 3.19825   1
   6   1  -9 9.29231 3.34320   1
   6  -1   9 6.43734 2.59825   4
   6   1  -9 4.35377 2.77567   7
   6  -1   9 7.24668 2.58537   7
   6   1  -9 1.29319 2.83617   2
  -6  -1   9 9.58678 3.07475   4
   6   1   9 5.27632 2.64614   4
   6   1   9 8.83495 2.98476   7
   6  -1  -9 8.39023 3.57061   1
   6   1   9 7.83195 3.00198   2
   6   1   9 5.67319 2.98296   1
  -6   1  -9 3.96273 2.83695   2
   6  -1  -9 5.78133 2.88336   7
   6  -1  -9 6.10315 2.78070   4
  -6   1  -9 5.45413 3.15759   1
  -6  -1   9 11.7913 3.03334   7
  -6  -1   9 9.94782 3.50317   1
   7   1  -9 15.9992 3.93763   2
  -7  -1  -9 23.6507 4.21661   1
  -7   1   9 19.8731 4.10338   2
   7  -1   9 20.8600 3.41338   7
   7   1  -9 27.7493 4.11405   7
  -7   1   9 19.1214 4.04998   1
   7  -1   9 14.4161 3.74133   1
   7   1  -9 19.2638 4.27422   1
  -7   1   9 28.2987 4.16017   7
   7   1   9 25.4749 4.13762   1
  -7  -1   9 18.1862 4.28842   1
   7  -1  -9 15.3542 3.48538   7
   7   1   9 25.7001 3.82669   7
   7  -1  -9 22.3321 4.45505   1
   7   1   9 22.5223 3.77728   4
  -7   1  -9 13.1525 3.58305   2
   7   1   9 18.7442 3.72529   2
  -7   1  -9 25.6070 4.36832   1
   7  -1  -9 13.1020 3.61404   4
  -7  -1   9 16.7913 3.54036   7
   8  -1   9 41.1271 5.35731   1
   8   1  -9 44.6211 5.75934   1
  -8   1   9 44.1720 5.15203   7
   8  -1   9 46.0823 4.69393   7
  -8   1   9 45.7065 5.53156   2
  -8   1   9 45.3243 5.65328   1
   8   1  -9 49.9383 5.59239   2
  -8  -1  -9 34.1200 4.97961   1
   8   1  -9 42.2891 5.28669   7
   8  -1  -9 51.1685 5.03940   7
   8   1   9 39.3449 4.98304   2
   8   1   9 35.8598 4.62348   7
   8  -1  -9 45.1033 5.92903   1
  -8  -1   9 38.3513 4.74367   7
  -8   1  -9 47.1269 5.63817   1
   8   1   9 53.3127 5.71577   1
  -8   1  -9 34.9292 4.66940   2
  -8  -1   9 35.4412 5.15579   1
   9   1  -9 148.753 9.48725   1
   9   1  -9 157.075 9.00605   2
  -9   1   9 151.355 9.16826   2
  -9  -1  -9 140.060 8.47168   1
  -9   1   9 140.456 8.86364   1
   9   1  -9 148.187 8.58843   7
   9  -1   9 146.742 7.80262   7
  -9   1   9 151.511 8.44038   7
   9  -1   9 148.519 8.96083   1
   9   1   9 159.595 9.00537   1
  -9  -1   9 152.410 9.36805   1
   9   1   9 139.982 8.48668   2
  -9   1  -9 155.743 8.63703   2
   9   1   9 139.254 7.95919   7
   9  -1  -9 145.776 8.06591   7
   9  -1  -9 151.523 9.53463   1
  -9  -1   9 153.616 8.03477   7
  -9   1  -9 148.636 8.81300   1
 -10   1   9 2.07130 4.00139   1
 -10  -1  -9 -1.7039 3.57825   1
  10  -1   9 2.66655 3.46811   7
 -10   1   9 0.35338 3.53681   2
  10   1  -9 -1.2986 3.89974   2
  10   1  -9 -2.3771 3.71265   1
  10   1  -9 -0.9062 3.42714   7
  10  -1   9 6.44108 4.19763   1
 -10   1   9 4.18801 3.97861   7
  10   1   9 3.52530 4.57931   1
  10  -1  -9 7.16878 4.52339   1
 -10   1  -9 1.14030 3.53840   2
  10   1   9 -2.3675 3.09481   7
 -10  -1   9 0.45345 3.46381   7
  10  -1  -9 0.33637 3.25692   7
 -10  -1   9 2.83922 4.03001   1
 -10   1  -9 -0.9094 3.52127   1
  10   1   9 0.37127 3.57717   2
 -11   1   9 2.60457 4.13981   7
  11  -1   9 1.02080 4.49952   1
 -11   1   9 1.01348 4.11199   1
  11   1  -9 9.88188 4.36102   7
  11  -1   9 4.51024 3.98761   7
 -11  -1  -9 4.71883 4.34955   1
 -11   1   9 5.46840 4.42058   2
  11   1  -9 0.09350 4.12425   2
  11   1   9 12.3880 4.39065   7
  11  -1  -9 4.60828 3.79364   7
 -11   1  -9 5.60925 4.57860   1
 -11  -1   9 2.34143 4.48664   1
  11  -1  -9 1.78585 4.24350   1
  11   1   9 5.33304 4.40594   2
 -11  -1   9 3.45774 3.44664   7
  12   1  -9 338.457 13.6806   7
  12  -1   9 330.895 12.8550   7
 -12   1   9 350.227 14.0011   7
  12   1  -9 368.429 15.3922   2
 -12  -1  -9 351.326 14.7938   1
  12  -1   9 354.134 14.8895   1
 -12   1   9 342.583 14.9762   1
 -12   1  -9 344.630 14.9148   1
  12   1   9 365.903 14.5782   2
 -12  -1   9 373.709 15.5162   1
 -12  -1   9 352.646 12.9196   7
  12   1   9 339.683 13.4459   7
  12  -1  -9 377.987 16.2672   1
  12  -1  -9 348.573 13.1132   7
  13  -1   9 80.7662 7.59519   7
 -13   1   9 95.3615 8.52847   7
 -13  -1  -9 78.3547 8.78986   1
  13   1  -9 94.9318 8.43813   7
  13  -1   9 74.2350 8.44908   1
  13  -1  -9 89.4111 7.91906   7
 -13  -1   9 89.9666 9.44160   1
 -13   1  -9 104.477 9.88322   1
 -13  -1   9 92.3198 7.80704   7
  13   1   9 99.5564 8.58714   7
  13  -1  -9 88.7080 9.73991   1
  14  -1   9 170.802 12.4249   1
 -14   1   9 190.797 11.6159   7
 -14  -1  -9 184.503 12.2908   1
  14   1  -9 210.711 11.9358   7
  14  -1   9 206.240 11.1988   7
  14  -1  -9 198.340 13.6489   1
  14   1   9 190.397 11.6538   7
 -14  -1   9 196.651 10.8220   7
 -14  -1   9 185.185 12.9673   1
  14  -1  -9 193.527 10.9417   7
  15  -1   9 10.5910 6.20296   1
  15   1  -9 2.56843 5.14082   7
 -15  -1  -9 -1.3229 4.86141   1
  15  -1   9 3.40898 4.98037   7
 -15   1   9 -5.8895 4.30283   7
  15   1   9 -1.5330 4.74884   7
 -15  -1   9 -0.0585 5.34183   1
  15  -1  -9 -0.8724 5.69776   1
  15  -1  -9 -0.5092 4.54669   7
 -15  -1   9 0.46012 4.40294   7
 -16  -1  -9 23.6963 7.14930   1
  16  -1   9 26.4006 7.62460   1
  16  -1   9 36.5135 6.59490   7
 -16   1   9 35.7950 7.05156   7
  16   1  -9 36.1652 6.82764   7
  16  -1  -9 30.2325 6.22826   7
  16  -1  -9 38.7080 8.77318   1
 -16  -1   9 34.2686 6.29719   7
  16   1   9 39.9412 7.48997   7
 -16  -1   9 25.0662 7.61682   1
   0   2  -9 -1.6165 1.92638   4
   0   2  -9 0.38296 1.91136   2
   0   2   9 -3.0509 1.92419   2
   0  -2  -9 1.75770 2.40237   1
   0  -2   9 3.99283 2.14482   4
   0   2   9 1.22590 2.06212   4
   0  -2   9 -2.1948 2.06016   1
   0  -2  -9 -1.0337 1.48374   4
  -1   2   9 1637.22 32.5663   4
  -1  -2  -9 1702.74 32.0023   5
   1   2  -9 1657.40 33.0015   4
  -1   2   9 1691.62 31.9300   2
  -1  -2  -9 1654.20 31.1781   4
   1  -2   9 1677.53 32.0120   4
   1   2  -9 1653.50 31.7031   2
   1  -2   9 1710.93 32.8503   1
  -1  -2   9 1696.90 32.1579   4
   1  -2  -9 1656.25 32.8522   1
   1   2   9 1651.40 31.5958   2
  -1  -2   9 1617.24 35.2372   3
  -1  -2   9 1666.43 32.9135   1
  -1   2  -9 1624.23 31.6147   2
   1  -2  -9 1646.84 31.2560   4
  -1   2  -9 1701.27 32.8549   4
   1   2   9 1663.25 32.5436   4
  -2  -2  -9 671.199 15.8716   1
  -2  -2  -9 675.367 14.4783   5
   2  -2   9 690.789 15.1396   4
  -2   2   9 682.444 15.7523   4
   2  -2   9 684.187 16.1426   1
   2   2  -9 654.821 16.1065   4
  -2   2   9 667.886 15.4369   2
   2   2  -9 653.693 15.3405   2
   2  -2   9 681.996 14.8802   5
   2  -2  -9 675.722 16.2475   1
  -2   2  -9 664.810 15.1287   2
   2   2   9 657.476 15.5046   4
   2   2   9 663.195 15.1671   2
  -2  -2   9 677.936 15.1653   4
  -2  -2   9 666.451 17.3580   3
   2  -2  -9 658.068 14.4502   4
  -2  -2   9 687.052 16.2025   1
   3  -2   9 310.700 9.80967   1
  -3  -2  -9 313.213 9.76269   1
   3  -2   9 316.585 8.13423   7
   3  -2   9 326.953 8.67776   5
  -3   2   9 330.672 9.96093   4
   3  -2   9 323.969 9.05767   4
  -3   2   9 332.086 9.87707   2
   3   2  -9 327.462 9.65160   2
   3  -2  -9 329.743 8.73640   4
   3  -2  -9 317.901 10.2040   1
  -3  -2   9 319.072 8.57111   7
  -3  -2   9 311.011 10.1098   1
  -3  -2   9 312.306 9.21613   4
  -3  -2   9 317.016 10.7109   3
   3   2   9 293.778 9.32578   2
  -3   2  -9 319.354 9.43089   2
   3   2   9 303.344 9.44823   4
  -4  -2  -9 85.5765 5.54449   1
  -4   2   9 90.7441 5.82926   4
   4   2  -9 78.6351 5.41296   2
   4  -2   9 87.0640 5.00444   4
   4  -2   9 88.9586 5.72343   1
   4  -2   9 90.1282 4.59553   5
   4  -2   9 78.3775 4.45422   7
  -4   2   9 68.3671 5.49430   2
   4  -2  -9 76.0012 4.54349   7
   4   2   9 86.6225 5.43340   4
  -4  -2   9 77.1845 4.46615   7
  -4   2  -9 81.8215 5.28012   2
  -4  -2   9 88.7992 6.03574   3
   4  -2  -9 83.8968 4.72014   4
   4  -2  -9 84.2696 5.99367   1
  -4  -2   9 74.6183 5.11521   4
   4   2   9 82.0941 5.41714   2
  -4  -2   9 90.8992 6.02943   1
  -5   2   9 239.028 9.36476   4
  -5   2   9 256.385 9.42106   2
   5   2  -9 243.971 9.09827   2
   5  -2   9 247.173 8.34426   4
   5  -2   9 248.126 9.25325   1
  -5  -2  -9 253.235 9.10482   1
   5  -2   9 248.456 7.48640   7
   5  -2   9 249.426 8.22998   4
   5   2   9 245.594 8.85872   2
   5  -2  -9 256.407 9.98028   1
   5   2   9 238.745 8.72506   4
  -5  -2   9 257.021 8.62209   4
   5  -2  -9 237.393 7.62801   7
  -5  -2   9 249.593 9.14873   3
  -5  -2   9 244.385 7.52101   7
  -5  -2   9 250.121 9.68603   1
  -5   2  -9 225.327 8.72463   2
   6  -2   9 12.6695 2.70308   7
   6  -2   9 12.0723 2.90858   4
   6   2  -9 15.3193 3.55029   2
  -6   2   9 9.28227 3.46627   2
  -6   2   9 14.9049 3.46779   4
  -6  -2  -9 15.0668 3.46982   1
   6  -2   9 10.4036 3.46241   1
  -6   2   9 14.2465 3.43069   7
  -6  -2   9 16.3398 3.64086   3
   6  -2  -9 21.5193 4.28556   1
  -6  -2   9 11.6057 3.75718   1
   6  -2  -9 22.5629 3.29615   7
  -6  -2   9 9.01641 2.73289   7
  -6  -2   9 14.3988 3.00969   4
  -6   2  -9 14.7488 3.30919   2
   6   2   9 14.6818 3.26942   4
   6   2   9 16.9249 3.43738   2
   7   2  -9 1948.51 39.6672   2
  -7   2   9 1994.82 39.9979   2
   7  -2   9 2005.79 36.4874   7
  -7  -2  -9 1959.50 40.5005   1
   7  -2   9 1923.35 40.4312   1
   7   2  -9 1963.80 38.3476   7
  -7   2   9 1941.81 38.3830   7
  -7   2   9 2011.46 41.2466   4
  -7  -2   9 1939.27 36.2866   7
  -7   2  -9 2018.33 39.2620   2
   7   2   9 1941.74 37.6792   7
  -7  -2   9 2006.61 41.2353   1
   7  -2  -9 1934.26 36.8261   7
   7  -2  -9 1911.97 41.4033   1
   7   2   9 1968.06 40.3139   4
   7   2   9 1972.37 39.2458   2
  -7   2  -9 2065.73 38.1773   7
   8   2  -9 237.614 9.96066   7
  -8   2   9 258.507 10.3432   7
   8   2  -9 259.015 10.8015   2
  -8   2   9 240.975 10.7664   2
   8  -2   9 246.958 8.65261   7
  -8  -2  -9 248.275 10.5413   1
   8  -2   9 245.220 10.5405   1
  -8   2  -9 228.581 9.90893   2
  -8  -2   9 262.406 11.3011   1
  -8  -2   9 260.068 8.63817   7
   8  -2  -9 236.395 11.1988   1
   8   2   9 248.170 9.66518   7
   8   2   9 245.817 10.2348   2
  -8   2  -9 247.777 9.82747   7
   8  -2  -9 252.413 9.23821   7
   9  -2   9 300.479 12.3413   1
  -9  -2  -9 307.588 12.2589   1
   9  -2   9 299.932 10.1199   7
  -9   2   9 323.943 12.7280   2
  -9   2   9 297.976 11.6614   7
   9   2  -9 317.157 11.7762   7
   9   2  -9 307.460 12.3023   2
   9   2   9 298.364 11.1584   7
  -9  -2   9 307.004 9.95543   7
  -9  -2   9 300.119 12.6433   1
  -9   2  -9 304.586 11.4450   7
   9  -2  -9 293.060 10.4106   7
  -9   2  -9 326.826 12.1465   2
   9   2   9 307.525 12.0450   2
   9  -2  -9 313.692 13.0857   1
 -10   2   9 182.508 9.96156   7
  10  -2   9 176.360 8.30194   7
 -10   2   9 181.982 10.3604   2
  10   2  -9 187.230 10.3674   2
 -10  -2  -9 198.948 10.4159   1
  10  -2   9 176.460 10.0859   1
  10   2  -9 166.323 9.43068   7
 -10   2  -9 192.655 9.61171   7
  10   2   9 180.735 10.1240   2
  10  -2  -9 149.054 10.5585   1
 -10  -2   9 175.859 8.28786   7
  10  -2  -9 198.102 8.87219   7
  10   2   9 170.791 9.29275   7
 -10   2  -9 182.373 9.94106   2
 -10  -2   9 179.551 10.4747   1
  11   2  -9 2.12796 3.82678   7
  11   2  -9 5.35005 4.36886   2
 -11   2   9 4.64880 4.38034   7
  11  -2   9 1.81163 4.30893   1
 -11  -2  -9 0.17413 3.98120   1
  11  -2   9 0.51774 3.56762   7
 -11   2   9 12.1545 5.23992   2
 -11  -2   9 2.89069 3.36379   7
 -11   2  -9 3.62552 4.01896   7
  11  -2  -9 -1.2700 4.53916   1
 -11   2  -9 1.88634 4.10693   2
  11   2   9 3.79094 4.12603   7
  11   2   9 4.73810 4.21697   2
  11  -2  -9 -0.0476 3.65761   7
 -11  -2   9 -0.1565 4.15456   1
  12  -2   9 6.40672 3.90184   7
  12  -2   9 4.23696 4.86262   1
 -12  -2  -9 11.8240 5.07496   1
 -12   2   9 7.49691 4.80536   7
  12   2  -9 9.50714 4.62096   7
  12   2  -9 3.91545 4.75117   2
 -12   2   9 8.97933 5.22293   2
  12  -2  -9 11.0405 4.40964   7
 -12  -2   9 3.01787 3.50422   7
 -12   2  -9 0.72682 4.24585   2
  12   2   9 7.42952 4.47683   7
  12   2   9 1.52017 4.44805   2
  12  -2  -9 4.18665 5.19450   1
 -12   2  -9 9.47900 4.43159   7
 -12  -2   9 8.65603 5.09315   1
 -13  -2  -9 141.562 10.8158   1
  13  -2   9 154.232 9.32456   7
  13   2  -9 163.566 10.7160   7
 -13   2   9 152.468 11.8523   2
  13   2  -9 134.864 10.8968   2
 -13   2   9 165.569 10.9166   7
  13  -2   9 161.700 11.5968   1
  13   2   9 160.283 10.7536   7
 -13   2  -9 155.308 11.0372   2
  13  -2  -9 153.641 9.37929   7
  13  -2  -9 147.767 11.5791   1
  13   2   9 151.120 11.1517   2
 -13  -2   9 165.623 8.99044   7
 -13  -2   9 164.961 11.8300   1
 -14  -2  -9 13.9036 5.57296   1
  14  -2   9 10.4415 4.66513   7
  14   2  -9 9.22553 5.78764   2
  14  -2   9 12.9758 6.04416   1
  14   2  -9 -0.5242 4.90078   7
 -14   2   9 7.49468 5.09793   7
 -14  -2  -9 11.4758 6.54275   3
  14  -2  -9 11.8521 6.47733   1
 -14  -2   9 6.58302 4.25437   7
  14   2   9 11.7747 5.43373   7
  14   2   9 7.19298 5.46384   2
 -14  -2   9 8.84125 5.90964   1
  14  -2  -9 16.5974 4.82964   7
  15   2  -9 231.380 13.0185   7
 -15  -2  -9 184.331 14.0938   3
  15  -2   9 201.234 11.1546   7
 -15   2   9 210.608 12.8555   7
 -15  -2  -9 221.571 13.4413   1
  15  -2   9 219.505 13.8962   1
 -15  -2   9 193.376 13.8670   1
  15   2   9 193.764 12.8034   7
  15  -2  -9 211.007 14.6763   1
  15  -2  -9 221.220 11.0464   7
 -15  -2   9 204.804 9.90768   7
  16   2  -9 -2.8616 5.13767   7
 -16  -2  -9 8.06114 5.82085   1
 -16   2   9 -3.5115 5.05165   7
  16  -2   9 5.16459 5.99347   1
  16  -2   9 2.27676 4.75342   7
  16   2   9 -2.3712 5.49001   7
  16  -2  -9 -0.7106 4.38236   7
  16  -2  -9 1.80700 6.05368   1
 -16  -2   9 -4.2733 5.42820   1
   0   3   9 294.835 8.84465   2
   0  -3   9 307.481 11.9885   3
   0   3  -9 301.305 8.93517   2
   0  -3   9 295.792 9.25685   1
   0  -3  -9 299.547 9.26455   1
   0   3   9 292.732 8.74583   4
   0  -3  -9 290.319 11.0788   3
   1   3  -9 210.757 7.26704   2
  -1   3   9 217.776 7.33797   4
  -1  -3  -9 196.930 7.52274   5
  -1  -3  -9 207.608 9.78846   3
  -1  -3  -9 204.858 7.55073   1
   1  -3   9 214.698 10.4500   3
   1  -3   9 193.325 7.46254   1
  -1   3   9 195.078 7.17280   2
  -1   3  -9 190.780 7.10542   2
  -1  -3   9 185.836 9.38961   3
   1   3   9 200.609 7.01140   4
   1  -3  -9 213.484 8.76977   3
   1   3   9 211.929 7.21996   2
  -1  -3   9 208.508 7.70060   1
   1  -3  -9 196.486 7.52838   1
  -2  -3  -9 20.6577 3.32168   5
   2  -3   9 27.4409 3.71734   5
  -2   3   9 18.9103 3.05388   4
  -2  -3  -9 18.6043 4.67574   3
   2   3  -9 23.7841 3.32877   2
  -2  -3  -9 23.6184 3.29857   1
  -2   3   9 19.4181 3.27327   2
   2  -3   9 21.8461 3.38332   1
   2   3   9 19.8376 2.96845   4
   2   3   9 21.6275 3.15543   2
  -2   3  -9 21.7966 3.03077   2
   2  -3  -9 30.7680 4.12603   3
  -2  -3   9 21.6734 3.37014   1
  -2  -3   9 22.4549 4.62735   3
   2  -3  -9 20.0308 3.42141   1
   3  -3   9 55.6508 4.77340   1
  -3   3   9 63.7521 4.91933   4
   3   3  -9 52.6780 4.57084   2
   3  -3   9 53.7947 2.89937   4
  -3  -3  -9 56.5518 6.78534   3
  -3  -3  -9 54.9956 4.65431   1
  -3   3   9 52.2314 4.58266   2
   3  -3   9 54.2612 4.69824   5
  -3  -3   9 60.3696 6.13594   3
  -3  -3   9 56.8714 4.91480   1
   3   3   9 51.7463 4.20909   2
  -3   3  -9 52.7187 4.40217   2
   3  -3  -9 45.3980 4.65744   1
   4  -3   9 6.24301 2.71168   5
   4  -3   9 2.32784 1.71469   4
   4  -3   9 -0.5284 2.42186   1
  -4  -3  -9 4.14419 4.45311   3
   4   3  -9 2.56767 2.61643   2
  -4   3   9 2.76447 2.67413   2
  -4   3   9 0.24639 2.51369   4
  -4  -3  -9 5.27414 2.61641   1
   4   3   9 2.64587 2.50081   2
  -4  -3   9 4.35366 3.58779   3
  -4  -3   9 6.88075 2.99843   1
   4  -3  -9 1.57431 2.76479   1
  -4   3  -9 3.94242 2.63404   2
   5   3  -9 17.2281 3.64807   2
   5  -3   9 15.5904 3.50865   1
  -5  -3  -9 18.8311 5.54541   3
  -5  -3  -9 14.9414 3.40196   1
  -5   3   9 13.3097 3.54900   2
   5  -3   9 17.5156 3.43501   5
   5  -3   9 15.5893 2.33824   4
   5  -3  -9 14.2835 3.83219   1
  -5  -3   9 18.5586 3.75078   1
  -5  -3   9 15.7290 4.06655   3
   5   3   9 16.3684 3.26211   2
  -5   3  -9 17.1156 3.34316   2
   6  -3   9 7.92282 3.29244   1
   6  -3   9 10.1627 2.38873   4
  -6  -3  -9 5.19753 4.88255   3
  -6  -3  -9 6.24506 3.16027   1
   6   3  -9 6.89878 3.15236   2
  -6   3   9 7.25957 3.43480   2
  -6  -3   9 13.7905 4.05377   3
   6  -3  -9 11.6013 3.92588   1
   6   3   9 10.1611 3.33636   2
  -6   3  -9 5.22326 2.99696   2
  -6  -3   9 7.19486 3.54000   1
  -7   3   9 21.3991 4.76146   2
   7  -3   9 28.8673 3.35673   4
  -7  -3  -9 24.3383 6.36598   3
   7   3  -9 25.7654 4.73435   2
   7  -3   9 25.9307 4.23886   6
   7  -3   9 24.4414 4.34234   1
  -7  -3  -9 29.3360 4.62160   1
   7  -3  -9 23.7906 4.63733   1
  -7  -3   9 30.1697 4.96351   1
   7   3   9 27.2511 4.47919   2
  -7  -3   9 24.2955 4.65539   3
  -7   3  -9 27.1127 4.47153   2
  -8   3   9 34.2081 5.41761   2
  -8  -3  -9 36.2078 7.08195   3
  -8  -3  -9 32.1747 4.98398   1
   8   3  -9 37.6992 5.36886   2
   8  -3   9 32.0353 4.96670   1
   8  -3  -9 25.5640 5.21912   1
  -8   3  -9 40.4696 5.38221   2
  -8  -3   9 43.0037 5.67286   1
   8   3   9 35.1264 5.09225   2
  -9   3   9 124.671 8.91436   2
   9   3  -9 126.340 8.86842   2
  -9  -3  -9 120.075 8.19140   1
   9  -3   9 112.054 8.34085   1
  -9  -3  -9 135.433 11.0861   3
  -9  -3   9 124.098 8.81488   1
   9   3   9 125.026 8.54883   2
   9  -3  -9 118.583 9.02191   1
  -9   3  -9 111.553 8.23983   2
 -10  -3  -9 8.28311 4.14565   1
  10  -3   9 0.30118 3.95116   1
 -10  -3  -9 5.40791 5.56684   3
 -10   3   9 -1.1387 3.90601   2
  10   3  -9 1.53929 4.07112   2
 -10  -3   9 -0.0906 3.83326   1
 -10   3  -9 1.03920 3.94763   2
  10   3   9 7.49581 4.36798   2
  10  -3  -9 -1.0184 4.28269   1
 -11  -3  -9 4.22106 4.33235   1
 -11  -3  -9 4.48238 5.86779   3
  11   3  -9 6.86228 4.72322   2
  11  -3   9 10.4333 4.90505   1
 -11   3   9 12.4279 5.30543   2
 -11   3  -9 11.4965 4.96611   2
  11  -3  -9 13.4060 5.28906   1
 -11  -3   9 -3.7480 3.88775   1
 -11   3  -9 9.83148 4.62803   7
  11   3   9 -1.5019 4.22319   2
 -12   3   9 272.940 13.4111   7
 -12  -3  -9 296.304 13.9574   1
 -12   3   9 314.571 14.5873   2
  12   3  -9 313.228 14.2956   2
 -12  -3  -9 309.253 16.3149   3
  12  -3   9 291.287 14.1068   1
 -12   3  -9 300.463 13.2494   7
  12   3   9 283.393 13.7021   2
 -12   3  -9 292.665 13.6520   2
  12  -3  -9 266.296 14.3395   1
 -12  -3   9 280.697 14.0378   1
 -13  -3  -9 76.2897 8.52259   1
 -13  -3  -9 62.8235 9.54850   3
  13  -3   9 69.2005 8.41590   1
  13   3  -9 87.8621 9.28460   2
 -13   3   9 78.6900 9.21544   2
 -13   3   9 92.9199 9.35780   7
  13  -3  -9 76.8134 9.46829   1
 -13   3  -9 81.4614 8.72505   2
  13   3   9 80.5535 8.67665   2
 -13  -3   9 62.5013 8.37237   1
 -13   3  -9 94.4165 9.16065   7
 -14   3   9 172.292 11.9715   7
  14  -3   9 175.824 12.2848   1
  14   3  -9 170.726 12.5751   2
 -14  -3  -9 178.211 12.1026   1
 -14   3   9 164.826 12.7419   2
 -14  -3  -9 175.234 13.7153   3
 -14  -3   9 128.471 11.6408   1
  14  -3  -9 154.483 12.7366   1
 -14   3  -9 155.090 11.8056   7
 -14   3  -9 181.253 12.2149   2
  14   3   9 149.468 11.8756   2
 -15  -3  -9 -2.7472 4.89959   1
  15   3  -9 -4.3627 4.95470   7
  15   3  -9 2.47846 5.53740   2
 -15   3   9 1.65997 5.53567   2
 -15   3   9 -2.7444 5.54647   7
 -15  -3  -9 4.25475 6.01412   3
  15  -3   9 3.66173 5.73592   1
 -15  -3   9 -1.3751 5.10192   1
  15  -3  -9 1.94377 5.93161   1
  15   3   9 5.85487 5.80492   2
 -15   3  -9 3.97963 5.17308   7
   0   4   9 -1.5286 2.28700   2
   0  -4   9 3.34655 4.21082   3
   0  -4  -9 0.37912 2.79410   5
   0  -4  -9 3.51822 3.75646   3
   0  -4   9 2.30619 2.51536   1
   0   4  -9 -2.4665 2.09671   2
   1  -4   9 30.6606 3.74763   1
   1  -4   9 27.5393 5.69487   3
   1   4  -9 34.4052 3.63010   2
  -1  -4  -9 26.8164 5.44970   3
  -1   4   9 26.8405 3.37471   2
  -1  -4  -9 30.7905 4.52850   5
  -1  -4  -9 30.5586 3.62758   1
  -1   4  -9 29.8624 3.56184   2
   1  -4  -9 26.2499 3.51931   1
  -1  -4   9 28.5989 3.59492   1
   1  -4  -9 39.7150 5.31134   3
  -1  -4   9 37.2838 6.05968   3
   1   4   9 25.5444 3.33185   2
  -2  -4  -9 1.24665 2.35282   1
  -2  -4  -9 -3.5375 3.93184   3
   2  -4   9 2.00823 4.40858   3
   2   4  -9 2.51124 2.41788   2
   2  -4   9 2.09382 2.61990   1
  -2  -4  -9 0.07342 2.83137   5
   2  -4   9 3.49306 3.27425   5
  -2   4   9 2.95053 2.57591   2
   2  -4  -9 -0.3555 3.19483   3
  -2  -4   9 3.05631 4.08231   3
   2  -4  -9 1.80481 2.60429   1
   2   4   9 3.10402 2.40893   2
  -2   4  -9 4.77381 2.52234   2
  -2  -4   9 -0.2340 2.40443   1
   3   4  -9 184.227 7.51375   2
   3  -4   9 188.295 8.64922   5
   3  -4   9 178.771 7.77793   1
  -3  -4  -9 193.236 8.45708   5
  -3   4   9 167.510 7.54139   2
  -3  -4  -9 168.242 10.8063   3
  -3  -4  -9 184.355 7.52113   1
  -3  -4   9 183.594 7.80719   1
  -3   4  -9 178.584 7.38867   2
   3  -4  -9 187.142 8.08723   1
   3   4   9 184.549 7.31128   2
  -3  -4   9 172.198 10.1435   3
  -4   4   9 6.87561 3.14442   2
   4  -4   9 1.26130 3.42153   5
  -4  -4  -9 5.11953 4.92868   3
   4  -4   9 9.59067 3.17159   1
   4   4  -9 8.06997 3.10608   2
  -4  -4  -9 4.10577 2.74864   1
  -4  -4   9 3.25027 3.89834   3
  -4  -4   9 6.08374 3.14494   1
  -4   4  -9 8.26883 3.10164   2
   4   4   9 6.25020 2.79015   2
   4  -4  -9 7.54173 3.30980   1
   5  -4   9 116.247 7.98230   6
   5  -4   9 95.3178 6.53001   1
  -5  -4  -9 94.2223 6.24227   1
  -5   4   9 96.0091 6.87060   2
   5   4  -9 99.6192 6.70489   2
  -5  -4  -9 89.6149 9.41464   3
   5  -4   9 103.081 7.06917   5
   5  -4  -9 100.085 7.06936   1
  -5  -4   9 82.7916 6.63711   1
   5   4   9 84.9228 6.13235   2
  -5   4  -9 98.3348 6.45765   2
  -5  -4   9 98.0943 8.52456   3
  -6   4   9 252.774 10.5133   2
   6   4  -9 262.027 10.3720   2
   6  -4   9 251.880 11.2571   6
   6  -4   9 248.267 10.3793   5
  -6  -4  -9 255.932 9.87561   1
   6  -4   9 258.335 10.1171   1
  -6  -4  -9 247.403 13.5857   3
  -6   4  -9 239.173 9.75030   2
   6  -4  -9 256.270 10.9632   1
  -6  -4   9 269.100 11.9389   3
  -6  -4   9 260.340 10.4708   1
   6   4   9 243.370 9.63693   2
   7   4  -9 37.7669 5.35664   2
  -7  -4  -9 41.8582 5.29969   1
  -7   4   9 50.1590 5.86699   2
  -7  -4  -9 50.0761 8.01360   3
   7  -4   9 45.3186 5.74956   6
   7  -4   9 51.3547 5.69964   1
   7  -4   9 51.6297 5.90151   5
   7  -4  -9 37.5093 5.77327   1
  -7  -4   9 49.1470 6.78522   3
  -7  -4   9 38.5744 5.39256   1
  -7   4  -9 52.6698 5.59491   2
   7   4   9 44.5817 5.35509   2
   8   4  -9 560.287 17.0763   2
  -8  -4  -9 554.602 21.1574   3
  -8  -4  -9 599.276 17.1776   1
  -8   4   9 592.600 17.8680   2
   8  -4   9 564.580 17.2764   1
   8  -4  -9 559.124 17.9744   1
  -8  -4   9 578.550 17.6169   1
  -8   4  -9 593.972 17.0747   2
   8   4   9 549.929 16.4510   2
  -8  -4   9 583.575 18.8055   3
   9   4  -9 -0.8975 4.01844   2
  -9  -4  -9 -1.3064 3.64163   1
   9  -4   9 5.59985 4.06535   1
  -9   4   9 3.65639 4.20432   2
  -9  -4  -9 5.83578 6.03905   3
  -9   4  -9 6.31701 4.11404   2
   9   4   9 6.95473 4.06229   2
   9  -4  -9 10.9421 4.89324   1
  -9  -4   9 8.20348 4.37901   1
 -10  -4  -9 14.3712 4.87593   1
 -10   4   9 2.07316 4.31411   2
 -10  -4  -9 15.2701 6.74294   3
  10  -4   9 14.7166 5.10728   1
  10   4  -9 17.1401 5.28396   2
  10  -4  -9 21.3586 5.71762   1
  10   4   9 12.2108 4.80823   2
 -10   4  -9 19.2170 5.11992   2
 -10  -4   9 17.6585 5.18315   1
 -11  -4  -9 393.929 18.8700   3
 -11   4   9 450.814 16.9219   2
  11   4  -9 420.578 16.2098   2
 -11  -4  -9 393.883 15.5203   1
  11  -4   9 381.817 15.5736   1
  11  -4  -9 401.179 16.6470   1
 -11  -4   9 380.726 16.0276   1
 -11   4  -9 423.188 15.9624   2
  11   4   9 415.052 15.6599   2
  12  -4   9 11.0026 5.37056   1
 -12  -4  -9 -1.4900 4.28878   1
 -12  -4  -9 8.17486 6.68551   3
 -12   4   9 -0.6919 4.79205   2
  12   4  -9 2.95817 4.70696   2
  12   4   9 3.91889 4.79404   2
 -12   4  -9 -1.1079 4.47825   2
 -12  -4   9 3.91533 4.85737   1
  12  -4  -9 7.07816 5.32901   1
  13   4  -9 23.9750 6.29913   2
 -13  -4  -9 30.0182 7.98447   3
 -13  -4  -9 29.2839 6.37060   1
 -13   4   9 31.0147 7.08579   2
  13  -4   9 23.4510 6.11969   1
 -13  -4   9 22.2675 6.54254   1
  13  -4  -9 36.1923 7.43677   1
 -13   4  -9 18.5547 6.05061   2
  13   4   9 19.6119 6.14031   2
 -14   4   9 -6.5376 4.88368   2
 -14  -4  -9 -3.6320 6.38296   3
  14  -4   9 -4.0124 4.88448   1
  14   4  -9 5.97900 5.60031   2
 -14  -4  -9 1.22670 4.71122   1
 -14   4  -9 0.35708 4.90915   2
 -14  -4   9 -2.2352 4.79643   1
  14  -4  -9 4.61795 5.66914   1
  14   4   9 7.56740 5.77687   2
   0  -5  -9 227.290 10.4935   5
   0   5  -9 220.940 8.07433   2
   0  -5   9 240.147 13.0035   3
   0  -5  -9 215.575 7.99348   1
   0   5   9 223.441 7.94086   2
   0  -5   9 230.432 8.31245   1
   0  -5  -9 209.227 11.4634   3
   1  -5   9 139.452 10.7935   3
  -1  -5  -9 128.608 6.30268   1
   1  -5   9 128.406 6.55852   1
  -1  -5  -9 135.924 8.72626   5
  -1   5   9 118.197 6.44431   2
   1   5  -9 139.981 6.54579   2
  -1  -5  -9 140.887 10.4045   3
  -1   5  -9 126.310 6.39432   2
   1  -5  -9 138.797 9.37841   3
  -1  -5   9 139.672 6.59236   1
   1   5   9 135.904 6.34585   2
  -1  -5   9 120.032 9.80901   3
   1  -5  -9 137.675 6.55343   1
   1  -5  -9 141.861 8.72613   5
   2  -5   9 14.0691 3.42342   1
  -2  -5  -9 29.9181 6.48649   3
   2   5  -9 15.1732 3.35034   2
   2  -5   9 27.1344 5.06124   5
  -2  -5  -9 18.2879 3.42189   1
   2  -5   9 13.8521 5.89152   3
  -2   5   9 14.9590 3.39568   2
  -2  -5  -9 17.8457 4.62146   5
   2  -5  -9 18.3479 4.89518   5
  -2  -5   9 14.1129 5.43027   3
  -2  -5   9 21.6071 3.47246   1
   2  -5  -9 20.6812 3.51380   1
  -2   5  -9 15.9880 3.31864   2
   2   5   9 17.0749 3.11778   2
   2  -5  -9 20.0097 5.00744   3
  -3  -5  -9 22.4289 4.99109   5
  -3  -5  -9 22.1663 6.35373   3
   3  -5   9 20.7378 6.27308   3
   3  -5   9 22.7285 4.87279   5
   3  -5   9 17.8471 3.58531   1
  -3  -5  -9 24.7259 3.63799   1
  -3   5   9 24.2040 3.89201   2
   3   5  -9 20.3476 3.70971   2
   3   5   9 24.8070 3.67008   2
  -3   5  -9 21.4578 3.63627   2
   3  -5  -9 20.4122 3.83914   1
  -3  -5   9 30.9388 4.04162   1
  -3  -5   9 24.7727 6.14877   3
  -4   5   9 5.62832 3.35315   2
   4  -5   9 0.15187 3.63585   5
  -4  -5  -9 -1.3045 5.25957   3
   4   5  -9 -0.3602 2.98486   2
   4  -5   9 4.44298 3.24307   1
  -4  -5  -9 4.04518 2.95013   1
  -4  -5   9 3.65294 3.18920   1
   4   5   9 2.58473 3.02204   2
  -4   5  -9 6.84151 3.10044   2
   4  -5  -9 7.82600 3.44397   1
  -4  -5   9 12.3586 5.52628   3
  -5  -5  -9 21.9959 3.97564   1
   5   5  -9 16.7530 4.12824   2
   5  -5   9 19.4495 3.98118   1
  -5   5   9 11.6932 4.09337   2
  -5  -5  -9 15.0410 6.24785   3
   5  -5   9 17.5518 4.78690   5
   5  -5  -9 18.9045 4.20830   1
  -5   5  -9 18.7235 3.92882   2
  -5  -5   9 23.0626 6.11354   3
   5   5   9 12.6067 3.65932   2
  -5  -5   9 15.9887 4.09551   1
   6   5  -9 9.47633 3.92131   2
  -6  -5  -9 12.5484 6.65481   3
   6  -5   9 4.44263 3.50775   1
   6  -5   9 2.06830 4.31962   5
  -6   5   9 3.99833 3.67502   2
  -6  -5  -9 2.97079 3.37152   1
  -6  -5   9 7.85372 3.75153   1
  -6  -5   9 8.77387 5.29130   3
  -6   5  -9 8.09821 3.54210   2
   6  -5  -9 11.9802 4.14097   1
   6   5   9 -0.8712 3.09178   2
  -7   5   9 11.8720 4.31079   2
   7  -5   9 7.66056 3.90194   1
   7   5  -9 16.1740 4.64629   2
  -7  -5  -9 10.8284 3.77989   1
  -7  -5  -9 5.78858 5.96346   3
   7  -5   9 3.51994 4.46706   5
   7  -5  -9 10.2124 4.51024   1
   7   5   9 10.8220 4.04524   2
  -7   5  -9 11.7732 4.00660   2
  -7  -5   9 5.07931 4.11342   1
  -7  -5   9 10.9262 5.62530   3
   8   5  -9 14.5612 4.87018   2
  -8  -5  -9 13.7957 4.38598   1
   8  -5   9 22.1793 4.93993   1
  -8  -5  -9 21.4256 7.21077   3
  -8   5   9 19.0048 5.05522   2
   8  -5  -9 28.0167 5.59367   1
  -8  -5   9 16.1213 5.94505   3
  -8   5  -9 19.9906 4.62098   2
  -8  -5   9 20.2121 5.02140   1
   8   5   9 11.8306 4.40364   2
  -9  -5  -9 100.493 8.21027   1
   9  -5   9 91.3496 8.10868   1
  -9   5   9 93.2457 8.42961   2
   9   5  -9 89.9049 8.11844   2
  -9  -5  -9 89.9586 11.1858   3
   9  -5  -9 90.8447 8.41760   1
   9   5   9 107.741 8.41867   2
  -9  -5   9 103.448 10.1335   3
  -9   5  -9 92.6489 7.98298   2
  -9  -5   9 102.360 8.70931   1
 -10  -5  -9 -4.0737 3.79902   1
 -10  -5  -9 -4.5584 6.00330   3
  10   5  -9 -2.0282 4.19862   2
 -10   5   9 -1.3107 4.26337   2
  10  -5   9 3.94470 4.54880   1
 -10   5  -9 -1.3391 3.88831   2
 -10  -5   9 6.30198 4.76104   1
  10   5   9 -3.6311 3.93136   2
  10  -5  -9 2.52488 4.63976   1
  11   5  -9 3.01029 4.94044   2
 -11  -5  -9 0.05345 6.42886   3
 -11  -5  -9 8.28527 4.85222   1
  11  -5   9 1.66855 4.57385   1
 -11   5   9 -2.2891 4.59883   2
  11   5   9 -2.5153 4.24415   2
  11  -5  -9 -1.1232 4.81361   1
 -11   5  -9 2.13023 4.35187   2
 -11  -5   9 0.81434 4.48824   1
  12  -5   9 228.226 12.6376   1
  12   5  -9 230.984 13.1650   2
 -12   5   9 209.994 12.9736   2
 -12  -5  -9 209.760 12.2534   1
 -12  -5  -9 221.838 16.1680   3
 -12   5  -9 213.773 12.6190   2
 -12  -5   9 203.932 12.4639   1
  12   5   9 198.012 12.1186   2
  12  -5  -9 230.682 13.6864   1
 -13   5   9 54.1613 8.26983   2
  13   5  -9 54.5559 8.13616   2
  13  -5   9 72.0246 8.62299   1
 -13  -5  -9 61.8644 10.3335   3
 -13  -5  -9 55.9285 7.66928   1
  13   5   9 57.6899 7.91731   2
  13  -5  -9 43.9133 7.86994   1
 -13   5  -9 55.9152 8.03086   2
 -13  -5   9 58.3912 8.25311   1
   0  -6   9 3.20928 3.05538   1
   0   6   9 -2.9606 2.50512   2
   0  -6   9 6.08787 5.71330   3
   0  -6  -9 -3.7516 4.19535   5
   0   6  -9 3.07266 2.92088   2
   0  -6  -9 2.65238 5.10904   3
  -1  -6  -9 633.852 21.6393   3
  -1  -6  -9 664.262 20.0771   5
   1  -6   9 638.722 15.8961   1
   1   6  -9 632.690 15.5878   2
  -1   6   9 617.784 15.3301   2
   1  -6   9 598.243 22.5525   3
   1  -6  -9 600.408 20.1113   5
  -1  -6   9 655.484 15.6672   1
   1  -6  -9 652.272 20.8966   3
  -1   6  -9 613.445 15.4929   2
   1   6   9 611.293 15.0692   2
  -1  -6   9 606.426 22.4492   3
   2  -6   9 229.322 14.0416   3
  -2  -6  -9 242.158 14.3947   3
   2  -6   9 238.609 8.88916   1
  -2  -6  -9 223.304 11.6737   5
   2  -6   9 238.702 12.2221   5
   2   6  -9 225.665 8.87590   2
  -2   6   9 227.888 8.96546   2
  -2  -6   9 230.914 13.8029   3
   2   6   9 242.683 8.56736   2
  -2  -6   9 233.994 8.76417   1
  -2   6  -9 249.183 8.87590   2
   2  -6  -9 234.108 12.4609   5
   3   6  -9 114.765 7.10283   2
  -3   6   9 119.171 7.21045   2
   3  -6   9 122.611 7.15341   1
   3  -6   9 113.889 9.66986   5
   3  -6   9 108.289 11.0543   3
  -3  -6  -9 109.142 11.1701   3
  -3  -6   9 119.648 11.2916   3
  -3   6  -9 122.371 6.90608   2
  -3  -6   9 125.507 6.95417   1
   3  -6  -9 120.341 6.97612   1
   3   6   9 111.908 6.57383   2
   3  -6  -9 135.726 10.9475   5
   4  -6   9 46.5653 5.21874   1
  -4  -6  -9 37.7951 8.01974   3
   4   6  -9 32.2544 4.80412   2
   4  -6   9 38.9944 6.50641   5
  -4   6   9 50.2537 5.42136   2
   4   6   9 35.4278 4.53272   2
   4  -6  -9 37.4337 4.98909   1
  -4   6  -9 38.1469 4.83821   2
  -4  -6   9 40.2697 4.93473   1
  -4  -6   9 37.2923 7.43910   3
   5  -6   9 131.301 7.74314   1
  -5  -6  -9 116.528 11.9652   3
  -5  -6  -9 122.434 7.27692   1
  -5   6   9 119.247 8.04776   2
   5   6  -9 119.568 7.94201   2
   5  -6   9 146.307 10.2521   5
   5  -6  -9 116.214 8.06640   1
   5   6   9 122.202 7.45026   2
  -5   6  -9 105.448 7.40102   2
  -5  -6   9 93.3720 10.3030   3
  -5  -6   9 116.308 7.71096   1
  -6  -6  -9 14.9477 6.98396   3
  -6   6   9 7.54830 4.23851   2
   6   6  -9 20.6981 4.95660   2
   6  -6   9 13.5519 4.30323   1
   6  -6   9 -0.4032 4.87721   5
  -6  -6  -9 11.9108 4.14892   1
  -6   6  -9 10.0174 3.78585   2
   6   6   9 16.4698 4.22121   2
  -6  -6   9 9.77973 4.17662   1
   6  -6  -9 5.59028 3.93143   1
  -6  -6   9 15.5186 6.32594   3
  -7  -6  -9 800.139 28.9825   3
   7  -6   9 838.950 22.0359   1
  -7  -6  -9 892.511 21.6619   1
   7   6  -9 842.571 22.3189   2
   7  -6   9 887.874 25.4619   5
  -7   6   9 849.701 22.3401   2
  -7  -6   9 870.587 22.2797   1
  -7   6  -9 848.351 21.7637   2
   7  -6  -9 808.531 22.5152   1
   7   6   9 792.356 20.8102   2
  -7  -6   9 840.360 26.8068   3
  -8   6   9 125.750 9.44017   2
   8  -6   9 124.757 9.09016   1
   8   6  -9 130.764 9.65802   2
  -8  -6  -9 136.660 13.9141   3
  -8  -6  -9 128.030 8.58809   1
   8   6   9 124.328 8.75946   2
  -8  -6   9 147.445 12.2048   3
  -8  -6   9 144.003 9.64060   1
   8  -6  -9 130.894 9.73315   1
  -8   6  -9 110.200 8.62368   2
  -9  -6  -9 127.193 13.5700   3
   9   6  -9 127.981 10.1967   2
  -9  -6  -9 142.211 9.46409   1
   9  -6   9 141.767 9.75479   1
  -9   6   9 112.287 9.48055   2
  -9   6  -9 129.387 9.46591   2
   9   6   9 129.702 9.23186   2
  -9  -6   9 134.519 12.2835   3
  -9  -6   9 143.732 10.2535   1
   9  -6  -9 148.150 10.6915   1
  10   6  -9 82.0220 8.52036   2
 -10   6   9 81.5465 8.40497   2
 -10  -6  -9 75.2906 11.4392   3
  10  -6   9 72.5174 8.03773   1
 -10  -6  -9 84.0776 8.12531   1
  10   6   9 76.7678 7.67473   2
 -10  -6   9 97.1886 8.79036   1
 -10   6  -9 81.3203 8.15380   2
  10  -6  -9 82.2941 8.66066   1
 -11  -6  -9 1.57554 7.19045   3
 -11  -6  -9 1.76740 4.39359   1
 -11   6   9 8.08486 5.63885   2
  11  -6   9 -0.7433 4.73150   1
  11   6  -9 9.16858 5.41942   2
 -11   6  -9 3.37739 4.64862   2
 -11  -6   9 -5.7618 4.80085   1
  11   6   9 9.76471 5.12390   2
  11  -6  -9 5.01582 5.33721   1
   0  -7  -9 112.450 10.4067   5
   0  -7   9 120.217 12.2494   3
   0  -7  -9 141.047 12.2722   3
   0   7   9 111.274 6.84452   2
   0   7  -9 124.840 6.97801   2
   1   7  -9 81.7323 6.34692   2
  -1  -7  -9 100.686 11.0588   3
   1  -7   9 92.2547 11.2013   3
  -1  -7  -9 102.641 9.83152   5
  -1   7   9 87.2342 6.46534   2
  -1   7  -9 93.8920 6.54086   2
   1  -7  -9 94.2607 9.77585   5
  -1  -7   9 64.4379 9.78154   3
   1   7   9 86.9387 6.25909   2
   2  -7   9 6.05905 6.77290   3
  -2  -7  -9 18.2899 7.13857   3
  -2  -7  -9 18.3385 5.94519   5
  -2   7   9 14.3672 3.93186   2
   2   7  -9 13.9114 3.93179   2
  -2  -7   9 -3.9488 5.57073   3
   2   7   9 12.7525 3.49773   2
   2  -7  -9 11.8896 5.92157   5
  -2   7  -9 7.92024 3.46310   2
   3  -7   9 24.6157 6.38109   5
  -3  -7  -9 23.5754 8.07584   3
   3  -7   9 13.2618 6.92139   3
   3   7  -9 25.5595 4.49082   2
  -3   7   9 26.3920 4.40130   2
   3  -7  -9 26.9169 7.06973   5
  -3   7  -9 23.5013 4.20705   2
  -3  -7   9 29.8635 7.73742   3
   3   7   9 32.1600 4.39912   2
   4   7  -9 -0.5878 3.61396   2
   4  -7   9 3.53528 6.87257   3
  -4  -7  -9 -0.5343 6.48689   3
   4  -7   9 -0.9952 4.81073   5
   4  -7  -9 7.20601 5.78204   5
  -4   7  -9 5.70761 3.55297   2
   4   7   9 2.34511 3.36136   2
  -4  -7   9 -4.0218 5.32510   3
  -5   7   9 8.78551 4.21042   2
   5   7  -9 -2.3307 3.83226   2
   5  -7   9 0.97342 4.97437   5
  -5  -7  -9 0.08508 6.90318   3
  -5  -7   9 -2.7797 5.81652   3
   5  -7  -9 7.00801 5.98141   5
  -5   7  -9 9.61079 4.06338   2
   5   7   9 9.64618 3.75969   2
   6  -7   9 6.24548 5.69589   5
  -6  -7  -9 0.13767 7.37497   3
  -6   7   9 2.45802 4.03884   2
   6   7  -9 6.09245 4.31970   2
  -6   7  -9 3.85256 4.08411   2
   6   7   9 6.30320 3.97317   2
   6  -7  -9 -2.7906 5.46107   5
  -6  -7   9 3.35298 6.65070   3
  -7  -7  -9 22.7179 8.66937   3
   7   7  -9 29.5604 5.69463   2
   7  -7   9 17.8998 6.55039   5
   7  -7   9 16.6885 4.89394   1
  -7   7   9 24.0922 5.31642   2
   7   7   9 19.4821 4.98178   2
  -7  -7   9 7.02116 6.72844   3
  -7   7  -9 19.7527 4.98164   2
   8  -7   9 22.8307 5.50052   1
  -8  -7  -9 20.9391 8.40377   3
   8   7  -9 25.1889 5.85177   2
  -8   7   9 14.4129 5.42622   2
   8   7   9 18.9606 5.16992   2
   8  -7  -9 12.5889 5.80689   1
  -8  -7   9 21.3728 7.74551   3
  -8   7  -9 20.4558 5.17149   2
   0  -8   9 6.11890 7.37501   3
   0  -8  -9 25.3674 7.34108   5
   0   8  -9 -6.6449 3.28629   2
   0  -8  -9 -3.3712 5.53239   3
   0   8   9 -1.4055 3.25846   2
  -1   8   9 27.5823 4.50785   2
  -1  -8  -9 21.6644 6.87176   5
   1  -8   9 17.1368 8.33570   3
   1   8  -9 23.1432 4.44611   2
  -1  -8  -9 28.0020 8.39221   3
   1   8   9 33.1791 4.60466   2
  -1   8  -9 29.1841 4.54096   2
  -1  -8   9 31.9783 9.11419   3
   1  -8  -9 36.6792 7.73411   5
   2   8  -9 1.91777 3.57965   2
  -2  -8  -9 6.92604 7.61457   3
  -2   8   9 1.88207 3.64552   2
   2  -8   9 16.0539 8.17440   3
  -2   8  -9 0.20984 3.41095   2
   2   8   9 0.07227 3.34586   2
  -2  -8   9 -1.8665 6.63675   3
   2  -8  -9 -6.0719 5.53317   5
  -3  -8  -9 36.8872 9.39728   3
   3  -8   9 29.6367 9.43574   3
   3   8  -9 50.3204 5.70474   2
  -3   8   9 51.1977 5.55922   2
  -3  -8   9 52.3971 10.1991   3
   3   8   9 41.1353 5.11018   2
   3  -8  -9 40.0872 8.50318   5
  -3   8  -9 40.5040 5.34673   2
   4   8  -9 12.1606 4.60316   2
  -4   8   9 5.92799 4.35309   2
  -4  -8  -9 0.89226 6.91359   3
   4  -8   9 7.28066 5.98727   5
  -4   8  -9 6.39722 3.89126   2
   4   8   9 8.16162 3.93306   2
   4  -8  -9 7.87168 6.84027   5
  -4  -8   9 10.6752 7.14004   3
   0   0  10 110.616 5.76911   1
   0   0 -10 90.9889 5.36754   4
   0   0  10 94.0215 5.41102   4
  -1   0 -10 245.302 8.68333   1
  -1   0 -10 239.743 8.14235   4
  -1   0  10 227.742 8.45929   1
   1   0  10 238.641 8.40253   1
   1   0 -10 246.283 8.74831   1
   1   0  10 254.042 8.38123   4
  -1   0  10 257.342 8.55338   4
   1   0 -10 251.348 8.44356   4
  -2   0  10 1092.24 24.1554   4
   2   0  10 1148.72 24.1758   1
  -2   0  10 1153.09 22.6153   7
   2   0 -10 1156.04 24.1199   4
   2   0  10 1095.93 23.7237   4
   2   0  10 1098.48 22.4979   7
  -2   0  10 1089.88 24.0076   1
  -2   0 -10 1110.61 23.8146   4
  -2   0 -10 1147.75 24.2159   1
   2   0 -10 1147.05 24.3574   1
  -3   0 -10 471.224 12.9340   1
   3   0 -10 478.067 12.9594   4
   3   0  10 462.637 12.3783   2
  -3   0  10 473.360 12.0788   7
  -3   0  10 464.175 12.8586   4
  -3   0  10 458.524 13.0835   1
   3   0  10 452.833 12.4913   4
  -3   0 -10 469.479 12.3972   4
   3   0  10 469.002 11.7322   7
   3   0  10 464.466 12.7532   1
   4   0  10 6.38426 2.48250   4
   4   0 -10 2.54688 2.57740   4
   4   0 -10 3.61084 2.74396   2
  -4   0 -10 4.74006 2.39685   4
  -4   0  10 6.76971 2.94153   2
   4   0  10 4.14199 2.60015   2
  -4   0  10 4.61200 3.03999   1
   4   0  10 1.61379 2.37289   7
  -4   0 -10 5.92961 2.66293   1
  -4   0  10 2.64177 2.54639   4
   4   0 -10 2.89009 2.89159   1
   4   0  10 3.12605 2.77749   1
  -4   0  10 6.11534 2.65765   7
  -5   0  10 2.71990 3.15563   1
   5   0 -10 -1.3579 2.92984   1
  -5   0 -10 -0.1072 2.26587   2
  -5   0  10 -4.0285 2.56374   2
   5   0  10 0.77458 2.67755   1
  -5   0 -10 2.94650 2.78002   1
   5   0  10 -0.2821 2.21147   4
  -5   0  10 0.41186 2.61041   4
  -5   0  10 0.44164 2.49750   7
   5   0 -10 1.01830 2.77492   2
  -5   0 -10 -1.5567 2.06468   4
   5   0 -10 -3.8318 2.34302   7
   5   0  10 -2.5275 2.23828   2
   5   0  10 -2.5199 2.33786   7
   6   0 -10 853.054 20.1314   2
   6   0 -10 855.006 19.2889   7
   6   0 -10 819.800 20.9202   1
  -6   0 -10 810.535 19.2848   2
   6   0  10 808.199 18.6463   7
  -6   0  10 817.084 19.1784   7
  -6   0 -10 850.806 20.5156   1
  -6   0  10 854.454 20.2172   2
  -6   0  10 833.097 21.0477   1
   6   0  10 793.895 20.8271   4
   6   0  10 822.497 20.3215   1
   7   0 -10 647.275 17.3415   2
   7   0 -10 652.507 16.4243   7
  -7   0  10 671.376 17.5237   2
  -7   0  10 627.810 18.0583   1
   7   0  10 627.189 15.9034   7
   7   0 -10 631.190 18.2358   1
  -7   0  10 641.260 16.3927   7
   7   0  10 651.263 17.0995   2
  -7   0 -10 633.696 17.5643   1
   7   0  10 616.962 17.3613   1
  -7   0 -10 635.298 16.4492   2
  -8   0  10 55.4295 6.29889   1
   8   0  10 62.3565 6.08206   2
   8   0 -10 74.6017 6.70441   2
  -8   0  10 71.5876 6.88778   2
   8   0 -10 65.9854 6.75070   1
   8   0 -10 59.5788 5.84625   7
  -8   0 -10 68.6283 6.47435   1
  -8   0  10 67.8743 6.09897   7
   8   0  10 72.3263 5.82600   7
   8   0  10 55.7237 5.95643   1
   9   0  10 54.5777 6.37640   1
  -9   0 -10 52.4299 6.30166   1
  -9   0  10 54.5654 6.67862   1
   9   0 -10 43.9386 5.31381   7
   9   0 -10 73.4874 7.57145   1
   9   0  10 44.8584 5.36304   7
  -9   0  10 61.8160 6.09224   7
   9   0  10 50.9251 5.82708   2
  10   0  10 38.3552 5.19387   7
  10   0 -10 43.2188 6.41881   1
  10   0  10 39.8051 6.08432   1
 -10   0  10 46.4456 5.77980   7
  10   0 -10 39.3764 5.42341   7
 -10   0  10 40.8977 6.33834   1
 -10   0 -10 26.6383 5.32027   1
  11   0 -10 22.9524 5.83189   1
  11   0  10 20.0612 5.68237   1
 -11   0  10 18.9758 5.37847   1
  11   0  10 33.6600 5.38245   7
 -11   0 -10 21.0265 5.16467   1
  11   0 -10 21.4412 4.76538   7
 -11   0  10 22.3109 4.92853   7
  12   0  10 10.7003 5.08243   1
  12   0  10 5.85335 4.35721   7
 -12   0  10 -3.2092 4.03912   7
 -12   0 -10 1.73946 4.70266   1
 -12   0  10 2.49797 4.78896   1
  12   0 -10 2.84996 5.01595   1
  12   0 -10 -1.5495 3.89467   7
 -13   0 -10 14.2799 5.65203   1
 -13   0  10 11.3523 5.53746   1
  13   0  10 -0.5297 4.03128   7
  13   0 -10 1.91473 4.24674   7
 -13   0  10 5.95649 4.24107   7
  13   0 -10 5.03112 5.55267   1
  13   0  10 -1.6693 4.96429   1
  14   0  10 640.328 19.7714   7
  14   0  10 598.052 21.5413   1
  14   0 -10 647.346 22.8763   1
 -14   0  10 614.250 19.0618   7
 -14   0  10 597.947 22.0357   1
  14   0 -10 628.721 19.4916   7
 -14   0 -10 636.560 21.9990   1
 -15   0  10 477.546 19.9339   1
 -15   0  10 431.292 16.7140   7
  15   0 -10 453.918 17.0583   7
 -15   0 -10 466.577 19.2866   1
  15   0 -10 457.961 21.6797   1
  15   0  10 487.369 17.6105   7
 -16   0  10 1.53913 5.76674   1
 -16   0  10 -1.3697 4.84360   7
  16   0  10 0.16852 5.24449   7
 -16   0 -10 -7.2406 5.24540   1
  16   0 -10 7.21880 5.11610   7
   0   1 -10 0.21537 2.10195   4
   0   1  10 -3.4962 1.99873   2
   0  -1  10 0.69832 2.28842   1
   0  -1 -10 0.89121 1.99683   4
   0  -1  10 0.69856 2.11693   4
   0  -1 -10 -1.4888 2.21505   1
   0  -1  10 2.39284 2.21033   7
   0   1 -10 0.26981 2.08674   2
   0   1  10 -1.8206 1.96344   4
   1   1 -10 68.0038 4.99513   4
  -1   1  10 72.9778 4.97741   4
   1  -1  10 68.1814 5.14291   1
   1  -1  10 68.4840 4.47456   7
  -1  -1 -10 64.6028 4.75622   1
   1  -1  10 65.3613 4.80104   4
   1   1 -10 68.5711 4.79096   2
  -1  -1 -10 66.7147 4.43272   4
  -1   1  10 65.9650 4.98963   2
  -1   1 -10 64.6365 4.77028   4
  -1   1 -10 64.4601 4.67192   2
  -1  -1  10 65.1827 4.57630   7
   1   1  10 64.2261 4.74669   4
   1  -1 -10 69.3410 4.62192   4
  -1  -1  10 67.3847 4.90104   4
   1   1  10 59.7698 4.85433   2
  -1  -1  10 73.7393 5.28700   1
   1  -1 -10 60.1421 4.90598   1
  -2   1  10 512.201 13.1401   2
   2  -1  10 517.142 13.0884   4
   2  -1  10 512.120 12.2241   7
   2  -1  10 509.204 13.6113   1
   2   1 -10 527.308 13.6420   4
  -2  -1 -10 534.724 12.9338   4
  -2   1  10 521.344 13.5519   4
   2   1 -10 529.471 13.2047   2
  -2  -1 -10 526.899 13.6671   1
  -2   1 -10 520.716 12.8949   2
  -2  -1  10 510.090 13.3470   4
  -2  -1  10 517.687 12.4405   7
   2   1  10 502.954 13.1867   4
  -2  -1  10 514.614 13.7554   1
   2  -1 -10 506.085 13.0093   4
   2  -1 -10 523.307 12.4025   7
  -2   1 -10 498.222 13.1338   4
   2  -1 -10 506.801 13.7335   1
   2   1  10 513.370 12.9883   2
  -3   1  10 268.272 9.42448   4
  -3   1  10 274.751 9.27805   2
   3  -1  10 278.678 9.29408   1
  -3  -1 -10 273.838 8.73155   4
  -3  -1 -10 265.704 9.23544   1
   3  -1  10 294.231 8.36875   7
   3   1 -10 263.730 8.98088   2
   3  -1  10 273.785 8.93609   4
   3   1  10 269.062 8.97053   2
  -3  -1  10 263.599 9.12503   4
  -3   1 -10 268.342 8.86030   2
   3  -1 -10 274.652 9.02488   4
  -3   1 -10 269.480 9.17879   1
   3  -1 -10 274.547 8.55803   7
   3   1  10 283.766 9.08458   4
   3  -1 -10 259.706 9.72439   1
  -3  -1  10 273.455 9.55794   1
  -3  -1  10 265.804 8.48699   7
   4   1 -10 324.696 10.7356   1
   4  -1  10 325.592 9.23021   7
  -4  -1 -10 327.440 9.83678   4
  -4  -1 -10 318.654 10.4576   1
  -4   1  10 331.195 10.5806   2
  -4   1  10 311.352 10.5854   4
   4   1 -10 331.088 10.4138   2
   4  -1  10 312.226 10.4974   1
   4  -1  10 316.547 9.97611   4
   4   1  10 314.149 10.1414   4
   4  -1 -10 316.869 11.0058   1
  -4   1 -10 343.363 10.6940   1
   4  -1 -10 311.612 9.61541   7
  -4  -1  10 326.599 10.9730   1
   4   1  10 296.933 9.91824   2
  -4   1 -10 310.301 9.83665   2
   4  -1 -10 337.587 10.3436   4
   4   1  10 303.694 10.3356   1
  -4  -1  10 333.209 9.71201   7
  -4  -1  10 328.001 10.4783   4
  -5  -1 -10 240.457 8.35398   4
   5  -1  10 235.950 9.05059   1
  -5   1  10 232.167 8.72505   7
  -5   1  10 235.710 9.25469   2
   5  -1  10 227.976 8.52462   4
  -5  -1 -10 227.621 9.10443   1
   5   1 -10 219.599 8.80669   2
  -5   1  10 226.583 9.39396   1
  -5   1  10 220.026 9.18779   4
   5  -1  10 240.044 8.02906   7
   5   1 -10 239.218 9.36841   1
   5  -1 -10 243.991 9.80242   1
   5   1  10 243.653 9.16837   1
   5  -1 -10 231.274 8.96572   4
   5  -1 -10 214.810 8.28453   7
   5   1  10 218.086 8.64058   4
  -5  -1  10 215.429 8.88541   4
  -5  -1  10 215.190 9.35580   1
  -5   1 -10 211.147 8.43979   2
   5   1  10 221.512 8.59989   2
  -5  -1  10 226.562 8.24251   7
   5   1  10 246.324 8.39774   7
   6   1 -10 17.5131 4.13016   1
   6   1 -10 10.1508 3.27981   7
   6   1 -10 13.4918 3.67171   2
  -6   1  10 18.0631 4.03197   1
  -6   1  10 8.76480 3.31203   2
  -6   1  10 16.1575 3.59794   7
   6  -1  10 12.8044 3.57033   1
  -6   1  10 10.1256 3.31571   4
  -6  -1 -10 18.3303 3.85160   1
   6  -1  10 17.9241 3.24671   7
   6  -1 -10 18.0380 4.12928   1
   6  -1 -10 17.7052 3.42055   7
  -6   1 -10 16.0234 3.66874   1
   6   1  10 19.5638 3.51925   4
  -6  -1  10 19.2033 3.50432   7
   6  -1 -10 20.7997 3.83507   4
   6   1  10 12.1011 3.16991   7
  -6  -1  10 17.9414 4.07364   1
  -6   1 -10 13.4502 3.17340   2
   6   1  10 18.8976 3.92880   1
   6   1  10 13.0982 3.42947   2
   7  -1  10 20.5637 4.14844   1
  -7   1  10 16.1050 3.81628   7
   7   1 -10 14.9784 3.85003   7
  -7  -1 -10 14.1659 3.95259   1
   7  -1  10 19.5071 3.51589   7
  -7   1  10 23.9312 4.54458   2
   7   1 -10 12.1036 3.79852   2
  -7   1  10 31.4807 5.01265   1
   7   1 -10 21.5767 4.47149   1
   7   1  10 20.5402 4.07223   2
  -7  -1  10 20.0590 3.77780   7
   7  -1 -10 15.3206 3.53286   7
  -7   1 -10 22.5127 4.42752   1
  -7   1 -10 14.8901 3.63993   2
   7   1  10 15.9418 3.59356   7
   7  -1 -10 17.1962 4.27528   1
  -7  -1  10 22.5358 4.51944   1
   7   1  10 18.7681 4.03138   1
  -8   1  10 133.647 8.73473   1
   8   1 -10 129.797 7.97943   7
   8   1 -10 147.045 8.84673   1
   8  -1  10 148.649 7.48526   7
  -8   1  10 149.168 8.83335   2
  -8  -1 -10 132.189 8.30208   1
   8   1 -10 133.704 8.46426   2
  -8   1  10 140.507 8.12375   7
   8  -1  10 132.861 8.42985   1
   8   1  10 143.333 7.72930   7
   8   1  10 142.601 8.29833   2
   8  -1 -10 130.632 8.71574   1
  -8   1 -10 146.494 8.36462   1
  -8  -1  10 130.573 7.57297   7
  -8  -1  10 134.274 8.76972   1
   8  -1 -10 126.534 7.56395   7
   8   1  10 142.773 8.44056   1
  -8   1 -10 153.536 8.27407   2
   9  -1  10 236.534 11.0341   1
  -9   1  10 206.456 10.8422   1
   9   1 -10 234.733 11.2593   1
   9  -1  10 209.465 9.23074   7
   9   1 -10 245.220 11.1671   2
  -9   1  10 212.437 10.0279   7
   9   1 -10 218.096 10.0140   7
  -9  -1 -10 232.815 10.8322   1
  -9   1  10 235.934 11.1654   2
  -9   1 -10 225.574 10.7153   1
  -9   1 -10 217.059 10.2657   2
  -9  -1  10 215.003 9.51491   7
   9  -1 -10 233.709 11.4495   1
   9   1  10 224.679 10.7044   1
  -9  -1  10 214.870 11.1718   1
   9  -1 -10 220.091 9.70376   7
   9   1  10 235.268 10.5536   2
   9   1  10 227.544 9.93590   7
 -10  -1 -10 70.7500 7.39252   1
 -10   1  10 86.7374 7.33008   7
  10  -1  10 79.0931 6.51409   7
  10   1 -10 78.7760 7.66290   2
  10   1 -10 96.6602 7.71305   7
  10   1 -10 60.4648 7.37740   1
 -10   1  10 86.6287 7.93624   2
 -10   1  10 77.8127 7.77164   1
  10  -1  10 87.0503 8.05058   1
  10  -1 -10 89.8594 7.02369   7
  10   1  10 72.6357 7.17434   2
  10  -1 -10 87.9514 8.61015   1
 -10   1 -10 74.9539 7.70499   1
 -10   1 -10 78.1446 7.09910   2
  10   1  10 78.6263 6.98528   7
 -10  -1  10 90.2150 7.05429   7
 -10  -1  10 85.0358 8.22350   1
 -11   1  10 149.377 10.3616   2
  11   1 -10 108.217 8.52193   7
 -11   1  10 121.760 9.92798   1
  11   1 -10 131.810 9.93874   2
 -11   1  10 104.810 8.68720   7
 -11  -1 -10 116.053 9.38758   1
  11  -1  10 117.751 9.40564   1
  11  -1  10 111.453 8.17868   7
  11   1  10 117.579 8.82829   7
  11  -1 -10 108.060 9.94948   1
 -11   1 -10 116.083 9.58698   1
  11  -1 -10 104.313 7.92542   7
  11   1  10 134.677 9.54030   2
 -11  -1  10 112.028 9.62031   1
 -11  -1  10 116.626 8.20221   7
  12  -1  10 27.5385 6.24428   1
  12  -1  10 15.2482 4.72549   7
 -12  -1 -10 15.7198 5.40190   1
  12   1 -10 15.7142 4.86809   7
 -12   1  10 24.8261 5.45313   7
  12   1  10 22.5969 5.60979   2
  12  -1 -10 22.3368 6.02534   1
 -12   1 -10 22.4272 5.97362   1
 -12  -1  10 13.1711 5.56159   1
  12   1  10 14.1571 5.24747   7
 -12  -1  10 16.2640 4.64901   7
  12  -1 -10 24.7439 5.09891   7
  13   1 -10 7.40418 4.92139   7
  13  -1  10 9.16823 4.70560   7
  13  -1  10 8.00389 5.58620   1
 -13  -1 -10 10.6587 5.66670   1
 -13   1  10 10.4633 5.11674   7
 -13  -1  10 15.7409 4.80784   7
  13   1  10 17.3954 5.50517   7
  13  -1 -10 16.2628 6.31596   1
  13  -1 -10 10.8283 5.00203   7
 -13  -1  10 13.4788 5.89260   1
  14   1 -10 -8.4033 4.27115   7
 -14  -1 -10 1.16437 4.92606   1
  14  -1  10 4.91711 5.20941   1
  14  -1  10 5.68645 4.87875   7
 -14   1  10 8.17671 5.00535   7
  14  -1 -10 6.53453 5.78499   1
  14  -1 -10 -0.9214 4.07210   7
  14   1  10 5.84880 5.06155   7
 -14  -1  10 3.84649 4.46160   7
 -14  -1  10 -1.7794 4.81105   1
 -15  -1 -10 10.7748 6.19248   1
  15   1 -10 16.9469 5.99541   7
  15  -1  10 17.0065 5.62095   7
  15  -1  10 27.1973 7.14110   1
 -15   1  10 23.1422 6.19357   7
 -15  -1  10 29.8717 7.48307   1
  15   1  10 31.5450 6.89265   7
  15  -1 -10 21.0096 7.26846   1
 -15  -1  10 23.5490 5.72095   7
  15  -1 -10 23.6465 5.58012   7
  16  -1  10 29.8171 6.42701   7
  16   1 -10 27.6616 6.58406   7
  16  -1  10 30.7589 7.91002   1
 -16   1  10 28.2111 6.62724   7
 -16  -1 -10 26.2518 7.25497   1
  16   1  10 37.5035 7.27130   7
  16  -1 -10 19.4299 5.89282   7
 -16  -1  10 26.2347 5.85877   7
 -16  -1  10 31.3680 7.95444   1
  16  -1 -10 23.4901 7.61071   1
   0   2  10 885.615 19.8596   4
   0  -2  10 930.727 19.4773   4
   0  -2 -10 912.855 20.4051   1
   0  -2  10 922.574 20.2311   1
   0  -2  10 873.322 17.6728   7
   0   2  10 904.228 19.5766   2
   0   2 -10 915.438 19.4524   2
   0  -2 -10 899.405 18.6381   4
  -1  -2 -10 407.834 10.1569   5
  -1  -2 -10 404.786 10.0820   4
  -1   2  10 402.379 11.2736   4
   1  -2  10 398.468 11.5506   1
  -1   2  10 428.337 11.3827   2
   1   2 -10 410.751 11.0530   2
  -1  -2 -10 407.509 11.5881   1
   1  -2  10 425.106 10.8871   4
   1  -2  10 408.393 9.80191   7
   1  -2 -10 398.191 10.1228   4
   1  -2 -10 415.249 11.8173   1
  -1  -2  10 415.301 9.82633   7
  -1  -2  10 432.647 11.9427   1
  -1  -2  10 412.651 10.9312   4
   1   2  10 418.042 11.3046   4
  -1   2 -10 393.932 11.0620   2
   1   2  10 423.037 11.2516   2
  -2   2  10 22.1497 3.33144   2
   2  -2  10 24.1727 2.95495   4
  -2   2  10 31.8975 3.66167   4
   2   2 -10 30.2447 3.60723   2
  -2  -2 -10 26.6944 3.57919   1
  -2  -2 -10 24.9993 2.71904   4
   2  -2  10 26.1113 3.60343   1
   2  -2  10 32.2871 3.02677   7
  -2  -2  10 22.6109 2.86895   7
   2  -2 -10 22.4512 3.69029   1
   2   2  10 24.9370 3.39928   2
  -2   2 -10 27.8151 3.48243   2
  -2  -2  10 21.5610 3.58142   1
  -2  -2  10 30.0341 3.28650   4
   2   2  10 22.3144 3.10903   4
   2  -2 -10 23.1372 2.71958   4
   2  -2 -10 24.4458 2.82426   7
  -2  -2  10 20.6238 4.05491   3
   3  -2  10 1729.77 33.4408   4
  -3   2  10 1693.84 34.4589   4
   3  -2  10 1694.16 34.1919   1
   3  -2  10 1735.10 32.7821   5
   3   2 -10 1724.35 33.3896   2
  -3   2  10 1721.79 33.4881   2
   3  -2  10 1722.69 30.9923   7
  -3  -2 -10 1632.74 34.0017   1
  -3   2 -10 1679.87 33.0854   2
   3  -2 -10 1644.22 32.8757   4
  -3  -2  10 1681.46 35.7962   3
   3  -2 -10 1752.69 31.0705   7
   3   2  10 1705.51 34.0236   4
   3   2  10 1678.25 33.0561   2
  -3  -2  10 1682.98 30.9161   7
  -3  -2  10 1723.59 33.6165   4
  -3  -2  10 1719.53 34.6787   1
   3  -2 -10 1689.48 34.7390   1
   4  -2  10 7.59206 2.93199   1
   4  -2  10 8.14601 2.40526   7
  -4  -2 -10 3.58012 2.54200   1
   4   2 -10 9.86274 2.96644   2
  -4   2  10 10.8570 3.23535   2
   4  -2  10 10.2283 2.58055   4
  -4   2  10 6.80505 2.78818   4
  -4  -2  10 5.06147 3.01713   1
  -4  -2  10 8.08760 2.66614   4
  -4  -2  10 8.07095 2.56137   7
   4   2  10 8.96488 2.72650   4
   4  -2 -10 8.74411 3.27384   1
  -4  -2  10 10.2154 3.41296   3
  -4   2 -10 10.5656 2.91354   2
   4   2  10 3.03397 2.55056   2
   4  -2 -10 10.5706 2.68153   7
  -5   2  10 93.9148 6.72455   4
   5   2 -10 109.249 6.65180   2
  -5   2  10 100.135 6.85329   2
   5  -2  10 99.4030 5.64237   4
  -5  -2 -10 91.8605 6.28790   1
   5  -2  10 101.070 6.47122   1
  -5   2  10 89.8833 5.95351   7
   5  -2  10 109.489 5.40382   7
  -5   2 -10 97.4262 6.13261   2
   5  -2 -10 89.4244 6.66063   1
  -5  -2  10 96.0216 5.24973   7
   5   2  10 96.0321 6.07571   4
  -5  -2  10 96.4687 6.37360   3
  -5  -2  10 95.7959 6.89870   1
  -5  -2  10 101.555 5.91486   4
   5   2  10 94.1205 6.22385   2
   5  -2 -10 114.353 5.69558   7
  -6   2  10 5.66014 3.30655   2
  -6   2  10 -0.6685 2.74325   7
   6   2 -10 4.21397 3.04297   2
   6  -2  10 -0.0018 2.94879   1
  -6   2  10 7.66995 3.28607   4
   6  -2  10 -0.7440 2.34857   7
  -6  -2 -10 3.66794 3.13873   1
   6   2  10 3.64912 2.69083   4
   6   2  10 -1.5566 2.55320   7
  -6  -2  10 -0.7760 2.38734   7
  -6  -2  10 3.33448 3.30971   1
   6  -2 -10 3.45754 2.72712   7
  -6   2 -10 -0.4818 2.66456   2
   6   2  10 2.06327 2.98506   2
  -6  -2  10 2.18028 3.04470   3
   6  -2 -10 8.10970 3.97481   1
  -7   2  10 0.12864 3.18612   7
  -7   2  10 0.22887 3.32959   2
  -7  -2 -10 3.41454 3.34726   1
   7  -2  10 9.78484 3.47277   1
   7  -2  10 7.53744 2.82054   7
   7   2 -10 7.12407 3.59296   2
   7   2  10 4.79117 3.00570   4
   7   2  10 8.55444 3.43725   2
   7  -2 -10 9.70807 3.12365   7
   7   2  10 8.18054 3.29017   7
  -7  -2  10 5.78776 2.79914   7
  -7  -2  10 4.97123 3.74527   1
  -7   2 -10 6.10530 3.28320   2
   7  -2 -10 3.45221 3.53275   1
  -8   2  10 473.146 14.3621   7
   8  -2  10 470.465 12.4323   7
   8  -2  10 452.528 15.0331   1
  -8  -2 -10 426.734 14.6944   1
  -8   2  10 442.073 14.9256   2
   8   2 -10 461.413 14.8932   2
   8   2 -10 470.176 14.1765   7
   8  -2 -10 440.796 15.6400   1
   8   2  10 459.589 14.3561   2
  -8   2 -10 464.761 14.3137   2
  -8  -2  10 453.317 12.1885   7
   8  -2 -10 445.578 12.7581   7
  -8  -2  10 446.047 15.3962   1
   8   2  10 456.687 13.6918   7
   9  -2  10 1143.85 23.8362   7
  -9   2  10 1096.37 25.7377   7
  -9   2  10 1139.31 27.3108   2
   9   2 -10 1097.53 26.7771   2
   9   2 -10 1093.44 25.6164   7
   9  -2  10 1135.76 27.4662   1
  -9  -2 -10 1098.23 27.2016   1
   9  -2 -10 1086.27 28.3005   1
  -9   2 -10 1083.24 26.2018   2
   9   2  10 1070.80 25.1002   7
   9   2  10 1121.50 26.5563   2
   9  -2 -10 1099.61 24.1669   7
  -9  -2  10 1108.52 23.4700   7
  -9  -2  10 1112.47 27.9507   1
 -10   2  10 40.8659 6.17868   2
  10  -2  10 41.7601 6.29865   1
 -10  -2 -10 36.1627 5.99163   1
  10  -2  10 36.7433 4.85241   7
  10   2 -10 43.4042 6.18260   2
  10   2 -10 47.9638 6.04771   7
 -10   2  10 35.7416 5.70280   7
 -10   2 -10 35.0978 5.51360   2
 -10  -2  10 34.8077 4.63647   7
 -10  -2  10 33.7800 6.16572   1
  10   2  10 41.5227 5.73869   7
  10  -2 -10 35.3163 6.44734   1
  10   2  10 28.5611 5.35643   2
  10  -2 -10 37.9590 4.90867   7
 -11   2  10 579.623 18.2289   7
 -11   2  10 595.164 19.4374   2
  11  -2  10 606.192 16.4571   7
  11   2 -10 573.402 18.0606   7
 -11  -2 -10 612.687 19.5786   1
  11  -2  10 618.287 19.8617   1
  11   2 -10 629.191 19.5720   2
 -11   2 -10 627.331 18.9009   2
  11  -2 -10 584.644 16.5348   7
  11   2  10 597.672 18.0338   7
 -11  -2  10 607.688 16.1075   7
 -11  -2  10 665.353 20.6963   1
  11  -2 -10 591.336 20.4010   1
  11   2  10 622.152 19.1981   2
 -12   2  10 620.664 20.6365   2
  12   2 -10 603.827 18.8954   7
 -12  -2 -10 619.294 20.3707   1
 -12   2  10 591.071 19.1493   7
  12   2 -10 619.968 20.2857   2
  12  -2  10 626.756 20.6986   1
  12  -2  10 631.064 17.2425   7
 -12  -2  10 617.790 16.4433   7
  12   2  10 609.796 19.8860   2
  12  -2 -10 605.153 21.3583   1
  12  -2 -10 599.018 17.1080   7
 -12  -2  10 616.895 20.8679   1
  12   2  10 593.670 18.6993   7
 -12   2 -10 645.992 19.8110   2
  13   2 -10 5.13534 4.55007   7
 -13  -2 -10 2.53797 5.08648   1
  13   2 -10 1.00513 4.98715   2
 -13   2  10 2.38895 4.88267   7
  13  -2  10 7.96728 5.32236   1
  13  -2  10 1.24051 4.07255   7
 -13   2  10 -1.1946 4.81524   2
  13   2  10 4.04594 4.96806   7
  13  -2 -10 2.97905 5.40979   1
 -13  -2  10 4.21643 5.20902   1
 -13  -2  10 0.44056 3.79382   7
  13   2  10 3.15067 5.22781   2
  13  -2 -10 5.26188 4.31140   7
  14   2 -10 9.22578 5.85753   2
  14  -2  10 -3.9170 4.08303   7
  14   2 -10 4.21048 5.18472   7
 -14  -2 -10 -0.9074 4.89293   1
  14  -2  10 10.1817 5.64575   1
 -14   2  10 5.53144 5.30145   7
 -14  -2  10 12.1392 4.52259   7
  14  -2 -10 3.21930 4.35380   7
  14  -2 -10 0.92191 5.43396   1
  14   2  10 8.74885 5.52770   2
 -14  -2  10 2.71761 5.36376   1
  14   2  10 8.68265 5.48070   7
 -15  -2 -10 63.2448 9.69730   3
  15   2 -10 55.1545 7.86184   7
 -15   2  10 77.9381 9.11512   7
 -15  -2 -10 67.5353 9.30665   1
  15  -2  10 66.9615 7.29025   7
  15  -2  10 64.7623 8.97346   1
 -15  -2  10 75.7018 9.97604   1
  15   2  10 68.1880 8.45042   7
  15  -2 -10 50.5405 8.85694   1
  15  -2 -10 65.6514 7.01105   7
 -15  -2  10 75.1827 7.03559   7
   0  -3  10 -0.3342 3.61393   3
   0  -3 -10 4.26215 3.63581   3
   0   3  10 -1.0045 2.27398   4
   0   3  10 -0.9137 2.13057   2
   0  -3  10 1.57096 2.42690   1
   0  -3 -10 -0.9531 2.37596   1
   0   3 -10 -0.3745 2.05896   2
  -1  -3 -10 66.4865 5.16091   1
  -1   3  10 59.4953 4.79791   4
  -1  -3 -10 58.9393 6.47115   3
   1  -3  10 61.7365 4.94418   1
  -1   3  10 58.2410 4.65771   2
  -1  -3 -10 64.3687 4.75443   5
   1   3 -10 64.7836 4.83762   2
  -1  -3  10 54.0084 6.12376   3
   1  -3 -10 59.2408 4.97971   1
   1  -3 -10 76.1371 6.26912   3
  -1  -3  10 67.4435 5.07685   1
   1   3  10 62.4289 4.79003   2
  -1   3 -10 62.8867 4.83245   2
  -2  -3 -10 353.732 13.9350   3
   2   3 -10 370.815 10.7295   2
  -2   3  10 373.176 10.8401   2
   2  -3  10 374.195 11.0871   1
  -2  -3 -10 363.847 10.5032   5
   2  -3  10 356.976 8.40587   4
  -2  -3 -10 366.055 11.0012   1
  -2   3 -10 374.041 10.6532   2
   2   3  10 346.810 10.4199   2
   2  -3 -10 377.755 11.4128   1
   2  -3 -10 363.937 11.4735   3
  -2  -3  10 353.071 13.1078   3
  -2  -3  10 376.807 11.2166   1
  -3  -3 -10 234.076 11.9381   3
   3  -3  10 220.995 6.46299   4
   3   3 -10 217.025 8.40196   2
   3  -3  10 231.862 8.60317   1
  -3  -3 -10 220.833 8.43971   1
   3  -3  10 239.391 8.44858   5
  -3   3  10 216.125 8.43898   2
  -3  -3  10 229.478 10.4231   3
   3  -3 -10 235.191 9.18060   1
  -3   3 -10 222.420 8.27988   2
   3   3  10 230.765 8.36315   2
  -3  -3  10 204.857 8.50063   1
   4   3 -10 229.605 9.02143   2
   4  -3  10 264.687 9.10445   5
  -4   3  10 238.207 9.26872   2
   4  -3  10 233.184 9.30194   1
   4  -3  10 255.931 7.39407   4
  -4  -3 -10 246.262 9.25491   1
   4  -3 -10 245.301 9.84563   1
  -4   3 -10 252.722 8.96402   2
   4   3  10 257.173 9.09436   2
  -4  -3  10 248.854 9.57081   1
  -4  -3  10 256.494 10.9619   3
  -5  -3 -10 181.189 8.27205   1
  -5   3  10 187.804 8.88330   2
   5  -3  10 194.449 8.60843   1
   5  -3  10 213.097 6.88306   4
   5   3 -10 184.918 8.56694   2
  -5  -3  10 186.758 8.80095   1
   5   3  10 202.089 8.39427   2
   5  -3 -10 190.141 9.15781   1
  -5  -3  10 194.957 9.51337   3
  -5   3 -10 199.999 8.53509   2
  -6  -3 -10 12.7753 3.56974   1
  -6   3  10 8.32043 3.68238   2
   6   3 -10 3.22718 3.28135   2
   6  -3  10 9.26611 3.59555   1
   6  -3  10 11.5665 2.67024   4
  -6   3 -10 10.7347 3.53526   2
  -6  -3  10 10.4632 4.02825   3
  -6  -3  10 12.2117 3.93082   1
   6  -3 -10 7.07567 3.88864   1
   6   3  10 18.4323 3.82274   2
  -7  -3 -10 19.7477 4.27927   1
   7  -3  10 18.2607 4.34894   1
   7   3 -10 21.9179 4.66311   2
  -7   3  10 24.5230 4.91813   2
  -7   3 -10 29.5343 4.56477   2
   7  -3 -10 15.7846 4.56090   1
  -7  -3  10 29.3093 5.01434   1
   7   3  10 24.7893 4.41537   2
  -7  -3  10 22.8605 4.84798   3
   8   3 -10 125.509 8.66752   2
  -8   3  10 125.167 8.72776   2
  -8  -3 -10 123.169 8.31542   1
   8  -3  10 119.551 8.23676   1
   8  -3 -10 119.362 8.80178   1
  -8   3 -10 118.628 8.11636   2
  -8  -3  10 128.405 8.64496   1
   8   3  10 128.657 8.36761   2
   9  -3  10 186.970 10.3525   1
  -9  -3 -10 167.979 9.66977   1
   9   3 -10 188.796 10.4557   2
  -9  -3 -10 176.149 13.1288   3
  -9   3  10 183.136 10.6044   2
  -9  -3  10 185.100 10.5423   1
   9   3  10 181.181 9.98250   2
   9  -3 -10 175.848 10.7195   1
  -9   3 -10 171.642 9.58904   2
 -10   3  10 67.3128 7.61506   2
  10  -3  10 54.2853 6.96811   1
 -10  -3 -10 49.2129 6.45927   1
 -10  -3 -10 66.6892 9.40541   3
  10   3 -10 57.6348 7.10626   2
 -10   3 -10 71.5391 7.32008   2
  10   3  10 64.2987 6.93536   2
 -10  -3  10 55.6868 7.06827   1
  10  -3 -10 58.2546 7.60395   1
 -10   3 -10 63.1056 7.16205   7
 -11  -3 -10 92.7432 10.6131   3
 -11   3  10 106.331 9.69396   2
 -11  -3 -10 93.3614 8.48834   1
  11   3 -10 97.3897 9.02604   2
  11  -3  10 104.444 9.11697   1
 -11  -3  10 80.1123 8.61489   1
  11   3  10 89.9213 8.36461   2
 -11   3 -10 98.5710 8.57922   7
 -11   3 -10 98.1919 8.67701   2
  11  -3 -10 82.3799 9.06207   1
  12  -3  10 16.6748 5.64290   1
 -12  -3 -10 21.1149 7.12249   3
 -12   3  10 21.5847 6.28921   2
 -12  -3 -10 13.6186 5.39462   1
  12   3 -10 15.3693 5.42578   2
 -12   3  10 13.5420 5.54011   7
 -12  -3  10 12.1628 5.37125   1
 -12   3 -10 18.9374 5.43371   2
 -12   3 -10 26.0344 6.00191   7
  12   3  10 15.9013 5.44380   2
  12  -3 -10 14.3174 6.00699   1
  13  -3  10 3.33391 5.24387   1
 -13  -3 -10 7.61563 6.39672   3
  13   3 -10 23.0709 6.22229   2
 -13  -3 -10 9.50818 5.16982   1
 -13   3  10 8.31624 5.58654   2
 -13   3  10 5.47062 5.34599   7
 -13   3 -10 8.83734 5.24123   2
  13  -3 -10 4.20864 5.28522   1
  13   3  10 10.9839 5.42744   2
 -13  -3  10 12.9928 5.59724   1
  14   3 -10 -6.5657 4.75946   2
 -14   3  10 2.42246 5.20045   7
 -14  -3 -10 5.02311 6.48692   3
 -14  -3 -10 6.71458 5.33567   1
 -14   3  10 -4.6327 5.26467   2
  14  -3  10 1.15889 5.04785   1
  14  -3 -10 1.31482 5.63349   1
 -14  -3  10 5.82550 5.56787   1
 -14   3 -10 -5.4460 4.82730   2
  14   3  10 4.16187 5.31508   2
 -15   3  10 22.4137 8.50057   2
  15   3 -10 16.9717 6.40717   7
 -15   3  10 25.6439 6.91696   7
 -15  -3 -10 29.4509 8.00632   3
 -15  -3 -10 21.9886 6.43043   1
  15   3 -10 22.6131 6.83251   2
  15  -3  10 39.6390 7.90578   1
  15  -3 -10 24.1675 7.32436   1
 -15  -3  10 31.5815 7.42003   1
  15   3  10 26.2573 7.14239   2
   0   4 -10 38.1963 4.06027   2
   0  -4 -10 42.1409 6.04684   3
   0   4  10 46.4080 4.33042   2
   0  -4 -10 43.5621 5.05452   5
   0  -4  10 46.5902 4.43047   1
   0  -4  10 42.5193 6.57059   3
  -1  -4 -10 112.940 7.10135   5
   1   4 -10 119.745 6.35208   2
  -1  -4 -10 115.201 6.23857   1
   1  -4  10 115.883 9.03580   3
   1  -4  10 113.717 6.26205   1
  -1  -4 -10 110.937 8.78759   3
  -1   4  10 120.536 6.42028   2
  -1  -4  10 112.874 9.26974   3
   1  -4 -10 117.932 8.06753   3
  -1  -4  10 113.812 6.39168   1
   1   4  10 116.959 6.09088   2
   1  -4 -10 115.351 6.37144   1
  -1   4 -10 126.054 6.41053   2
   2  -4  10 617.983 15.6189   1
  -2  -4 -10 590.866 15.2887   1
   2  -4  10 644.507 17.0305   5
  -2   4  10 614.420 15.2603   2
  -2  -4 -10 606.977 19.4527   3
  -2  -4 -10 612.003 16.4593   5
   2   4 -10 595.518 15.1428   2
  -2   4 -10 617.477 15.0554   2
   2   4  10 603.741 14.9569   2
   2  -4 -10 603.769 17.2195   3
  -2  -4  10 601.689 15.5768   1
   2  -4 -10 628.617 15.8272   1
  -2  -4  10 587.918 19.0485   3
   3  -4  10 303.454 11.1748   5
  -3   4  10 306.066 10.3592   2
  -3  -4 -10 298.465 14.1028   3
   3  -4  10 323.622 10.5835   1
   3   4 -10 318.972 10.3960   2
  -3  -4 -10 311.724 10.1991   1
   3   4  10 315.728 10.0665   2
  -3  -4  10 316.779 13.5040   3
  -3   4 -10 302.525 10.0801   2
   3  -4 -10 308.024 10.6746   1
  -3  -4  10 311.664 10.5955   1
  -4   4  10 1.11849 3.06338   2
   4  -4  10 3.16580 3.13624   5
  -4  -4 -10 2.92979 2.69671   1
   4  -4  10 4.77809 3.08898   1
   4   4 -10 0.27045 2.76047   2
  -4  -4 -10 9.48439 4.96981   3
  -4   4 -10 -1.8372 2.43275   2
   4  -4 -10 3.42873 3.28990   1
   4   4  10 4.86433 2.88724   2
  -4  -4  10 -3.5794 2.81957   1
  -4  -4  10 1.94517 4.05504   3
   5  -4  10 -0.8493 3.25137   5
   5   4 -10 3.11121 3.22213   2
  -5   4  10 -2.6521 3.06333   2
   5  -4  10 6.43993 3.20488   1
  -5  -4 -10 -0.5630 4.80491   3
  -5  -4 -10 -2.7570 2.57318   1
  -5   4 -10 4.75352 3.10134   2
   5   4  10 -4.7234 2.57891   2
  -5  -4  10 -4.8766 3.90667   3
   5  -4 -10 -4.6027 2.93114   1
  -5  -4  10 3.02944 3.31176   1
   6  -4  10 506.541 16.4447   6
  -6  -4 -10 511.959 19.7740   3
  -6  -4 -10 492.374 14.7443   1
  -6   4  10 501.630 15.3347   2
   6   4 -10 490.391 14.9946   2
   6  -4  10 484.827 15.1318   1
   6  -4 -10 479.784 15.5405   1
  -6  -4  10 524.945 17.3967   3
  -6   4 -10 508.012 14.9039   2
   6   4  10 501.673 14.5273   2
  -6  -4  10 503.008 15.5233   1
   7  -4  10 414.287 13.6803   1
  -7  -4 -10 380.860 13.2702   1
  -7  -4 -10 361.335 17.6574   3
  -7   4  10 408.700 14.1605   2
   7  -4  10 382.043 14.4399   6
   7   4 -10 396.833 13.8461   2
   7  -4 -10 339.602 13.6845   1
   7   4  10 387.703 12.9917   2
  -7  -4  10 400.803 13.9545   1
  -7   4 -10 393.023 13.3313   2
  -7  -4  10 384.367 15.2743   3
   8   4 -10 42.0194 6.02348   2
  -8  -4 -10 56.0550 6.22061   1
  -8   4  10 50.3432 6.41600   2
   8  -4  10 35.8680 5.53294   1
  -8  -4 -10 51.3017 8.49026   3
  -8  -4  10 60.6695 6.75813   1
   8  -4 -10 58.7188 6.99690   1
  -8   4 -10 50.7224 6.05818   2
   8   4  10 55.5566 6.26177   2
   9  -4  10 46.5732 6.24224   1
  -9   4  10 44.4644 6.47294   2
  -9  -4 -10 34.1427 7.93337   3
   9   4 -10 41.9809 6.32518   2
  -9  -4 -10 41.4842 6.07982   1
   9   4  10 43.3959 5.95129   2
   9  -4 -10 49.3974 6.95192   1
  -9   4 -10 44.3523 6.10124   2
  -9  -4  10 42.7142 6.43224   1
 -10  -4 -10 24.5806 5.35455   1
  10   4 -10 27.3419 5.83250   2
  10  -4  10 35.0886 6.00027   1
 -10   4  10 29.5289 6.39274   2
 -10  -4 -10 31.2639 7.74115   3
 -10  -4  10 19.2495 5.38023   1
 -10   4 -10 28.1545 5.66636   2
  10  -4 -10 28.1608 6.09320   1
  10   4  10 35.6068 6.03372   2
 -11  -4 -10 29.8543 7.80698   3
  11  -4  10 17.6583 5.45464   1
 -11  -4 -10 19.6122 5.42326   1
  11   4 -10 11.1293 5.38797   2
 -11   4  10 20.8135 5.97014   2
  11   4  10 22.3710 5.69747   2
 -11  -4  10 17.1762 5.51919   1
  11  -4 -10 19.8291 6.20775   1
 -11   4 -10 18.0901 5.41396   2
  12  -4  10 -2.9194 4.43816   1
 -12  -4 -10 3.69424 4.86303   1
  12   4 -10 1.71081 5.04892   2
 -12  -4 -10 4.53768 6.39643   3
 -12   4  10 -1.9653 4.86618   2
 -12   4 -10 8.63451 5.04945   2
  12  -4 -10 5.24644 5.22712   1
  12   4  10 1.13178 4.62775   2
 -12  -4  10 13.7692 5.45333   1
  13  -4  10 1.97008 4.90846   1
 -13   4  10 7.82166 5.70919   2
  13   4 -10 1.37487 5.24840   2
 -13  -4 -10 0.56009 4.76715   1
 -13  -4 -10 1.24652 6.74111   3
 -13   4 -10 5.90460 5.13616   2
 -13  -4  10 6.58356 5.41809   1
  13   4  10 1.21968 4.79623   2
  13  -4 -10 0.61934 5.32627   1
 -14  -4 -10 366.339 16.7861   1
  14  -4  10 401.948 17.8410   1
  14   4 -10 405.112 18.2255   2
 -14  -4 -10 411.553 20.3375   3
 -14   4  10 445.491 19.0640   2
 -14  -4  10 403.643 18.0536   1
 -14   4 -10 431.342 17.8454   2
  14   4  10 418.794 17.6541   2
  14  -4 -10 430.079 19.0169   1
   0  -5  10 1.16512 2.72975   1
   0   5 -10 1.35012 2.54558   2
   0  -5 -10 -1.0629 3.70668   5
   0   5  10 0.69465 2.53704   2
   0  -5  10 5.72684 5.18483   3
   0  -5 -10 -2.9543 4.02546   3
   0  -5 -10 0.19511 2.68229   1
  -1  -5 -10 23.5066 6.04726   3
  -1  -5 -10 29.9973 4.07598   1
   1   5 -10 33.9407 4.19942   2
  -1   5  10 24.9636 3.69782   2
   1  -5  10 27.3930 6.47139   3
   1  -5  10 33.4937 4.16139   1
  -1  -5 -10 21.6587 5.08155   5
   1  -5 -10 28.5100 4.18285   1
  -1   5 -10 29.8321 4.00055   2
  -1  -5  10 16.6575 5.90598   3
   1  -5 -10 32.8441 5.92318   3
  -1  -5  10 23.9603 3.80214   1
   1  -5 -10 28.4955 5.34031   5
   1   5  10 37.5140 4.10443   2
   2  -5  10 267.936 13.9133   3
   2   5 -10 285.276 9.75412   2
  -2   5  10 262.949 9.47826   2
  -2  -5 -10 260.065 9.32321   1
  -2  -5 -10 267.530 11.4037   5
   2  -5  10 270.462 11.5989   5
  -2  -5 -10 271.232 13.9057   3
   2  -5  10 268.553 9.73196   1
   2  -5 -10 267.510 11.9029   5
  -2  -5  10 261.410 13.8140   3
  -2  -5  10 274.588 9.63136   1
  -2   5 -10 252.863 9.25420   2
   2  -5 -10 253.652 9.38687   1
   2   5  10 275.083 9.33095   2
   3   5 -10 151.387 7.66482   2
   3  -5  10 138.622 7.40912   1
  -3   5  10 139.672 7.60165   2
   3  -5  10 151.605 9.15471   5
  -3  -5 -10 172.150 11.9858   3
  -3  -5 -10 139.683 7.14461   1
   3   5  10 139.854 7.03186   2
  -3  -5  10 135.686 7.42725   1
   3  -5 -10 134.043 7.51108   1
  -3   5 -10 136.320 7.23360   2
  -3  -5  10 141.866 11.0554   3
   4  -5  10 162.491 8.06991   1
  -4   5  10 160.042 8.38756   2
  -4  -5 -10 134.453 12.0489   3
   4  -5  10 162.450 9.45249   5
   4   5 -10 152.510 8.17696   2
  -4  -5 -10 158.777 7.62833   1
  -4  -5  10 150.892 8.02394   1
   4   5  10 163.982 7.77929   2
  -4   5 -10 162.401 7.80304   2
   4  -5 -10 166.306 8.44554   1
  -4  -5  10 148.903 10.9512   3
  -5  -5 -10 126.625 12.0294   3
   5  -5  10 139.675 8.00948   1
   5   5 -10 131.041 8.04118   2
   5  -5  10 117.407 8.92122   5
  -5  -5 -10 139.474 7.68793   1
  -5   5  10 135.380 8.46086   2
  -5   5 -10 140.774 7.77992   2
   5  -5 -10 130.643 8.39319   1
   5   5  10 136.471 7.90861   2
  -5  -5  10 131.646 8.10648   1
  -5  -5  10 156.401 11.0606   3
  -6  -5 -10 11.2252 3.76778   1
   6  -5  10 14.6306 5.57533   5
   6  -5  10 17.9163 4.47963   1
  -6  -5 -10 1.50444 5.85830   3
  -6   5  10 11.0658 4.30057   2
   6   5 -10 7.10942 4.03975   2
  -6   5 -10 6.94897 3.67361   2
   6   5  10 7.28882 3.63337   2
  -6  -5  10 10.6678 5.61950   3
  -6  -5  10 11.7010 4.13294   1
   6  -5 -10 8.51921 4.34242   1
   7  -5  10 3.73932 3.85488   1
  -7   5  10 3.35731 4.12309   2
  -7  -5 -10 16.5730 6.89874   3
  -7  -5 -10 13.2166 4.08315   1
   7   5 -10 6.08908 4.49777   2
  -7   5 -10 10.0594 4.09079   2
  -7  -5  10 9.69926 4.30671   1
   7   5  10 8.38224 3.98546   2
   7  -5 -10 9.89305 4.61283   1
  -7  -5  10 10.9686 5.82158   3
  -8  -5 -10 69.2808 7.02616   1
   8   5 -10 73.9404 7.36201   2
   8  -5  10 82.1452 7.50133   1
  -8   5  10 71.9316 7.50149   2
  -8  -5 -10 69.9726 10.1501   3
   8  -5 -10 76.5959 7.94434   1
  -8   5 -10 76.6222 7.05943   2
  -8  -5  10 86.0494 9.30232   3
  -8  -5  10 77.0901 7.79088   1
   8   5  10 90.4030 7.41948   2
   9  -5  10 130.928 9.53005   1
  -9   5  10 144.034 10.2584   2
   9   5 -10 133.885 9.89194   2
  -9  -5 -10 137.705 13.2754   3
  -9  -5 -10 122.018 8.87280   1
  -9   5 -10 133.188 9.27749   2
  -9  -5  10 149.543 10.1274   1
   9   5  10 132.576 9.37937   2
   9  -5 -10 127.625 9.99980   1
 -10  -5 -10 62.0041 7.18008   1
 -10  -5 -10 48.4803 9.24569   3
 -10   5  10 50.7945 7.13876   2
  10   5 -10 45.6066 6.94820   2
  10  -5  10 58.9807 7.35617   1
  10   5  10 63.1757 7.21290   2
 -10  -5  10 51.0971 7.24410   1
  10  -5 -10 57.1704 7.64656   1
 -10   5 -10 50.4005 6.79507   2
  11   5 -10 77.4817 8.61582   2
  11  -5  10 69.1744 8.00847   1
 -11   5  10 81.3646 8.88178   2
 -11  -5 -10 74.7655 11.1717   3
 -11  -5 -10 69.0751 8.05665   1
  11   5  10 66.6598 7.71935   2
 -11   5 -10 83.2807 8.38499   2
  11  -5 -10 79.9767 9.07709   1
 -11  -5  10 75.4046 8.36829   1
 -12  -5 -10 13.8303 7.54421   3
  12   5 -10 6.93630 5.38299   2
 -12   5  10 1.42164 5.11683   2
 -12  -5 -10 19.8228 5.92661   1
  12  -5  10 20.8708 5.98808   1
 -12  -5  10 9.00209 5.25834   1
  12   5  10 9.07854 5.39011   2
  12  -5 -10 12.7958 5.77447   1
 -12   5 -10 5.21843 5.14809   2
   0   6 -10 334.031 10.8012   2
   0  -6  10 332.291 16.9436   3
   0  -6 -10 319.057 14.0182   5
   0  -6  10 337.706 10.8095   1
   0   6  10 321.946 10.4562   2
   0  -6 -10 335.077 15.5350   3
   1  -6  10 177.609 7.97960   1
  -1   6  10 158.238 7.77126   2
  -1  -6 -10 184.350 12.7787   3
   1   6 -10 167.207 7.85859   2
   1  -6  10 167.477 12.9884   3
  -1  -6 -10 157.114 10.2550   5
   1  -6 -10 177.951 11.6388   3
  -1   6 -10 163.654 7.90864   2
   1  -6 -10 166.525 8.59753   1
  -1  -6  10 173.727 13.1467   3
   1   6  10 173.383 7.72599   2
  -1  -6  10 171.722 7.83927   1
   1  -6 -10 154.355 10.7360   5
   2  -6  10 6.22765 6.16557   3
  -2  -6 -10 3.35860 5.84919   3
   2  -6  10 10.4237 3.47803   1
  -2  -6 -10 3.57557 4.39195   5
  -2   6  10 2.15276 3.28989   2
   2   6 -10 0.14425 3.09870   2
  -2   6 -10 5.64167 3.31383   2
   2  -6 -10 -2.4217 4.26583   5
   2   6  10 5.21989 3.04566   2
   2  -6 -10 5.25512 3.29343   1
  -2  -6  10 4.52226 5.90239   3
  -2  -6  10 5.46860 3.36074   1
  -3   6  10 710.720 18.3535   2
   3  -6  10 753.328 25.9360   3
   3  -6  10 740.869 18.5385   1
  -3  -6 -10 677.174 24.8049   3
   3   6 -10 721.162 18.3524   2
   3  -6  10 776.796 22.5561   5
  -3  -6  10 727.499 24.9709   3
   3   6  10 724.784 17.6971   2
   3  -6 -10 744.572 18.4201   1
  -3  -6  10 735.307 18.3381   1
  -3   6 -10 733.543 18.2156   2
   3  -6 -10 702.995 22.7271   5
  -4  -6 -10 1.51466 3.31520   1
   4  -6  10 3.86093 3.46219   1
   4  -6  10 -2.2776 4.38516   5
  -4   6  10 3.95133 3.56158   2
   4   6 -10 2.06839 3.41787   2
  -4  -6 -10 2.62281 6.08958   3
  -4  -6  10 -0.6118 4.89998   3
   4   6  10 0.59211 3.18013   2
  -4  -6  10 7.77294 3.56769   1
   4  -6 -10 3.65486 3.58356   1
  -4   6 -10 2.74880 3.48085   2
  -5  -6 -10 35.3281 5.12917   1
   5  -6  10 52.5424 7.53271   5
   5  -6  10 46.1528 5.55389   1
   5   6 -10 38.7772 5.45594   2
  -5  -6 -10 43.7732 9.08155   3
  -5   6  10 40.3080 5.59400   2
  -5  -6  10 40.6393 8.14348   3
   5  -6 -10 37.3795 5.61707   1
  -5   6 -10 36.5085 5.11595   2
  -5  -6  10 34.5771 5.20334   1
   5   6  10 42.9103 5.13915   2
   6  -6  10 -6.0383 4.41742   5
   6   6 -10 4.37687 3.99536   2
  -6   6  10 -5.9058 3.76611   2
  -6  -6 -10 4.48009 3.64199   1
  -6  -6 -10 -2.0815 6.38247   3
   6  -6  10 5.27750 4.00277   1
   6   6  10 -2.6486 3.68746   2
   6  -6 -10 -1.9967 3.76114   1
  -6   6 -10 4.19033 3.80248   2
  -6  -6  10 -0.1103 3.97605   1
  -6  -6  10 4.81970 5.94173   3
  -7  -6 -10 1.71493 3.66597   1
  -7   6  10 5.91693 4.40745   2
  -7  -6 -10 8.25053 7.21227   3
   7  -6  10 2.82950 4.14964   1
   7   6 -10 -3.4968 4.13409   2
  -7   6 -10 -2.6618 3.80896   2
   7  -6 -10 4.13453 4.51032   1
  -7  -6  10 -2.8376 3.99390   1
   7   6  10 3.25092 4.01122   2
  -7  -6  10 -0.8216 5.62034   3
   8  -6  10 193.390 10.7047   1
  -8   6  10 186.332 11.1246   2
  -8  -6 -10 197.827 10.4082   1
   8   6 -10 195.823 11.2187   2
  -8  -6 -10 197.022 15.9184   3
   8  -6 -10 209.220 11.7368   1
  -8  -6  10 191.796 10.8812   1
   8   6  10 182.109 10.1968   2
  -8  -6  10 213.330 14.3950   3
  -8   6 -10 209.066 10.7771   2
   9   6 -10 533.029 18.0152   2
  -9  -6 -10 528.267 17.3364   1
  -9   6  10 487.251 17.7858   2
  -9  -6 -10 499.413 23.5763   3
   9  -6  10 548.461 17.8790   1
  -9   6 -10 520.474 17.3014   2
   9   6  10 502.648 16.8141   2
  -9  -6  10 500.339 20.9242   3
   9  -6 -10 528.476 18.4948   1
  -9  -6  10 542.812 18.0582   1
 -10  -6 -10 9.84303 7.25553   3
 -10  -6 -10 23.4205 5.73280   1
  10  -6  10 15.6952 5.51524   1
  10   6 -10 8.44711 5.23433   2
 -10   6  10 17.4698 5.80677   2
  10   6  10 20.2713 5.52068   2
 -10  -6  10 27.5907 6.30971   1
  10  -6 -10 18.1377 5.96874   1
 -10   6 -10 12.5092 5.27059   2
 -11   6  10 303.401 14.7596   2
  11   6 -10 289.040 14.5725   2
 -11  -6 -10 299.866 13.8314   1
  11  -6  10 307.830 14.6303   1
 -11  -6 -10 321.637 19.8312   3
 -11   6 -10 298.359 14.1713   2
  11   6  10 284.934 13.7439   2
 -11  -6  10 301.800 14.8753   1
  11  -6 -10 320.214 15.5172   1
   0  -7  10 7.18819 6.73238   3
   0   7 -10 -3.9430 3.11334   2
   0  -7 -10 2.67251 5.09506   5
   0   7  10 -0.5729 3.29101   2
   0  -7 -10 -6.3581 5.20624   3
   1  -7  10 33.3329 8.27602   3
  -1  -7 -10 28.9395 7.83154   3
  -1   7  10 29.0037 4.40636   2
   1   7 -10 27.2068 4.58320   2
  -1  -7 -10 20.2025 6.45993   5
   1   7  10 33.4886 4.57700   2
  -1  -7  10 21.4976 7.70500   3
   1  -7 -10 21.5632 6.45835   5
  -1   7 -10 29.3622 4.50089   2
  -2  -7 -10 137.175 10.9351   5
   2  -7  10 123.015 12.9717   3
  -2  -7 -10 140.862 12.8989   3
   2   7 -10 142.871 8.00817   2
  -2   7  10 144.335 8.14469   2
  -2  -7  10 123.042 12.4744   3
   2   7  10 136.861 7.63857   2
  -2   7 -10 148.950 8.06659   2
   2  -7 -10 141.972 11.6194   5
  -3  -7 -10 80.2483 11.1620   3
  -3   7  10 110.716 7.86820   2
   3  -7  10 103.802 12.5072   3
   3   7 -10 92.4323 7.29280   2
  -3   7 -10 100.654 7.47504   2
   3  -7 -10 102.126 10.3902   5
  -3  -7  10 91.5856 11.2897   3
   3   7  10 102.156 7.05097   2
  -4  -7 -10 90.3015 11.4837   3
   4  -7  10 114.049 10.6948   5
   4   7 -10 114.264 8.18903   2
  -4   7  10 96.3166 7.59067   2
  -4   7 -10 94.8394 7.25545   2
   4   7  10 101.232 7.32948   2
  -4  -7  10 110.284 12.0958   3
   4  -7 -10 99.9970 10.5960   5
  -5   7  10 101.802 7.97926   2
   5  -7  10 96.4544 10.1174   5
  -5  -7 -10 117.388 13.1351   3
   5   7 -10 81.7615 7.34199   2
   5   7  10 98.1024 7.57467   2
   5  -7 -10 101.542 10.6620   5
  -5  -7  10 96.1831 11.2926   3
  -5   7 -10 90.8143 7.25177   2
   6  -7  10 9.42631 4.46503   1
   6   7 -10 6.86644 4.59007   2
   6  -7  10 12.4672 6.41556   5
  -6   7  10 6.84380 4.46907   2
  -6  -7 -10 -16.227 6.33214   3
   6  -7 -10 2.09218 5.76556   5
  -6   7 -10 1.37615 3.76096   2
   6   7  10 2.24581 3.97683   2
  -6  -7  10 0.99069 6.25863   3
   7  -7  10 16.6576 4.88738   1
  -7   7  10 16.5102 5.30076   2
  -7  -7 -10 16.5055 8.05325   3
   7   7 -10 14.5588 5.34623   2
  -7  -7  10 15.9749 7.11863   3
   7   7  10 12.3429 4.85638   2
  -7   7 -10 14.7289 4.73845   2
   8  -7  10 69.2030 7.44781   1
  -8   7  10 54.1524 7.15343   2
  -8  -7 -10 65.5985 11.7562   3
   8   7 -10 46.7510 6.76999   2
   8   7  10 68.4988 7.32540   2
  -8  -7  10 62.6287 10.3193   3
  -8   7 -10 72.2328 7.51486   2
   8  -7 -10 55.9475 7.18791   1
   0  -8  10 11.8893 7.91907   3
   0   8 -10 1.54196 3.79542   2
   0  -8 -10 20.9635 6.87642   5
   0   8  10 16.5467 4.07825   2
   1   8 -10 18.1428 4.34931   2
   1  -8  10 14.0677 7.72464   3
  -1  -8 -10 10.9144 7.81271   3
  -1   8  10 23.3682 4.62887   2
  -1  -8 -10 22.4763 6.86996   5
   1   8  10 15.0777 4.21006   2
  -1  -8  10 28.8902 8.98731   3
   1  -8 -10 26.7851 7.17963   5
  -1   8 -10 15.2182 4.34917   2
  -2  -8 -10 187.767 15.4896   3
   2   8 -10 189.351 9.56332   2
  -2   8  10 159.546 9.01774   2
   2  -8  10 187.465 16.3978   3
  -2   8 -10 210.680 9.52792   2
   2   8  10 209.347 9.09174   2
  -2  -8  10 187.509 15.7474   3
   2  -8 -10 181.641 13.8734   5
   0   0  11 0.45340 2.41956   2
   0   0  11 2.43427 2.26373   4
   0   0  11 0.59561 2.40810   7
   0   0  11 -0.2167 2.44452   1
   0   0 -11 -0.3306 2.10602   4
  -1   0  11 232.605 7.87553   7
  -1   0  11 226.609 8.28807   4
  -1   0 -11 217.732 8.02432   4
   1   0  11 216.773 8.04895   4
   1   0  11 226.005 8.20569   2
  -1   0  11 236.775 8.71979   1
   1   0 -11 216.177 8.46227   1
   1   0 -11 217.683 8.20355   4
  -1   0 -11 227.391 8.50513   1
   1   0  11 222.352 8.35373   1
   1   0  11 239.834 7.90784   7
  -1   0  11 226.894 8.27347   2
  -2   0  11 572.369 15.0267   1
  -2   0 -11 553.870 14.4317   4
   2   0  11 568.041 14.9446   1
   2   0 -11 580.437 15.1858   1
   2   0  11 554.871 13.5920   7
   2   0  11 557.419 14.4990   4
   2   0 -11 554.836 14.3574   2
   2   0  11 571.831 14.3304   2
  -2   0  11 562.778 14.3989   2
   2   0 -11 578.253 14.7390   4
  -2   0  11 589.859 13.9136   7
  -2   0 -11 582.423 15.1121   1
  -3   0  11 470.655 13.6621   1
   3   0 -11 488.199 13.1415   2
  -3   0 -11 484.499 12.9076   4
  -3   0  11 465.719 13.1660   2
  -3   0  11 475.735 13.4858   4
   3   0 -11 488.555 13.4041   4
   3   0  11 470.316 12.8230   2
  -3   0 -11 484.203 12.7448   2
  -3   0 -11 489.953 13.4835   1
   3   0  11 467.723 13.2278   1
   3   0  11 456.788 12.9243   4
   3   0 -11 487.099 13.8662   1
  -3   0  11 466.673 12.4609   7
   3   0  11 460.848 12.0559   7
   4   0 -11 363.828 11.1715   2
   4   0 -11 337.481 11.4763   1
  -4   0  11 331.073 10.3787   7
   4   0  11 341.120 10.7988   2
   4   0  11 320.233 10.5977   4
   4   0  11 334.903 10.0774   7
  -4   0  11 326.165 11.3250   1
  -4   0 -11 326.507 10.4306   2
  -4   0  11 343.233 11.1968   2
  -4   0 -11 335.059 11.0681   1
   4   0  11 337.307 11.1351   1
  -4   0  11 342.261 11.2989   4
  -4   0 -11 355.883 10.8526   4
   5   0 -11 259.786 10.2950   1
  -5   0 -11 258.018 9.28326   2
   5   0 -11 252.424 9.39983   7
   5   0 -11 262.767 9.95979   2
   5   0  11 261.004 9.54086   4
  -5   0  11 255.055 9.40378   7
  -5   0  11 250.810 10.1707   1
   5   0  11 264.262 9.55660   2
  -5   0  11 265.090 10.3584   4
  -5   0  11 284.723 10.1334   2
  -5   0 -11 265.112 10.1760   1
   5   0  11 279.394 10.0350   1
   5   0  11 261.689 9.03240   7
  -6   0  11 12.6677 3.77973   7
   6   0  11 20.0529 3.68262   7
  -6   0  11 15.6356 4.29096   1
  -6   0  11 28.4111 4.61409   2
   6   0  11 17.4915 3.94381   1
   6   0 -11 19.7171 3.79009   7
  -6   0 -11 17.4013 4.01528   1
   6   0 -11 20.6550 4.06567   2
   6   0  11 15.1520 3.75523   2
   6   0 -11 15.5671 4.23784   1
  -6   0 -11 21.9644 3.71737   2
   7   0 -11 890.278 23.0648   1
   7   0 -11 910.758 22.0243   2
   7   0  11 897.081 21.6320   2
   7   0 -11 863.173 20.9507   7
  -7   0 -11 883.407 22.3370   1
  -7   0 -11 875.449 21.4102   2
  -7   0  11 920.761 22.2253   2
  -7   0  11 870.910 20.8709   7
   7   0  11 904.837 22.3862   1
  -7   0  11 875.031 22.9958   1
   7   0  11 897.651 20.5328   7
   8   0 -11 204.559 9.55153   7
   8   0 -11 228.328 10.3356   2
   8   0  11 219.122 9.85070   2
   8   0  11 190.416 9.94257   1
   8   0  11 204.193 9.19138   7
  -8   0 -11 211.475 10.3688   1
  -8   0  11 211.876 10.5727   1
  -8   0  11 198.648 9.42239   7
   8   0 -11 217.615 10.5670   1
   9   0  11 152.952 9.39037   1
  -9   0  11 138.076 8.52431   7
  -9   0  11 160.604 9.74094   1
   9   0  11 136.676 8.20992   7
   9   0 -11 138.535 9.66929   1
   9   0 -11 141.062 8.44838   7
  -9   0 -11 145.821 9.24474   1
 -10   0  11 310.230 12.0736   7
 -10   0  11 310.709 13.4807   1
  10   0  11 290.944 13.0198   1
  10   0 -11 304.593 13.6829   1
  10   0  11 293.953 11.5477   7
  10   0 -11 263.309 11.5075   7
 -10   0 -11 319.678 13.3516   1
 -11   0  11 184.169 11.3384   1
  11   0  11 179.357 11.0734   1
  11   0 -11 178.884 10.1917   7
 -11   0  11 176.051 10.1805   7
 -11   0 -11 171.310 10.6522   1
  11   0  11 183.502 9.84915   7
  11   0 -11 186.034 11.9730   1
  12   0  11 3.89593 4.38043   7
 -12   0  11 7.31428 4.62474   7
 -12   0 -11 5.65438 5.04387   1
  12   0  11 -9.5675 4.15764   1
 -12   0  11 -0.2832 4.68847   1
  12   0 -11 3.92189 4.33203   7
  12   0 -11 9.15321 5.68727   1
  13   0 -11 133.763 10.0784   7
 -13   0  11 146.602 10.0219   7
  13   0 -11 126.042 11.3130   1
 -13   0  11 122.685 11.1995   1
  13   0  11 121.460 9.39138   7
 -13   0 -11 144.609 11.1836   1
  13   0  11 139.644 11.1983   1
 -14   0  11 -4.0271 4.28928   7
 -14   0  11 1.58405 5.52236   1
  14   0  11 3.35719 4.88428   7
  14   0 -11 1.85506 5.42754   1
  14   0 -11 1.40170 4.86605   7
 -14   0 -11 3.19809 5.29885   1
 -15   0  11 38.9810 8.18862   1
  15   0  11 44.7829 7.02497   7
 -15   0 -11 33.2654 7.49652   1
  15   0 -11 36.9230 6.85219   7
 -15   0  11 33.8040 6.39535   7
  16   0 -11 17.0374 5.80818   7
 -16   0  11 28.8759 7.81394   1
 -16   0  11 19.9931 5.97638   7
 -16   0 -11 13.1754 6.26937   1
  16   0  11 10.7457 5.92484   7
   0  -1  11 148.752 6.27020   7
   0   1  11 153.060 6.78063   2
   0   1 -11 159.495 7.08548   1
   0  -1  11 157.819 7.12927   1
   0  -1 -11 155.783 6.40967   4
   0   1 -11 125.545 6.16403   2
   0   1  11 145.366 6.67137   4
   0  -1  11 138.236 6.57436   4
   0  -1 -11 149.132 7.25751   1
  -1   1  11 509.768 13.4546   2
   1  -1  11 506.454 12.4819   7
   1   1 -11 537.175 14.1390   1
   1  -1  11 544.760 13.5642   4
  -1  -1 -11 524.841 13.9756   1
   1  -1  11 528.627 14.0067   1
  -1   1  11 519.111 13.6660   4
  -1  -1 -11 517.237 13.1412   4
   1   1 -11 532.796 13.5095   2
  -1  -1  11 518.989 12.6105   7
  -1   1 -11 507.583 13.1227   2
  -1  -1  11 510.729 14.0358   1
   1   1  11 515.225 13.2856   2
  -1   1 -11 527.095 13.9347   1
   1   1  11 515.346 13.5416   4
   1  -1 -11 514.013 13.1838   4
   1  -1 -11 529.893 14.1536   1
  -1  -1  11 503.868 13.5363   4
  -2   1  11 3.02328 2.47351   4
   2  -1  11 2.45543 2.41247   7
  -2   1  11 4.18226 2.87316   1
   2  -1  11 3.90103 2.38668   4
   2  -1  11 1.69918 2.59000   1
  -2  -1 -11 1.86719 2.15244   4
  -2   1  11 4.35955 2.61714   2
  -2  -1 -11 5.23984 2.71605   1
   2   1 -11 6.23234 2.80042   1
   2   1 -11 6.80805 2.62167   2
   2   1  11 0.73501 2.20785   4
  -2  -1  11 8.00887 2.97621   1
  -2   1 -11 1.39959 2.50624   1
   2  -1 -11 3.36366 2.71016   1
   2  -1 -11 6.98371 2.46359   4
  -2   1 -11 1.89140 2.39118   2
  -2  -1  11 8.24934 2.72086   7
   2   1  11 0.63617 2.39496   2
  -2  -1  11 0.70279 2.23941   4
  -3  -1 -11 0.06256 2.41962   1
  -3   1  11 5.25251 2.66596   4
   3  -1  11 4.23876 2.34604   7
  -3   1  11 1.02432 2.65709   2
   3  -1  11 1.90687 2.27222   4
  -3   1  11 4.55773 2.67600   7
   3   1 -11 6.12236 2.76979   1
   3  -1  11 -0.2001 2.47382   1
  -3   1  11 2.62484 2.75604   1
   3   1 -11 1.32467 2.55194   2
  -3  -1 -11 0.85315 2.12514   4
  -3  -1  11 3.16654 2.45808   4
   3   1  11 1.87511 2.41803   2
   3   1  11 2.18094 2.75260   1
  -3  -1  11 3.25713 2.89638   1
   3   1  11 1.30586 2.29776   7
   3  -1 -11 1.66908 2.41852   4
  -3   1 -11 1.02567 2.42970   2
  -3   1 -11 -0.5831 2.50801   1
   3   1  11 3.13030 2.35330   4
   3  -1 -11 5.44272 3.01212   1
   3  -1 -11 2.73628 2.54726   7
  -3  -1  11 5.40970 2.49198   7
   4  -1  11 61.6696 5.10149   4
  -4  -1 -11 62.6080 4.95285   4
  -4   1  11 63.4878 5.36859   4
   4   1 -11 73.3635 5.82839   2
  -4   1  11 66.6297 5.51803   2
  -4   1  11 67.8906 5.31010   7
   4   1 -11 66.8121 5.78089   1
   4  -1  11 73.5986 6.06658   1
   4  -1  11 62.3827 4.82168   7
  -4  -1 -11 68.3425 5.70769   1
  -4   1  11 70.5057 6.10100   1
   4  -1 -11 60.1742 5.01113   4
  -4  -1  11 59.6448 5.06176   4
   4  -1 -11 67.9780 6.10653   1
   4   1  11 72.5679 5.23634   7
  -4   1 -11 58.5781 5.15918   1
  -4  -1  11 61.7773 5.66413   1
  -4  -1  11 65.1358 5.14679   7
   4   1  11 66.0224 5.64003   1
   4   1  11 62.4772 5.11524   2
  -4   1 -11 68.4816 5.28226   2
   4   1  11 60.2736 5.04930   4
   4  -1 -11 67.5520 5.06628   7
  -5  -1 -11 -2.4611 2.57440   1
   5  -1  11 -2.4667 2.54467   1
   5   1 -11 2.43643 2.88966   2
   5   1 -11 3.61784 3.11110   1
  -5   1  11 -3.5206 2.62971   2
  -5   1  11 4.92508 2.89471   7
  -5   1  11 2.75306 2.73800   4
  -5  -1 -11 2.92926 2.59870   4
  -5   1  11 -0.8047 2.82922   1
   5  -1  11 -2.5883 2.34130   7
   5  -1 -11 -1.1297 2.59685   4
  -5  -1  11 0.83802 2.97845   1
   5  -1 -11 1.78632 3.31705   1
   5   1  11 -0.8480 2.56761   2
   5   1  11 -2.0253 2.56661   1
  -5   1 -11 3.64602 2.95595   1
  -5  -1  11 -3.0848 2.53261   7
  -5   1 -11 4.11838 2.72457   2
   5   1  11 2.38628 2.61402   4
   5   1  11 -1.3153 2.53947   7
   5  -1 -11 1.37132 2.47836   7
   6  -1  11 42.7058 4.40774   7
  -6  -1 -11 45.0850 5.07380   1
   6  -1  11 44.9607 5.29431   1
   6   1 -11 49.2171 5.15034   7
  -6   1  11 46.7079 5.25102   2
  -6   1  11 35.2406 5.03731   1
   6   1 -11 46.0602 5.51234   1
  -6   1  11 48.9850 5.02341   7
   6   1 -11 45.1568 5.26550   2
   6   1  11 50.8695 5.07429   2
   6   1  11 44.2281 4.67908   7
   6   1  11 49.4151 5.35280   1
   6  -1 -11 40.5028 4.59047   7
  -6   1 -11 47.4213 4.89855   2
  -6  -1  11 46.7103 4.76516   7
   6  -1 -11 51.0167 5.21213   4
  -6   1 -11 38.8127 5.02320   1
  -6  -1  11 45.4486 5.61676   1
   6  -1 -11 52.0314 5.95728   1
   7  -1  11 23.9712 3.92584   7
   7   1 -11 19.9944 4.15924   7
   7  -1  11 17.5704 4.40588   1
  -7  -1 -11 14.7069 3.99892   1
   7   1 -11 15.9983 4.42880   1
  -7   1  11 17.1415 4.46468   1
   7   1 -11 21.4067 4.31822   2
  -7   1  11 23.4772 4.27326   7
  -7   1  11 15.7641 4.15484   2
  -7   1 -11 22.3602 4.49823   1
   7   1  11 14.3042 4.10692   1
   7  -1 -11 9.54768 4.22158   1
  -7  -1  11 11.7099 4.24678   1
  -7   1 -11 18.0471 3.83013   2
  -7  -1  11 15.6900 3.62547   7
   7   1  11 16.4230 4.13931   2
   7   1  11 22.7754 3.94095   7
   7  -1 -11 18.6785 3.85599   7
   8  -1  11 16.3285 4.43628   1
  -8  -1 -11 13.7140 4.31712   1
   8  -1  11 16.9706 3.78656   7
   8   1 -11 9.74471 4.52326   1
   8   1 -11 23.5214 4.40045   7
  -8   1  11 14.1913 4.58849   2
  -8   1  11 11.5066 4.01628   7
   8   1 -11 16.6439 4.40674   2
  -8   1  11 17.2136 4.84073   1
   8  -1 -11 11.9751 3.65058   7
   8  -1 -11 13.4321 4.75432   1
  -8  -1  11 14.6632 4.73281   1
   8   1  11 17.7879 4.22527   2
   8   1  11 17.1846 3.87854   7
  -8   1 -11 21.2660 4.38265   2
  -8   1 -11 12.6283 4.23429   1
   8   1  11 15.9656 4.19703   1
  -8  -1  11 15.2287 3.84588   7
   9   1 -11 -1.5836 3.93459   1
   9   1 -11 -0.1004 3.40928   7
  -9   1  11 3.00328 3.67643   7
   9  -1  11 -0.2645 3.21269   7
  -9   1  11 3.06324 4.18914   1
  -9  -1 -11 -1.6367 3.64320   1
   9  -1  11 -3.5374 3.48307   1
   9   1 -11 3.26327 3.93632   2
  -9   1  11 -1.4215 3.67992   2
   9   1  11 1.91780 3.96647   1
  -9   1 -11 1.66954 3.73751   1
   9   1  11 2.72879 3.73051   2
   9  -1 -11 2.22835 4.31821   1
  -9   1 -11 1.88666 3.57795   2
   9   1  11 -0.5851 3.44651   7
   9  -1 -11 6.50583 3.61634   7
  -9  -1  11 -2.4041 3.30885   7
  -9  -1  11 -0.9642 3.88644   1
  10  -1  11 -0.1763 3.36455   7
  10  -1  11 1.12102 4.11219   1
  10   1 -11 4.66450 4.26758   2
 -10   1  11 -2.6484 3.96554   2
 -10  -1 -11 -3.5976 3.73116   1
  10   1 -11 2.39884 4.58559   1
  10   1 -11 1.26976 3.91868   7
 -10   1  11 3.19271 3.92054   7
 -10   1  11 5.06507 4.26467   1
 -10   1 -11 2.62646 3.81770   1
 -10  -1  11 2.85805 4.18483   1
  10  -1 -11 -0.7836 4.48432   1
  10   1  11 4.08548 3.99482   7
 -10   1 -11 -0.3920 3.75863   2
  10   1  11 1.62133 3.91303   2
 -10  -1  11 5.09034 3.79774   7
  10  -1 -11 9.86210 3.99855   7
  11  -1  11 3.37226 4.62839   1
  11   1 -11 2.27572 4.11441   7
  11   1 -11 -4.7520 4.14004   2
 -11  -1 -11 4.39513 4.42477   1
 -11   1  11 5.37569 4.67951   1
  11  -1  11 3.03745 3.71652   7
 -11   1  11 3.56762 4.36669   7
  11   1  11 2.09871 4.32742   2
 -11   1 -11 3.41625 4.49021   1
  11  -1 -11 9.29605 5.23155   1
 -11  -1  11 1.59036 3.86565   7
 -11  -1  11 5.54180 4.69699   1
  11  -1 -11 3.87821 4.03588   7
  11   1  11 -1.9615 3.83843   7
 -12  -1 -11 275.670 13.9876   1
  12  -1  11 299.463 12.4933   7
  12  -1  11 305.287 14.3807   1
 -12   1  11 284.923 13.1224   7
  12   1 -11 282.073 12.8460   7
  12   1  11 296.473 14.9485   2
  12   1  11 304.726 13.1470   7
 -12   1 -11 312.385 14.5784   1
 -12  -1  11 303.543 14.9338   1
  12  -1 -11 303.501 14.7503   1
 -12  -1  11 312.752 12.1807   7
  12  -1 -11 313.818 12.5531   7
  13  -1  11 292.155 14.6334   1
  13  -1  11 295.873 12.8414   7
 -13  -1 -11 287.321 14.6738   1
  13   1 -11 304.163 13.6532   7
 -13   1  11 305.033 13.7988   7
  13  -1 -11 283.795 15.4061   1
 -13  -1  11 303.461 12.6346   7
 -13  -1  11 269.294 14.8394   1
  13   1  11 302.021 13.7226   7
  13  -1 -11 292.042 12.7577   7
  14   1 -11 79.7143 8.50667   7
 -14   1  11 85.7531 8.68251   7
  14  -1  11 100.340 10.3614   1
 -14  -1 -11 89.2685 9.73838   1
  14  -1  11 80.6729 8.01500   7
  14  -1 -11 85.3961 7.98921   7
  14   1  11 73.6577 8.32177   7
  14  -1 -11 104.925 11.1348   1
 -14  -1  11 93.9440 10.2908   1
 -14  -1  11 94.1948 8.13757   7
 -15  -1 -11 23.8174 6.88182   1
  15   1 -11 19.8167 6.05148   7
  15  -1  11 25.1131 7.33976   1
  15  -1  11 15.6266 5.60953   7
 -15   1  11 12.9760 5.86987   7
  15  -1 -11 25.1699 7.52685   1
  15   1  11 17.4495 6.18688   7
 -15  -1  11 18.9152 5.57959   7
  15  -1 -11 24.3841 5.70420   7
 -15  -1  11 16.1953 6.47027   1
  16   1 -11 70.4456 8.51279   7
 -16   1  11 71.4582 8.44563   7
  16  -1  11 71.3593 8.25787   7
  16  -1 -11 63.5893 7.66963   7
  16   1  11 80.3428 9.33485   7
   0  -2 -11 -3.0801 1.68460   4
   0  -2  11 -2.7416 2.12857   4
   0  -2 -11 2.10391 2.10668   7
   0  -2 -11 -2.7852 2.52759   1
   0  -2  11 -2.4164 1.97603   7
   0  -2  11 -2.1676 2.37224   1
   0   2  11 -1.2759 2.12111   2
   0   2  11 0.40774 2.13280   4
   0   2 -11 -4.2757 2.06422   2
   1  -2  11 107.429 5.60377   4
  -1   2  11 102.601 5.79792   4
   1  -2  11 97.6957 4.90820   7
  -1  -2 -11 106.469 4.97922   4
  -1  -2 -11 99.1799 5.87881   1
   1  -2  11 95.4567 5.98051   1
  -1  -2 -11 102.540 4.76901   7
   1   2 -11 104.008 5.71590   2
  -1   2  11 94.3244 5.88176   2
  -1  -2  11 95.6865 5.49675   4
  -1   2 -11 101.821 5.70903   2
  -1  -2  11 109.700 6.22046   1
   1   2  11 107.783 5.90070   4
   1  -2 -11 103.249 6.11684   1
   1  -2 -11 107.511 4.99756   4
   1   2  11 104.560 5.95596   2
   1  -2 -11 102.212 4.98849   7
  -1  -2  11 99.3388 4.98390   7
   2  -2  11 6.29836 2.35539   7
  -2   2  11 -0.6595 2.20087   4
   2  -2  11 3.02550 2.70454   1
   2  -2  11 2.53929 2.11226   4
   2   2 -11 -0.2904 2.32806   2
  -2  -2 -11 1.98507 2.65752   1
  -2   2  11 1.96600 2.56327   2
   2   2  11 2.28188 2.25610   4
  -2   2 -11 7.55606 2.64593   2
   2  -2 -11 3.21329 2.18833   7
  -2  -2  11 2.39223 2.62321   1
   2   2  11 3.39215 2.53818   2
   2  -2 -11 5.68967 2.88719   1
  -2  -2  11 1.65267 2.25622   4
   2  -2 -11 -1.9496 1.87928   4
  -2  -2  11 1.67496 2.24302   7
   3  -2  11 85.0639 5.14118   4
  -3   2  11 82.2761 5.97367   2
   3   2 -11 79.2383 5.58471   2
   3  -2  11 76.9433 4.55836   7
  -3  -2 -11 83.6884 5.69658   1
   3  -2  11 71.8322 5.63516   1
  -3   2  11 89.7245 5.87441   4
  -3  -2  11 77.6120 5.34668   4
   3  -2 -11 81.0098 4.95493   7
  -3   2 -11 74.3751 5.51289   2
  -3  -2  11 73.6083 6.33149   3
   3  -2 -11 78.0592 6.07415   1
  -3  -2  11 82.5673 4.94308   7
   3   2  11 69.1125 5.40471   4
  -3  -2  11 74.4860 5.95608   1
   3   2  11 78.1780 5.54504   2
   4  -2  11 9.46740 2.69315   7
  -4   2  11 20.7989 3.81024   2
   4   2 -11 6.01926 3.03174   2
  -4   2  11 14.0073 3.43322   7
   4  -2  11 12.5303 3.30926   1
  -4  -2 -11 8.18276 3.01898   1
  -4   2  11 12.5453 3.33573   4
   4  -2  11 11.4759 2.74026   4
   4  -2 -11 11.3016 3.58652   1
   4   2  11 8.45841 3.08127   2
  -4  -2  11 15.1958 3.05019   4
   4  -2 -11 14.0951 2.88086   7
  -4  -2  11 17.4332 3.99550   3
  -4  -2  11 4.20113 3.10056   1
   4   2  11 16.5899 3.31830   4
  -4  -2  11 14.2394 2.82074   7
  -4   2 -11 13.0886 3.14638   2
   5  -2  11 1869.16 34.4999   7
   5  -2  11 1801.41 38.2526   1
  -5   2  11 1827.17 37.5391   2
  -5  -2 -11 1833.09 38.0873   1
  -5   2  11 1913.77 36.2636   7
   5   2 -11 1822.13 37.3460   2
  -5   2  11 1921.67 38.8167   4
   5  -2 -11 1872.75 38.9123   1
  -5  -2  11 1911.93 38.4408   4
  -5  -2  11 1853.84 34.4442   7
   5   2  11 1906.02 35.6888   7
   5   2  11 1886.12 38.2458   4
  -5  -2  11 1795.67 38.5514   1
   5   2  11 1856.65 37.0351   2
   5  -2 -11 1842.23 34.6815   7
  -5  -2  11 1844.74 38.6399   3
  -5   2 -11 1825.38 36.9113   2
   6  -2  11 24.4598 3.61386   7
  -6   2  11 20.3923 4.11341   7
   6  -2  11 24.9848 4.36847   1
  -6  -2 -11 24.8037 4.21451   1
  -6   2  11 21.2376 4.25923   2
   6   2 -11 25.7945 4.33632   2
   6   2  11 13.2005 3.80146   2
  -6  -2  11 22.1324 4.72939   1
   6  -2 -11 27.6811 4.97177   1
  -6   2 -11 26.1892 4.19471   2
   6   2  11 32.4075 4.45413   7
   6   2  11 31.3874 4.48432   4
   6  -2 -11 21.8791 3.59085   7
  -6  -2  11 28.9190 3.65657   7
   7  -2  11 330.710 10.0688   7
  -7  -2 -11 321.374 12.1405   1
   7  -2  11 333.113 12.4681   1
   7   2 -11 341.742 12.3954   2
  -7   2  11 324.913 12.4547   2
  -7   2  11 308.402 11.5731   7
  -7  -2  11 345.720 13.0580   1
   7  -2 -11 341.863 13.1293   1
   7   2  11 333.329 11.1495   7
  -7   2 -11 318.510 11.5712   2
  -7  -2  11 317.184 10.0969   7
   7   2  11 329.640 11.8667   2
   7  -2 -11 310.877 10.2566   7
   8  -2  11 659.873 19.1755   1
  -8   2  11 696.404 18.3561   7
   8  -2  11 668.777 16.2055   7
   8   2 -11 682.102 18.9181   2
   8   2 -11 690.537 18.2092   7
  -8   2  11 667.161 19.1309   2
  -8  -2 -11 650.898 19.0129   1
  -8  -2  11 682.984 16.2023   7
   8  -2 -11 654.383 19.8162   1
   8   2  11 661.736 18.5008   2
  -8   2 -11 681.351 18.5744   2
  -8  -2  11 658.360 19.8104   1
   8   2  11 681.131 17.5820   7
   8  -2 -11 631.795 16.3352   7
   9  -2  11 6.37810 3.30694   7
  -9   2  11 3.26054 4.13570   2
  -9   2  11 12.4815 4.40134   7
   9   2 -11 5.49190 3.91716   7
   9   2 -11 7.62600 4.19970   2
  -9  -2 -11 3.46772 4.00901   1
   9  -2  11 9.67060 4.39616   1
  -9   2 -11 12.4125 4.37084   2
   9  -2 -11 7.37969 3.48835   7
   9   2  11 5.12636 3.72202   7
  -9  -2  11 11.5934 3.44650   7
   9  -2 -11 6.07527 4.86016   1
  -9  -2  11 2.77491 4.08448   1
   9   2  11 7.97554 4.05774   2
  10  -2  11 7.81342 3.71176   7
 -10   2  11 4.17193 4.40534   7
 -10   2  11 7.12717 4.62651   2
  10   2 -11 -2.3320 4.05689   2
  10  -2  11 3.39628 4.19923   1
 -10  -2 -11 7.11081 4.36090   1
  10   2 -11 9.96562 4.46997   7
 -10  -2  11 6.62380 3.66025   7
  10   2  11 9.19764 4.44461   2
 -10  -2  11 2.30079 4.18492   1
  10  -2 -11 5.77861 3.73084   7
 -10   2 -11 8.60719 4.49121   2
  10  -2 -11 11.0288 5.18154   1
  10   2  11 1.46624 3.76629   7
  11   2 -11 4.16605 4.67451   2
  11  -2  11 4.05338 4.72385   1
  11   2 -11 6.90387 4.55375   7
 -11   2  11 5.78791 4.77335   2
  11  -2  11 2.81276 3.75814   7
 -11   2  11 1.67189 4.35076   7
 -11  -2 -11 6.19381 4.50349   1
  11  -2 -11 -1.7414 3.41619   7
 -11   2 -11 6.43572 4.49499   2
 -11  -2  11 6.85008 3.73892   7
 -11  -2  11 2.70759 4.64974   1
  11   2  11 0.74431 4.16481   2
  11   2  11 7.42543 4.41403   7
  11  -2 -11 -1.5726 4.55319   1
 -12   2  11 42.2251 7.05226   2
 -12   2  11 28.7959 6.26248   7
  12   2 -11 40.2611 6.90492   2
 -12  -2 -11 42.1072 7.07275   1
  12   2 -11 52.5329 6.85627   7
  12  -2  11 41.0838 5.63025   7
  12  -2  11 39.2812 7.19403   1
 -12  -2  11 38.9140 5.34324   7
  12  -2 -11 49.7869 7.89078   1
  12  -2 -11 40.1664 5.71546   7
 -12  -2  11 43.3426 7.25558   1
  12   2  11 50.6736 6.78361   7
  12   2  11 48.3865 7.10981   2
 -12   2 -11 48.7766 7.01026   2
 -13   2  11 566.825 19.0227   7
  13  -2  11 561.252 20.3525   1
 -13  -2 -11 563.950 20.2480   1
  13  -2  11 559.096 16.5644   7
  13   2 -11 513.598 19.5977   2
  13   2 -11 551.669 18.6387   7
 -13  -2  11 544.889 15.7113   7
  13   2  11 536.684 18.2720   7
  13   2  11 574.861 19.7966   2
  13  -2 -11 510.157 20.7258   1
  13  -2 -11 546.971 16.4087   7
 -13  -2  11 536.121 20.5738   1
  14  -2  11 17.2044 5.25216   7
  14  -2  11 7.33554 5.67131   1
 -14   2  11 13.7372 5.74852   7
 -14  -2 -11 13.8147 5.89741   1
  14   2 -11 17.8228 5.84590   7
  14   2  11 18.1246 6.19950   7
 -14  -2  11 17.3713 4.81660   7
  14   2  11 16.5856 6.47253   2
 -14  -2  11 8.11562 5.94915   1
  14  -2 -11 9.97660 4.68483   7
  14  -2 -11 7.45897 6.09409   1
  15  -2  11 1.16700 5.70238   1
 -15   2  11 -2.5995 5.12700   7
 -15  -2 -11 2.77567 5.40022   1
  15  -2  11 -0.7166 4.51428   7
 -15  -2 -11 5.49779 6.72477   3
  15   2 -11 0.23173 5.29454   7
 -15  -2  11 8.46367 6.22934   1
  15  -2 -11 23.6728 7.36572   1
  15   2  11 6.97528 5.85228   7
  15  -2 -11 3.14715 4.44907   7
   0  -3  11 99.7350 4.60241   4
   0   3  11 108.217 6.12053   2
   0   3 -11 103.850 5.89131   2
   0  -3  11 110.766 6.26980   1
   0  -3 -11 111.980 7.92479   3
   1   3 -11 429.298 12.0444   2
  -1  -3 -11 425.770 14.9917   3
  -1  -3 -11 423.441 12.4327   1
  -1   3  11 421.496 12.1654   2
   1  -3  11 438.281 12.5700   1
   1  -3  11 425.851 9.95523   4
   1  -3 -11 431.551 13.6330   3
  -1   3 -11 425.933 12.1052   2
  -1  -3  11 420.256 12.4962   1
  -1  -3  11 412.038 14.7459   3
   1  -3 -11 429.857 12.5661   1
   1   3  11 427.921 11.9907   2
  -2  -3 -11 0.34995 4.44060   3
   2   3 -11 1.86754 2.52721   2
  -2   3  11 8.03796 2.90949   2
  -2  -3 -11 0.39188 2.57398   1
   2  -3  11 2.63023 1.96963   4
   2  -3  11 -0.6713 2.52107   1
  -2   3 -11 1.04137 2.53461   2
  -2  -3  11 5.56007 3.98559   3
   2  -3 -11 3.41163 2.80987   1
   2   3  11 -1.1948 2.26315   2
  -2  -3  11 6.04828 2.98431   1
   2  -3 -11 -3.2074 2.77664   3
   3   3 -11 1.37008 2.74783   2
   3  -3  11 2.48968 2.71918   1
  -3  -3 -11 -2.3383 2.46942   1
   3  -3  11 5.43094 2.14454   4
   3  -3  11 1.58614 2.68780   5
  -3   3  11 2.84568 2.84035   2
   3  -3 -11 -0.8951 2.75069   1
  -3  -3  11 3.14664 3.86711   3
   3   3  11 0.35981 2.57811   2
  -3  -3  11 1.38235 2.87810   1
  -3   3 -11 0.86551 2.48107   2
  -4  -3 -11 46.3143 4.91741   1
   4  -3  11 51.6179 4.27435   4
   4   3 -11 62.5292 5.52243   2
  -4   3  11 59.2856 5.57288   2
   4  -3  11 59.5092 5.61524   1
  -4  -3  11 61.2597 5.84854   1
  -4   3 -11 58.0441 5.17459   2
   4  -3 -11 64.8384 6.03893   1
   4   3  11 50.6403 4.92428   2
  -4  -3  11 46.9082 5.94280   3
  -5  -3 -11 -0.4257 2.94315   1
  -5   3  11 5.94981 3.38923   2
   5  -3  11 4.54967 2.38269   4
   5   3 -11 1.23637 2.97123   2
   5  -3  11 3.48033 3.00670   1
   5   3  11 -0.7476 2.88509   2
  -5  -3  11 -0.2371 3.03063   1
   5  -3 -11 1.96964 3.39028   1
  -5   3 -11 2.40991 2.89854   2
  -5  -3  11 0.31375 3.77051   3
  -6  -3 -11 23.3152 4.47738   1
   6  -3  11 29.4696 4.73743   1
  -6   3  11 27.1354 4.94771   2
   6   3 -11 32.8804 4.89221   2
   6   3  11 29.0912 4.67010   2
  -6  -3  11 23.6750 5.01851   3
   6  -3 -11 37.4772 5.30525   1
  -6  -3  11 31.7488 5.06904   1
  -6   3 -11 29.7344 4.49751   2
   7   3 -11 12.9159 4.25264   2
   7  -3  11 11.5508 4.06667   1
  -7   3  11 8.32095 4.13300   2
  -7  -3 -11 14.4697 4.25562   1
  -7   3 -11 15.2319 4.07539   2
   7  -3 -11 15.4232 4.77123   1
   7   3  11 10.8988 3.88998   2
  -7  -3  11 11.9116 4.23467   1
  -8  -3 -11 17.6310 4.66370   1
  -8   3  11 17.3880 4.90306   2
   8  -3  11 16.3174 4.73202   1
   8   3 -11 12.8909 4.38036   2
   8  -3 -11 13.6248 4.78846   1
   8   3  11 10.5330 4.14958   2
  -8  -3  11 14.4691 4.71415   1
  -8   3 -11 8.95099 4.12368   2
  -9   3  11 -0.6274 4.10781   2
   9  -3  11 2.80012 4.05494   1
  -9  -3 -11 3.15440 3.91839   1
   9   3 -11 -1.0423 3.85354   2
   9   3  11 -1.3633 3.71163   2
  -9   3 -11 6.62522 4.15119   2
  -9  -3  11 1.08556 4.13760   1
   9  -3 -11 6.00315 4.89336   1
 -10  -3 -11 2.49032 4.03845   1
  10   3 -11 1.17966 4.23130   2
  10  -3  11 3.00683 4.32370   1
 -10  -3 -11 2.35428 5.77934   3
 -10   3  11 2.30725 4.70429   2
 -10   3 -11 4.05862 4.25153   2
 -10  -3  11 -0.9473 4.12374   1
  10   3  11 -1.0810 3.91951   2
  10  -3 -11 0.18679 4.54075   1
 -11  -3 -11 3.23077 4.42868   1
  11   3 -11 5.20607 4.79364   2
 -11  -3 -11 3.05141 6.04529   3
 -11   3  11 14.3972 5.28501   2
  11  -3  11 5.16429 4.74375   1
  11   3  11 3.77219 4.54425   2
 -11  -3  11 -2.8959 4.18929   1
 -11   3 -11 10.2520 4.90907   2
  11  -3 -11 0.17652 4.88118   1
 -12  -3 -11 269.056 16.0918   3
  12   3 -11 279.253 14.2381   2
 -12   3  11 288.670 13.7868   7
  12  -3  11 259.087 13.9257   1
 -12   3  11 244.915 13.9789   2
 -12  -3 -11 268.274 13.5083   1
 -12  -3  11 308.875 14.6159   1
  12  -3 -11 264.267 14.5161   1
  12   3  11 294.383 13.9839   2
 -12   3 -11 286.082 13.8414   2
  13  -3  11 229.853 13.5245   1
 -13   3  11 250.616 14.1439   2
 -13  -3 -11 228.402 15.3135   3
 -13  -3 -11 229.161 13.3318   1
  13   3 -11 239.831 13.9021   2
 -13   3  11 216.716 13.1472   7
 -13  -3  11 253.417 14.0951   1
 -13   3 -11 245.984 13.5649   2
  13  -3 -11 252.700 14.5733   1
  13   3  11 287.042 14.3751   2
 -14  -3 -11 64.5721 8.64117   1
  14   3 -11 65.9357 8.94937   2
 -14  -3 -11 74.8500 10.7116   3
 -14   3  11 85.6957 10.0627   2
  14   3 -11 60.3946 8.51639   7
  14  -3  11 67.8256 8.97797   1
 -14   3  11 76.0134 8.96942   7
  14  -3 -11 55.1557 8.96788   1
  14   3  11 89.8967 9.61674   2
 -14  -3  11 70.6704 9.36122   1
 -14   3 -11 50.3946 7.94510   2
   0  -4  11 1.90328 2.77039   1
   0   4 -11 -3.9061 2.31744   2
   0  -4  11 -0.2253 4.29827   3
   0  -4 -11 8.07433 3.28022   5
   0  -4 -11 -0.4691 3.76647   3
   0   4  11 0.45982 2.62994   2
  -1  -4 -11 131.587 7.53213   5
   1  -4  11 129.653 6.91096   1
  -1   4  11 130.700 7.05074   2
  -1  -4 -11 125.734 9.34990   3
  -1  -4 -11 123.046 6.84000   1
   1  -4  11 146.811 10.6719   3
   1   4 -11 134.237 6.96783   2
   1  -4 -11 130.398 7.11719   1
  -1  -4  11 128.946 9.87300   3
   1  -4 -11 141.581 8.79156   3
   1   4  11 135.648 6.88372   2
  -1  -4  11 131.386 6.94441   1
  -1   4 -11 132.629 6.89821   2
   2  -4  11 307.799 10.5693   1
   2   4 -11 319.547 10.5510   2
  -2   4  11 300.675 10.3872   2
  -2  -4 -11 329.757 10.6463   1
  -2  -4 -11 300.754 13.8838   3
  -2   4 -11 316.487 10.4259   2
   2  -4 -11 308.220 10.7700   1
   2   4  11 310.626 10.1258   2
  -2  -4  11 324.554 10.8577   1
  -2  -4  11 309.132 13.8229   3
  -3  -4 -11 262.101 9.61662   1
   3   4 -11 238.019 9.54857   2
  -3  -4 -11 247.678 13.2581   3
   3  -4  11 262.145 10.4073   5
  -3   4  11 266.167 9.89051   2
   3  -4  11 257.827 9.75467   1
  -3  -4  11 262.634 12.4797   3
   3   4  11 254.022 9.45319   2
  -3  -4  11 242.610 9.73690   1
  -3   4 -11 263.601 9.65579   2
   3  -4 -11 270.840 10.1732   1
  -4  -4 -11 204.905 12.6078   3
  -4  -4 -11 208.227 8.93748   1
  -4   4  11 193.006 9.15596   2
   4  -4  11 213.668 9.20927   1
   4   4 -11 217.189 9.18741   2
   4  -4 -11 203.055 9.50089   1
  -4  -4  11 196.251 9.24696   1
  -4  -4  11 194.630 11.1752   3
   4   4  11 216.154 8.89311   2
  -4   4 -11 213.868 8.89497   2
  -5   4  11 135.525 8.21163   2
   5   4 -11 129.598 7.98395   2
  -5  -4 -11 132.487 7.53226   1
   5  -4  11 130.351 7.77273   1
  -5  -4 -11 131.372 11.6581   3
  -5  -4  11 128.243 9.55452   3
  -5   4 -11 127.718 7.47590   2
   5  -4 -11 143.370 8.40018   1
   5   4  11 123.789 7.60460   2
  -5  -4  11 130.306 8.14401   1
   6  -4  11 4.68739 3.61680   1
  -6  -4 -11 13.0641 3.89799   1
  -6  -4 -11 2.17449 5.76896   3
  -6   4  11 13.7630 4.15282   2
   6   4 -11 6.69673 3.79951   2
  -6  -4  11 9.83198 4.75571   3
  -6   4 -11 11.7957 3.82218   2
  -6  -4  11 5.79455 3.88403   1
   6  -4 -11 7.62328 4.30430   1
   6   4  11 8.64028 3.75155   2
  -7   4  11 606.825 18.2907   2
  -7  -4 -11 558.859 17.2278   1
  -7  -4 -11 615.815 23.1086   3
   7   4 -11 621.593 17.9301   2
   7  -4  11 594.536 17.7879   1
  -7  -4  11 607.649 19.4556   3
   7  -4 -11 591.252 18.4333   1
  -7  -4  11 586.544 18.1096   1
  -7   4 -11 604.561 17.4223   2
   7   4  11 600.304 17.2771   2
  -8  -4 -11 155.789 9.42183   1
  -8  -4 -11 184.055 14.1378   3
   8   4 -11 169.641 10.2237   2
  -8   4  11 160.741 10.3250   2
   8  -4  11 165.367 9.54444   1
   8  -4 -11 162.032 10.1861   1
  -8  -4  11 164.302 9.93169   1
   8   4  11 155.541 9.37344   2
  -8   4 -11 158.569 9.52798   2
   9  -4  11 83.5526 8.07133   1
  -9  -4 -11 85.5058 10.9699   3
   9   4 -11 84.4104 8.13336   2
  -9  -4 -11 95.0005 8.33737   1
  -9   4  11 80.0175 8.16955   2
   9  -4 -11 94.6500 9.01382   1
   9   4  11 85.1054 7.63276   2
  -9   4 -11 95.6109 8.17324   2
  -9  -4  11 94.4629 8.83521   1
 -10   4  11 179.763 11.6684   2
  10   4 -11 208.436 11.9172   2
  10  -4  11 197.579 11.1899   1
 -10  -4 -11 186.517 10.9814   1
 -10  -4 -11 189.928 15.0078   3
 -10   4 -11 191.164 11.0084   2
 -10  -4  11 195.709 11.7713   1
  10   4  11 191.397 10.9383   2
  10  -4 -11 176.059 11.7544   1
  11   4 -11 142.762 10.6150   2
 -11  -4 -11 118.637 9.58265   1
  11  -4  11 115.576 9.92199   1
 -11   4  11 113.631 10.1362   2
 -11  -4 -11 124.439 12.8278   3
  11  -4 -11 121.989 10.6973   1
 -11   4 -11 103.372 9.13504   2
 -11  -4  11 113.274 10.1851   1
  11   4  11 114.352 9.32855   2
  12   4 -11 -4.2900 4.63388   2
 -12  -4 -11 -4.5683 5.97213   3
 -12   4  11 5.95253 5.33509   2
 -12  -4 -11 -4.0342 4.54285   1
  12  -4  11 -0.5286 4.92836   1
  12  -4 -11 6.40683 5.12091   1
  12   4  11 2.43170 4.64844   2
 -12  -4  11 6.70781 5.02173   1
 -12   4 -11 -1.3511 4.44868   2
  13  -4  11 87.9868 9.48040   1
 -13  -4 -11 92.8440 9.48121   1
 -13  -4 -11 89.6639 11.6375   3
  13   4 -11 88.0777 9.66268   2
 -13   4  11 101.848 10.4245   2
  13  -4 -11 84.8704 9.96628   1
 -13  -4  11 83.8409 9.42399   1
 -13   4 -11 98.3810 9.69275   2
  13   4  11 82.1451 9.01628   2
   0   5 -11 79.2993 6.05696   2
   0  -5  11 97.6749 9.97985   3
   0  -5 -11 85.0006 6.20362   1
   0  -5 -11 99.2829 8.24722   5
   0  -5  11 83.9127 6.24403   1
   0  -5 -11 96.1598 8.88612   3
   0   5  11 76.0492 6.05461   2
  -1  -5 -11 266.719 9.60343   1
   1  -5  11 256.084 14.2020   3
  -1  -5 -11 258.097 11.4817   5
   1   5 -11 240.562 9.56462   2
  -1   5  11 254.820 9.55174   2
   1  -5  11 252.154 9.63022   1
  -1  -5 -11 266.085 13.3854   3
  -1   5 -11 259.364 9.77907   2
   1  -5 -11 262.076 12.5117   3
   1  -5 -11 255.765 11.5816   5
  -1  -5  11 264.136 9.72329   1
   1   5  11 261.086 9.49323   2
  -1  -5  11 236.714 13.6190   3
   2  -5  11 6.03956 3.15919   1
   2   5 -11 -0.0709 3.08258   2
  -2   5  11 0.58088 3.01335   2
  -2  -5 -11 4.78433 2.95483   1
   2  -5  11 -3.3772 5.03846   3
  -2  -5 -11 5.76516 5.39442   3
   2   5  11 8.69427 3.40209   2
   2  -5 -11 4.09523 4.07656   5
  -2   5 -11 6.49785 3.21663   2
  -2  -5  11 -0.0315 4.92407   3
  -2  -5  11 4.78583 3.27728   1
   2  -5 -11 -2.0311 2.70454   1
   3  -5  11 2.60329 3.72808   5
  -3  -5 -11 5.66744 3.14807   1
  -3  -5 -11 1.36030 5.16503   3
  -3   5  11 9.66515 3.58106   2
   3   5 -11 1.07638 3.26649   2
   3  -5  11 3.33354 3.22180   1
  -3   5 -11 5.87155 3.19640   2
  -3  -5  11 -3.2797 4.74994   3
   3   5  11 5.75315 3.22782   2
   3  -5 -11 3.22481 3.32809   1
  -3  -5  11 -0.1209 3.06398   1
  -4   5  11 36.2245 5.09917   2
   4   5 -11 32.7803 4.82959   2
   4  -5  11 37.1749 5.84601   5
  -4  -5 -11 36.2607 4.64112   1
   4  -5  11 22.4306 4.36698   1
  -4  -5 -11 19.0940 6.59926   3
  -4  -5  11 26.7822 6.33234   3
   4   5  11 23.6216 4.15141   2
  -4  -5  11 32.2415 4.83389   1
   4  -5 -11 35.3992 5.24956   1
  -4   5 -11 28.4728 4.45279   2
  -5  -5 -11 4.64453 5.93824   3
  -5   5  11 5.52880 3.76056   2
   5   5 -11 1.60447 3.53400   2
   5  -5  11 -0.1512 3.29861   1
  -5  -5 -11 -7.0066 2.94130   1
   5  -5 -11 1.86195 3.83046   1
   5   5  11 0.78075 3.07171   2
  -5   5 -11 4.25618 3.32875   2
  -5  -5  11 -2.0706 4.99048   3
  -5  -5  11 2.20949 3.70893   1
  -6  -5 -11 37.4122 5.32298   1
   6   5 -11 35.7680 5.37751   2
  -6  -5 -11 26.1889 7.93944   3
   6  -5  11 31.7053 5.10265   1
  -6   5  11 28.1419 5.02860   2
   6   5  11 30.8258 5.21028   2
  -6   5 -11 34.9753 5.19475   2
   6  -5 -11 34.1849 5.62458   1
  -6  -5  11 37.0908 5.60668   1
  -6  -5  11 31.4918 6.66788   3
  -7  -5 -11 9.11026 4.21254   1
  -7  -5 -11 26.2892 8.27090   3
   7   5 -11 8.36803 4.45141   2
  -7   5  11 14.0419 4.76569   2
   7  -5  11 10.3978 4.28512   1
  -7  -5  11 7.99016 4.32716   1
  -7   5 -11 8.80415 4.14406   2
   7   5  11 12.0770 4.10930   2
   7  -5 -11 0.62221 4.20370   1
  -7  -5  11 7.67232 5.63268   3
   8   5 -11 1.80851 4.16981   2
  -8  -5 -11 13.5894 7.58217   3
  -8  -5 -11 7.14174 4.26232   1
  -8   5  11 5.04874 4.55845   2
   8  -5  11 5.88774 4.51356   1
   8   5  11 9.90827 4.48904   2
  -8  -5  11 9.32780 4.68381   1
  -8  -5  11 1.14183 5.29578   3
  -8   5 -11 7.19121 4.30809   2
   8  -5 -11 3.61011 4.76794   1
  -9  -5 -11 -7.1703 6.16236   3
   9  -5  11 -0.3906 4.17455   1
  -9   5  11 -2.5835 4.33968   2
   9   5 -11 -1.4805 4.24929   2
  -9  -5 -11 -0.5501 3.86263   1
   9   5  11 -3.8567 3.84446   2
  -9   5 -11 -1.6302 3.78927   2
  -9  -5  11 3.43810 4.54489   1
   9  -5 -11 0.51030 4.64089   1
 -10  -5 -11 -4.1971 3.99995   1
  10  -5  11 7.68455 4.71783   1
  10   5 -11 5.56734 4.97008   2
 -10   5  11 10.0499 5.03361   2
 -10  -5 -11 -1.2805 6.67572   3
 -10  -5  11 0.86526 4.64809   1
  10   5  11 -4.0363 4.00694   2
 -10   5 -11 3.81958 4.40590   2
  10  -5 -11 -4.0577 4.49358   1
 -11  -5 -11 2.11789 4.76281   1
 -11   5  11 7.67893 5.57804   2
  11  -5  11 -1.4996 4.52352   1
  11   5 -11 3.20744 5.08912   2
 -11  -5 -11 1.86592 7.46774   3
  11   5  11 5.99383 4.98200   2
 -11   5 -11 6.09073 4.75561   2
 -11  -5  11 -0.7080 4.87321   1
  11  -5 -11 4.47576 5.43999   1
 -12  -5 -11 189.807 15.7356   3
 -12  -5 -11 169.552 11.6879   1
  12   5 -11 188.922 13.0055   2
  12  -5  11 188.121 12.2632   1
 -12   5  11 177.463 12.5832   2
 -12  -5  11 172.936 12.2422   1
 -12   5 -11 195.754 12.3372   2
  12   5  11 174.777 11.7586   2
  12  -5 -11 165.485 12.4561   1
   0  -6  11 4.79661 5.98803   3
   0   6 -11 -4.7225 2.82480   2
   0  -6 -11 6.28804 5.62908   3
   0  -6 -11 -1.1689 3.04474   1
   0  -6  11 4.54139 3.24384   1
   0  -6 -11 -4.6884 4.27248   5
   0   6  11 -1.8859 3.04523   2
  -1  -6 -11 52.8967 5.14817   1
   1   6 -11 54.7806 5.43212   2
   1  -6  11 57.5746 9.13674   3
  -1  -6 -11 44.9077 6.72489   5
   1  -6  11 52.8002 5.44809   1
  -1   6  11 59.8434 5.66088   2
  -1  -6 -11 55.6392 8.35151   3
   1   6  11 54.6903 5.31963   2
  -1  -6  11 39.5996 8.48885   3
   1  -6 -11 52.6717 5.35681   1
   1  -6 -11 58.3827 7.49350   5
  -1  -6  11 49.9098 5.21740   1
  -1   6 -11 47.3593 5.29250   2
  -2   6  11 3.91751 3.54181   2
   2  -6  11 8.67199 3.72081   1
   2  -6  11 1.09992 5.99248   3
   2   6 -11 0.34972 3.31985   2
  -2  -6 -11 11.1496 6.26087   3
  -2  -6 -11 0.33490 2.96106   1
  -2  -6  11 -0.4532 3.29194   1
  -2   6 -11 0.38382 3.16350   2
   2   6  11 -0.6551 3.10898   2
   2  -6 -11 4.65687 4.82050   5
  -2  -6  11 5.02217 6.19921   3
  -3  -6 -11 23.1641 4.19550   1
  -3  -6 -11 40.9952 8.63948   3
   3  -6  11 24.2637 4.48572   1
   3   6 -11 21.6700 4.56198   2
  -3   6  11 22.8434 4.61840   2
   3   6  11 19.1056 4.01681   2
   3  -6 -11 26.3783 4.45920   1
  -3   6 -11 25.5506 4.44434   2
  -3  -6  11 20.1284 4.30729   1
   3  -6 -11 28.2867 6.60313   5
  -3  -6  11 44.2494 8.29334   3
   4  -6  11 4.65210 3.69126   1
   4  -6  11 -1.8452 4.30842   5
   4   6 -11 1.22145 3.58474   2
  -4  -6 -11 5.74552 3.60191   1
  -4  -6 -11 0.02717 6.16748   3
  -4   6  11 -1.6372 3.60425   2
  -4   6 -11 5.03530 3.55010   2
   4  -6 -11 2.02742 3.75772   1
  -4  -6  11 -8.1810 5.36901   3
  -4  -6  11 -3.4177 3.49350   1
   4   6  11 0.22340 3.36195   2
  -5  -6 -11 761.551 19.5184   1
  -5  -6 -11 753.657 27.3726   3
   5  -6  11 749.912 20.0498   1
  -5   6  11 706.200 19.8421   2
   5   6 -11 753.253 20.2622   2
  -5  -6  11 715.708 25.0723   3
   5   6  11 725.921 19.2006   2
  -5  -6  11 741.339 19.8328   1
  -5   6 -11 753.659 19.7756   2
   5  -6 -11 776.461 20.6062   1
   6   6 -11 10.1530 4.64361   2
  -6  -6 -11 4.71512 3.87378   1
  -6   6  11 6.74249 4.46421   2
   6  -6  11 11.6261 4.20725   1
  -6  -6 -11 9.03817 7.13802   3
   6  -6 -11 11.2303 4.57210   1
  -6  -6  11 13.9501 4.65605   1
  -6  -6  11 18.2258 6.58130   3
  -6   6 -11 11.7646 4.13093   2
   6   6  11 13.7497 4.26748   2
  -7   6  11 155.469 10.4004   2
  -7  -6 -11 163.601 9.65297   1
   7   6 -11 172.286 10.6237   2
  -7  -6 -11 188.048 15.8260   3
   7  -6  11 176.586 10.3060   1
  -7  -6  11 166.550 12.8378   3
   7  -6 -11 159.533 10.3220   1
  -7  -6  11 190.262 10.7050   1
   7   6  11 185.399 10.2387   2
  -7   6 -11 184.866 10.0768   2
  -8   6  11 313.595 13.9918   2
   8   6 -11 313.866 13.8911   2
  -8  -6 -11 332.442 13.3954   1
  -8  -6 -11 302.833 19.3619   3
   8  -6  11 334.288 13.5882   1
  -8  -6  11 319.473 16.8882   3
  -8   6 -11 311.674 13.3202   2
  -8  -6  11 323.895 13.9441   1
   8   6  11 304.552 12.9247   2
   8  -6 -11 313.771 14.1204   1
  -9  -6 -11 -1.6422 7.14106   3
  -9   6  11 4.62645 4.78235   2
   9  -6  11 8.33914 4.66656   1
  -9  -6 -11 7.18067 4.56559   1
   9   6 -11 -4.7226 4.34604   2
   9   6  11 0.22460 4.36631   2
  -9  -6  11 -0.9712 4.45575   1
   9  -6 -11 -3.1711 4.83172   1
  -9   6 -11 5.16882 4.48280   2
 -10  -6 -11 -4.5665 4.14803   1
 -10  -6 -11 4.29397 7.55550   3
  10  -6  11 -2.7979 4.60362   1
 -10   6  11 0.29803 4.76440   2
  10   6 -11 6.91614 5.23815   2
 -10  -6  11 -1.3203 4.98276   1
  10  -6 -11 3.24798 5.14134   1
 -10   6 -11 0.54859 4.57117   2
  10   6  11 -0.9164 4.43217   2
   0  -7 -11 33.3013 7.10958   5
   0   7 -11 40.5222 5.22771   2
   0   7  11 46.6804 5.38494   2
   0  -7  11 32.7914 8.48682   3
  -1   7  11 201.099 9.21639   2
  -1  -7 -11 183.595 13.8053   3
   1   7 -11 193.472 9.24869   2
   1  -7  11 179.638 14.7487   3
  -1   7 -11 178.478 8.95873   2
  -1  -7  11 229.233 15.7149   3
   1   7  11 193.035 8.88405   2
   1  -7 -11 154.954 12.0855   5
  -2  -7 -11 -0.6955 6.23709   3
  -2   7  11 -2.7568 3.70495   2
   2   7 -11 -0.0065 3.66652   2
   2  -7  11 10.1964 7.64761   3
  -2  -7  11 5.07610 6.54518   3
  -2   7 -11 -0.2625 3.71032   2
   2  -7 -11 -4.9510 4.91871   5
   2   7  11 2.59781 3.65327   2
   3   7 -11 2.83621 3.93569   2
  -3  -7 -11 4.79589 6.61012   3
  -3   7  11 1.57155 3.76699   2
  -3   7 -11 -4.6700 3.42228   2
   3  -7 -11 2.24776 5.48227   5
  -3  -7  11 4.76299 6.32490   3
   3   7  11 -2.8073 3.32911   2
   4   7 -11 23.8751 5.17836   2
  -4   7  11 27.7962 5.23328   2
  -4  -7 -11 31.4513 8.84074   3
   4   7  11 37.4452 5.20343   2
  -4   7 -11 27.0373 4.96251   2
  -4  -7  11 26.2775 8.20362   3
   4  -7 -11 25.4881 6.73333   5
  -5   7  11 4.17982 4.22360   2
  -5  -7 -11 8.39029 7.36412   3
   5   7 -11 -2.7415 3.87856   2
  -5   7 -11 0.56629 3.94132   2
   5   7  11 0.90951 3.76716   2
   5  -7 -11 -0.2735 6.03406   5
  -5  -7  11 6.68649 6.53193   3
   6   7 -11 9.57165 5.07081   2
  -6  -7 -11 3.43408 7.48588   3
   6  -7  11 4.38469 4.37093   1
  -6   7  11 10.5375 4.82453   2
  -6   7 -11 8.56620 4.51194   2
   6  -7 -11 -0.5226 5.57772   5
  -6  -7  11 8.28999 7.01811   3
   6   7  11 9.66054 4.29845   2
   7   7 -11 1.97393 4.77843   2
  -7   7  11 6.70960 5.19131   2
   7  -7  11 5.38108 4.47873   1
  -7  -7 -11 -0.2600 7.95681   3
   7   7  11 3.45656 4.32210   2
  -7  -7  11 0.38325 6.26279   3
  -7   7 -11 6.23212 4.24063   2
   0   0  12 807.934 17.5299   7
   0   0 -12 761.471 17.9776   2
   0   0  12 753.843 18.6587   1
   0   0  12 773.409 18.4890   4
   0   0 -12 762.955 18.3001   4
   0   0  12 772.135 18.0486   2
   1   0 -12 1392.48 28.6378   4
   1   0  12 1336.27 28.4281   4
  -1   0 -12 1331.42 27.3874   2
  -1   0 -12 1372.70 28.3500   4
  -1   0 -12 1399.55 29.0084   1
  -1   0  12 1345.29 28.8537   1
  -1   0  12 1336.77 26.8686   7
  -1   0  12 1343.38 27.8182   2
   1   0 -12 1314.22 28.9803   1
   1   0  12 1332.01 28.7151   1
   1   0  12 1328.33 26.7035   7
   1   0  12 1381.65 27.8283   2
  -1   0  12 1308.60 28.5458   4
  -2   0  12 326.372 10.7809   4
   2   0 -12 329.497 10.9733   1
  -2   0  12 310.283 10.9843   1
  -2   0 -12 315.605 10.8757   1
  -2   0  12 309.858 10.3573   2
   2   0 -12 317.927 10.7645   4
   2   0  12 326.197 10.4567   2
   2   0  12 306.828 10.2737   4
  -2   0  12 314.776 9.82860   7
  -2   0 -12 312.939 10.2964   4
   2   0  12 336.484 10.9517   1
  -2   0 -12 323.044 10.1472   2
   2   0  12 331.688 9.90412   7
   2   0 -12 315.054 10.3994   2
   3   0 -12 198.785 8.32647   2
  -3   0  12 210.354 8.12931   7
  -3   0 -12 205.596 8.08441   2
  -3   0  12 189.418 8.77589   1
   3   0  12 204.571 7.85012   7
  -3   0  12 191.549 8.51412   4
   3   0  12 183.661 8.04226   4
   3   0  12 213.745 8.74285   1
   3   0  12 217.167 8.53839   2
  -3   0 -12 196.892 8.56893   1
  -3   0  12 204.953 8.68561   2
  -4   0 -12 256.355 9.85716   1
   4   0 -12 249.256 10.0132   1
  -4   0  12 235.794 10.0250   1
   4   0 -12 252.396 9.65342   2
  -4   0  12 237.419 9.01111   7
   4   0  12 249.074 9.99024   4
   4   0  12 239.187 8.71620   7
  -4   0  12 241.842 9.70790   2
   4   0  12 241.830 9.72890   1
   4   0  12 259.071 9.43635   2
  -4   0 -12 246.188 9.09949   2
  -5   0  12 83.6391 7.08989   1
   5   0 -12 80.2359 6.29229   2
  -5   0 -12 78.0772 6.10309   2
  -5   0  12 61.6096 5.78052   2
  -5   0 -12 79.9127 6.39608   1
   5   0  12 63.4114 5.85763   1
   5   0 -12 89.4002 7.31307   1
   5   0 -12 76.8229 6.03282   7
   5   0  12 79.2175 5.85966   7
  -5   0  12 75.3128 5.98564   7
   5   0  12 70.6415 5.98701   2
   6   0 -12 29.0254 5.11022   1
   6   0 -12 37.1092 4.76897   7
  -6   0 -12 41.8102 5.07890   1
  -6   0  12 22.7775 4.68053   1
   6   0 -12 41.0757 5.15815   2
   6   0  12 29.3092 4.15406   7
  -6   0  12 36.2453 4.74533   7
   6   0  12 44.9003 5.55026   1
  -6   0 -12 36.7802 4.78849   2
  -6   0  12 33.0959 5.01927   2
   6   0  12 42.9634 4.97473   2
   7   0 -12 452.174 15.4928   1
  -7   0 -12 452.754 14.9206   1
   7   0  12 444.329 14.7026   1
  -7   0  12 432.017 15.3114   1
   7   0 -12 447.895 13.8806   7
   7   0  12 488.609 14.5611   2
   7   0 -12 444.857 14.7227   2
  -7   0  12 462.615 13.9036   7
  -7   0  12 471.218 14.9749   2
   7   0  12 488.608 13.6332   7
   8   0 -12 864.782 23.0501   1
  -8   0  12 817.888 22.5236   1
  -8   0  12 819.725 20.2805   7
  -8   0 -12 791.327 21.9315   1
   8   0  12 812.997 21.8959   1
   8   0  12 832.997 21.2287   2
   8   0 -12 786.383 20.3963   7
   8   0  12 788.969 19.7677   7
   9   0 -12 909.921 24.9406   1
  -9   0 -12 945.448 24.7187   1
   9   0 -12 901.294 22.4825   7
  -9   0  12 929.797 25.0681   1
  -9   0  12 920.937 22.5490   7
   9   0  12 897.983 24.1827   1
   9   0  12 905.429 22.1297   7
  10   0 -12 28.6202 5.18023   7
 -10   0 -12 35.1586 6.18530   1
  10   0 -12 42.7635 6.93931   1
  10   0  12 21.0327 4.86429   7
 -10   0  12 31.2783 5.62666   7
 -10   0  12 26.5676 6.17832   1
  10   0  12 20.8790 5.49020   1
  11   0 -12 64.3919 7.05837   7
 -11   0  12 74.7785 7.39476   7
  11   0  12 76.4124 8.36348   1
 -11   0 -12 83.9279 8.35991   1
  11   0 -12 68.5300 8.44568   1
  11   0  12 80.2081 7.35168   7
 -11   0  12 75.7048 8.34279   1
 -12   0  12 152.171 11.4732   1
  12   0 -12 129.161 9.60978   7
  12   0 -12 166.849 11.9467   1
 -12   0  12 154.431 10.1692   7
  12   0  12 152.255 11.3772   1
  12   0  12 121.689 9.65734   7
 -12   0 -12 140.387 10.7521   1
  13   0 -12 10.9980 5.92179   1
 -13   0 -12 5.45078 5.49284   1
  13   0 -12 11.6180 4.93652   7
  13   0  12 7.90715 5.81834   1
 -13   0  12 7.52363 5.85088   1
  13   0  12 13.4102 5.28718   7
 -13   0  12 8.00023 4.78320   7
 -14   0 -12 138.517 12.0704   1
 -14   0  12 132.621 10.3318   7
  14   0 -12 144.689 10.7676   7
 -14   0  12 167.022 12.9058   1
  14   0 -12 176.688 13.1893   1
  14   0  12 157.863 11.2557   7
 -15   0  12 47.5453 7.16762   7
  15   0  12 60.6879 7.95597   7
 -15   0  12 47.5817 8.63692   1
 -15   0 -12 50.3605 8.64424   1
  15   0 -12 55.7346 7.75943   7
   0  -1  12 0.34725 2.33379   4
   0   1  12 -4.8608 2.24793   1
   0   1 -12 2.22154 2.60242   1
   0   1  12 0.01215 2.33193   4
   0  -1  12 -0.6649 2.36928   7
   0   1  12 0.36605 2.46760   7
   0  -1  12 -1.8424 2.66763   1
   0   1  12 0.46798 2.61757   2
   0   1 -12 -1.9905 2.26803   2
   0  -1 -12 -1.3993 2.01460   4
   1  -1  12 231.320 7.86202   7
  -1   1  12 217.879 7.97405   7
   1  -1  12 218.126 8.29632   4
  -1  -1 -12 212.717 8.86800   1
  -1   1  12 210.664 8.38759   4
   1  -1  12 226.136 8.92036   1
  -1  -1 -12 230.176 8.15959   4
  -1   1  12 213.016 8.70863   1
   1   1 -12 218.949 8.43985   2
  -1   1  12 225.863 8.56895   2
   1   1  12 221.872 8.42057   2
  -1  -1  12 199.871 8.66397   1
   1   1  12 207.407 8.53108   1
   1   1  12 216.554 7.91647   7
  -1  -1  12 218.822 7.78271   7
  -1   1 -12 217.083 8.69338   1
   1   1  12 219.110 8.41259   4
  -1  -1  12 227.667 8.56174   4
  -1   1 -12 210.936 8.12557   2
   1  -1 -12 224.873 8.11750   4
   1  -1 -12 214.593 8.75081   1
  -2  -1 -12 667.885 16.1273   4
   2  -1  12 647.753 16.2233   4
   2   1 -12 675.772 17.1339   1
   2   1 -12 652.436 16.2878   2
  -2   1  12 656.224 16.7741   4
  -2  -1 -12 646.207 16.8849   1
  -2   1  12 662.998 15.7603   7
   2  -1  12 650.097 15.3197   7
  -2   1  12 644.558 16.3706   2
   2  -1  12 666.869 17.1234   1
  -2   1  12 660.384 17.1624   1
   2  -1 -12 664.687 17.2897   1
   2   1  12 663.938 16.3157   2
   2   1  12 662.981 16.6243   4
   2   1  12 642.631 16.5716   1
   2  -1 -12 664.626 16.3256   4
  -2  -1  12 673.291 17.2359   1
  -2   1 -12 671.042 16.9309   1
  -2  -1  12 637.329 15.3581   7
  -2  -1  12 658.234 16.6822   4
   2   1  12 645.491 15.4183   7
  -2   1 -12 653.966 16.0844   2
   3   1 -12 1.92271 2.86440   1
  -3  -1 -12 2.48376 2.69654   1
  -3   1  12 1.24151 2.63890   7
  -3   1  12 -0.2709 2.43013   4
  -3   1  12 -5.5697 2.37777   2
   3   1 -12 4.27826 2.82174   2
   3  -1  12 0.71163 2.34976   4
   3  -1  12 0.71531 2.45261   7
   3  -1  12 -0.6340 2.70851   1
  -3   1  12 3.70326 2.96203   1
  -3  -1 -12 0.37353 2.16345   4
  -3   1 -12 -0.7585 2.36140   2
   3   1  12 -0.4688 2.27853   4
   3   1  12 4.73918 2.59324   7
  -3  -1  12 1.24031 2.83423   1
  -3  -1  12 0.83292 2.50887   4
   3  -1 -12 2.96947 2.88114   1
   3   1  12 4.62699 2.82441   2
  -3   1 -12 1.42862 2.56622   1
   3  -1 -12 3.66146 2.64237   4
   3   1  12 -4.2908 2.43900   1
   3  -1 -12 -0.9721 2.37767   7
  -3  -1  12 3.33835 2.67502   7
  -4  -1 -12 1008.26 23.9589   1
   4  -1  12 1007.54 23.8424   1
   4  -1  12 1026.22 21.8074   7
   4   1 -12 1051.66 24.3446   1
   4   1 -12 1039.35 23.3661   2
  -4   1  12 1048.34 24.2754   4
  -4   1  12 1067.03 23.7695   2
  -4   1  12 1074.65 22.7206   7
  -4  -1 -12 1043.32 23.1805   4
  -4   1  12 1046.79 24.4692   1
   4  -1 -12 999.348 22.0581   7
   4   1  12 1034.20 23.6826   4
   4   1  12 1022.99 23.8926   1
   4   1  12 1059.81 23.2756   2
  -4  -1  12 1031.80 24.4732   1
   4  -1 -12 1045.20 23.6834   4
   4   1  12 1023.31 22.0955   7
   4  -1 -12 1007.81 24.4877   1
  -4  -1  12 1051.97 22.2144   7
  -4   1 -12 1032.94 23.8902   1
  -4   1 -12 1036.95 23.0403   2
   5  -1  12 39.9329 4.21206   7
  -5  -1 -12 24.8085 4.32515   1
  -5   1  12 29.4889 4.89773   1
   5   1 -12 31.5737 4.90813   1
   5  -1  12 24.9458 4.28603   1
  -5   1  12 33.2401 4.41016   7
  -5  -1 -12 30.3534 3.88962   4
   5   1 -12 29.4508 4.44681   2
  -5   1  12 28.3029 4.61176   2
   5   1  12 40.8894 4.57170   7
  -5   1 -12 37.7491 4.89498   1
   5  -1 -12 30.3938 4.11670   7
  -5  -1  12 29.3581 4.93114   1
   5   1  12 32.9142 4.44127   2
  -5  -1  12 23.9648 3.91876   7
   5  -1 -12 25.5738 4.10992   4
  -5   1 -12 27.0800 4.11832   2
   5  -1 -12 28.9638 4.83820   1
   5   1  12 29.4195 4.49508   1
   6  -1  12 31.0320 4.10699   7
   6   1 -12 32.3541 4.96642   1
  -6   1  12 38.5877 5.18175   2
  -6   1  12 35.2949 5.25108   1
  -6  -1 -12 26.9917 4.66252   1
   6  -1  12 36.4515 4.99022   1
   6   1 -12 33.9645 4.90069   2
  -6   1  12 44.3558 5.08557   7
   6  -1 -12 42.3150 5.62464   1
  -6   1 -12 34.3569 4.67531   2
  -6  -1  12 46.2984 5.90905   1
  -6  -1  12 31.6332 4.43352   7
   6   1  12 31.1257 4.81075   1
   6   1  12 34.4814 4.56779   7
   6   1  12 32.4007 4.76494   2
   6  -1 -12 32.4412 4.39244   7
  -6   1 -12 34.2767 5.04933   1
  -7   1  12 31.0946 4.90060   7
  -7  -1 -12 43.5955 5.68813   1
  -7   1  12 37.4945 5.71845   1
   7   1 -12 31.9963 4.93369   7
   7   1 -12 40.7147 5.48209   2
   7   1 -12 43.0617 5.83459   1
   7  -1  12 25.4573 4.91506   1
   7  -1  12 35.6243 4.48964   7
  -7   1  12 38.2546 5.55289   2
   7   1  12 34.5442 5.14490   2
  -7  -1  12 40.0793 5.98152   1
   7   1  12 35.1269 4.82515   7
  -7   1 -12 38.3797 5.36496   1
  -7  -1  12 30.0635 4.44055   7
  -7   1 -12 31.8981 4.75461   2
   7  -1 -12 37.7945 5.78116   1
   7  -1 -12 35.7603 4.77159   7
   7   1  12 40.7909 5.42863   1
  -8   1  12 33.8146 5.84079   1
  -8   1  12 40.6777 5.87510   2
  -8  -1 -12 31.5493 5.26979   1
   8   1 -12 35.4507 5.86256   1
   8  -1  12 29.4910 4.53463   7
  -8   1  12 38.7804 5.34352   7
   8   1 -12 31.8266 5.40926   2
   8  -1  12 35.2348 5.59411   1
   8   1 -12 51.7862 5.85525   7
  -8   1 -12 41.6977 5.36382   2
   8   1  12 39.2721 4.92160   7
  -8  -1  12 38.9088 5.07446   7
   8   1  12 35.9797 5.57903   1
  -8  -1  12 40.6604 6.03378   1
   8   1  12 38.6845 5.39583   2
   8  -1 -12 35.9462 6.02899   1
  -8   1 -12 36.5927 5.80437   1
   8  -1 -12 38.7415 5.05056   7
  -9   1  12 245.933 11.8129   2
   9   1 -12 231.303 10.7684   7
  -9   1  12 205.094 10.3204   7
   9  -1  12 211.050 9.64944   7
  -9   1  12 231.716 11.8459   1
  -9  -1 -12 246.732 11.8304   1
   9  -1  12 250.781 11.6813   1
   9   1 -12 244.298 11.5452   2
   9   1 -12 221.562 11.7536   1
  -9  -1  12 233.019 10.1638   7
  -9  -1  12 236.228 12.1789   1
   9  -1 -12 226.908 12.1957   1
  -9   1 -12 233.999 10.7082   2
   9   1  12 218.355 10.2809   7
   9  -1 -12 231.444 10.2795   7
  -9   1 -12 244.275 11.7108   1
   9   1  12 220.361 11.0346   2
 -10   1  12 2.18781 4.53824   2
  10   1 -12 4.52589 4.28171   2
  10   1 -12 2.12252 3.94991   7
  10  -1  12 1.06980 3.66974   7
 -10   1  12 2.28091 4.55233   1
 -10   1  12 5.90154 4.20714   7
  10  -1  12 10.7619 4.95010   1
 -10  -1 -12 0.20634 4.46660   1
 -10   1 -12 2.51712 4.34422   1
  10   1  12 4.68242 4.39333   2
 -10  -1  12 5.39236 4.00839   7
 -10  -1  12 0.99008 4.27675   1
  10  -1 -12 3.60643 4.53625   1
  10  -1 -12 -3.3908 3.45593   7
  10   1  12 3.76746 3.91440   7
  11   1 -12 1.21221 4.25036   7
 -11   1  12 1.36321 4.37354   7
  11  -1  12 2.99776 3.90078   7
 -11  -1 -12 1.78050 4.59805   1
  11  -1  12 -3.8619 4.50666   1
 -11  -1  12 -1.9200 3.85781   7
  11   1  12 6.16601 4.31571   7
 -11  -1  12 7.76141 5.04510   1
  11   1  12 1.25043 4.52731   2
  11  -1 -12 -1.4910 4.50737   1
  11  -1 -12 -2.6609 3.64277   7
 -11   1 -12 9.27586 4.84721   1
 -12  -1 -12 2.61134 4.88014   1
 -12   1  12 22.6015 5.70222   7
  12   1 -12 9.03213 4.80100   7
  12  -1  12 8.32092 5.28590   1
  12  -1  12 17.9435 4.99076   7
  12   1  12 2.67563 4.29274   7
  12  -1 -12 15.2844 4.98719   7
 -12  -1  12 11.2267 5.69973   1
 -12  -1  12 11.8545 4.59642   7
 -12   1 -12 4.03168 5.33222   1
  12  -1 -12 2.07028 5.28883   1
 -13   1  12 24.9181 6.14211   7
  13  -1  12 30.0207 5.76211   7
 -13  -1 -12 31.5866 6.76593   1
  13  -1  12 36.3514 7.11837   1
  13   1 -12 33.3587 6.46937   7
  13  -1 -12 25.6510 7.17311   1
 -13  -1  12 30.0868 7.23340   1
 -13  -1  12 22.0923 5.36657   7
  13  -1 -12 28.3463 5.68708   7
  13   1  12 18.7045 5.64264   7
  14   1 -12 11.7224 5.36515   7
  14  -1  12 13.1994 5.31720   7
 -14  -1 -12 7.63548 5.56628   1
  14  -1  12 7.40753 6.05969   1
 -14   1  12 4.97109 5.35270   7
  14   1  12 0.00377 4.92649   7
 -14  -1  12 -1.7421 4.32384   7
  14  -1 -12 -9.3348 5.13373   1
 -14  -1  12 5.81869 5.59624   1
  14  -1 -12 2.77733 4.62090   7
  15  -1  12 11.5599 5.27516   7
 -15  -1 -12 11.7487 6.65729   1
 -15   1  12 2.29554 5.20300   7
  15  -1  12 5.21112 5.97079   1
  15   1 -12 9.49386 5.72938   7
  15   1  12 8.84684 5.66293   7
 -15  -1  12 2.75983 4.69639   7
  15  -1 -12 1.03991 4.68531   7
  15  -1 -12 -1.5715 5.97460   1
 -15  -1  12 14.5368 6.19326   1
   0   2  12 1350.50 28.7133   4
   0  -2 -12 1359.89 25.6693   7
   0  -2  12 1379.85 28.1949   4
   0   2 -12 1368.10 27.9453   2
   0  -2  12 1332.01 28.9132   1
   0   2  12 1340.47 27.9525   2
   0  -2  12 1363.05 25.9428   7
  -1   2  12 234.619 8.86961   4
   1  -2  12 233.067 9.08067   1
   1  -2  12 225.143 7.44605   7
  -1   2  12 222.082 8.72637   2
   1  -2  12 229.965 8.26094   4
   1   2 -12 230.865 8.60041   2
  -1  -2 -12 227.466 9.05986   1
   1  -2 -12 222.108 9.21814   1
   1  -2 -12 241.375 7.51884   7
  -1  -2  12 230.350 8.31831   4
  -1  -2  12 222.820 9.06154   1
  -1   2 -12 235.661 8.70661   2
   1   2  12 240.565 8.82177   4
  -1  -2  12 228.571 7.50131   7
   1   2  12 227.345 8.65643   2
   2  -2  12 10.0657 2.65081   7
   2  -2  12 8.99117 3.28491   1
  -2  -2 -12 12.5666 3.39072   1
   2  -2  12 14.8878 3.00923   4
   2   2 -12 13.2430 3.12082   2
  -2   2  12 6.53264 2.95852   4
  -2   2  12 9.42107 3.09903   2
   2   2  12 11.8311 3.10975   4
  -2  -2  12 13.3782 2.84099   7
   2   2  12 13.7380 3.21770   2
  -2  -2  12 15.7556 3.12504   4
   2  -2 -12 12.4518 2.74551   7
  -2  -2  12 17.7531 3.75338   1
  -2   2 -12 6.43554 2.83164   2
   2  -2 -12 4.02648 3.01881   1
  -3   2  12 7.28687 3.12847   2
   3  -2  12 12.0187 2.73977   7
   3  -2  12 7.23139 3.23432   1
   3   2 -12 18.9707 3.51693   2
   3  -2  12 8.63710 2.64872   4
  -3   2  12 13.8758 3.21452   4
  -3  -2 -12 9.96264 3.15206   1
  -3   2  12 11.4395 3.10031   7
   3  -2 -12 15.2254 2.98369   7
  -3  -2  12 9.13521 2.79627   4
   3   2  12 14.4229 3.40678   7
  -3   2 -12 8.93246 3.03497   2
  -3  -2  12 7.75654 3.33822   1
   3  -2 -12 7.72980 3.40563   1
   3   2  12 6.92592 3.15355   2
   3   2  12 13.9359 3.17941   4
  -3  -2  12 10.7898 2.80011   7
   4  -2  12 361.484 10.0961   7
  -4   2  12 369.606 12.3618   4
   4  -2  12 357.336 12.1174   1
  -4   2  12 346.180 11.3021   7
   4   2 -12 359.262 11.8583   2
  -4   2  12 395.821 12.3735   2
  -4  -2 -12 359.213 12.1457   1
  -4  -2  12 371.101 12.6480   1
  -4  -2  12 368.232 10.2737   7
   4  -2 -12 369.300 12.8222   1
   4  -2 -12 360.444 10.3545   7
  -4   2 -12 370.641 11.7063   2
   4   2  12 367.863 11.1848   7
   4   2  12 391.461 11.9276   2
   4   2  12 360.449 11.6932   4
   5  -2  12 70.9074 5.18616   7
  -5   2  12 80.4106 6.57990   2
   5   2 -12 76.1990 6.37403   2
  -5   2  12 61.3366 5.43353   7
  -5   2  12 86.2605 6.90648   4
  -5  -2 -12 61.4027 5.89653   1
   5  -2  12 65.7879 6.33926   1
  -5  -2  12 57.7215 5.96864   3
  -5  -2  12 69.0363 6.49026   1
   5   2  12 64.4813 5.84527   2
   5   2  12 71.1504 5.54856   7
  -5  -2  12 71.3102 5.29209   7
   5   2  12 74.4113 6.07618   4
   5  -2 -12 63.1566 6.39548   1
   5  -2 -12 74.3407 5.52167   7
  -5   2 -12 67.7421 5.81629   2
  -6   2  12 17.5946 4.15510   7
  -6   2  12 15.8012 4.42290   2
   6   2 -12 16.7150 4.18739   2
  -6  -2 -12 8.10438 3.66604   1
   6  -2  12 20.9530 3.58787   7
   6  -2  12 10.6771 3.95861   1
  -6   2 -12 15.8714 3.81567   2
  -6  -2  12 21.0566 4.73114   1
  -6  -2  12 17.9480 3.50052   7
   6  -2 -12 23.6972 3.81749   7
   6   2  12 17.0730 4.07305   2
   6  -2 -12 14.5600 4.49083   1
   6   2  12 11.7983 3.70419   7
  -7  -2 -12 -2.5255 3.17607   1
  -7   2  12 2.01886 3.53351   2
  -7   2  12 1.72567 3.60632   7
   7   2 -12 1.44955 3.50453   2
   7  -2  12 2.85477 3.74564   1
   7  -2  12 -3.3346 2.68272   7
   7   2  12 -2.3058 3.33529   2
  -7   2 -12 -0.7555 3.02208   2
  -7  -2  12 0.70939 3.98998   1
  -7  -2  12 4.19153 3.05077   7
   7   2  12 8.47948 3.59607   7
   7  -2 -12 1.03624 2.88355   7
   7  -2 -12 -0.9465 3.72526   1
   8  -2  12 574.236 17.8014   1
  -8   2  12 553.688 16.6899   7
  -8   2  12 603.052 18.0309   2
   8  -2  12 575.617 14.9159   7
  -8  -2 -12 572.568 17.7001   1
   8   2 -12 555.921 16.5948   7
   8   2 -12 561.644 17.3926   2
  -8   2 -12 549.426 16.8846   2
   8   2  12 566.643 17.1778   2
  -8  -2  12 562.705 18.2703   1
   8  -2 -12 563.779 15.0461   7
   8   2  12 553.928 16.2113   7
   8  -2 -12 590.518 18.6877   1
  -8  -2  12 571.926 14.7599   7
   9   2 -12 516.365 17.0103   2
   9  -2  12 504.342 17.0738   1
  -9   2  12 509.391 16.2836   7
   9  -2  12 516.593 14.2737   7
   9   2 -12 499.282 16.0321   7
  -9  -2 -12 503.594 17.0940   1
  -9   2  12 575.315 17.9197   2
  -9  -2  12 518.593 17.8422   1
  -9   2 -12 519.135 16.5650   2
  -9  -2  12 500.912 14.0585   7
   9  -2 -12 492.260 17.8583   1
   9  -2 -12 508.349 14.4856   7
   9   2  12 498.535 16.3999   2
   9   2  12 510.997 15.6389   7
  10   2 -12 62.6721 7.35277   2
 -10   2  12 77.4114 7.76550   7
 -10  -2 -12 66.4111 7.53118   1
 -10   2  12 67.1785 7.70622   2
  10  -2  12 70.6450 6.18730   7
  10  -2  12 51.9507 7.20866   1
  10   2 -12 61.6288 6.97950   7
  10  -2 -12 60.0150 7.97635   1
 -10  -2  12 59.6615 5.58486   7
  10  -2 -12 63.5453 6.13410   7
  10   2  12 66.9007 7.24345   2
 -10  -2  12 57.8244 7.60284   1
 -10   2 -12 57.6878 6.83681   2
  10   2  12 59.9875 6.61324   7
  11   2 -12 4.34887 4.86127   2
 -11   2  12 22.4570 5.84223   2
 -11  -2 -12 15.9222 5.54848   1
  11  -2  12 20.0503 5.80497   1
  11  -2  12 19.0509 4.54400   7
  11   2 -12 25.0850 5.67453   7
 -11   2  12 13.0863 5.16170   7
 -11  -2  12 15.5604 4.12785   7
  11  -2 -12 14.8795 4.46024   7
  11  -2 -12 15.7315 5.93432   1
  11   2  12 15.1161 5.07267   7
  11   2  12 13.3358 5.54355   2
 -11  -2  12 14.6794 5.37700   1
 -11   2 -12 25.9680 5.84990   2
 -12   2  12 14.0982 5.54010   7
  12  -2  12 4.04907 3.96334   7
  12  -2  12 5.99141 5.15376   1
 -12   2  12 8.75890 5.46654   2
  12   2 -12 5.58112 4.83808   7
 -12  -2 -12 6.63309 5.03793   1
  12   2 -12 0.39582 4.76589   2
 -12  -2  12 8.34614 5.57986   1
  12  -2 -12 7.98236 4.31748   7
  12   2  12 6.91887 5.08096   2
  12   2  12 5.95946 4.85704   7
 -12  -2  12 6.78586 4.11699   7
  12  -2 -12 -6.1563 4.91751   1
 -13   2  12 8.45440 5.27069   7
  13   2 -12 13.4160 5.72694   2
  13  -2  12 9.54647 4.71252   7
  13  -2  12 20.2102 6.46899   1
  13   2 -12 12.7237 5.46278   7
 -13  -2 -12 12.0712 5.72133   1
 -13  -2  12 11.2487 4.18368   7
  13   2  12 17.8067 5.99650   2
  13   2  12 8.50425 5.21059   7
  13  -2 -12 8.76141 6.17930   1
  13  -2 -12 9.99866 4.68841   7
 -13  -2  12 11.7842 6.06052   1
 -14   2  12 10.9106 5.81912   7
  14  -2  12 14.7930 5.17460   7
  14  -2  12 16.7334 6.51844   1
  14   2 -12 10.1638 5.29113   7
 -14  -2 -12 8.29949 6.02703   1
 -14  -2  12 15.4783 4.55816   7
  14   2  12 0.31406 5.14919   7
  14  -2 -12 2.71425 5.81538   1
 -14  -2  12 3.77163 5.52957   1
  14  -2 -12 10.2433 4.59066   7
  14   2  12 6.60930 5.97488   2
  15  -2  12 72.8720 10.0864   1
  15  -2  12 76.4280 7.87948   7
 -15   2  12 79.4832 9.33823   7
 -15  -2 -12 61.1541 9.17852   1
  15   2 -12 79.0719 8.91363   7
  15  -2 -12 67.1707 7.30668   7
 -15  -2  12 86.1924 10.4395   1
  15  -2 -12 61.9159 9.81143   1
  15   2  12 84.1867 9.51615   7
   0  -3  12 -4.4649 2.39479   1
   0  -3 -12 2.10872 3.77678   3
   0   3 -12 1.36722 2.51765   2
   0  -3  12 6.18969 2.34487   4
   0   3  12 0.76158 2.54072   2
  -1  -3 -12 169.578 10.4384   3
  -1   3  12 174.455 7.91676   2
  -1  -3 -12 175.367 8.06742   1
   1   3 -12 192.041 7.96392   2
   1  -3  12 180.362 6.41175   4
   1  -3  12 179.528 8.03976   1
   1  -3 -12 159.112 7.87865   1
   1  -3 -12 168.780 8.91610   3
  -1   3 -12 176.049 7.75189   2
  -1  -3  12 174.445 8.11259   1
   1   3  12 194.604 8.11516   2
   2  -3  12 552.973 15.1480   1
  -2   3  12 522.151 14.5435   2
   2  -3  12 548.466 12.7427   4
   2   3 -12 524.043 14.5773   2
  -2  -3 -12 541.376 15.0119   1
   2  -3 -12 529.422 15.1468   1
   2   3  12 559.398 14.5852   2
  -2  -3  12 526.234 17.3169   3
  -2  -3  12 542.897 15.1278   1
  -2   3 -12 510.089 14.3146   2
   3   3 -12 -1.6978 2.65634   2
   3  -3  12 2.75492 2.89464   1
  -3   3  12 0.74544 3.00247   2
  -3  -3 -12 -1.7213 2.60123   1
   3  -3  12 0.12541 2.21110   4
   3  -3 -12 4.16148 3.17469   1
  -3  -3  12 2.15969 2.95908   1
  -3   3 -12 0.07281 2.75661   2
   3   3  12 -2.9809 2.72776   2
  -3  -3  12 1.80772 3.92752   3
   4  -3  12 805.648 20.4893   1
  -4   3  12 816.837 20.3422   2
   4   3 -12 793.968 19.9082   2
  -4  -3 -12 822.146 20.3832   1
   4  -3  12 818.893 18.1236   4
  -4  -3  12 845.018 20.9580   1
  -4   3 -12 768.899 19.4866   2
   4  -3 -12 800.269 20.8064   1
   4   3  12 811.822 19.7037   2
  -4  -3  12 800.724 21.9185   3
  -5  -3 -12 19.3880 4.13627   1
   5  -3  12 16.2087 3.97848   1
  -5   3  12 12.8092 4.07054   2
   5   3 -12 17.2458 4.03328   2
   5  -3 -12 9.69971 4.17798   1
  -5  -3  12 16.4582 4.72046   3
   5   3  12 15.9701 3.94886   2
  -5  -3  12 14.8731 4.18280   1
  -5   3 -12 26.8381 4.35719   2
  -6  -3 -12 35.2651 4.88514   1
  -6   3  12 36.6185 5.51272   2
   6  -3  12 25.7046 4.76740   1
   6   3 -12 29.7559 4.97130   2
  -6  -3  12 36.2838 5.74961   3
   6   3  12 31.1390 4.76450   2
  -6  -3  12 25.8645 5.01325   1
   6  -3 -12 37.3792 5.74154   1
  -6   3 -12 34.2714 4.80569   2
   7   3 -12 32.4638 5.35930   2
  -7   3  12 29.2530 5.36313   2
   7  -3  12 24.4642 5.02950   1
  -7  -3 -12 32.4551 5.26332   1
   7  -3 -12 33.2863 5.71167   1
  -7  -3  12 28.1485 5.69490   1
  -7   3 -12 23.4483 4.78871   2
   7   3  12 27.6002 5.25754   2
   8  -3  12 23.0963 5.29821   1
  -8  -3 -12 41.6680 5.92476   1
   8   3 -12 36.4260 5.88756   2
  -8   3  12 30.4881 5.67025   2
   8   3  12 31.0971 5.50931   2
   8  -3 -12 25.1851 5.59322   1
  -8   3 -12 25.3118 5.12851   2
  -8  -3  12 23.0820 5.36631   1
   9   3 -12 202.465 11.3849   2
  -9   3  12 200.052 11.7891   2
  -9  -3 -12 190.228 10.6596   1
   9  -3  12 195.306 10.8122   1
   9   3  12 198.291 10.8482   2
  -9  -3  12 186.848 11.1651   1
   9  -3 -12 198.170 11.6318   1
  -9   3 -12 193.130 10.6972   2
 -10   3  12 4.84045 4.50471   2
 -10  -3 -12 5.13345 4.44611   1
  10  -3  12 1.10672 4.32175   1
  10   3 -12 3.97408 4.62355   2
  10  -3 -12 3.79831 4.90593   1
 -10   3 -12 3.10050 4.35242   2
  10   3  12 8.31056 4.45680   2
 -10  -3  12 9.68515 5.14438   1
  11   3 -12 1.11867 4.68970   2
 -11   3  12 2.99538 4.97875   2
 -11  -3 -12 0.54852 6.65843   3
 -11  -3 -12 1.13129 4.31006   1
  11  -3  12 3.90230 4.53445   1
 -11   3  12 8.92672 5.27071   7
  11  -3 -12 7.33438 5.41128   1
  11   3  12 10.4493 4.93334   2
 -11   3 -12 4.66450 4.96027   2
 -11  -3  12 -6.9503 4.38651   1
 -12   3  12 -1.6200 5.03572   7
 -12  -3 -12 12.0255 7.22203   3
  12  -3  12 10.0574 5.43334   1
 -12  -3 -12 0.70554 4.77609   1
  12   3 -12 5.93508 5.35588   2
 -12   3  12 6.51827 5.37673   2
 -12  -3  12 17.4334 5.96816   1
  12   3  12 14.4730 5.85338   2
  12  -3 -12 4.54040 5.56358   1
 -12   3 -12 22.8550 6.13344   2
 -13   3  12 16.8425 6.58004   2
 -13  -3 -12 20.4222 6.00192   1
 -13  -3 -12 20.8467 8.04603   3
  13  -3  12 12.4406 6.16475   1
 -13   3  12 22.7151 6.54977   7
  13   3 -12 20.0098 6.39405   2
 -13  -3  12 14.2511 5.90825   1
  13  -3 -12 33.0544 7.39528   1
  13   3  12 15.7574 5.86164   2
 -13   3 -12 24.7674 6.36439   2
 -14  -3 -12 11.7208 7.00280   3
  14   3 -12 10.2985 6.20021   2
  14   3 -12 4.33465 5.57636   7
 -14   3  12 10.5045 6.25614   2
 -14  -3 -12 10.2904 5.57188   1
  14  -3  12 -2.0997 5.40571   1
 -14   3  12 -4.8167 5.39595   7
  14  -3 -12 7.17536 6.12285   1
 -14  -3  12 9.36200 5.90352   1
  14   3  12 7.91371 5.59940   2
   0  -4  12 495.520 18.1997   3
   0  -4 -12 522.582 16.9627   3
   0   4 -12 484.670 13.8288   2
   0   4  12 476.846 13.8145   2
   0  -4  12 496.107 14.2244   1
  -1  -4 -12 766.769 18.9482   1
   1   4 -12 770.650 18.7144   2
  -1   4  12 771.415 18.6569   2
  -1  -4 -12 754.626 22.6439   3
   1  -4  12 784.776 19.1884   1
   1   4  12 762.688 18.5130   2
   1  -4 -12 772.680 19.2577   1
  -1  -4  12 736.663 19.0061   1
  -1  -4  12 782.358 23.3188   3
  -1   4 -12 780.274 18.8770   2
   1  -4 -12 776.306 21.3513   3
  -2   4  12 189.965 8.65541   2
  -2  -4 -12 181.926 11.5058   3
   2   4 -12 216.589 9.04905   2
   2  -4  12 202.015 8.83414   1
  -2  -4 -12 201.856 8.83688   1
   2  -4 -12 188.625 8.78920   1
  -2  -4  12 210.653 9.06326   1
  -2  -4  12 208.967 11.7593   3
   2   4  12 193.772 8.48256   2
  -2   4 -12 207.881 8.78719   2
  -3   4  12 131.505 7.68882   2
  -3  -4 -12 106.665 7.03257   1
   3   4 -12 115.277 7.37516   2
   3  -4  12 120.385 7.36950   1
  -3  -4 -12 115.858 10.4667   3
   3  -4 -12 111.182 7.67924   1
   3   4  12 121.342 7.17910   2
  -3  -4  12 122.202 9.58672   3
  -3  -4  12 115.877 7.44054   1
  -3   4 -12 108.777 7.04826   2
   4   4 -12 175.249 8.73868   2
   4  -4  12 167.759 8.73782   1
  -4  -4 -12 160.909 12.4732   3
  -4  -4 -12 171.760 8.47235   1
  -4   4  12 151.176 8.66953   2
  -4  -4  12 184.471 10.9784   3
  -4   4 -12 170.192 8.53141   2
  -4  -4  12 170.215 8.93904   1
   4   4  12 155.632 8.18432   2
   4  -4 -12 161.927 8.85083   1
   5   4 -12 34.3339 5.06915   2
  -5  -4 -12 43.6992 8.21746   3
  -5   4  12 37.3539 5.29190   2
   5  -4  12 41.9916 5.29083   1
  -5  -4 -12 52.8448 5.52939   1
  -5  -4  12 44.0898 5.86526   1
  -5  -4  12 47.4866 7.09760   3
   5  -4 -12 35.6335 5.44599   1
  -5   4 -12 41.0143 5.20758   2
   5   4  12 44.1062 5.31888   2
  -6  -4 -12 19.2935 7.32560   3
   6   4 -12 23.8077 4.77796   2
  -6  -4 -12 17.9541 4.48047   1
  -6   4  12 28.1446 5.34824   2
   6  -4  12 22.6993 4.84395   1
  -6   4 -12 16.9020 4.30559   2
  -6  -4  12 25.7910 5.15513   1
   6   4  12 26.5628 4.70833   2
   6  -4 -12 29.4269 5.40635   1
  -6  -4  12 22.3498 5.97267   3
  -7   4  12 303.695 12.9343   2
  -7  -4 -12 292.944 11.8982   1
  -7  -4 -12 274.200 16.8780   3
   7  -4  12 290.010 12.0357   1
   7   4 -12 273.423 12.1489   2
   7  -4 -12 277.514 12.8401   1
   7   4  12 284.139 12.1341   2
  -7   4 -12 289.299 11.9391   2
  -7  -4  12 294.592 12.8267   1
  -7  -4  12 294.590 15.0078   3
  -8  -4 -12 538.670 17.6522   1
  -8   4  12 581.019 18.5062   2
   8  -4  12 549.709 17.8888   1
   8   4 -12 601.022 18.6996   2
  -8  -4 -12 590.064 23.9895   3
   8  -4 -12 565.801 18.7153   1
  -8   4 -12 554.506 17.6264   2
  -8  -4  12 585.903 18.7237   1
   8   4  12 556.573 17.4972   2
   9  -4  12 570.561 18.6497   1
   9   4 -12 589.955 18.9984   2
  -9  -4 -12 553.642 18.2376   1
  -9  -4 -12 588.627 24.2217   3
  -9   4  12 582.110 19.3091   2
  -9  -4  12 572.395 19.4501   1
   9   4  12 553.721 17.9942   2
   9  -4 -12 547.391 19.0909   1
  -9   4 -12 592.852 18.4956   2
  10  -4  12 17.0418 5.30153   1
  10   4 -12 24.4645 5.80903   2
 -10   4  12 16.4407 5.48413   2
 -10  -4 -12 9.39062 4.96362   1
 -10  -4 -12 20.4090 8.27595   3
 -10   4 -12 14.2399 5.32270   2
 -10  -4  12 22.4651 5.97972   1
  10  -4 -12 11.8013 5.58944   1
  10   4  12 19.1756 5.61467   2
  11  -4  12 41.8168 6.97510   1
 -11   4  12 37.2239 6.98819   2
 -11  -4 -12 65.2860 10.5479   3
 -11  -4 -12 52.9746 7.40511   1
  11   4 -12 52.4143 7.50129   2
  11  -4 -12 35.8039 7.47705   1
 -11  -4  12 48.0582 7.59030   1
 -11   4 -12 56.5410 7.53503   2
  11   4  12 48.5675 7.10057   2
 -12  -4 -12 81.2436 8.86418   1
 -12   4  12 122.941 10.9032   2
 -12  -4 -12 100.591 12.2229   3
  12  -4  12 85.9611 9.30538   1
  12   4 -12 118.210 10.6563   2
  12   4  12 92.7073 9.25373   2
 -12   4 -12 96.9555 9.59463   2
 -12  -4  12 98.0769 9.97755   1
  12  -4 -12 93.8924 9.97689   1
 -13  -4 -12 -7.8949 6.03127   3
  13   4 -12 6.06400 5.69788   2
  13  -4  12 6.31515 5.58152   1
 -13   4  12 5.64713 5.93763   2
 -13  -4 -12 3.51683 5.00275   1
 -13  -4  12 2.12907 5.55248   1
  13   4  12 -0.9423 5.10059   2
 -13   4 -12 1.38029 5.44665   2
  13  -4 -12 4.37657 5.58622   1
   0  -5 -12 0.69854 2.99689   1
   0  -5  12 1.10951 3.17357   1
   0  -5  12 -0.4926 5.04851   3
   0   5 -12 1.83450 3.18764   2
   0  -5 -12 -0.2133 4.69186   3
   0   5  12 -1.6438 2.77529   2
  -1  -5 -12 111.695 9.93644   3
   1  -5  12 100.762 7.07739   1
  -1  -5 -12 97.0647 6.76309   1
   1  -5  12 113.078 10.8137   3
  -1   5  12 93.1743 7.08190   2
   1   5 -12 107.978 7.13042   2
  -1   5 -12 105.622 7.10730   2
   1   5  12 107.245 6.97845   2
   1  -5 -12 105.548 8.29821   5
  -1  -5  12 114.770 7.29274   1
  -1  -5  12 114.350 10.7235   3
   2   5 -12 331.847 11.7217   2
  -2   5  12 338.116 11.8507   2
   2  -5  12 334.081 11.6998   1
  -2  -5 -12 320.648 15.7773   3
  -2  -5 -12 344.199 11.6024   1
  -2  -5  12 340.776 11.7279   1
   2  -5 -12 336.756 13.5903   5
   2   5  12 328.743 11.3107   2
   2  -5 -12 359.541 12.1575   1
  -2  -5  12 346.713 15.7580   3
  -2   5 -12 341.294 11.7037   2
  -3   5  12 -1.7901 3.21867   2
   3   5 -12 -0.2704 3.38400   2
  -3  -5 -12 -0.7477 5.31448   3
   3  -5  12 -2.5852 3.17181   1
  -3  -5 -12 4.68994 3.24895   1
  -3   5 -12 -2.6946 2.91472   2
   3   5  12 -2.4108 2.91351   2
  -3  -5  12 -6.2394 4.54363   3
   3  -5 -12 1.61062 3.36345   1
  -3  -5  12 -0.9067 3.12196   1
  -4   5  12 568.437 16.6907   2
   4  -5  12 554.660 16.3892   1
   4   5 -12 589.773 16.8000   2
  -4  -5 -12 579.537 16.4330   1
  -4  -5 -12 584.950 22.2053   3
  -4  -5  12 573.175 16.8155   1
   4  -5 -12 572.902 16.9953   1
  -4  -5  12 588.593 20.9450   3
   4   5  12 592.829 16.1111   2
  -4   5 -12 556.507 16.2121   2
  -5  -5 -12 29.0745 7.94217   3
  -5   5  12 18.7950 4.92918   2
  -5  -5 -12 18.7392 4.51875   1
   5   5 -12 30.9735 5.25390   2
   5  -5  12 26.4202 4.92154   1
   5  -5 -12 23.4206 5.08211   1
  -5  -5  12 21.6793 5.01018   1
  -5  -5  12 16.6668 6.09799   3
   5   5  12 20.9584 4.58782   2
  -5   5 -12 25.1060 4.60524   2
   6  -5  12 14.5200 4.50246   1
   6   5 -12 21.3279 5.05866   2
  -6  -5 -12 29.9329 5.12207   1
  -6  -5 -12 25.0119 8.27284   3
   6  -5 -12 23.7850 5.18592   1
  -6  -5  12 27.3116 5.29927   1
  -6  -5  12 27.2502 6.86963   3
   6   5  12 25.5269 4.92591   2
  -6   5 -12 26.4880 4.68047   2
   7  -5  12 22.8570 5.08525   1
  -7  -5 -12 23.7990 8.46961   3
  -7   5  12 25.4217 5.71218   2
   7   5 -12 26.3190 5.39615   2
  -7  -5 -12 23.3532 5.12337   1
  -7  -5  12 12.0846 6.02691   3
   7  -5 -12 17.6632 5.25876   1
   7   5  12 20.0681 4.92351   2
  -7  -5  12 13.5780 5.03433   1
  -7   5 -12 19.6711 4.74659   2
  -8  -5 -12 8.20041 7.76514   3
  -8   5  12 16.5074 5.41479   2
   8  -5  12 17.1042 4.73933   1
  -8  -5 -12 24.2372 5.34829   1
   8   5 -12 16.2665 5.27738   2
  -8  -5  12 21.6945 5.45318   1
  -8   5 -12 21.3418 5.12722   2
   8   5  12 23.3548 5.39408   2
   8  -5 -12 26.9070 5.89726   1
   9  -5  12 157.231 10.3804   1
  -9  -5 -12 123.178 13.7700   3
   9   5 -12 135.139 10.5595   2
  -9  -5 -12 135.222 9.67625   1
  -9   5  12 144.548 10.7339   2
  -9  -5  12 135.188 10.2976   1
   9   5  12 136.012 9.70749   2
  -9   5 -12 139.867 10.0174   2
   9  -5 -12 147.669 11.0921   1
  10  -5  12 11.6536 5.23641   1
 -10  -5 -12 11.2866 8.06628   3
 -10  -5 -12 1.86365 4.33644   1
  10   5 -12 0.57231 4.60020   2
 -10   5  12 3.75239 5.00687   2
  10  -5 -12 2.36086 4.99375   1
  10   5  12 0.08599 4.40100   2
 -10   5 -12 -0.6452 4.27815   2
 -10  -5  12 0.34049 4.75679   1
  11  -5  12 -2.6318 4.61326   1
 -11  -5 -12 -0.8119 4.64506   1
 -11   5  12 2.41173 5.08073   2
 -11  -5 -12 9.36607 7.92260   3
  11   5 -12 1.23622 4.97389   2
 -11  -5  12 0.43853 5.19382   1
  11   5  12 -2.3963 4.60597   2
  11  -5 -12 4.56076 5.36853   1
 -11   5 -12 -7.7013 4.29655   2
 -12  -5 -12 0.44197 4.83590   1
  12  -5  12 2.53765 5.12726   1
 -12  -5 -12 -2.6310 7.33924   3
 -12   5  12 1.99531 5.90123   2
  12   5 -12 12.0001 5.99540   2
  12  -5 -12 4.32754 5.53337   1
 -12  -5  12 22.6972 6.65596   1
 -12   5 -12 0.51459 5.22828   2
  12   5  12 3.57980 5.15323   2
   0   6  12 586.812 16.5373   2
   0  -6  12 633.388 16.9623   1
   0  -6 -12 649.530 16.8415   1
   0  -6 -12 615.654 21.5798   3
   0  -6  12 636.806 23.7133   3
   0   6 -12 610.701 16.8463   2
   1  -6  12 83.9035 6.80864   1
  -1  -6 -12 78.4963 6.26516   1
   1  -6  12 59.8620 9.69585   3
  -1  -6 -12 62.9707 8.97540   3
   1   6 -12 75.7022 6.45247   2
  -1   6  12 64.3274 6.13718   2
  -1  -6  12 80.7386 6.55431   1
  -1   6 -12 63.5172 6.04565   2
  -1  -6  12 73.7438 9.80981   3
   1  -6 -12 69.7798 6.24551   1
   1  -6 -12 70.0243 8.16170   5
   1   6  12 65.5036 5.98791   2
   2  -6  12 13.6443 4.10472   1
   2   6 -12 11.0223 3.91235   2
  -2   6  12 9.69906 4.09972   2
  -2  -6 -12 16.1274 6.81975   3
  -2  -6 -12 15.7028 3.98210   1
   2   6  12 16.1327 4.03901   2
  -2  -6  12 15.5514 4.18575   1
  -2  -6  12 22.3158 7.30456   3
  -2   6 -12 14.4660 4.09905   2
   2  -6 -12 21.1582 5.99082   5
   3   6 -12 -4.2708 3.60332   2
  -3  -6 -12 2.02330 5.98937   3
  -3  -6 -12 3.68186 3.58884   1
   3  -6  12 3.59535 3.51130   1
  -3   6  12 3.56046 3.79049   2
   3   6  12 6.67421 3.63514   2
  -3   6 -12 -1.0584 3.26396   2
  -3  -6  12 11.5464 6.44652   3
   3  -6 -12 1.15304 4.84726   5
   3  -6 -12 4.42211 3.50698   1
  -3  -6  12 -2.8850 3.21274   1
  -4   6  12 174.044 9.65148   2
   4  -6  12 183.237 9.51731   1
  -4  -6 -12 179.258 9.16275   1
  -4  -6 -12 185.368 14.4557   3
   4   6 -12 187.779 9.68609   2
   4  -6 -12 164.272 9.46594   1
  -4  -6  12 167.062 9.42787   1
  -4   6 -12 155.434 8.89934   2
  -4  -6  12 179.914 13.5447   3
   4   6  12 188.399 9.27648   2
  -5   6  12 24.9652 5.32075   2
  -5  -6 -12 32.5121 8.68001   3
  -5  -6 -12 25.0895 4.92308   1
   5   6 -12 29.8361 5.62044   2
   5  -6  12 31.6688 5.38725   1
  -5   6 -12 29.5895 5.21460   2
  -5  -6  12 39.0782 8.27669   3
   5  -6 -12 20.2785 5.21923   1
   5   6  12 28.8161 5.06067   2
  -5  -6  12 16.9579 4.66680   1
   6  -6  12 11.7191 4.69795   1
  -6   6  12 10.1637 4.86650   2
  -6  -6 -12 4.09975 7.66434   3
  -6  -6 -12 6.77556 4.34469   1
   6   6 -12 17.3644 4.94095   2
  -6  -6  12 3.31894 6.44960   3
   6  -6 -12 8.20018 4.70018   1
   6   6  12 6.51898 4.21158   2
  -6   6 -12 7.37661 4.11870   2
  -6  -6  12 14.5996 4.86309   1
  -7  -6 -12 -13.657 6.57356   3
   7   6 -12 4.24076 4.79728   2
   7  -6  12 1.45014 3.93751   1
  -7  -6 -12 2.03737 4.06907   1
  -7   6  12 8.69245 5.11948   2
   7   6  12 -1.4620 4.04727   2
  -7  -6  12 -1.2028 5.69341   3
   7  -6 -12 4.42949 4.64659   1
  -7   6 -12 8.13288 4.25456   2
  -7  -6  12 -1.7144 4.26957   1
  -8  -6 -12 292.723 19.5857   3
   8   6 -12 315.671 14.0424   2
  -8  -6 -12 317.305 13.1508   1
  -8   6  12 292.584 13.8842   2
   8  -6  12 295.248 13.3476   1
  -8   6 -12 304.653 13.1501   2
  -8  -6  12 283.746 16.4714   3
   8  -6 -12 308.822 14.1361   1
  -8  -6  12 283.945 13.5117   1
   8   6  12 288.990 13.2078   2
   9  -6  12 228.238 12.2709   1
  -9   6  12 224.629 12.7174   2
  -9  -6 -12 207.500 11.4948   1
   9   6 -12 207.561 12.3377   2
  -9  -6 -12 182.192 17.1541   3
  -9  -6  12 218.775 12.6292   1
   9  -6 -12 204.340 12.6690   1
  -9   6 -12 218.805 11.9047   2
   9   6  12 219.589 12.1003   2
 -10  -6 -12 32.6219 6.46882   1
 -10  -6 -12 35.4538 9.77144   3
  10   6 -12 30.0060 6.62148   2
 -10   6  12 40.9898 7.19000   2
  10  -6  12 46.1594 7.26894   1
  10  -6 -12 42.6738 7.35872   1
 -10  -6  12 30.9142 6.77890   1
 -10   6 -12 33.8523 6.40942   2
  10   6  12 25.5007 6.15969   2
   0   7  12 0.07304 3.68972   2
   0  -7  12 5.77915 6.99204   3
   0   7 -12 2.67032 3.64977   2
  -1   7  12 74.5196 6.64303   2
   1   7 -12 68.1451 6.64952   2
   1  -7  12 70.9094 10.9986   3
  -1  -7 -12 67.2365 10.0415   3
   1   7  12 83.9305 6.92754   2
  -1   7 -12 74.2527 6.56250   2
  -1  -7  12 64.3068 10.2515   3
   2   7 -12 234.290 10.7493   2
  -2  -7 -12 221.154 15.7983   3
  -2   7  12 216.204 10.4936   2
  -2   7 -12 246.196 10.5179   2
   2   7  12 237.580 10.2797   2
   2  -7 -12 223.000 13.7883   5
  -2  -7  12 237.122 16.4184   3
  -3   7  12 -2.2164 3.72735   2
   3   7 -12 -1.3209 3.91049   2
  -3  -7 -12 -10.375 6.08861   3
   3   7  12 7.75488 4.09829   2
   3  -7 -12 -2.7564 5.00400   5
  -3  -7  12 -2.6121 6.46224   3
  -3   7 -12 -2.3024 3.77583   2
  -4  -7 -12 344.620 19.5319   3
  -4   7  12 324.861 13.1197   2
   4   7 -12 343.898 13.1277   2
   4   7  12 334.563 12.4416   2
  -4  -7  12 318.228 18.1723   3
   4  -7 -12 342.682 16.7222   5
  -4   7 -12 322.202 12.8169   2
   5   7 -12 0.21863 4.55843   2
  -5   7  12 3.95452 4.32619   2
   5  -7  12 3.65587 4.10124   1
  -5  -7 -12 6.69154 7.99902   3
  -5   7 -12 5.26901 4.06090   2
   5   7  12 1.90034 4.03089   2
  -5  -7  12 7.89603 7.10831   3
   5  -7 -12 9.62530 6.03570   5
  -6   7  12 13.7289 5.57995   2
   6  -7  12 24.4787 5.48151   1
   6   7 -12 19.2843 5.24864   2
  -6  -7 -12 12.1475 8.74409   3
  -6   7 -12 15.2489 5.08751   2
   6   7  12 21.9089 5.18841   2
   6  -7 -12 13.1621 6.74873   5
  -6  -7  12 11.9295 7.10416   3
   7   7 -12 9.15487 5.59271   2
   7  -7  12 10.2924 5.02114   1
  -7   7  12 11.5520 5.17346   2
  -7  -7 -12 24.8964 9.51158   3
  -7  -7  12 10.1472 6.78173   3
  -7   7 -12 8.79232 4.78870   2
   7   7  12 9.44744 4.59761   2
   7  -7 -12 5.72031 4.90631   1
   0   0 -13 3.92883 2.61074   2
   0   0  13 -4.1356 2.44869   1
   0   0  13 -1.8272 2.28642   4
   0   0  13 0.80418 2.73084   2
   0   0  13 0.45516 2.53873   7
  -1   0  13 12.5566 3.51936   1
  -1   0 -13 10.4784 3.46504   1
  -1   0  13 9.00299 3.06069   2
   1   0  13 13.0541 3.33478   2
  -1   0  13 15.4766 3.16348   4
   1   0 -13 9.52597 3.08202   2
   1   0  13 7.91759 2.92129   4
  -1   0 -13 14.9771 3.29247   2
   1   0  13 8.78808 3.38064   1
   1   0 -13 9.83292 3.38688   1
  -1   0  13 9.45639 2.99852   7
   1   0  13 11.8565 3.18501   7
  -2   0  13 299.248 9.93251   7
   2   0 -13 299.766 10.9115   1
  -2   0  13 314.457 10.5309   2
  -2   0  13 291.179 11.2075   4
   2   0  13 291.044 10.6545   1
  -2   0 -13 294.902 10.8985   1
   2   0  13 282.343 10.4093   4
  -2   0 -13 306.419 10.1031   2
  -2   0  13 290.362 10.9139   1
   2   0 -13 295.335 10.3581   2
   2   0  13 302.485 9.76119   7
   3   0  13 733.515 18.1670   2
   3   0  13 738.261 18.7642   1
   3   0 -13 747.916 19.1742   1
  -3   0  13 700.280 18.9051   1
   3   0  13 744.983 17.3623   7
  -3   0  13 727.749 17.5691   7
   3   0 -13 708.471 18.1854   2
  -3   0 -13 728.535 18.7488   1
  -3   0  13 755.236 18.5956   2
  -3   0 -13 751.441 17.8975   2
   4   0 -13 120.627 7.51222   2
   4   0  13 134.806 6.97401   7
  -4   0 -13 144.567 7.35469   2
  -4   0  13 130.074 7.32927   7
  -4   0 -13 124.748 7.45469   1
  -4   0  13 125.664 8.04473   1
   4   0  13 142.932 7.72022   1
  -4   0  13 134.010 7.76215   2
   4   0  13 140.411 7.67615   2
   4   0 -13 124.119 7.93537   1
   5   0 -13 1357.02 29.8576   2
  -5   0  13 1346.68 28.7962   7
   5   0  13 1416.76 29.7730   2
   5   0  13 1345.65 28.2264   7
  -5   0 -13 1334.69 29.1186   2
  -5   0  13 1397.72 30.2000   2
   5   0 -13 1435.94 31.5968   1
   5   0  13 1410.08 30.7538   1
  -5   0 -13 1345.16 30.5480   1
   5   0 -13 1367.33 28.9781   7
  -5   0  13 1379.20 31.2128   1
   6   0 -13 338.064 12.5748   2
  -6   0  13 352.401 13.1882   1
   6   0  13 342.859 12.5214   1
   6   0 -13 345.937 13.1235   1
   6   0 -13 341.699 11.7398   7
  -6   0  13 339.310 12.6522   2
   6   0  13 346.172 12.0937   2
  -6   0 -13 337.704 12.5831   1
   6   0  13 338.786 11.4009   7
  -6   0  13 321.795 11.4404   7
  -7   0  13 302.449 12.6623   1
   7   0  13 290.571 12.0341   1
   7   0 -13 258.597 11.8831   1
   7   0  13 281.943 10.5861   7
   7   0 -13 271.362 10.8877   7
  -7   0 -13 275.203 11.6333   1
  -7   0  13 278.421 10.9781   7
   7   0  13 272.860 11.1499   2
  -8   0  13 499.563 17.2146   1
   8   0 -13 485.365 16.9159   1
   8   0  13 485.751 16.3315   1
   8   0 -13 482.717 14.9332   7
   8   0  13 481.355 14.5086   7
  -8   0 -13 504.611 16.5337   1
  -8   0  13 441.772 14.6397   7
  -9   0  13 4.95096 4.79753   1
   9   0 -13 8.12144 5.11117   1
   9   0  13 4.23868 3.85156   7
   9   0  13 4.05937 4.33918   1
   9   0 -13 4.62675 3.88380   7
  -9   0 -13 9.17979 4.79297   1
  -9   0  13 11.4866 4.26529   7
 -10   0 -13 280.324 13.1033   1
 -10   0  13 310.594 14.3449   1
  10   0  13 301.994 12.2705   7
  10   0 -13 273.481 13.7896   1
  10   0 -13 294.513 12.3374   7
 -10   0  13 312.690 12.6066   7
  10   0  13 295.440 13.7828   1
  11   0  13 114.812 10.1297   1
 -11   0  13 117.552 8.92269   7
 -11   0 -13 100.018 9.56110   1
  11   0 -13 111.329 8.87059   7
 -11   0  13 107.118 10.0348   1
  11   0  13 111.965 8.57905   7
  11   0 -13 120.753 10.6797   1
 -12   0  13 10.7028 5.97252   1
  12   0 -13 22.4950 5.55180   7
  12   0  13 19.0564 5.45920   7
 -12   0 -13 16.0779 5.85233   1
  12   0  13 17.2592 5.97030   1
 -12   0  13 13.6806 4.91160   7
  12   0 -13 19.8387 6.26427   1
  13   0 -13 536.771 20.8313   1
  13   0  13 534.324 17.9961   7
 -13   0  13 517.398 20.5339   1
 -13   0  13 536.217 18.0106   7
  13   0 -13 533.455 17.9729   7
 -13   0 -13 555.680 20.3581   1
  13   0  13 496.486 20.1246   1
  14   0 -13 6.56382 4.98967   7
 -14   0  13 11.2446 6.56686   1
 -14   0 -13 12.0990 5.99308   1
 -14   0  13 5.70113 4.85473   7
  14   0  13 16.1939 5.93535   7
  14   0 -13 3.91183 6.04770   1
  15   0  13 40.1021 7.05292   7
  15   0 -13 28.6045 6.33576   7
 -15   0 -13 25.9209 7.18438   1
 -15   0  13 33.2905 7.79197   1
 -15   0  13 33.4852 6.55344   7
   0   1  13 557.138 15.3373   1
   0   1  13 584.378 15.0029   2
   0   1 -13 552.602 14.6702   2
   0   1 -13 579.332 15.7791   1
   0  -1  13 556.143 15.5964   1
   0  -1  13 550.757 14.0377   7
   0   1  13 562.909 15.1253   4
   0   1  13 561.181 14.2604   7
   0  -1 -13 560.475 14.6796   4
   1   1 -13 323.415 10.5659   2
  -1  -1 -13 314.835 10.2165   4
  -1   1  13 316.147 10.8785   1
  -1   1  13 304.297 10.6579   4
  -1  -1 -13 330.276 11.4376   1
   1  -1  13 315.832 9.85157   7
  -1   1  13 304.478 10.1389   7
   1  -1  13 336.430 11.3032   1
  -1   1  13 309.859 10.5915   2
  -1  -1  13 329.923 11.3060   1
  -1   1 -13 314.986 10.4156   2
   1   1  13 320.750 10.7107   2
   1   1  13 322.905 10.9892   1
   1  -1 -13 319.193 11.4093   1
  -1  -1  13 327.271 9.94971   7
   1  -1 -13 322.953 10.3811   4
   1   1  13 303.177 10.4647   4
  -1   1 -13 315.337 11.0090   1
   1   1  13 314.410 9.97362   7
   2  -1  13 254.161 10.0052   1
  -2   1  13 248.699 9.97164   1
   2   1 -13 264.525 9.74174   2
  -2  -1 -13 267.776 9.32126   4
  -2   1  13 255.370 9.13852   7
   2   1 -13 260.343 10.2120   1
  -2   1  13 247.425 9.63423   4
   2  -1  13 243.875 8.71719   7
  -2  -1 -13 253.797 9.92619   1
  -2   1  13 256.392 9.75998   2
   2  -1 -13 261.190 10.3438   1
   2   1  13 271.684 9.72269   4
  -2   1 -13 270.076 10.0235   1
  -2   1 -13 279.176 9.58764   2
  -2  -1  13 262.821 9.15539   7
   2   1  13 258.975 9.01275   7
   2   1  13 273.990 9.85798   2
  -2  -1  13 263.460 10.1720   1
   2  -1 -13 276.779 9.46184   4
   2   1  13 250.744 9.80602   1
   3   1 -13 299.780 10.9936   1
  -3   1  13 293.466 10.7991   2
   3  -1  13 285.177 9.59221   7
   3  -1  13 286.688 10.8409   1
  -3   1  13 324.067 11.4410   1
   3   1 -13 301.456 10.6381   2
  -3   1  13 299.246 11.0007   4
  -3   1  13 293.846 10.2394   7
  -3  -1 -13 301.130 10.1398   4
  -3  -1 -13 324.614 11.1448   1
  -3  -1  13 296.357 11.1468   1
   3  -1 -13 307.008 10.4026   4
   3   1  13 285.215 10.4368   2
   3   1  13 300.094 10.7297   1
  -3   1 -13 326.566 11.2443   1
   3   1  13 295.754 9.93523   7
  -3  -1  13 295.407 9.81386   7
   3  -1 -13 297.340 11.3618   1
   3  -1 -13 320.479 10.1367   7
   3   1  13 282.088 10.3474   4
  -3   1 -13 288.437 10.3042   2
  -4   1  13 0.82455 2.80062   7
  -4   1  13 -0.5703 2.93556   2
   4  -1  13 -2.1398 2.86619   1
   4  -1  13 1.04591 2.46334   7
   4   1 -13 -2.2347 2.81897   1
   4   1 -13 2.35516 2.96863   2
  -4  -1 -13 3.95376 2.75605   4
  -4   1  13 6.77013 3.56843   1
  -4  -1 -13 0.30784 2.93600   1
   4  -1 -13 2.52512 2.85446   7
   4   1  13 0.44466 2.89427   2
  -4   1 -13 1.27220 3.02433   1
   4  -1 -13 -2.9361 2.52790   4
  -4  -1  13 -1.7404 3.06545   1
   4   1  13 1.81092 2.90370   7
   4  -1 -13 -1.6575 3.29482   1
  -4  -1  13 2.90890 2.88367   7
  -4   1 -13 0.75940 2.73353   2
   4   1  13 2.31721 3.09247   1
   5   1 -13 528.302 15.5980   2
  -5   1  13 541.492 16.3151   1
  -5   1  13 528.514 14.9943   7
   5   1 -13 530.559 16.2196   1
   5  -1  13 531.433 14.0827   7
   5  -1  13 521.043 15.8707   1
  -5   1  13 534.602 15.8240   2
  -5  -1 -13 545.323 16.0211   1
  -5   1 -13 556.618 16.0888   1
   5  -1 -13 508.230 16.3857   1
  -5   1 -13 561.205 15.4505   2
   5   1  13 530.883 14.5036   7
  -5  -1  13 536.573 14.5619   7
   5  -1 -13 553.856 14.6679   7
   5   1  13 545.976 15.7731   1
  -5  -1  13 520.266 16.2969   1
   5   1  13 525.526 15.2534   2
   6  -1  13 86.9829 7.13152   1
  -6   1  13 83.7195 7.24418   1
   6   1 -13 89.7994 7.62562   1
  -6   1  13 77.3580 6.77834   2
  -6  -1 -13 81.5860 7.08704   1
  -6   1  13 93.9179 7.13339   7
   6  -1  13 70.5302 5.71713   7
   6   1 -13 91.9683 7.25446   2
   6  -1 -13 99.0539 6.99374   7
   6   1  13 76.6602 6.55501   2
  -6  -1  13 86.2520 6.50275   7
   6  -1 -13 99.8919 7.76900   1
  -6  -1  13 91.4374 7.69731   1
  -6   1 -13 88.0761 6.93413   2
   6   1  13 90.1243 7.37554   1
  -6   1 -13 91.6449 7.59190   1
   6   1  13 90.1748 6.73171   7
  -7   1  13 29.9722 4.97737   7
   7   1 -13 27.7210 5.04968   2
   7   1 -13 30.8134 5.43721   1
   7  -1  13 31.2424 4.55968   7
   7   1 -13 22.9132 4.67465   7
  -7  -1 -13 26.7962 4.99475   1
  -7   1  13 25.1054 5.25821   1
  -7   1  13 32.7713 5.56025   2
   7  -1  13 24.3003 4.87800   1
   7   1  13 29.4074 4.67962   7
   7   1  13 28.7257 4.91363   2
  -7  -1  13 32.5248 4.71411   7
   7  -1 -13 33.1192 5.77849   1
  -7   1 -13 32.4435 4.99660   2
   7   1  13 31.1020 5.34243   1
  -7  -1  13 22.9265 5.09956   1
   7  -1 -13 29.8281 4.56749   7
  -7   1 -13 30.7227 5.14013   1
   8  -1  13 13.6545 3.90047   7
  -8   1  13 18.7506 5.14689   1
   8   1 -13 11.9039 4.56798   2
   8   1 -13 7.32705 4.10413   7
   8  -1  13 16.5241 4.80711   1
  -8   1  13 14.3143 4.68709   2
  -8  -1 -13 15.9789 4.80796   1
  -8   1  13 24.9580 5.01556   7
   8   1 -13 16.2367 5.07727   1
   8   1  13 13.7292 4.26240   7
  -8   1 -13 16.2926 4.30852   2
  -8   1 -13 19.0254 4.88005   1
   8  -1 -13 16.5354 4.21359   7
   8   1  13 18.2699 4.78116   2
   8  -1 -13 17.1991 5.28015   1
  -8  -1  13 22.4364 4.38724   7
  -8  -1  13 12.8157 5.01319   1
   9   1 -13 55.4185 7.30920   1
   9  -1  13 42.0669 6.59916   1
  -9   1  13 48.3906 6.94132   1
  -9  -1 -13 51.8504 6.90997   1
   9  -1  13 44.0747 5.40709   7
   9   1 -13 42.8243 6.25187   7
   9   1 -13 45.1794 6.30322   2
  -9   1  13 59.0251 7.22188   2
  -9   1  13 44.8549 5.95375   7
  -9   1 -13 60.3688 7.12401   1
  -9  -1  13 53.1360 5.89968   7
   9   1  13 42.6109 5.62686   7
   9  -1 -13 46.8544 6.95030   1
   9  -1 -13 44.9194 5.53775   7
   9   1  13 44.7317 6.11334   2
  -9  -1  13 62.1918 7.70903   1
  10  -1  13 42.6427 6.67884   1
 -10  -1 -13 48.6073 7.03753   1
 -10   1  13 44.2099 7.03973   1
  10   1 -13 46.9302 6.55745   7
  10  -1  13 39.5661 5.50533   7
 -10   1  13 54.8604 6.85761   7
  10   1 -13 41.0988 6.46349   2
  10   1  13 33.7205 6.11856   2
  10  -1 -13 47.9049 5.91991   7
  10   1  13 57.3624 6.33608   7
 -10  -1  13 51.2853 7.48544   1
 -10   1 -13 47.2153 6.96728   1
  10  -1 -13 34.9528 6.68574   1
 -10  -1  13 43.7020 5.69910   7
 -11  -1 -13 37.3428 6.74878   1
 -11   1  13 27.8695 5.67523   7
  11  -1  13 19.0368 4.96233   7
  11  -1  13 29.5517 6.51664   1
  11   1 -13 26.2163 5.62971   7
  11   1  13 40.3420 7.14567   2
 -11  -1  13 48.6956 6.33115   7
 -11   1 -13 25.7181 6.35886   1
 -11  -1  13 37.5134 6.94092   1
  11   1  13 16.9803 5.04173   7
  11  -1 -13 27.6680 5.39133   7
  11  -1 -13 17.0557 6.05439   1
  12  -1  13 52.2444 6.61307   7
 -12   1  13 61.7067 7.45851   7
  12   1 -13 52.9665 7.18881   7
  12  -1  13 53.5886 7.96401   1
 -12  -1 -13 53.8015 7.89544   1
  12  -1 -13 52.9481 8.37193   1
  12   1  13 47.0197 6.68045   7
  12  -1 -13 57.2135 6.85174   7
 -12  -1  13 50.6208 6.39031   7
 -12  -1  13 53.2987 8.38375   1
 -13  -1 -13 -6.4446 4.60267   1
  13  -1  13 4.89864 4.63928   7
  13  -1  13 9.48779 5.78929   1
 -13   1  13 -6.0987 4.30427   7
  13   1 -13 -4.2276 4.31024   7
 -13  -1  13 3.61680 4.11857   7
  13   1  13 0.19782 4.95737   7
 -13  -1  13 -2.6615 5.37756   1
  13  -1 -13 2.12041 4.33223   7
  13  -1 -13 6.80565 5.96256   1
  14  -1  13 16.7183 5.41031   7
  14   1 -13 17.7707 5.60814   7
 -14   1  13 11.7001 5.66638   7
  14  -1  13 10.4550 6.16032   1
 -14  -1 -13 4.00196 5.88272   1
  14  -1 -13 12.1470 6.59584   1
  14  -1 -13 10.6179 5.20904   7
 -14  -1  13 15.2442 5.32474   7
 -14  -1  13 9.86656 5.89636   1
  14   1  13 5.93740 5.36638   7
  15  -1  13 142.487 10.8968   7
  15  -1  13 109.888 11.6712   1
 -15  -1 -13 131.475 12.1251   1
  15   1 -13 125.408 10.3695   7
 -15   1  13 162.643 11.5362   7
  15  -1 -13 149.774 10.3344   7
 -15  -1  13 139.161 12.9555   1
  15   1  13 102.149 9.75393   7
 -15  -1  13 137.185 10.2440   7
  15  -1 -13 142.843 13.1903   1
   0  -2 -13 -0.5113 2.29302   7
   0   2  13 5.56351 2.98730   2
   0  -2  13 -2.0616 2.23678   7
   0   2  13 5.73253 2.83591   7
   0  -2  13 -0.8134 2.69960   1
   0   2  13 0.54509 2.43962   4
   0   2 -13 -3.9843 2.34405   2
   0  -2  13 3.03979 2.66773   4
  -1  -2 -13 28.2059 4.42073   1
   1   2 -13 21.9239 3.81884   2
  -1   2  13 17.0405 3.71948   2
  -1   2  13 20.8499 3.78718   4
  -1   2  13 22.9085 3.74603   7
   1  -2  13 27.0467 3.44596   7
   1  -2  13 28.5929 4.30477   1
  -1  -2  13 26.7777 3.45831   7
   1   2  13 26.4821 4.16121   2
   1   2  13 26.3516 3.78969   7
  -1   2 -13 18.2236 3.60033   2
   1  -2 -13 18.7134 4.02279   1
   1  -2 -13 26.3341 3.43271   7
  -1  -2  13 20.9369 3.55472   4
  -1  -2  13 23.9706 4.09840   1
   1   2  13 25.6278 3.73172   4
  -2   2  13 193.634 8.53814   4
   2   2 -13 201.142 8.44427   2
  -2   2  13 183.752 8.56885   2
  -2   2  13 191.800 8.19504   7
   2  -2  13 202.680 9.01429   1
  -2  -2 -13 176.521 8.54215   1
   2  -2  13 182.349 7.21248   7
  -2   2 -13 188.046 8.28626   2
   2  -2 -13 187.455 8.88060   1
   2   2  13 169.036 8.02859   4
   2  -2 -13 182.428 7.11909   7
  -2  -2  13 188.648 7.25665   7
   2   2  13 190.167 8.50888   2
   2   2  13 187.591 7.88178   7
  -2  -2  13 199.067 9.04147   1
  -3  -2 -13 160.741 8.09152   1
   3  -2  13 154.600 8.13631   1
   3  -2  13 157.168 6.74635   7
  -3   2  13 135.596 7.92719   2
  -3   2  13 156.721 7.47969   7
   3   2 -13 151.185 7.81558   2
  -3   2  13 159.700 8.09236   4
  -3  -2  13 151.890 6.81628   7
   3   2  13 150.608 7.66017   4
   3   2  13 166.192 7.45557   7
   3   2  13 156.810 7.93108   2
  -3   2 -13 150.897 7.65934   2
   3  -2 -13 125.796 8.01642   1
  -3  -2  13 155.950 8.23087   1
   3  -2 -13 158.407 6.77706   7
  -4  -2 -13 1008.71 23.8453   1
  -4   2  13 931.542 22.0098   7
   4  -2  13 970.883 20.6137   7
   4  -2  13 995.076 23.7261   1
  -4   2  13 1030.15 23.5807   2
   4   2 -13 964.997 22.9890   2
   4   2  13 968.325 22.7673   2
   4  -2 -13 983.589 24.3076   1
   4  -2 -13 995.243 20.8300   7
   4   2  13 994.929 21.9258   7
   4   2  13 986.482 23.3188   4
  -4  -2  13 982.170 24.1924   1
  -4  -2  13 960.849 20.6523   7
  -4   2 -13 965.763 22.7629   2
   5  -2  13 3.54417 3.42980   1
  -5  -2 -13 5.90486 3.30598   1
   5  -2  13 4.70526 2.92901   7
  -5   2  13 7.03018 3.31707   7
  -5   2  13 5.62234 3.60935   2
   5   2 -13 2.31609 3.37936   2
  -5  -2  13 13.7884 4.15586   1
   5   2  13 5.34934 3.40391   2
   5  -2 -13 8.19373 3.92236   1
  -5   2 -13 6.90612 3.16766   2
   5  -2 -13 2.14544 2.85147   7
   5   2  13 -3.7053 2.96059   7
  -5  -2  13 -1.8815 2.68067   7
   6  -2  13 11.3937 4.11025   1
   6   2 -13 9.87514 3.94940   2
   6  -2  13 8.19352 3.24078   7
  -6   2  13 18.6806 4.56123   2
  -6  -2 -13 11.0973 4.04260   1
  -6   2  13 13.8297 3.97515   7
   6   2  13 14.2939 3.88503   7
   6  -2 -13 10.5963 4.32018   1
  -6  -2  13 13.5837 3.47649   7
  -6  -2  13 7.48234 4.09413   1
   6   2  13 8.78124 3.81385   2
  -6   2 -13 4.62266 3.49721   2
   6  -2 -13 10.7835 3.41056   7
  -7   2  13 33.7198 5.31002   2
   7  -2  13 17.2124 3.86243   7
  -7   2  13 23.8419 4.73755   7
   7   2 -13 26.1079 5.11423   2
  -7  -2 -13 27.7799 5.12966   1
   7  -2  13 20.7281 5.00860   1
   7   2  13 26.6913 4.66151   7
   7  -2 -13 24.3588 5.40007   1
  -7   2 -13 23.9485 4.55203   2
  -7  -2  13 26.6639 4.11871   7
  -7  -2  13 30.7579 5.57201   1
   7   2  13 26.0688 4.96750   2
   7  -2 -13 25.1496 4.28214   7
  -8   2  13 25.3355 5.56612   2
   8  -2  13 25.8751 5.28738   1
   8   2 -13 27.6872 5.38995   2
  -8   2  13 27.0020 5.26640   7
  -8  -2 -13 10.7635 4.42822   1
   8   2 -13 16.9385 4.60305   7
   8  -2  13 26.0148 4.36460   7
  -8   2 -13 34.1525 5.18365   2
   8   2  13 23.1751 4.95378   2
   8  -2 -13 19.1770 5.58933   1
  -8  -2  13 27.4349 4.36336   7
   8  -2 -13 23.9623 4.39340   7
  -8  -2  13 29.4031 5.83302   1
   8   2  13 23.6529 4.66229   7
   9   2 -13 20.2172 4.82348   7
   9  -2  13 14.5539 4.13307   7
   9   2 -13 14.0867 5.12687   2
  -9   2  13 20.4601 5.44229   2
  -9  -2 -13 15.1285 5.00496   1
   9  -2  13 9.84733 4.74338   1
  -9   2  13 17.7461 5.00437   7
   9   2  13 15.6263 5.02051   2
   9  -2 -13 14.2569 4.22769   7
  -9  -2  13 19.1107 5.51318   1
   9   2  13 15.7033 4.63405   7
   9  -2 -13 14.2630 5.31305   1
  -9  -2  13 10.7113 3.71331   7
  -9   2 -13 5.70051 4.18882   2
 -10   2  13 92.3611 8.45951   7
  10   2 -13 105.704 8.55130   7
  10  -2  13 80.9106 6.61110   7
  10  -2  13 86.0469 8.67356   1
 -10   2  13 112.749 9.74284   2
 -10  -2 -13 93.4736 8.81378   1
  10   2 -13 80.1486 8.35200   2
 -10   2 -13 81.9574 7.86153   2
  10   2  13 88.6327 8.01531   7
  10  -2 -13 89.8847 9.42667   1
  10  -2 -13 89.6302 7.04715   7
 -10  -2  13 90.0234 8.89852   1
  10   2  13 94.4549 8.55104   2
 -10  -2  13 99.9716 7.09366   7
  11  -2  13 -0.0706 4.64312   1
  11   2 -13 4.48565 5.05637   2
 -11   2  13 -1.3185 4.65963   7
 -11   2  13 2.06177 5.06570   2
  11  -2  13 5.88680 4.10795   7
  11   2 -13 10.5450 5.05439   7
 -11  -2 -13 0.87456 4.60637   1
 -11  -2  13 3.02088 4.00156   7
  11  -2 -13 5.62613 4.29636   7
  11   2  13 1.93736 4.85661   2
 -11   2 -13 7.70006 4.67212   2
  11  -2 -13 13.6824 5.97432   1
  11   2  13 13.6999 4.85584   7
 -11  -2  13 5.45600 5.10152   1
 -12   2  13 128.001 10.3512   7
 -12  -2 -13 122.651 10.8745   1
  12  -2  13 149.360 11.6342   1
  12   2 -13 118.232 10.3459   2
 -12   2  13 133.853 11.1984   2
  12  -2  13 126.095 8.70685   7
  12   2 -13 145.092 10.4207   7
  12   2  13 142.781 11.1342   2
 -12  -2  13 132.274 11.8500   1
  12  -2 -13 150.368 12.2321   1
 -12  -2  13 131.945 8.43906   7
  12  -2 -13 139.071 8.77289   7
  12   2  13 138.710 10.4260   7
 -13  -2 -13 166.187 12.0182   1
 -13   2  13 139.192 10.9373   7
  13  -2  13 141.801 9.29509   7
  13  -2  13 134.833 11.9391   1
  13   2 -13 141.907 10.9246   7
  13   2  13 126.151 10.3096   7
 -13  -2  13 115.815 11.2920   1
  13  -2 -13 138.929 12.3961   1
 -13  -2  13 135.493 8.67655   7
  13   2  13 171.270 12.5333   2
  13  -2 -13 142.685 9.29252   7
  14  -2  13 0.92949 5.48431   1
 -14  -2 -13 3.99372 5.42907   1
  14  -2  13 5.89560 4.59376   7
 -14   2  13 9.20780 5.95614   7
  14   2 -13 4.84803 5.15283   7
  14   2  13 7.49767 5.26556   7
  14  -2 -13 2.67127 4.36562   7
 -14  -2  13 6.57916 4.11028   7
  14  -2 -13 11.2455 6.35157   1
 -14  -2  13 -2.8831 5.58744   1
   0  -3  13 439.137 13.6228   1
   0   3 -13 445.406 13.3110   2
   0   3  13 464.387 13.3923   2
   0  -3 -13 444.937 15.6740   3
   1   3 -13 236.247 9.29658   2
   1  -3  13 214.414 9.27628   1
  -1  -3 -13 227.191 9.55859   1
  -1   3  13 226.038 9.38945   2
   1  -3 -13 209.035 9.38121   1
   1  -3 -13 219.070 10.4426   3
   1   3  13 217.913 9.05095   2
  -1   3 -13 217.061 9.08200   2
  -1  -3  13 224.452 9.46972   1
  -2  -3 -13 202.110 9.20219   1
  -2   3  13 224.376 9.27156   2
   2  -3  13 225.224 9.43015   1
   2  -3  13 204.722 8.05913   4
   2   3 -13 217.851 9.13227   2
   2  -3 -13 219.027 9.53662   1
  -2  -3  13 202.665 9.20090   1
  -2   3 -13 202.776 8.94291   2
   2   3  13 206.486 8.97366   2
   3  -3  13 262.111 10.2179   1
  -3   3  13 254.093 10.3236   2
   3   3 -13 240.583 10.0509   2
  -3  -3 -13 252.878 10.2257   1
   3  -3  13 257.542 9.14383   4
  -3  -3  13 260.370 10.5048   1
  -3   3 -13 248.743 9.95922   2
   3  -3 -13 231.145 10.2880   1
   3   3  13 250.608 10.0211   2
  -3  -3  13 270.959 12.1313   3
  -4  -3 -13 1.75187 3.15741   1
   4   3 -13 -1.0336 2.96330   2
  -4   3  13 3.77911 3.46288   2
   4  -3  13 1.63888 3.01642   1
   4  -3 -13 0.93893 3.35919   1
   4   3  13 5.98170 3.36234   2
  -4  -3  13 -0.9238 3.20388   1
  -4  -3  13 1.62096 4.02339   3
  -4   3 -13 0.97393 2.99452   2
  -5   3  13 425.804 14.5303   2
   5   3 -13 429.460 14.2103   2
   5  -3  13 467.203 14.6549   1
  -5  -3 -13 427.334 14.0736   1
   5  -3 -13 421.867 14.8696   1
   5   3  13 467.712 14.1786   2
  -5  -3  13 409.830 14.6084   1
  -5   3 -13 441.658 14.0469   2
  -5  -3  13 447.731 15.4644   3
  -6   3  13 66.3049 6.90142   2
   6   3 -13 72.2889 6.74920   2
   6  -3  13 65.0181 6.55383   1
  -6  -3 -13 63.3977 6.46799   1
  -6  -3  13 55.8023 6.59451   1
   6  -3 -13 66.2445 6.97851   1
  -6   3 -13 71.8908 6.43588   2
   6   3  13 67.6273 6.49626   2
  -7  -3 -13 26.8658 5.17374   1
   7   3 -13 27.4849 5.27150   2
   7  -3  13 27.2481 5.19860   1
  -7   3  13 21.4831 5.30939   2
   7  -3 -13 34.5984 5.95325   1
  -7   3 -13 21.3519 4.62657   2
   7   3  13 17.1003 4.55145   2
  -7  -3  13 26.9350 5.55992   1
   8  -3  13 9.21794 4.61972   1
  -8   3  13 11.1948 5.12120   2
   8   3 -13 3.93113 4.45423   2
  -8  -3 -13 8.86934 4.27156   1
   8  -3 -13 5.91956 4.94497   1
  -8  -3  13 11.0183 4.78484   1
  -8   3 -13 17.4415 4.57834   2
   8   3  13 13.2214 4.72833   2
  -9  -3 -13 27.2178 5.58096   1
   9   3 -13 29.8997 5.97784   2
  -9   3  13 42.3277 6.67921   2
   9  -3  13 34.7008 6.16846   1
  -9  -3  13 38.1353 6.68270   1
   9  -3 -13 27.9631 6.06732   1
   9   3  13 27.3451 5.85515   2
  -9   3 -13 36.1219 5.80022   2
 -10  -3 -13 39.5702 6.64564   1
  10   3 -13 45.3676 6.95030   2
 -10   3  13 28.5409 6.47929   2
  10  -3  13 41.4120 6.73921   1
 -10   3 -13 39.2575 6.38825   2
  10   3  13 42.3762 6.83781   2
 -10  -3  13 39.0939 6.84789   1
  10  -3 -13 31.3831 6.98863   1
  11  -3  13 20.1473 5.94790   1
  11   3 -13 21.5764 6.17928   2
 -11  -3 -13 29.6292 6.25429   1
 -11   3  13 29.7336 6.68473   2
 -11   3  13 31.7330 6.61827   7
 -11  -3  13 27.4025 6.45152   1
 -11   3 -13 27.5723 6.09668   2
  11   3  13 33.9929 6.43905   2
  11  -3 -13 26.7761 7.00078   1
 -12   3  13 51.6630 8.06499   2
 -12  -3 -13 46.3521 9.24942   3
 -12  -3 -13 46.1066 7.27691   1
 -12   3  13 38.1528 7.12056   7
  12   3 -13 49.9489 7.55674   2
  12  -3  13 48.8454 7.61407   1
  12  -3 -13 41.2723 7.83915   1
 -12  -3  13 39.5414 7.35193   1
 -12   3 -13 39.7567 7.05624   2
  12   3  13 56.7598 7.84723   2
  13   3 -13 3.68492 5.10437   7
  13  -3  13 -4.6586 5.25327   1
 -13  -3 -13 1.12967 6.42626   3
  13   3 -13 11.3046 5.93835   2
 -13   3  13 -8.2532 4.76632   2
 -13   3  13 3.90905 5.47553   7
 -13  -3 -13 4.17667 5.26051   1
  13   3  13 4.92597 5.36596   2
 -13  -3  13 -2.3137 5.22892   1
 -13   3 -13 3.42574 4.97020   2
  13  -3 -13 5.27912 6.01614   1
  14   3 -13 3.52847 5.57122   7
 -14  -3 -13 5.75203 7.05156   3
  14   3 -13 6.33120 6.06069   2
 -14   3  13 -1.0602 5.67530   2
 -14   3  13 8.27926 6.06989   7
  14  -3  13 10.9325 6.35540   1
 -14  -3 -13 8.35901 5.77773   1
  14  -3 -13 8.61919 6.58529   1
 -14  -3  13 8.34633 6.04041   1
  14   3  13 12.8319 6.38159   2
   0  -4 -13 -4.9662 3.88644   3
   0  -4  13 2.58135 3.16416   1
   0   4 -13 1.82704 3.15054   2
   0   4  13 -2.4702 2.63395   2
   1  -4  13 5.54850 3.24886   1
  -1  -4 -13 0.62154 4.67044   3
  -1   4  13 6.34491 3.40493   2
  -1  -4 -13 5.06069 3.20818   1
   1   4 -13 5.94522 3.29693   2
   1   4  13 5.61172 3.31758   2
  -1  -4  13 6.52900 5.27600   3
  -1   4 -13 -1.4762 2.91205   2
  -1  -4  13 4.49790 3.42133   1
   1  -4 -13 10.2757 3.66233   1
  -2   4  13 175.689 8.78147   2
   2   4 -13 185.269 8.91434   2
  -2  -4 -13 169.590 8.48006   1
   2  -4  13 179.119 8.57230   1
  -2  -4 -13 170.208 11.8030   3
  -2   4 -13 171.714 8.56820   2
  -2  -4  13 188.801 11.5742   3
  -2  -4  13 182.917 8.89024   1
   2  -4 -13 169.218 8.75860   1
   2   4  13 171.836 8.52961   2
   3  -4  13 450.999 14.1776   1
  -3   4  13 433.131 13.9792   2
   3   4 -13 439.878 13.9241   2
  -3  -4 -13 442.529 18.4583   3
  -3  -4 -13 449.767 14.0521   1
  -3  -4  13 458.084 17.2044   3
   3   4  13 433.398 13.6311   2
   3  -4 -13 447.011 14.4301   1
  -3   4 -13 437.493 13.7659   2
  -3  -4  13 440.429 14.2494   1
  -4  -4 -13 115.874 11.7273   3
  -4  -4 -13 95.4229 7.27389   1
   4  -4  13 108.907 7.73929   1
  -4   4  13 111.362 8.01077   2
   4   4 -13 104.663 7.61337   2
  -4  -4  13 86.7410 7.30003   1
  -4  -4  13 119.157 9.86477   3
   4   4  13 96.6600 7.30646   2
   4  -4 -13 113.008 8.00851   1
  -4   4 -13 102.310 7.32405   2
  -5   4  13 864.960 22.5522   2
   5  -4  13 878.325 22.4004   1
  -5  -4 -13 847.322 22.1388   1
   5   4 -13 871.882 22.2128   2
  -5  -4 -13 863.924 28.7252   3
   5  -4 -13 858.917 23.0296   1
   5   4  13 860.572 21.7106   2
  -5  -4  13 879.596 24.9723   3
  -5  -4  13 874.072 22.9752   1
  -5   4 -13 874.498 21.9411   2
   6  -4  13 213.186 10.5943   1
   6   4 -13 245.940 11.3197   2
  -6  -4 -13 215.880 15.6780   3
  -6  -4 -13 221.731 10.7371   1
  -6   4  13 229.610 11.2306   2
   6   4  13 240.466 10.8307   2
  -6  -4  13 238.121 12.4256   3
  -6   4 -13 235.424 10.7747   2
   6  -4 -13 232.277 11.2615   1
  -6  -4  13 209.826 11.1862   1
  -7   4  13 187.354 10.8864   2
   7  -4  13 177.187 10.2940   1
  -7  -4 -13 194.034 10.2862   1
   7   4 -13 188.815 10.5726   2
  -7  -4 -13 204.314 15.8265   3
  -7  -4  13 195.755 10.7563   1
  -7   4 -13 188.054 10.0498   2
   7   4  13 204.429 10.3093   2
   7  -4 -13 178.109 10.9918   1
   8  -4  13 350.686 13.8645   1
   8   4 -13 303.388 13.7567   2
  -8   4  13 300.545 14.0562   2
  -8  -4 -13 317.969 13.3705   1
  -8  -4 -13 324.477 18.9985   3
   8  -4 -13 325.166 14.3980   1
  -8  -4  13 309.371 14.0371   1
  -8   4 -13 344.224 13.4634   2
   8   4  13 328.003 13.7212   2
   9  -4  13 10.6766 4.50774   1
  -9  -4 -13 10.7574 7.28445   3
  -9  -4 -13 8.02502 4.70967   1
   9   4 -13 6.06676 4.95210   2
  -9   4  13 9.73847 5.16232   2
  -9  -4  13 5.33676 4.89865   1
   9   4  13 -2.5264 4.00477   2
   9  -4 -13 -6.9986 4.27710   1
  -9   4 -13 7.16330 4.49923   2
 -10   4  13 181.781 12.0704   2
  10   4 -13 167.560 11.6955   2
 -10  -4 -13 180.029 11.2367   1
  10  -4  13 189.006 11.5544   1
 -10  -4 -13 201.598 16.6117   3
 -10  -4  13 182.847 11.9319   1
  10   4  13 183.781 11.5838   2
  10  -4 -13 184.428 12.3359   1
 -10   4 -13 187.180 11.3444   2
 -11   4  13 83.4936 9.33136   2
  11  -4  13 78.7852 8.79329   1
 -11  -4 -13 63.4618 11.1199   3
 -11  -4 -13 63.5961 8.02776   1
  11   4 -13 87.1223 9.20460   2
  11   4  13 64.2995 8.14816   2
  11  -4 -13 69.9130 8.80518   1
 -11   4 -13 83.5319 8.81250   2
 -11  -4  13 70.0958 8.51545   1
 -12  -4 -13 15.8042 5.65052   1
  12   4 -13 13.2476 6.01099   2
 -12  -4 -13 14.0294 7.82035   3
 -12   4  13 5.76285 5.72065   2
  12  -4  13 4.03130 5.41728   1
  12  -4 -13 13.1902 6.12301   1
 -12  -4  13 18.5792 6.38642   1
 -12   4 -13 14.2906 5.66924   2
  12   4  13 16.0491 5.95003   2
  13   4 -13 377.770 17.3302   2
 -13  -4 -13 349.990 16.4850   1
  13  -4  13 315.220 16.1223   1
 -13   4  13 389.182 17.7989   2
 -13  -4 -13 330.873 19.5124   3
  13  -4 -13 368.644 17.6274   1
 -13   4 -13 355.628 16.8151   2
 -13  -4  13 341.217 16.9066   1
  13   4  13 397.367 17.2765   2
   0  -5  13 284.720 15.8658   3
   0   5  13 297.773 11.2212   2
   0  -5 -13 334.433 14.7047   3
   0  -5  13 326.681 11.6228   1
   0   5 -13 305.456 11.4614   2
   0  -5 -13 316.511 11.4888   1
   1  -5  13 197.823 9.38326   1
   1   5 -13 185.972 9.06433   2
  -1  -5 -13 199.076 12.5296   3
  -1  -5 -13 194.376 9.17667   1
  -1   5  13 179.023 8.95249   2
  -1   5 -13 188.434 9.03742   2
   1   5  13 174.226 8.81687   2
  -1  -5  13 186.953 9.18772   1
  -1  -5  13 207.870 13.3427   3
  -2   5  13 143.801 8.48967   2
   2  -5  13 154.932 8.56342   1
  -2  -5 -13 151.719 8.18771   1
   2   5 -13 150.625 8.43617   2
  -2  -5 -13 158.270 12.0310   3
  -2   5 -13 154.976 8.54114   2
   2   5  13 142.132 8.26128   2
  -2  -5  13 144.066 8.39247   1
  -2  -5  13 150.794 12.1536   3
   2  -5 -13 154.319 8.63694   1
   2  -5 -13 145.097 9.85532   5
  -3   5  13 148.235 9.01154   2
  -3  -5 -13 174.661 8.87912   1
   3   5 -13 175.398 9.19071   2
   3  -5  13 168.314 9.14497   1
  -3  -5 -13 169.011 12.8172   3
   3  -5 -13 158.688 8.96064   1
   3   5  13 150.648 8.47419   2
  -3   5 -13 169.367 8.98147   2
  -3  -5  13 152.681 11.8388   3
  -3  -5  13 171.537 9.10279   1
  -4   5  13 3.90928 3.92303   2
   4  -5  13 4.11603 3.83401   1
   4   5 -13 -0.9990 3.68751   2
  -4  -5 -13 0.71418 6.30875   3
  -4  -5 -13 3.19480 3.54790   1
  -4   5 -13 1.44242 3.61544   2
  -4  -5  13 -1.9108 3.32253   1
   4   5  13 2.25041 3.45169   2
   4  -5 -13 4.28875 3.84177   1
  -4  -5  13 8.84601 5.73083   3
  -5  -5 -13 283.363 16.8477   3
   5  -5  13 270.998 11.8314   1
  -5  -5 -13 271.182 11.3253   1
  -5   5  13 296.198 12.3988   2
   5   5 -13 280.651 12.0620   2
   5   5  13 269.166 11.4357   2
  -5   5 -13 291.497 11.7588   2
  -5  -5  13 280.463 14.9442   3
   5  -5 -13 276.818 12.3397   1
  -5  -5  13 294.241 12.2231   1
  -6   5  13 56.6584 6.94787   2
  -6  -5 -13 48.4467 6.14786   1
  -6  -5 -13 49.6523 10.1434   3
   6  -5  13 70.7508 7.02975   1
   6   5 -13 46.0876 6.42521   2
   6   5  13 45.8981 6.04327   2
   6  -5 -13 44.3699 6.56846   1
  -6  -5  13 47.1257 6.56519   1
  -6  -5  13 64.8067 8.90017   3
  -6   5 -13 54.6015 6.35102   2
   7   5 -13 4.57202 4.64293   2
  -7   5  13 20.3669 5.55799   2
  -7  -5 -13 9.03670 7.82979   3
   7  -5  13 15.8931 5.23378   1
  -7  -5 -13 11.2808 4.68521   1
   7  -5 -13 13.2746 5.12741   1
  -7  -5  13 18.6293 6.38668   3
  -7   5 -13 13.9189 4.67254   2
   7   5  13 16.3083 4.87649   2
  -7  -5  13 20.5617 5.56092   1
  -8   5  13 10.4527 5.13671   2
   8  -5  13 23.0234 5.40083   1
   8   5 -13 7.04893 4.88991   2
  -8  -5 -13 23.2521 8.96353   3
  -8  -5 -13 12.9608 4.93708   1
   8  -5 -13 8.68010 5.18305   1
  -8  -5  13 8.89914 5.13211   1
  -8   5 -13 11.3817 4.54536   2
   8   5  13 7.14244 4.60768   2
  -9  -5 -13 58.5796 10.8257   3
   9  -5  13 36.5023 6.47181   1
  -9   5  13 46.5356 7.38908   2
  -9  -5 -13 38.9668 6.41413   1
   9   5 -13 48.8392 7.29004   2
   9  -5 -13 38.8195 7.08701   1
  -9   5 -13 53.1315 7.13818   2
   9   5  13 36.8727 6.51814   2
  -9  -5  13 47.0728 7.13678   1
 -10  -5 -13 27.1008 6.39971   1
  10  -5  13 11.0013 5.31527   1
  10   5 -13 15.1429 5.85052   2
 -10   5  13 19.7931 6.00339   2
 -10  -5 -13 31.0997 9.99930   3
 -10   5 -13 23.3839 5.89437   2
  10   5  13 34.9659 6.54053   2
 -10  -5  13 23.8602 6.20722   1
  10  -5 -13 30.1346 6.87302   1
 -11   5  13 17.7274 6.40711   2
  11  -5  13 29.5245 6.31323   1
  11   5 -13 27.5614 6.75201   2
 -11  -5 -13 8.08126 8.40393   3
 -11  -5 -13 23.0630 6.11795   1
 -11   5 -13 20.5434 5.80369   2
  11  -5 -13 10.6221 6.11564   1
  11   5  13 28.9860 6.48612   2
 -11  -5  13 31.0364 6.87442   1
   0  -6  13 -0.1952 3.60162   1
   0  -6 -13 1.28746 3.40665   1
   0   6 -13 3.26742 3.72932   2
   0  -6  13 -2.5191 5.67577   3
   0   6  13 4.97132 3.73881   2
  -1  -6 -13 10.2233 3.81476   1
   1   6 -13 11.4557 4.22946   2
  -1   6  13 7.14268 3.84573   2
   1  -6  13 10.1950 4.13853   1
  -1  -6 -13 9.97966 6.37747   3
  -1  -6  13 14.2528 6.91955   3
  -1  -6  13 9.13470 4.00962   1
   1   6  13 6.32667 3.69751   2
   1  -6 -13 7.25423 3.96265   1
  -1   6 -13 1.13106 3.55064   2
  -2   6  13 60.3604 6.29251   2
   2  -6  13 69.9500 6.73020   1
   2   6 -13 56.2862 6.06320   2
  -2  -6 -13 59.5795 6.06498   1
  -2  -6 -13 46.4916 8.68353   3
   2   6  13 57.0638 6.07918   2
  -2   6 -13 55.7195 6.08205   2
  -2  -6  13 52.0672 9.29896   3
  -2  -6  13 67.0905 6.49730   1
  -3   6  13 47.4907 6.01465   2
  -3  -6 -13 57.2805 9.65275   3
   3  -6  13 53.9867 6.12990   1
  -3  -6 -13 52.5513 5.88780   1
   3   6 -13 38.6035 5.60190   2
   3  -6 -13 43.3957 7.47348   5
  -3   6 -13 49.6527 5.88133   2
  -3  -6  13 43.6137 8.55945   3
   3  -6 -13 32.8642 5.20197   1
  -3  -6  13 40.7462 5.58244   1
   3   6  13 50.1553 5.83613   2
   4  -6  13 456.776 15.1797   1
  -4  -6 -13 455.461 14.5745   1
  -4  -6 -13 406.525 20.4807   3
   4   6 -13 435.734 14.9330   2
  -4   6  13 437.693 15.2577   2
   4  -6 -13 467.529 15.1941   1
  -4   6 -13 447.938 14.9573   2
   4   6  13 422.971 14.2591   2
  -4  -6  13 473.838 20.6791   3
  -4  -6  13 450.384 15.0269   1
  -5   6  13 9.39641 4.66676   2
   5   6 -13 3.74468 4.41372   2
  -5  -6 -13 10.7717 8.22357   3
  -5  -6 -13 10.3418 4.35883   1
   5  -6  13 8.85396 4.42752   1
   5  -6 -13 7.91981 4.37600   1
   5   6  13 6.82084 4.25541   2
  -5   6 -13 10.0535 4.31249   2
  -5  -6  13 8.38498 4.39709   1
  -5  -6  13 5.73945 6.68198   3
  -6  -6 -13 10.2787 7.92555   3
  -6   6  13 11.9470 5.08459   2
   6   6 -13 4.25029 4.69654   2
  -6  -6 -13 7.08581 4.41326   1
   6  -6  13 9.79542 4.79186   1
  -6  -6  13 2.56907 6.40878   3
   6  -6 -13 16.8894 5.25504   1
   6   6  13 13.2869 4.72322   2
  -6  -6  13 24.9227 5.35040   1
  -6   6 -13 5.91475 4.39182   2
   7   6 -13 17.1271 5.58105   2
   7  -6  13 6.87839 4.50028   1
  -7  -6 -13 28.3617 5.60991   1
  -7  -6 -13 15.9560 8.98604   3
  -7   6  13 16.4009 5.46346   2
  -7   6 -13 16.8290 4.96493   2
   7  -6 -13 20.8990 5.86007   1
   7   6  13 12.6182 4.84116   2
  -7  -6  13 14.2607 5.38294   1
  -7  -6  13 24.0572 7.23333   3
   8   6 -13 27.2587 6.37159   2
   8  -6  13 34.1091 6.19746   1
  -8  -6 -13 16.9135 5.17658   1
  -8  -6 -13 27.3448 9.64617   3
  -8   6  13 22.7188 6.02060   2
  -8  -6  13 26.6426 6.27099   1
   8   6  13 22.3137 5.61962   2
   8  -6 -13 14.3892 5.58032   1
  -8   6 -13 19.5138 5.37836   2
  -9   6  13 4.66662 5.05585   2
  -9  -6 -13 2.94270 4.44693   1
  -9  -6 -13 15.6022 8.84396   3
   9  -6  13 -5.7907 4.37704   1
   9   6 -13 0.55015 4.98226   2
   9   6  13 4.78799 4.78071   2
  -9  -6  13 9.86288 5.61545   1
  -9   6 -13 11.7035 5.12911   2
   9  -6 -13 9.70724 5.56406   1
   0   7 -13 219.598 10.3571   2
   0  -7  13 183.707 16.0093   3
   0   7  13 215.303 10.2550   2
   1   7 -13 91.2515 7.62595   2
  -1   7  13 84.7424 7.38747   2
  -1  -7  13 97.7501 12.4310   3
  -1   7 -13 76.7437 7.09586   2
   1   7  13 92.9340 7.44913   2
   2   7 -13 110.491 8.55574   2
  -2   7  13 93.9826 7.86025   2
  -2  -7 -13 102.387 11.8078   3
  -2   7 -13 106.346 8.22266   2
  -2  -7  13 109.037 12.5356   3
   2   7  13 89.8742 7.47579   2
   3  -7  13 118.239 9.20786   1
   3   7 -13 110.909 8.75706   2
  -3  -7 -13 125.768 13.2445   3
  -3   7  13 126.034 9.04106   2
  -3   7 -13 99.8935 8.08040   2
   3   7  13 103.803 8.36485   2
  -3  -7  13 124.880 13.2641   3
   3  -7 -13 117.878 11.9760   5
  -4  -7 -13 3.65083 7.42234   3
   4  -7  13 -1.9426 3.90432   1
   4   7 -13 0.72510 4.19359   2
  -4   7  13 1.69091 4.49021   2
  -4  -7  13 4.05592 6.93401   3
   4  -7 -13 -2.4635 5.40014   5
   4   7  13 1.32212 4.12924   2
  -4   7 -13 3.76552 4.11918   2
   5   7 -13 185.068 10.8169   2
  -5   7  13 175.227 10.7724   2
   5  -7  13 185.159 10.3623   1
  -5  -7 -13 146.245 15.0270   3
  -5   7 -13 189.260 10.5660   2
  -5  -7  13 188.474 15.0450   3
   5   7  13 186.576 10.3941   2
   5  -7 -13 185.571 13.5908   5
   6   7 -13 26.8985 6.01803   2
   6  -7  13 23.6599 5.64156   1
  -6  -7 -13 24.9734 9.48026   3
  -6   7  13 18.1378 5.79369   2
   6  -7 -13 25.9362 7.49344   5
   6   7  13 28.5775 5.50405   2
  -6  -7  13 29.8746 8.84385   3
  -6   7 -13 25.6869 5.64395   2
   0   0  14 15.0646 3.36649   7
   0   0  14 11.9763 3.66111   1
   0   0 -14 7.23351 2.96483   2
   0   0  14 12.6717 3.48217   2
  -1   0  14 82.7531 6.76738   1
   1   0  14 71.1328 6.30087   1
  -1   0  14 81.0915 5.99482   7
   1   0 -14 83.9131 6.85591   1
  -1   0  14 92.5503 6.42391   2
  -1   0 -14 77.7681 6.01903   2
   1   0  14 77.5758 5.87846   7
   1   0  14 94.1554 6.48257   2
   1   0 -14 74.7688 5.89059   2
  -1   0 -14 79.6359 6.53630   1
  -2   0  14 60.3706 5.39640   7
  -2   0 -14 48.1370 5.40565   1
  -2   0 -14 41.5608 4.58536   2
  -2   0  14 50.3825 5.12205   2
   2   0  14 42.7441 5.33178   1
  -2   0  14 52.5540 5.58472   1
   2   0  14 45.4734 4.70977   7
   2   0 -14 55.2164 5.94155   1
   2   0 -14 48.7837 5.37827   2
   2   0  14 55.5174 5.36644   2
   3   0 -14 785.187 20.3874   1
  -3   0  14 766.349 20.2833   1
   3   0  14 754.504 18.2224   7
   3   0  14 805.575 19.4413   2
  -3   0  14 776.981 19.6059   2
  -3   0 -14 769.389 18.8673   2
  -3   0  14 756.317 18.5941   7
   3   0 -14 767.051 19.4388   2
  -3   0 -14 778.524 20.1049   1
   3   0  14 773.398 19.9945   1
  -4   0 -14 59.3861 5.66900   2
  -4   0 -14 67.0052 6.18659   1
   4   0  14 71.6610 5.65246   7
  -4   0  14 56.3831 5.46590   7
   4   0  14 59.3992 5.99207   1
   4   0 -14 67.8822 6.95057   1
  -4   0  14 55.3540 6.14135   1
   4   0  14 60.6097 5.90627   2
  -4   0  14 61.5461 5.95682   2
   4   0 -14 60.9909 5.98525   2
   5   0  14 127.411 7.89784   2
  -5   0  14 134.155 8.52278   2
   5   0  14 112.664 7.91970   1
   5   0  14 120.157 7.20969   7
  -5   0  14 116.684 8.42033   1
   5   0 -14 111.129 7.38727   7
  -5   0  14 123.789 7.66794   7
  -5   0 -14 126.232 8.10976   1
   5   0 -14 129.766 8.04164   2
   5   0 -14 106.455 7.95139   1
   6   0 -14 179.792 9.06681   7
  -6   0  14 187.654 9.22330   7
   6   0  14 175.104 8.71933   7
   6   0 -14 189.243 10.1535   1
   6   0  14 196.900 9.97655   1
  -6   0  14 184.613 10.1040   1
  -6   0 -14 200.961 10.0189   1
   6   0  14 193.012 9.63668   2
   7   0 -14 5.21282 3.73163   7
  -7   0  14 4.78315 3.86957   7
   7   0 -14 12.0107 4.73892   1
   7   0  14 3.77324 4.09825   1
  -7   0 -14 11.6846 4.37472   1
  -7   0  14 4.59297 4.33214   1
   7   0  14 5.51012 3.48563   7
   8   0 -14 111.975 8.10686   7
  -8   0  14 103.547 7.99056   7
  -8   0  14 108.890 9.13737   1
  -8   0 -14 103.610 8.78502   1
   8   0  14 100.902 7.73188   7
   8   0  14 105.315 8.69119   1
   8   0 -14 116.496 9.23028   1
  -9   0  14 384.051 15.6297   1
  -9   0 -14 382.330 15.2270   1
   9   0 -14 385.450 13.7901   7
   9   0  14 325.906 12.7190   7
   9   0  14 351.697 14.4849   1
  -9   0  14 382.282 13.6083   7
   9   0 -14 332.924 14.7761   1
  10   0 -14 8.47312 5.34836   1
  10   0  14 20.1350 4.95580   7
  10   0  14 23.9742 5.97748   1
 -10   0  14 18.5273 6.01904   1
 -10   0 -14 19.5027 5.66373   1
 -10   0  14 17.0374 5.02419   7
  10   0 -14 17.5650 4.89638   7
 -11   0  14 560.163 20.0127   1
  11   0 -14 536.405 17.4734   7
 -11   0  14 546.541 17.4194   7
 -11   0 -14 546.055 19.4446   1
  11   0 -14 558.781 20.2457   1
  11   0  14 524.976 19.2488   1
  11   0  14 531.709 17.0039   7
  12   0  14 183.753 12.5184   1
 -12   0  14 163.321 12.3215   1
 -12   0  14 157.756 10.6811   7
  12   0 -14 159.205 10.7832   7
  12   0 -14 176.360 12.7667   1
 -12   0 -14 190.460 12.3534   1
  12   0  14 185.193 11.0272   7
 -13   0  14 211.950 14.1124   1
  13   0  14 221.649 12.3682   7
  13   0 -14 235.258 14.4760   1
  13   0 -14 231.304 12.3935   7
 -13   0  14 218.021 12.1075   7
 -13   0 -14 205.603 13.4920   1
  14   0  14 0.52713 4.87522   7
 -14   0 -14 2.46823 5.64815   1
 -14   0  14 8.07805 6.15109   1
  14   0 -14 1.28958 4.91460   7
 -14   0  14 7.83691 5.04090   7
  15   0 -14 6.40590 4.83547   7
 -15   0  14 -0.3371 4.55825   7
  15   0  14 11.1940 5.61906   7
 -15   0  14 11.2085 6.91706   1
 -15   0 -14 -4.0091 5.44657   1
   0   1 -14 -1.8047 2.81306   1
   0   1  14 0.61863 2.66427   7
   0  -1 -14 1.29715 2.44096   4
   0   1 -14 3.68545 2.81577   2
   0  -1  14 3.39447 2.75062   7
   0  -1  14 -0.5907 2.92371   1
   0   1  14 3.31020 3.05042   2
   0   1  14 4.28095 3.20806   1
  -1   1  14 291.858 10.7942   2
  -1  -1 -14 309.202 10.3593   4
   1   1 -14 298.845 10.5599   2
   1  -1  14 301.361 11.3208   1
  -1   1  14 315.051 10.3581   7
   1  -1  14 315.783 10.0290   7
  -1   1  14 298.322 11.1724   1
  -1  -1 -14 306.461 11.4693   1
   1  -1 -14 328.788 10.7183   4
  -1  -1  14 297.807 11.3244   1
   1   1  14 300.025 10.6705   2
   1   1  14 299.722 10.8926   1
  -1  -1  14 310.030 10.0663   7
   1   1  14 324.202 10.3635   7
  -1   1 -14 300.405 10.5456   2
  -1   1 -14 314.362 11.3472   1
   1  -1 -14 304.116 11.3254   1
  -2  -1 -14 1.54317 3.05557   1
   2   1 -14 2.32602 2.93540   2
  -2   1  14 0.24883 2.82811   2
   2  -1  14 4.41520 2.79961   7
   2  -1  14 2.83172 3.13038   1
  -2   1  14 -1.8255 2.75017   7
  -2  -1 -14 2.98543 2.74825   4
   2   1 -14 6.88179 3.49700   1
  -2   1  14 5.91921 3.40408   1
  -2   1 -14 5.47026 2.96053   2
   2  -1 -14 1.86320 2.61909   4
   2  -1 -14 1.91616 3.15857   1
   2   1  14 7.08965 3.23989   2
  -2   1 -14 10.7812 3.52872   1
  -2  -1  14 0.64123 2.75333   7
   2   1  14 4.52720 3.00918   7
   2   1  14 6.46634 3.37559   1
  -2  -1  14 1.30251 3.11332   1
  -3   1  14 26.2043 4.37288   2
  -3   1  14 32.4099 4.45456   7
   3   1 -14 29.5173 4.76610   1
  -3  -1 -14 25.0374 4.46096   1
   3  -1  14 28.8936 4.75957   1
   3  -1  14 28.4968 4.06383   7
   3   1 -14 20.9881 4.14366   2
  -3  -1 -14 28.5047 3.92915   4
  -3   1  14 25.4282 4.59948   1
   3  -1 -14 29.9989 4.23262   7
   3  -1 -14 33.3383 4.64192   4
  -3   1 -14 40.4057 5.29119   1
  -3  -1  14 28.7832 4.79737   1
   3   1  14 27.0015 4.50644   2
   3   1  14 34.9492 4.78188   1
  -3  -1  14 33.8591 4.32013   7
   3  -1 -14 29.9743 4.93404   1
   3   1  14 30.9710 4.28833   7
  -3   1 -14 22.5676 3.97365   2
   4  -1  14 165.350 7.77478   7
  -4   1  14 171.475 9.21447   1
  -4   1  14 172.734 8.86336   2
   4   1 -14 146.793 8.52529   1
   4   1 -14 162.849 8.47513   2
  -4   1  14 169.899 8.16929   7
   4  -1  14 158.467 8.78475   1
  -4  -1 -14 160.957 8.59401   1
  -4  -1  14 163.508 9.21697   1
  -4  -1  14 161.991 7.94747   7
   4   1  14 169.099 8.54238   2
   4  -1 -14 173.357 7.98362   7
   4  -1 -14 160.139 9.17195   1
  -4   1 -14 154.380 8.18534   2
   4   1  14 169.121 8.08420   7
   4   1  14 169.961 8.83915   1
  -4   1 -14 171.947 8.89261   1
  -5   1  14 10.1842 4.26473   1
  -5   1  14 12.2102 4.00051   7
  -5  -1 -14 12.3807 3.93029   1
  -5   1  14 10.9155 4.08456   2
   5   1 -14 11.7134 3.94844   2
   5  -1  14 11.1904 3.96997   1
   5  -1  14 14.0083 3.55931   7
   5   1 -14 9.97475 4.07735   1
  -5   1 -14 13.5923 3.84953   2
   5  -1 -14 10.0013 3.51461   7
  -5   1 -14 3.88665 3.79673   1
  -5  -1  14 8.35812 4.06362   1
  -5  -1  14 13.2643 3.71633   7
   5   1  14 10.9830 3.89457   2
   5   1  14 15.2696 3.85211   7
   5   1  14 11.1436 3.97058   1
   5  -1 -14 4.37126 3.85646   1
   6   1 -14 110.436 8.38867   1
  -6  -1 -14 88.6178 7.54670   1
  -6   1  14 96.3956 7.54050   7
   6  -1  14 106.353 7.00490   7
  -6   1  14 98.7427 7.93360   2
   6  -1  14 96.3207 7.82973   1
   6   1 -14 97.8638 7.85455   2
  -6   1  14 105.378 8.77863   1
   6  -1 -14 108.966 7.25664   7
  -6   1 -14 115.937 7.87640   1
   6  -1 -14 107.270 8.25170   1
   6   1  14 121.404 8.12584   2
   6   1  14 106.894 7.42544   7
  -6   1 -14 109.527 7.71236   2
  -6  -1  14 98.0093 8.23855   1
  -6  -1  14 106.836 7.22929   7
   6   1  14 94.6750 7.79131   1
  -7  -1 -14 171.360 9.85287   1
  -7   1  14 178.381 10.3941   2
  -7   1  14 173.294 10.3680   1
   7  -1  14 172.503 8.60998   7
   7   1 -14 189.065 10.1709   2
   7   1 -14 166.641 9.29354   7
  -7   1  14 192.778 9.85645   7
   7  -1  14 177.768 10.1262   1
   7   1 -14 177.657 10.4807   1
   7  -1 -14 190.864 10.5481   1
   7   1  14 194.357 10.2870   1
   7  -1 -14 183.810 9.00654   7
  -7   1 -14 172.387 9.22107   2
   7   1  14 170.017 9.74143   2
   7   1  14 176.820 9.13671   7
  -7  -1  14 175.323 8.88590   7
  -7   1 -14 194.345 10.4051   1
  -7  -1  14 188.413 10.6220   1
   8  -1  14 4.16474 4.37164   1
  -8   1  14 2.36132 4.19221   2
   8  -1  14 7.60915 3.62269   7
  -8   1  14 -0.6192 3.87352   7
  -8  -1 -14 5.01979 4.15348   1
  -8   1  14 1.06535 4.42645   1
   8   1 -14 -0.2028 3.59077   7
   8   1 -14 3.76621 4.48711   1
   8   1 -14 3.55188 4.18331   2
   8   1  14 7.65917 4.02070   2
  -8  -1  14 2.29094 3.67353   7
  -8  -1  14 4.77566 4.45119   1
   8   1  14 4.73721 4.01561   7
  -8   1 -14 -4.2313 3.84551   1
  -8   1 -14 7.46013 4.02098   2
   8  -1 -14 4.13865 3.60153   7
   8  -1 -14 2.97252 4.58820   1
  -9   1  14 71.8797 7.30945   7
  -9   1  14 70.8640 7.66162   2
  -9   1  14 73.3445 8.29924   1
   9   1 -14 68.5909 7.62933   2
  -9  -1 -14 80.4491 8.34649   1
   9  -1  14 65.4835 6.54601   7
   9  -1  14 57.9207 7.23822   1
   9   1 -14 56.5242 6.79809   7
  -9   1 -14 80.9989 8.21710   1
   9   1  14 75.0430 7.03645   7
   9  -1 -14 68.0594 6.63399   7
  -9  -1  14 74.7671 6.83462   7
   9  -1 -14 73.9262 8.54223   1
   9   1  14 72.5296 7.63329   2
  -9  -1  14 56.3391 7.78307   1
  10  -1  14 5.53471 4.24244   7
  10   1 -14 -0.9998 4.40773   7
 -10   1  14 9.15687 4.77011   7
  10  -1  14 3.72267 4.62360   1
 -10  -1 -14 9.88313 5.24818   1
 -10  -1  14 -0.1106 4.86151   1
 -10   1 -14 9.80690 5.21456   1
  10  -1 -14 1.58875 3.96632   7
  10   1  14 2.70982 4.51594   2
  10  -1 -14 8.30968 5.44249   1
  10   1  14 -2.0614 3.99091   7
 -10  -1  14 1.17336 4.05218   7
  11   1 -14 760.363 21.9304   7
 -11   1  14 807.837 22.2822   7
 -11  -1 -14 751.100 23.6833   1
  11  -1  14 751.850 23.7322   1
  11  -1  14 785.497 20.8942   7
  11   1  14 791.123 21.8273   7
 -11  -1  14 806.615 20.9892   7
  11  -1 -14 779.674 24.8618   1
 -11  -1  14 804.036 24.9314   1
  11  -1 -14 765.891 21.0411   7
 -11   1 -14 791.574 24.3552   1
 -12   1  14 10.3960 5.27910   7
  12   1 -14 8.82693 5.10818   7
  12  -1  14 2.74685 5.14712   1
 -12  -1 -14 -2.2434 4.65564   1
  12  -1  14 2.98032 4.51004   7
  12   1  14 1.02439 4.72111   7
 -12  -1  14 8.68494 4.64682   7
  12  -1 -14 5.18950 4.41030   7
 -12  -1  14 8.26213 5.76753   1
  12  -1 -14 2.28546 5.54697   1
  13  -1  14 7.37511 6.13215   1
 -13  -1 -14 20.9285 6.43324   1
 -13   1  14 22.6598 6.24260   7
  13   1 -14 5.11313 5.09676   7
  13  -1  14 20.1288 5.69683   7
  13  -1 -14 17.2140 6.65313   1
 -13  -1  14 23.7063 5.38328   7
  13   1  14 18.7573 5.88423   7
  13  -1 -14 16.5851 5.07572   7
 -13  -1  14 12.6129 6.31230   1
 -14   1  14 46.1799 7.45809   7
  14   1 -14 39.5440 6.99915   7
 -14  -1 -14 39.1100 8.16541   1
  14  -1  14 28.6750 6.21707   7
  14  -1  14 44.8267 8.31013   1
 -14  -1  14 30.5209 7.81697   1
 -14  -1  14 23.2203 5.71008   7
  14  -1 -14 26.7174 7.60361   1
  14   1  14 39.2724 7.29246   7
  14  -1 -14 35.9993 6.34974   7
   0   2  14 54.1241 5.12249   7
   0  -2  14 56.6471 5.65813   1
   0  -2  14 49.3472 4.52380   7
   0  -2 -14 57.2288 4.64621   7
   0   2 -14 52.4123 5.14768   2
   0   2  14 50.8259 5.27930   2
   0   2  14 62.2990 5.48185   4
  -1  -2 -14 185.021 9.16095   1
   1  -2  14 202.303 9.26792   1
  -1   2  14 191.731 9.03667   2
   1   2 -14 197.212 8.81847   2
   1  -2  14 184.716 7.51961   7
  -1   2  14 204.374 8.95823   4
  -1   2  14 198.732 8.41698   7
   1  -2 -14 198.130 7.47761   7
   1   2  14 212.340 9.01333   4
  -1   2 -14 195.890 8.75252   2
  -1  -2  14 204.405 7.82516   7
   1   2  14 196.748 8.96420   2
   1  -2 -14 215.383 9.63894   1
  -1  -2  14 196.944 9.24019   1
   1   2  14 207.592 8.45627   7
   2  -2  14 145.790 6.88090   7
  -2   2  14 152.702 8.19966   2
  -2  -2 -14 162.956 8.43831   1
  -2   2  14 148.892 7.58448   7
   2   2 -14 153.785 8.07199   2
   2  -2  14 151.059 8.45964   1
   2   2  14 145.080 7.98626   2
   2   2  14 158.262 8.10924   4
  -2  -2  14 174.359 8.81166   1
  -2  -2  14 156.745 6.94081   7
   2   2  14 174.085 7.80874   7
   2  -2 -14 148.368 8.39027   1
  -2   2 -14 153.507 7.89487   2
   2  -2 -14 151.704 7.00330   7
   3  -2  14 23.2871 4.42547   1
   3  -2  14 10.2343 3.17415   7
  -3   2  14 5.16682 3.26771   7
  -3  -2 -14 8.11510 3.49144   1
   3   2 -14 9.86632 3.64854   2
  -3   2  14 13.9261 3.97055   2
  -3  -2  14 8.01750 3.63810   1
   3   2  14 11.5914 3.69779   7
  -3   2 -14 12.7261 3.61098   2
  -3  -2  14 11.4205 3.26779   7
   3   2  14 8.88398 3.48464   2
   3  -2 -14 14.0409 4.11193   1
   3  -2 -14 9.77436 3.26279   7
   4   2 -14 78.4652 6.50151   2
   4  -2  14 80.3509 5.67343   7
   4  -2  14 76.7913 6.71951   1
  -4   2  14 91.9903 6.74815   7
  -4  -2 -14 71.1869 6.65520   1
  -4   2  14 69.5049 6.43616   2
   4  -2 -14 73.4774 7.11572   1
  -4  -2  14 80.2053 5.82717   7
   4   2  14 78.5122 6.22484   7
  -4  -2  14 80.0436 7.38525   1
  -4   2 -14 75.8188 6.58828   2
   4  -2 -14 86.3649 6.03151   7
   4   2  14 85.5936 6.93074   2
  -5  -2 -14 714.408 19.7655   1
  -5   2  14 719.816 18.4873   7
  -5   2  14 744.149 19.8008   2
   5  -2  14 706.895 16.8408   7
   5  -2  14 712.716 19.9455   1
   5   2 -14 695.633 19.3212   2
   5  -2 -14 679.281 20.2044   1
   5  -2 -14 728.723 17.1048   7
  -5  -2  14 724.109 20.3162   1
   5   2  14 691.434 17.9627   7
  -5  -2  14 708.174 16.8086   7
  -5   2 -14 716.882 19.0386   2
   5   2  14 739.171 19.2134   2
  -6   2  14 520.359 15.7103   7
   6  -2  14 523.438 16.5210   1
  -6  -2 -14 507.405 16.3284   1
   6  -2  14 519.725 13.8511   7
   6   2 -14 506.454 16.1246   2
  -6   2  14 528.609 16.6429   2
   6  -2 -14 510.415 16.9917   1
  -6  -2  14 498.879 16.9432   1
  -6  -2  14 498.568 13.8046   7
   6   2  14 521.384 16.0840   2
   6   2  14 510.345 15.1254   7
  -6   2 -14 497.713 15.5468   2
   6  -2 -14 532.630 14.1197   7
  -7   2  14 426.168 15.4653   2
   7  -2  14 410.174 12.5066   7
  -7   2  14 415.980 14.1981   7
   7   2 -14 435.429 15.3041   2
   7  -2  14 407.917 15.0497   1
  -7  -2 -14 411.559 15.1341   1
  -7  -2  14 413.543 15.6802   1
  -7  -2  14 430.186 12.5304   7
  -7   2 -14 427.842 14.7209   2
   7   2  14 469.523 15.1867   2
   7  -2 -14 417.903 12.7132   7
   7  -2 -14 422.890 15.8029   1
   7   2  14 399.067 13.6332   7
  -8  -2 -14 37.5768 6.04692   1
   8   2 -14 38.6953 5.71646   7
  -8   2  14 45.1378 6.10961   7
  -8   2  14 31.8213 6.04340   2
   8  -2  14 16.0812 5.20295   1
   8   2 -14 42.1110 6.19323   2
   8  -2  14 31.3953 4.59971   7
  -8   2 -14 34.9049 5.67903   2
   8   2  14 35.2779 5.70394   2
   8  -2 -14 37.2502 4.92980   7
  -8  -2  14 34.9748 4.74238   7
   8  -2 -14 40.9332 6.73046   1
   8   2  14 38.2637 5.68683   7
  -8  -2  14 38.3421 6.42913   1
  -9  -2 -14 24.6001 5.66464   1
  -9   2  14 26.6683 5.79106   7
  -9   2  14 31.4548 6.19139   2
   9  -2  14 21.9829 5.56531   1
   9  -2  14 23.6764 4.53308   7
   9   2 -14 30.7932 5.80496   7
   9   2 -14 25.6351 5.73936   2
   9  -2 -14 13.1549 4.23427   7
   9   2  14 17.3030 4.75360   7
  -9  -2  14 37.2276 4.96043   7
  -9   2 -14 24.3341 5.28938   2
  -9  -2  14 29.4018 6.43942   1
   9  -2 -14 24.0952 6.15621   1
   9   2  14 19.3125 5.46169   2
  10   2 -14 78.9388 7.86317   7
 -10  -2 -14 80.0336 8.57015   1
  10  -2  14 62.3186 7.68866   1
  10  -2  14 80.8778 6.82255   7
 -10   2  14 90.7796 9.08806   2
 -10   2  14 84.7590 8.38438   7
  10   2 -14 80.6119 8.63255   2
  10  -2 -14 86.2259 7.11931   7
 -10  -2  14 72.0020 8.68679   1
 -10  -2  14 100.194 7.38964   7
  10   2  14 89.3455 8.63553   2
  10   2  14 78.7603 7.68411   7
 -10   2 -14 78.3875 8.02024   2
  10  -2 -14 103.220 9.89761   1
 -11   2  14 14.5096 5.98565   2
  11  -2  14 13.3050 4.36147   7
 -11   2  14 14.0872 5.42187   7
 -11  -2 -14 16.2980 5.73000   1
  11   2 -14 7.51697 5.01600   7
  11  -2  14 14.0522 5.87387   1
  11   2 -14 9.72181 5.31339   2
 -11  -2  14 7.27969 3.96989   7
  11   2  14 11.4548 5.13509   7
  11   2  14 17.1069 6.00279   2
  11  -2 -14 10.6891 5.93198   1
  11  -2 -14 16.2697 4.76605   7
 -11  -2  14 7.28293 5.38562   1
  12  -2  14 2.79011 4.24890   7
 -12  -2 -14 3.06408 5.10879   1
  12   2 -14 10.8302 5.04090   7
  12   2 -14 2.28143 5.05356   2
 -12   2  14 -2.1293 4.61598   7
  12  -2  14 1.48209 5.24223   1
 -12  -2  14 -1.7488 5.07253   1
  12   2  14 4.47863 5.10706   7
  12   2  14 -0.9426 4.93705   2
 -12  -2  14 4.48315 3.99843   7
  12  -2 -14 8.19020 4.27382   7
  12  -2 -14 -1.2311 5.43365   1
  13  -2  14 212.499 13.9626   1
 -13  -2 -14 215.931 13.5249   1
  13  -2  14 219.389 11.0352   7
  13   2 -14 221.091 12.8910   7
 -13   2  14 217.326 13.1182   7
 -13  -2  14 214.403 14.2063   1
  13   2  14 203.523 12.8655   7
 -13  -2  14 220.564 10.2763   7
  13  -2 -14 217.183 14.2890   1
  13  -2 -14 223.951 10.7977   7
  13   2  14 244.861 14.4265   2
  14  -2  14 196.270 10.9678   7
 -14  -2 -14 167.327 13.0337   1
  14  -2  14 204.061 14.1850   1
 -14   2  14 177.106 12.6920   7
  14   2 -14 202.393 12.8268   7
  14   2  14 185.195 12.7635   7
  14  -2 -14 205.945 10.6515   7
  14  -2 -14 154.171 13.5882   1
 -14  -2  14 197.088 10.4227   7
 -14  -2  14 172.738 13.4917   1
   0   3  14 2.23236 3.07823   2
   0  -3  14 -0.2463 2.91653   1
   0  -3 -14 0.25290 4.35018   3
   0   3 -14 -0.9192 2.98017   2
  -1   3  14 250.678 10.1599   2
   1   3 -14 255.830 10.2330   2
  -1  -3 -14 238.186 10.1539   1
   1  -3  14 244.822 10.2033   1
   1   3  14 260.607 10.2750   2
   1  -3 -14 238.201 10.2502   1
  -1   3 -14 242.506 9.89874   2
   1  -3 -14 241.000 11.1550   3
  -1  -3  14 233.977 10.0483   1
  -2  -3 -14 1.37982 3.31884   1
   2  -3  14 3.42447 3.18850   1
  -2   3  14 4.43521 3.43594   2
   2   3 -14 5.39800 3.41960   2
  -2   3 -14 4.81812 2.98300   2
   2  -3 -14 5.20428 3.52970   1
   2   3  14 6.49302 3.50336   2
  -2  -3  14 5.77083 3.45481   1
   3   3 -14 34.5062 5.09488   2
   3  -3  14 30.7883 4.73375   1
  -3  -3 -14 19.6030 4.34654   1
  -3   3  14 26.7399 4.74837   2
  -3   3 -14 29.0325 4.63147   2
   3  -3 -14 23.5102 4.75235   1
  -3  -3  14 31.5144 5.23698   1
   3   3  14 31.2640 4.67107   2
   4  -3  14 124.848 8.03714   1
  -4  -3 -14 132.049 8.11365   1
  -4   3  14 107.579 8.06087   2
   4   3 -14 116.466 7.96808   2
  -4   3 -14 128.458 7.95762   2
   4   3  14 114.923 7.82137   2
  -4  -3  14 133.275 8.36896   1
   4  -3 -14 109.353 8.02692   1
  -5   3  14 3.30923 4.01885   2
  -5  -3 -14 4.77012 3.67723   1
   5   3 -14 5.86063 3.89457   2
   5  -3  14 7.66483 4.02905   1
   5   3  14 4.57429 3.73198   2
  -5   3 -14 7.60188 3.74500   2
  -5  -3  14 9.11499 4.19265   1
   5  -3 -14 11.0744 4.42471   1
  -5  -3  14 8.10142 4.77075   3
  -6  -3 -14 88.4810 7.58310   1
   6   3 -14 86.9944 7.79902   2
   6  -3  14 73.5970 7.06429   1
  -6   3  14 70.4516 7.15597   2
  -6   3 -14 93.7131 7.48737   2
   6  -3 -14 80.6895 7.72828   1
   6   3  14 82.6701 7.33741   2
  -6  -3  14 91.8238 8.29452   1
   7   3 -14 174.665 10.3025   2
  -7  -3 -14 160.247 9.87358   1
  -7   3  14 152.181 10.3843   2
   7  -3  14 165.383 10.0621   1
   7  -3 -14 175.187 10.7041   1
  -7  -3  14 156.724 10.3754   1
   7   3  14 168.791 9.91159   2
  -7   3 -14 158.856 9.64081   2
   8  -3  14 2.52154 4.00728   1
   8   3 -14 -2.5630 4.31858   2
  -8   3  14 0.94093 4.62464   2
  -8  -3 -14 2.84996 4.29490   1
   8  -3 -14 -1.8894 4.54529   1
  -8   3 -14 -0.3879 3.93986   2
  -8  -3  14 -8.0510 3.67232   1
   8   3  14 2.53059 4.13282   2
   9  -3  14 51.5150 7.02794   1
  -9  -3 -14 62.6436 7.56772   1
  -9   3  14 79.0035 8.35896   2
   9   3 -14 54.0626 7.09090   2
  -9   3 -14 54.1265 6.84597   2
   9   3  14 54.2436 6.91014   2
   9  -3 -14 53.6644 7.70354   1
  -9  -3  14 56.9702 7.78456   1
  10   3 -14 7.95238 4.94264   2
 -10   3  14 10.7392 5.44003   2
  10  -3  14 8.97091 4.99749   1
 -10  -3 -14 9.31844 5.11526   1
 -10   3 -14 2.89080 4.33595   2
  10   3  14 2.55633 4.88974   2
 -10  -3  14 1.20907 4.74368   1
  10  -3 -14 6.65172 5.65291   1
  11  -3  14 701.378 22.7006   1
  11   3 -14 722.824 22.7265   2
 -11   3  14 721.996 23.1984   2
 -11   3  14 712.629 21.7567   7
 -11  -3 -14 686.983 22.4435   1
  11  -3 -14 649.666 23.0214   1
 -11   3 -14 695.505 21.8445   2
 -11  -3  14 660.430 23.0089   1
  11   3  14 719.705 22.5376   2
 -12  -3 -14 11.1383 5.62287   1
  12   3 -14 5.15625 5.37104   2
 -12   3  14 -1.0451 5.15934   7
  12   3 -14 14.5487 6.33736   7
  12  -3  14 1.76192 5.23376   1
 -12   3  14 7.78299 5.94530   2
 -12  -3 -14 -0.4864 6.86108   3
  12  -3 -14 5.61176 5.80520   1
 -12  -3  14 -8.2919 4.52449   1
 -12   3 -14 3.41665 5.01127   2
  12   3  14 7.58547 5.71170   2
 -13  -3 -14 18.1965 6.23818   1
  13   3 -14 3.21536 5.56834   2
 -13   3  14 17.7904 6.53027   2
  13  -3  14 17.8320 6.49318   1
  13   3 -14 9.00939 5.62625   7
 -13  -3 -14 10.7746 7.61863   3
 -13   3  14 5.71858 5.75250   7
 -13  -3  14 5.36778 5.97909   1
  13  -3 -14 12.2338 6.60794   1
  13   3  14 3.82572 5.82318   2
   0  -4 -14 8.95732 5.14370   3
   0  -4  14 7.55557 3.61362   1
   0  -4 -14 7.94405 3.41147   1
   0   4 -14 7.03127 3.52007   2
   0   4  14 2.75074 3.37232   2
  -1  -4 -14 53.4990 5.57717   1
   1   4 -14 55.7617 5.81206   2
  -1  -4 -14 39.6106 6.99927   3
   1  -4  14 52.2469 5.73042   1
  -1   4  14 35.4358 5.06462   2
   1   4  14 35.4032 4.94452   2
  -1  -4  14 52.7858 5.86105   1
  -1   4 -14 44.7015 5.30481   2
  -2  -4 -14 26.8516 6.85594   3
  -2  -4 -14 24.0787 4.60928   1
  -2   4  14 23.6928 4.71962   2
   2  -4  14 23.7092 4.44826   1
   2   4 -14 17.3773 4.13579   2
  -2   4 -14 22.3169 4.43188   2
   2  -4 -14 27.7314 4.86022   1
  -2  -4  14 14.3799 4.23451   1
   2   4  14 19.2733 4.33694   2
   3   4 -14 511.949 15.4159   2
  -3  -4 -14 447.955 19.4588   3
   3  -4  14 470.399 14.9893   1
  -3   4  14 462.830 15.0417   2
  -3  -4 -14 486.736 15.1168   1
   3   4  14 471.415 14.7118   2
  -3   4 -14 487.254 14.9043   2
   3  -4 -14 452.464 15.2216   1
  -3  -4  14 473.533 15.3727   1
  -3  -4  14 499.990 18.4573   3
  -4  -4 -14 35.0567 5.25526   1
  -4  -4 -14 32.0531 7.90232   3
  -4   4  14 38.9900 5.60375   2
   4  -4  14 26.2202 5.09114   1
   4   4 -14 39.3969 5.51520   2
  -4  -4  14 37.9202 6.90609   3
  -4   4 -14 47.6307 5.68234   2
   4  -4 -14 35.8102 5.69696   1
   4   4  14 35.9435 5.13502   2
  -4  -4  14 29.2733 5.31336   1
  -5   4  14 97.2021 8.19818   2
   5  -4  14 97.0044 7.93234   1
  -5  -4 -14 88.1704 11.6154   3
  -5  -4 -14 103.731 7.96516   1
   5   4 -14 96.2261 7.90928   2
   5   4  14 97.0888 7.68372   2
  -5  -4  14 104.414 9.71687   3
  -5  -4  14 96.1373 8.18446   1
   5  -4 -14 87.6302 7.78350   1
  -5   4 -14 105.303 7.96589   2
  -6   4  14 113.880 9.08669   2
   6   4 -14 95.5996 8.24310   2
   6  -4  14 96.6672 8.27917   1
  -6  -4 -14 98.2048 12.4399   3
  -6  -4 -14 126.698 8.54935   1
  -6  -4  14 129.997 10.7397   3
  -6   4 -14 107.219 8.38004   2
   6  -4 -14 116.738 9.34225   1
   6   4  14 116.068 8.52348   2
  -6  -4  14 124.274 9.36535   1
   7   4 -14 3.02206 4.06119   2
  -7  -4 -14 6.68227 4.55488   1
   7  -4  14 5.38975 4.16357   1
  -7   4  14 -4.8642 4.14423   2
  -7  -4 -14 5.76689 7.92600   3
   7   4  14 2.40080 4.01564   2
  -7  -4  14 4.97635 4.46403   1
  -7   4 -14 8.74402 4.27636   2
   7  -4 -14 2.44380 4.45515   1
   8  -4  14 66.9850 7.52793   1
  -8  -4 -14 77.4025 11.9246   3
   8   4 -14 74.9705 7.89447   2
  -8  -4 -14 65.5260 7.44343   1
  -8   4  14 65.7103 8.06987   2
  -8   4 -14 70.2188 7.54162   2
   8  -4 -14 65.3340 7.99636   1
   8   4  14 62.5217 7.36046   2
  -8  -4  14 66.6331 7.76713   1
  -9   4  14 270.127 13.8513   2
   9  -4  14 274.362 13.0088   1
  -9  -4 -14 249.732 12.5723   1
  -9  -4 -14 264.824 18.7984   3
   9   4 -14 266.700 13.4339   2
   9  -4 -14 237.439 13.3058   1
  -9   4 -14 240.227 12.4532   2
   9   4  14 262.734 12.7539   2
  -9  -4  14 238.045 13.0988   1
 -10  -4 -14 14.9763 5.47020   1
 -10   4  14 19.7649 6.13639   2
  10   4 -14 6.14428 5.34234   2
 -10  -4 -14 23.7571 9.18754   3
  10  -4  14 10.8730 5.55323   1
  10   4  14 25.0326 6.19197   2
 -10   4 -14 8.83171 5.09556   2
  10  -4 -14 8.91882 5.77101   1
 -10  -4  14 16.1489 5.97047   1
 -11  -4 -14 338.460 20.7597   3
  11  -4  14 372.253 16.4387   1
 -11  -4 -14 358.199 15.7337   1
  11   4 -14 404.502 16.9700   2
 -11   4  14 372.093 16.9476   2
  11  -4 -14 353.132 16.7477   1
 -11  -4  14 354.354 16.5227   1
  11   4  14 400.446 16.7966   2
 -11   4 -14 383.575 16.1101   2
 -12  -4 -14 102.357 9.97759   1
 -12  -4 -14 120.624 13.9109   3
 -12   4  14 142.464 12.1796   2
  12   4 -14 115.101 10.7401   2
  12  -4  14 110.188 10.3690   1
 -12   4 -14 109.486 10.3750   2
 -12  -4  14 101.086 10.5157   1
  12  -4 -14 122.821 11.4811   1
  12   4  14 102.470 10.5282   2
   0  -5 -14 1.11005 3.53839   1
   0   5  14 -0.2172 3.46189   2
   0  -5  14 6.01949 3.71338   1
   0   5 -14 6.72507 3.86073   2
   1  -5  14 152.974 8.90039   1
  -1  -5 -14 200.863 12.7305   3
  -1  -5 -14 147.727 8.80604   1
  -1   5  14 174.935 9.24323   2
   1   5 -14 156.232 8.98025   2
  -1   5 -14 172.400 9.08090   2
  -1  -5  14 165.097 12.8296   3
  -1  -5  14 175.005 9.24748   1
   1   5  14 178.938 9.15032   2
   2   5 -14 1.79228 3.70904   2
   2  -5  14 -4.4360 3.18351   1
  -2  -5 -14 1.82277 3.39463   1
  -2  -5 -14 -5.3909 5.25145   3
  -2   5  14 -1.9757 3.60876   2
  -2  -5  14 5.01469 3.79968   1
   2  -5 -14 9.62773 4.17633   1
  -2   5 -14 6.56135 3.79980   2
  -2  -5  14 -4.1991 5.25219   3
   2   5  14 -0.8802 3.34737   2
  -3  -5 -14 7.99529 6.48356   3
   3  -5  14 8.67023 4.07942   1
  -3  -5 -14 16.2100 4.56344   1
  -3   5  14 5.92149 4.17243   2
   3   5 -14 10.8446 4.20217   2
  -3  -5  14 24.9380 6.96920   3
   3   5  14 10.6764 4.16596   2
  -3   5 -14 10.1343 4.10895   2
   3  -5 -14 9.60395 4.14126   1
  -3  -5  14 6.37166 4.07074   1
  -4   5  14 87.8291 7.77225   2
  -4  -5 -14 102.659 7.76092   1
  -4  -5 -14 90.0176 11.4519   3
   4  -5  14 102.128 8.11464   1
   4   5 -14 104.081 8.32999   2
  -4  -5  14 102.929 8.39569   1
  -4   5 -14 100.934 7.98107   2
   4   5  14 87.7137 7.34901   2
   4  -5 -14 106.014 8.54917   1
  -4  -5  14 98.3773 10.5050   3
  -5  -5 -14 7.91618 7.29352   3
  -5  -5 -14 10.2445 4.26028   1
   5  -5  14 12.8929 4.55908   1
   5   5 -14 12.0021 4.61860   2
  -5   5  14 16.1159 4.87139   2
  -5   5 -14 6.77302 4.14449   2
   5  -5 -14 8.52866 4.44001   1
  -5  -5  14 7.91645 6.14463   3
   5   5  14 13.7641 4.54810   2
  -5  -5  14 14.6979 4.82817   1
   6  -5  14 59.5353 7.06507   1
  -6  -5 -14 51.3285 10.4738   3
   6   5 -14 59.9605 7.21195   2
  -6   5  14 66.5567 7.52269   2
  -6  -5 -14 62.5511 7.02133   1
  -6   5 -14 59.0171 6.72455   2
  -6  -5  14 63.0021 9.01477   3
  -6  -5  14 64.6457 7.47187   1
   6   5  14 55.1011 6.60064   2
   6  -5 -14 75.4203 7.86138   1
  -7   5  14 94.3119 8.84498   2
   7  -5  14 119.499 9.23318   1
  -7  -5 -14 101.464 8.63315   1
   7   5 -14 106.975 9.07307   2
  -7  -5 -14 113.831 13.7313   3
  -7   5 -14 103.398 8.64212   2
  -7  -5  14 111.097 9.50752   1
   7   5  14 95.8002 8.32192   2
   7  -5 -14 122.560 9.95744   1
  -8  -5 -14 -7.8931 7.88117   3
   8  -5  14 9.60355 4.77285   1
  -8   5  14 3.75023 4.89088   2
  -8  -5 -14 4.67472 4.60474   1
   8   5 -14 4.26754 4.97078   2
   8   5  14 4.68168 4.43422   2
  -8   5 -14 -4.1644 3.99705   2
  -8  -5  14 3.11329 4.99741   1
   8  -5 -14 0.32728 4.75688   1
  -9  -5 -14 57.8407 11.8590   3
  -9  -5 -14 37.6215 6.52758   1
  -9   5  14 38.8849 7.42892   2
   9   5 -14 42.7934 7.00908   2
   9  -5  14 47.9191 7.21081   1
   9  -5 -14 41.3685 7.28813   1
   9   5  14 49.7266 7.04121   2
  -9  -5  14 57.2215 8.14866   1
  -9   5 -14 40.2240 6.55812   2
 -10   5  14 13.7224 5.85266   2
  10   5 -14 -5.4325 4.78139   2
 -10  -5 -14 3.73165 4.99173   1
  10  -5  14 4.70522 4.82592   1
 -10  -5 -14 12.4496 8.12019   3
  10  -5 -14 2.85348 5.42482   1
 -10   5 -14 -0.7740 4.57179   2
  10   5  14 6.55399 5.06590   2
 -10  -5  14 2.69768 5.13556   1
 -11  -5 -14 458.513 18.0337   1
 -11   5  14 473.501 19.3039   2
 -11  -5 -14 529.833 25.7844   3
  11   5 -14 451.166 18.5073   2
  11  -5  14 463.157 18.5619   1
  11  -5 -14 487.734 19.5579   1
 -11  -5  14 464.102 19.0311   1
  11   5  14 486.838 18.5760   2
 -11   5 -14 494.959 18.4614   2
   0   6  14 25.2322 4.93059   2
   0  -6  14 19.0402 4.80919   1
   0  -6 -14 18.3417 4.68816   1
   0   6 -14 21.8126 4.56955   2
  -1   6  14 73.6633 6.88590   2
   1   6 -14 60.7411 6.53245   2
   1  -6  14 80.7540 7.30372   1
  -1  -6 -14 77.6082 6.88583   1
  -1  -6 -14 81.6464 10.1396   3
  -1  -6  14 80.1572 7.07566   1
  -1  -6  14 86.4749 11.3307   3
  -1   6 -14 54.6927 6.04032   2
   1  -6 -14 76.8630 7.09286   1
   1   6  14 79.6552 6.82145   2
  -2  -6 -14 66.8494 9.79880   3
  -2  -6 -14 68.9194 6.77819   1
   2  -6  14 56.8797 6.71093   1
  -2   6  14 71.8238 6.98615   2
   2   6 -14 59.8191 6.39574   2
   2   6  14 65.7874 6.65115   2
  -2  -6  14 51.7239 6.36648   1
  -2   6 -14 60.8738 6.45395   2
  -2  -6  14 57.9920 9.49370   3
   3  -6  14 -1.2808 3.86658   1
  -3  -6 -14 -0.4581 3.57054   1
  -3   6  14 -0.9747 3.88919   2
  -3  -6 -14 11.5274 6.71485   3
   3   6 -14 -2.8927 3.86519   2
  -3  -6  14 8.14298 6.51764   3
  -3  -6  14 0.93539 3.89421   1
  -3   6 -14 -0.4896 3.68904   2
   3   6  14 1.71300 3.99590   2
   3  -6 -14 -1.3532 3.94583   1
  -4   6  14 25.8704 5.47911   2
   4  -6  14 32.3736 5.54623   1
  -4  -6 -14 31.5473 8.93123   3
  -4  -6 -14 29.0634 5.19203   1
   4   6 -14 35.3493 5.91421   2
  -4   6 -14 29.2429 5.46111   2
  -4  -6  14 28.5974 7.88343   3
   4   6  14 31.1101 5.43041   2
   4  -6 -14 31.3104 5.73442   1
  -4  -6  14 32.6162 5.88997   1
  -5   6  14 316.880 13.6925   2
  -5  -6 -14 354.164 13.5932   1
   5   6 -14 329.264 13.8512   2
   5  -6  14 352.532 13.8372   1
  -5  -6 -14 292.680 19.1760   3
   5   6  14 326.740 13.0297   2
  -5  -6  14 329.670 17.5455   3
   5  -6 -14 345.644 13.9505   1
  -5   6 -14 347.641 13.5556   2
  -5  -6  14 340.055 13.6321   1
  -6  -6 -14 183.582 16.8509   3
   6   6 -14 205.439 11.6671   2
  -6   6  14 227.473 12.1193   2
   6  -6  14 213.799 11.5180   1
  -6  -6 -14 203.659 10.9412   1
  -6  -6  14 251.305 16.0069   3
  -6  -6  14 236.475 12.1701   1
  -6   6 -14 211.203 11.0926   2
   6  -6 -14 214.352 11.8859   1
   6   6  14 235.809 11.6206   2
   7  -6  14 184.727 10.9365   1
  -7   6  14 188.988 11.8671   2
  -7  -6 -14 201.448 11.1267   1
  -7  -6 -14 175.969 17.2479   3
   7   6 -14 177.613 11.5685   2
  -7  -6  14 176.616 14.3451   3
   7   6  14 199.737 11.1170   2
  -7  -6  14 170.199 11.0297   1
  -7   6 -14 186.483 11.1000   2
   7  -6 -14 179.708 11.6002   1
  -8  -6 -14 26.7050 5.80460   1
  -8  -6 -14 8.82955 9.12602   3
   8   6 -14 11.2594 5.78144   2
  -8   6  14 15.5066 5.66545   2
   8  -6  14 10.0576 5.19042   1
   8   6  14 6.84436 4.78766   2
  -8  -6  14 22.3687 6.29732   1
   8  -6 -14 8.89235 5.21196   1
  -8   6 -14 17.8067 5.34468   2
   0   7 -14 0.56432 3.91126   2
   0   7  14 4.85247 4.18247   2
   1  -7  14 115.860 9.60885   1
   1   7 -14 97.1656 7.92205   2
  -1   7  14 110.791 8.57533   2
   1   7  14 122.309 8.78193   2
  -1  -7  14 123.163 13.7626   3
  -1   7 -14 108.355 8.61615   2
  -2   7  14 4.56087 4.39066   2
   2   7 -14 -0.2478 4.11742   2
  -2  -7 -14 -13.740 5.59729   3
   2  -7  14 0.84478 4.19881   1
   2   7  14 -1.0877 3.86490   2
  -2  -7  14 4.12349 7.40795   3
  -2   7 -14 1.47553 4.00704   2
   3  -7  14 10.4287 4.73544   1
   3   7 -14 14.5121 5.09708   2
  -3  -7 -14 -13.072 6.32097   3
  -3   7  14 11.5595 4.90574   2
  -3   7 -14 13.2790 4.64563   2
   3   7  14 20.8015 5.00494   2
  -3  -7  14 0.80533 7.26850   3
   4   7 -14 39.4700 6.11257   2
  -4  -7 -14 43.5346 10.2906   3
  -4   7  14 45.4252 6.44744   2
   4  -7  14 47.7003 6.51597   1
  -4   7 -14 55.2472 6.80946   2
   4   7  14 55.8135 6.56436   2
  -4  -7  14 66.4812 10.5116   3
   5   7 -14 1.66283 4.67660   2
   5  -7  14 10.8371 4.94205   1
  -5  -7 -14 1.80972 7.61483   3
  -5  -7  14 5.05980 6.97871   3
  -5  -7  14 5.96815 4.59148   1
   5   7  14 9.21257 4.70922   2
  -5   7 -14 -3.5010 4.14731   2
   5  -7 -14 -6.9405 5.62572   5
   0   0  15 -4.0524 2.49667   7
   0   0  15 4.83050 3.23292   2
   0   0 -15 2.16940 2.98762   2
   0   0 -15 2.75181 3.25347   1
   0   0  15 1.19876 3.10905   1
  -1   0  15 327.777 11.0288   7
   1   0  15 308.526 10.7019   7
   1   0 -15 293.862 10.9465   2
  -1   0  15 308.701 11.7330   1
  -1   0  15 308.261 11.3029   2
  -1   0 -15 295.671 10.9168   2
   1   0  15 305.029 11.1302   2
  -1   0 -15 301.630 11.5183   1
   1   0  15 293.937 11.4570   1
  -2   0  15 105.518 7.43199   2
   2   0  15 100.937 7.07998   2
  -2   0  15 92.7518 6.88033   7
   2   0  15 111.223 6.81439   7
   2   0 -15 90.9137 7.49830   1
   2   0 -15 89.6318 6.87286   2
   2   0  15 91.3002 7.08436   1
  -2   0  15 98.5377 7.58351   1
  -2   0 -15 93.5789 7.46178   1
  -2   0 -15 93.1349 6.59964   2
  -3   0 -15 15.6106 4.30938   1
   3   0 -15 15.9794 4.43511   1
  -3   0  15 8.62035 3.55345   7
  -3   0  15 12.7634 4.32350   1
   3   0  15 16.3083 3.70023   7
   3   0  15 15.2423 4.19388   1
  -3   0  15 12.1457 3.99756   2
   3   0  15 19.0626 4.08872   2
   3   0 -15 13.5380 3.79922   2
  -4   0 -15 6.91965 3.64211   1
   4   0  15 6.09122 3.61109   2
  -4   0  15 5.68020 3.67034   2
  -4   0  15 3.67906 3.76133   1
   4   0 -15 2.18125 3.60453   1
   4   0  15 4.65823 3.56976   1
  -4   0  15 -2.8290 3.13990   7
   4   0  15 3.56679 3.26414   7
  -5   0  15 95.2916 8.21754   1
  -5   0  15 100.790 7.49735   7
   5   0  15 114.040 7.87204   2
   5   0 -15 102.593 8.40235   1
   5   0  15 107.626 8.06342   1
   5   0 -15 104.771 7.41132   7
  -5   0 -15 103.539 7.91653   1
   5   0  15 93.6261 7.02767   7
  -6   0  15 56.5660 6.12873   7
   6   0 -15 60.9138 6.31625   7
  -6   0  15 52.5180 6.84136   1
  -6   0 -15 58.0562 6.58996   1
   6   0  15 69.6704 6.19744   7
   6   0 -15 62.8356 7.17208   1
   6   0  15 59.5035 6.78724   1
  -7   0 -15 729.554 21.4204   1
   7   0  15 778.566 21.6091   1
   7   0  15 745.594 19.2896   7
  -7   0  15 759.130 19.9722   7
  -7   0  15 735.024 21.8982   1
   7   0 -15 727.545 19.6913   7
   7   0 -15 714.734 21.8042   1
   8   0 -15 113.546 8.53207   7
  -8   0 -15 124.155 9.45096   1
   8   0  15 122.205 8.54730   7
  -8   0  15 132.598 10.0781   1
   8   0 -15 142.095 10.3732   1
  -8   0  15 127.754 8.88732   7
   8   0  15 129.034 9.74559   1
   9   0  15 183.533 11.2167   1
   9   0 -15 184.386 11.9056   1
   9   0  15 175.445 9.81858   7
  -9   0  15 148.569 9.87177   7
   9   0 -15 175.128 10.1477   7
  -9   0  15 183.638 11.7036   1
  -9   0 -15 203.876 11.7697   1
  10   0 -15 -6.6498 3.82617   7
 -10   0  15 -1.4447 4.10092   7
 -10   0 -15 -3.8181 4.41034   1
  10   0  15 3.04279 4.69799   1
 -10   0  15 0.41482 4.98541   1
  10   0  15 -2.1228 3.97372   7
  10   0 -15 3.87243 5.24039   1
 -11   0  15 48.9020 7.93609   1
  11   0 -15 46.7407 6.62082   7
  11   0  15 46.0049 7.58890   1
  11   0  15 44.3305 6.44456   7
 -11   0  15 50.9866 6.77733   7
  11   0 -15 42.1315 7.46336   1
 -11   0 -15 41.5946 7.08493   1
 -12   0  15 8.50579 6.11889   1
  12   0  15 -7.8626 4.86425   1
  12   0  15 3.21425 4.88789   7
 -12   0  15 4.50743 4.74980   7
  12   0 -15 10.2903 6.13826   1
  12   0 -15 7.83060 4.93364   7
 -12   0 -15 12.3727 5.57025   1
  13   0 -15 8.93900 5.17081   7
  13   0 -15 18.1444 7.04687   1
 -13   0 -15 26.1762 6.83081   1
 -13   0  15 18.1088 6.72102   1
 -13   0  15 16.0052 5.58798   7
  13   0  15 8.24091 5.33910   7
 -14   0  15 -3.5699 5.57977   1
 -14   0  15 15.5555 5.41675   7
 -14   0 -15 7.37492 5.97440   1
  14   0  15 4.00955 5.05074   7
  14   0 -15 4.08325 5.15470   7
   0   1  15 1112.02 24.4441   7
   0   1  15 1130.84 25.4743   2
   0  -1  15 1105.76 23.9549   7
   0   1 -15 1128.69 25.3452   2
   0   1 -15 1130.98 26.4559   1
   0   1  15 1115.45 26.1848   1
   0  -1  15 1099.52 26.3545   1
  -1   1  15 1.08353 3.00489   7
  -1   1  15 0.87571 3.29058   1
   1  -1  15 3.42652 2.92798   7
   1   1 -15 1.89859 3.00488   2
   1  -1  15 1.15005 3.24248   1
  -1  -1 -15 1.34002 3.45780   1
  -1   1  15 1.10269 3.10256   2
   1   1  15 3.47031 3.00588   2
   1  -1 -15 -1.8429 3.34665   1
   1   1  15 7.35361 3.50148   1
  -1   1 -15 -6.0150 2.29001   2
  -1   1 -15 1.77273 3.29190   1
  -1  -1  15 6.70261 3.14961   7
   1   1  15 3.42714 3.15060   7
  -1  -1  15 6.04487 3.46122   1
  -2   1  15 2.60287 3.22742   2
   2   1 -15 7.70458 3.66925   1
  -2   1  15 9.02551 3.71742   1
   2  -1  15 -1.1580 2.78280   7
   2   1 -15 3.62753 3.22901   2
  -2   1  15 3.10871 2.85966   7
   2  -1  15 3.28744 3.36796   1
  -2  -1 -15 6.19889 3.54154   1
  -2   1 -15 5.35942 3.26244   2
  -2  -1  15 4.43808 3.50954   1
   2   1  15 0.94366 3.37324   1
  -2   1 -15 4.80224 3.57526   1
   2   1  15 -1.7235 2.92317   2
   2  -1 -15 4.94186 3.54990   1
   2   1  15 3.17279 3.04755   7
  -2  -1  15 0.56183 3.20124   7
  -3   1  15 152.929 8.80424   2
   3   1 -15 156.658 8.95135   1
   3  -1  15 144.914 7.70129   7
  -3   1  15 149.224 8.08161   7
  -3   1  15 161.197 9.13676   1
  -3  -1 -15 153.872 8.62578   1
   3  -1  15 153.098 8.80093   1
   3   1 -15 153.612 8.40661   2
   3  -1 -15 156.825 9.15421   1
   3   1  15 163.487 8.66984   2
  -3  -1  15 156.438 9.02050   1
   3  -1 -15 158.260 7.90246   7
  -3  -1  15 143.647 7.71878   7
   3   1  15 158.688 8.59950   1
  -3   1 -15 157.213 8.78404   1
  -3   1 -15 142.377 8.08242   2
   3   1  15 146.952 7.81390   7
  -4   1  15 3.02718 3.11323   7
   4  -1  15 2.83766 3.56432   1
  -4   1  15 6.04471 3.58256   2
   4  -1  15 10.2581 3.47001   7
  -4   1  15 7.48220 4.09993   1
  -4  -1 -15 4.16255 3.62727   1
   4   1 -15 4.97133 3.43298   2
   4   1 -15 4.87582 3.91294   1
   4   1  15 4.35331 3.89829   1
   4  -1 -15 8.87757 4.25129   1
   4   1  15 7.12439 3.48638   7
  -4  -1  15 9.85479 3.94896   1
  -4   1 -15 11.6631 4.14040   1
   4  -1 -15 11.7319 3.57042   7
  -4  -1  15 2.49244 3.34136   7
   4   1  15 7.79876 3.76469   2
  -4   1 -15 7.24914 3.50108   2
  -5   1  15 0.39522 3.85441   1
  -5  -1 -15 -1.5329 3.47642   1
  -5   1  15 4.53213 3.59410   7
   5  -1  15 4.58704 3.24479   7
   5   1 -15 0.26035 3.41998   1
   5   1 -15 -2.3144 3.37906   2
   5  -1  15 3.83031 3.73113   1
  -5   1  15 -6.3223 3.32148   2
  -5  -1  15 -0.2158 3.66057   1
   5   1  15 -2.5144 3.29024   2
   5   1  15 -4.9756 3.56351   1
  -5  -1  15 1.54461 3.34361   7
   5   1  15 0.46859 3.28420   7
   5  -1 -15 -7.7539 3.12744   1
  -5   1 -15 2.21909 3.31006   2
  -5   1 -15 4.20255 3.77190   1
   5  -1 -15 1.63015 3.24904   7
  -6   1  15 6.75890 3.88256   7
   6  -1  15 0.04745 3.65173   1
  -6   1  15 3.96091 3.99244   2
   6   1 -15 4.92831 3.99275   1
   6   1 -15 5.12298 3.94334   2
  -6   1  15 -3.6811 3.50174   1
  -6  -1 -15 0.56375 3.78360   1
   6  -1  15 6.48229 3.45712   7
  -6  -1  15 8.63196 4.48403   1
  -6   1 -15 1.69037 3.56903   2
   6   1  15 4.00411 3.74371   7
   6   1  15 10.4496 4.30110   1
  -6  -1  15 -1.1056 3.20014   7
   6  -1 -15 2.33657 3.31725   7
  -6   1 -15 0.78811 3.65086   1
   6  -1 -15 2.89668 4.12567   1
   6   1  15 5.32381 3.83142   2
   7   1 -15 191.255 10.7548   2
   7  -1  15 192.096 10.8614   1
  -7  -1 -15 207.402 10.9997   1
  -7   1  15 222.591 11.5053   2
   7   1 -15 201.895 10.3964   7
   7   1 -15 239.865 11.9463   1
  -7   1  15 202.914 10.2393   7
  -7   1  15 183.107 11.1803   1
   7  -1  15 201.283 9.37003   7
   7   1  15 196.879 10.5657   2
  -7  -1  15 204.505 9.79906   7
   7  -1 -15 199.853 11.4787   1
   7   1  15 199.740 9.72368   7
   7  -1 -15 198.449 9.72138   7
  -7   1 -15 201.277 10.8991   1
  -7   1 -15 182.577 10.1953   2
  -7  -1  15 209.852 11.5979   1
   8   1 -15 59.7778 7.88367   1
  -8   1  15 50.4368 6.48364   7
   8   1 -15 47.7892 6.81868   2
   8  -1  15 57.5578 6.05902   7
   8  -1  15 46.0274 6.77760   1
   8   1 -15 58.6222 6.70469   7
  -8   1  15 54.5901 6.89979   2
  -8  -1 -15 50.9235 6.97337   1
  -8   1  15 60.5716 7.67329   1
   8   1  15 61.7823 7.16984   2
   8  -1 -15 53.1520 7.49026   1
  -8   1 -15 63.7393 7.31501   1
   8   1  15 57.5534 6.33831   7
   8  -1 -15 50.7422 5.86405   7
  -8  -1  15 61.9455 6.25857   7
  -8  -1  15 53.3656 7.47559   1
  -9   1  15 7.01552 4.55273   7
   9  -1  15 4.55170 3.95832   7
   9  -1  15 4.18348 4.85540   1
   9   1 -15 9.03882 4.64031   7
  -9  -1 -15 5.81004 4.99305   1
   9  -1 -15 7.76807 4.23806   7
   9   1  15 3.72150 4.33432   2
   9  -1 -15 10.7473 5.62338   1
   9   1  15 1.44971 4.07725   7
  -9   1 -15 0.36236 4.36520   1
  -9  -1  15 8.28513 4.33116   7
  -9  -1  15 2.77823 4.87037   1
  10   1 -15 72.7145 7.67904   7
  10  -1  15 61.0816 6.62190   7
  10  -1  15 58.5020 7.66825   1
 -10   1  15 73.5673 7.83615   7
 -10  -1 -15 60.7751 8.06077   1
  10  -1 -15 67.1969 6.95845   7
 -10  -1  15 70.2594 8.62445   1
 -10   1 -15 70.8017 8.46186   1
 -10  -1  15 72.6471 7.12921   7
  10   1  15 69.4954 7.48346   7
  10  -1 -15 71.0061 8.71507   1
  11  -1  15 133.979 9.43632   7
 -11  -1 -15 150.569 11.3371   1
  11  -1  15 141.817 11.4639   1
 -11   1  15 151.994 10.6155   7
  11   1 -15 134.057 10.0920   7
  11  -1 -15 147.202 12.3649   1
  11   1  15 150.717 10.2513   7
  11  -1 -15 142.643 9.71607   7
 -11  -1  15 147.905 9.86196   7
 -11  -1  15 137.787 12.0016   1
  12  -1  15 309.295 13.0336   7
 -12   1  15 296.997 13.8643   7
  12   1 -15 276.376 13.5088   7
  12  -1  15 272.478 14.9613   1
 -12  -1 -15 266.175 14.8169   1
  12  -1 -15 276.558 15.7028   1
 -12  -1  15 279.931 12.4055   7
  12   1  15 269.810 13.5238   7
 -12  -1  15 262.372 15.2653   1
  12  -1 -15 292.623 12.7523   7
  13  -1  15 112.692 10.9101   1
  13  -1  15 100.229 8.74853   7
 -13  -1 -15 94.8906 10.3159   1
 -13   1  15 109.533 9.75718   7
  13   1 -15 97.7158 9.34435   7
  13  -1 -15 105.530 8.82413   7
 -13  -1  15 101.526 8.58205   7
 -13  -1  15 117.109 11.2573   1
  13   1  15 104.439 9.64188   7
  13  -1 -15 100.931 10.8777   1
  14  -1  15 16.7574 5.57809   7
 -14   1  15 26.0167 6.42021   7
  14   1 -15 38.7697 7.06668   7
  14  -1  15 16.4769 7.05870   1
 -14  -1 -15 29.9967 7.68264   1
  14  -1 -15 14.7374 6.81924   1
  14  -1 -15 29.5638 6.05229   7
  14   1  15 25.1943 6.59390   7
 -14  -1  15 31.3810 7.73637   1
 -14  -1  15 18.0000 5.57147   7
   0  -2 -15 -0.8647 2.64926   7
   0   2  15 -1.3078 2.96056   7
   0  -2  15 4.01452 2.92846   7
   0   2  15 -2.4675 2.95739   2
   0  -2  15 -0.2288 3.06612   1
   0   2 -15 0.96331 2.86451   2
   1   2 -15 692.584 18.7472   2
   1  -2  15 754.314 16.9580   7
   1  -2  15 703.699 19.3747   1
  -1   2  15 721.637 18.0374   7
  -1  -2 -15 715.864 19.5663   1
  -1   2  15 730.169 18.9749   2
  -1  -2  15 738.665 16.9815   7
   1   2  15 728.430 17.9011   7
  -1  -2  15 720.688 19.5217   1
   1  -2 -15 703.818 19.6782   1
  -1   2 -15 706.939 18.5799   2
   1  -2 -15 702.243 16.4376   7
   1   2  15 746.011 18.9462   2
   2   2 -15 23.9949 4.41683   2
  -2   2  15 21.5918 4.06927   7
   2  -2  15 25.5625 4.83795   1
  -2  -2 -15 21.7325 4.53863   1
  -2   2  15 14.6120 4.01754   2
   2  -2  15 20.4813 3.70557   7
   2   2  15 23.0217 4.17899   7
  -2   2 -15 19.4669 4.07701   2
   2  -2 -15 21.3773 3.65824   7
  -2  -2  15 17.4839 3.54113   7
   2   2  15 19.3326 4.18771   2
  -2  -2  15 22.2227 4.63383   1
   2  -2 -15 22.3020 4.61928   1
   3  -2  15 92.2518 7.37339   1
  -3   2  15 86.4447 7.04230   2
   3  -2  15 94.6747 6.12219   7
  -3  -2 -15 78.4155 6.99605   1
   3   2 -15 88.9805 7.29839   2
  -3   2  15 96.4186 6.98067   7
   3  -2 -15 101.054 6.33494   7
  -3  -2  15 90.5714 6.23433   7
   3   2  15 82.0267 6.97968   2
   3  -2 -15 94.6058 7.69750   1
   3   2  15 85.0180 6.71403   7
  -3   2 -15 79.4055 6.67330   2
  -3  -2  15 80.4054 7.26440   1
  -4  -2 -15 125.251 8.46079   1
   4  -2  15 138.437 8.81412   1
   4   2 -15 141.655 8.50245   2
   4  -2  15 137.264 7.21505   7
  -4   2  15 131.833 8.73601   2
  -4   2  15 142.557 8.17921   7
   4   2  15 137.591 7.92859   7
   4   2  15 137.652 8.44006   2
  -4  -2  15 126.671 7.07317   7
  -4  -2  15 136.735 8.90476   1
   4  -2 -15 151.029 7.29826   7
  -4   2 -15 117.015 7.87373   2
   4  -2 -15 130.282 8.94206   1
  -5  -2 -15 5.30455 3.96295   1
  -5   2  15 7.11721 4.18116   2
   5  -2  15 9.65206 4.40770   1
   5  -2  15 5.12563 3.10634   7
  -5   2  15 0.52163 3.32446   7
   5   2 -15 8.26404 4.14640   2
   5   2  15 3.97899 3.61890   7
   5  -2 -15 3.13717 3.18615   7
   5  -2 -15 3.79773 4.03652   1
  -5  -2  15 6.43263 4.39379   1
   5   2  15 1.73111 3.43464   2
  -5   2 -15 12.0818 4.21297   2
  -5  -2  15 -1.2595 2.93801   7
   6   2 -15 425.805 14.9845   2
  -6   2  15 416.310 14.3344   7
  -6  -2 -15 403.768 14.9955   1
   6  -2  15 410.381 12.5996   7
  -6   2  15 450.071 15.5584   2
   6  -2  15 416.497 14.8630   1
   6   2  15 424.628 14.6538   2
   6   2  15 399.644 13.5816   7
   6  -2 -15 418.013 12.6241   7
  -6   2 -15 434.571 14.7342   2
  -6  -2  15 425.008 15.8072   1
   6  -2 -15 427.494 15.8887   1
  -6  -2  15 419.874 12.5350   7
   7  -2  15 89.1523 8.12463   1
  -7   2  15 124.971 8.89121   7
   7  -2  15 102.452 7.15401   7
  -7   2  15 98.8104 8.52325   2
  -7  -2 -15 104.130 8.75289   1
   7   2 -15 112.468 8.82155   2
   7  -2 -15 106.080 9.46269   1
  -7  -2  15 104.447 9.39645   1
   7  -2 -15 105.274 7.18870   7
   7   2  15 105.917 8.21547   7
  -7   2 -15 102.880 8.34694   2
   7   2  15 100.349 8.22945   2
  -7  -2  15 100.176 6.99465   7
  -8  -2 -15 259.684 12.6044   1
  -8   2  15 258.356 12.1163   7
  -8   2  15 258.981 13.2466   2
   8   2 -15 254.095 12.0243   7
   8   2 -15 253.488 12.7465   2
   8  -2  15 253.540 12.7924   1
   8  -2  15 261.458 10.4305   7
   8   2  15 286.297 12.0320   7
   8   2  15 274.442 12.7903   2
  -8   2 -15 280.220 12.3498   2
   8  -2 -15 272.550 13.5527   1
   8  -2 -15 268.507 10.6143   7
  -8  -2  15 265.434 13.3940   1
  -8  -2  15 265.942 10.3394   7
  -9  -2 -15 411.528 16.4624   1
   9  -2  15 408.624 13.4660   7
   9   2 -15 392.943 14.9947   7
  -9   2  15 420.009 16.5972   2
   9  -2  15 402.616 16.3515   1
   9   2 -15 441.447 16.6245   2
  -9   2  15 409.187 15.5940   7
  -9   2 -15 445.573 16.0014   2
   9  -2 -15 419.906 17.2491   1
   9  -2 -15 430.743 13.5232   7
   9   2  15 428.225 16.1599   2
  -9  -2  15 418.319 13.2984   7
  -9  -2  15 430.750 17.1079   1
   9   2  15 435.410 15.1717   7
  10   2 -15 79.6996 8.60116   2
  10  -2  15 69.5805 6.49811   7
  10   2 -15 84.4376 8.51677   7
 -10  -2 -15 80.9899 8.92081   1
 -10   2  15 90.8589 8.69749   7
 -10   2  15 82.9453 9.07397   2
  10  -2  15 69.8054 8.35615   1
  10  -2 -15 83.7090 6.95241   7
 -10  -2  15 80.9420 6.79888   7
  10   2  15 74.6893 7.89405   7
 -10  -2  15 91.1714 9.60328   1
  10  -2 -15 100.345 10.1623   1
 -10   2 -15 78.5509 8.27556   2
  10   2  15 56.1030 7.47578   2
 -11   2  15 476.949 17.2767   7
  11  -2  15 458.444 18.5887   1
  11   2 -15 462.291 18.0781   2
  11  -2  15 490.203 15.2188   7
 -11  -2 -15 473.334 18.5165   1
  11   2 -15 463.009 17.0923   7
 -11   2  15 476.065 18.7769   2
  11  -2 -15 443.908 18.9568   1
  11   2  15 460.788 18.1534   2
  11  -2 -15 470.027 14.8110   7
 -11  -2  15 458.390 14.2866   7
 -11  -2  15 473.805 19.1801   1
  11   2  15 458.179 16.6625   7
  12   2 -15 26.9765 6.18003   7
  12  -2  15 32.0903 5.56163   7
  12  -2  15 24.9791 6.70011   1
 -12  -2 -15 25.4289 6.75635   1
 -12   2  15 23.4543 6.16507   7
  12  -2 -15 34.8454 5.65538   7
  12  -2 -15 22.7262 7.02439   1
  12   2  15 22.3208 6.52336   2
 -12  -2  15 27.4240 5.06162   7
 -12  -2  15 23.1377 6.90308   1
  12   2  15 31.8571 6.40214   7
 -13  -2 -15 -0.8607 5.14481   1
  13  -2  15 10.0809 6.13891   1
  13   2 -15 3.85684 5.22604   7
  13  -2  15 13.1637 4.90170   7
 -13   2  15 5.70271 5.50040   7
 -13  -2  15 7.91822 4.36128   7
  13  -2 -15 14.1613 6.61617   1
  13  -2 -15 3.62138 4.50560   7
  13   2  15 1.91168 4.99867   7
 -13  -2  15 11.7675 6.48333   1
  14   2 -15 37.9168 7.29763   7
 -14   2  15 33.6854 7.33576   7
  14  -2  15 19.4742 5.53882   7
 -14  -2 -15 36.0847 7.49959   1
  14  -2  15 21.5101 6.94527   1
  14  -2 -15 46.0573 9.03356   1
  14  -2 -15 26.8437 5.45930   7
 -14  -2  15 25.9320 7.54366   1
  14   2  15 39.2957 7.66259   7
   0   3  15 859.656 21.6285   2
   0  -3  15 833.935 21.8949   1
   0   3 -15 874.121 21.4348   2
   1  -3  15 3.55730 3.61187   1
  -1  -3 -15 -1.8085 3.41703   1
   1   3 -15 6.70616 3.57354   2
  -1   3  15 2.93656 3.52114   2
  -1   3 -15 0.74530 3.34773   2
   1  -3 -15 7.04837 3.95021   1
  -1  -3  15 0.41910 3.18703   1
   1   3  15 7.95964 3.70118   2
  -2  -3 -15 1.55532 3.63377   1
  -2   3  15 -0.2918 3.51077   2
   2   3 -15 -0.4197 3.13505   2
   2  -3  15 0.27481 3.23785   1
   2   3  15 0.15461 3.30929   2
  -2  -3  15 -2.1427 3.26200   1
  -2   3 -15 4.26175 3.36329   2
   2  -3 -15 -1.0888 3.22727   1
   3   3 -15 116.879 8.04097   2
   3  -3  15 119.988 8.10611   1
  -3   3  15 130.795 8.59507   2
  -3  -3 -15 110.741 7.98585   1
   3   3  15 128.868 8.25899   2
  -3  -3  15 102.571 8.09116   1
   3  -3 -15 130.462 8.55101   1
  -3   3 -15 118.602 7.95997   2
   4  -3  15 7.05839 3.89493   1
  -4   3  15 7.93663 4.22205   2
  -4  -3 -15 4.51530 3.70977   1
   4   3 -15 0.57001 3.58622   2
   4   3  15 11.4554 4.29384   2
  -4   3 -15 8.03515 3.77077   2
   4  -3 -15 7.93259 4.18330   1
  -4  -3  15 3.85649 3.90136   1
  -5   3  15 -2.6650 3.64638   2
   5  -3  15 3.44841 3.87633   1
   5   3 -15 1.08874 3.62092   2
  -5  -3 -15 3.15292 3.69950   1
   5  -3 -15 -3.0072 3.62480   1
  -5   3 -15 7.57894 3.82198   2
   5   3  15 -2.8346 3.33879   2
  -5  -3  15 -0.4258 3.84559   1
  -6   3  15 5.53823 4.49846   2
   6   3 -15 4.56947 4.34264   2
   6  -3  15 1.45784 3.85808   1
  -6  -3 -15 9.32235 4.25316   1
  -6   3 -15 3.99205 3.96333   2
   6  -3 -15 -0.4034 4.13775   1
   6   3  15 7.11524 4.06289   2
  -6  -3  15 0.43465 4.10003   1
   7  -3  15 183.586 10.7010   1
  -7   3  15 178.643 11.0941   2
  -7  -3 -15 168.413 10.2887   1
   7   3 -15 200.417 11.0360   2
  -7  -3  15 175.065 10.9946   1
   7   3  15 171.704 10.3973   2
  -7   3 -15 185.686 10.3160   2
   7  -3 -15 177.604 11.2946   1
  -8  -3 -15 52.0355 7.06432   1
   8  -3  15 41.5464 6.77885   1
   8   3 -15 31.6438 6.23366   2
  -8   3  15 40.7804 6.89776   2
  -8  -3  15 40.4219 6.77802   1
   8  -3 -15 30.6649 6.51783   1
  -8   3 -15 44.1321 6.33633   2
   8   3  15 35.8109 6.11917   2
   9   3 -15 2.72885 4.52061   2
  -9  -3 -15 5.69209 4.62147   1
  -9   3  15 7.35010 5.10968   2
   9  -3  15 2.47132 4.71350   1
   9   3  15 3.44110 4.55853   2
   9  -3 -15 7.24234 5.29990   1
  -9  -3  15 9.69352 5.22688   1
  -9   3 -15 7.92513 4.68244   2
  10  -3  15 58.4640 7.91317   1
  10   3 -15 51.9823 7.69534   2
 -10   3  15 65.8363 8.52264   2
 -10   3  15 66.5175 8.16148   7
 -10  -3 -15 67.8576 8.12990   1
  10   3  15 40.5914 7.11339   2
 -10  -3  15 59.2123 8.30929   1
 -10   3 -15 57.5868 7.48511   2
  10  -3 -15 53.0463 8.02221   1
 -11  -3 -15 90.9466 9.60401   1
  11  -3  15 100.770 9.73094   1
 -11   3  15 123.624 10.3396   7
  11   3 -15 120.747 10.6408   2
 -11   3  15 89.1108 9.79747   2
 -11  -3  15 106.320 10.5705   1
  11   3  15 124.519 10.6727   2
 -11   3 -15 122.542 10.2304   2
  11  -3 -15 127.092 11.2659   1
  12  -3  15 251.511 14.3338   1
 -12   3  15 278.598 14.9279   7
 -12  -3 -15 265.997 14.2420   1
  12   3 -15 238.068 14.3441   2
 -12   3  15 259.165 15.0837   2
  12   3 -15 256.720 13.9828   7
 -12  -3  15 259.119 15.1694   1
 -12   3 -15 285.057 14.6028   2
  12  -3 -15 262.809 15.6256   1
  12   3  15 263.847 14.3564   2
 -13  -3 -15 87.8841 12.1684   3
 -13   3  15 77.0542 9.46649   7
  13  -3  15 82.8439 10.1306   1
  13   3 -15 81.2076 9.99400   2
 -13   3  15 78.3887 9.95347   2
  13   3 -15 82.1384 9.34351   7
 -13  -3 -15 86.0476 9.71390   1
  13  -3 -15 96.3212 10.8666   1
 -13  -3  15 92.8360 10.7179   1
  13   3  15 76.2357 9.31910   2
   0  -4 -15 -1.6829 3.24104   1
   0  -4 -15 -2.3610 4.65603   3
   0   4  15 -1.4181 3.53513   2
   0   4 -15 1.71987 3.30679   2
   0  -4  15 8.13454 3.73431   1
  -1   4  15 153.967 9.13185   2
  -1  -4 -15 173.928 9.12956   1
  -1  -4 -15 161.944 11.5415   3
   1   4 -15 169.368 9.29094   2
   1  -4  15 171.924 9.39043   1
  -1   4 -15 149.108 8.66786   2
   1   4  15 155.228 8.97178   2
  -1  -4  15 163.326 9.05300   1
  -2  -4 -15 53.8663 8.69081   3
  -2   4  15 47.3983 6.03721   2
   2  -4  15 67.8981 6.54482   1
   2   4 -15 59.7533 6.35864   2
  -2  -4 -15 53.5501 6.08511   1
  -2   4 -15 49.9390 5.90848   2
   2   4  15 51.3629 5.97390   2
   2  -4 -15 54.1238 6.39271   1
  -2  -4  15 54.8616 6.26826   1
   3  -4  15 8.54313 3.99768   1
  -3  -4 -15 11.0240 4.16317   1
   3   4 -15 12.2498 4.24978   2
  -3   4  15 15.3198 4.66379   2
  -3  -4 -15 7.68249 6.66845   3
  -3   4 -15 13.0531 4.23752   2
   3  -4 -15 7.58331 3.96852   1
  -3  -4  15 9.83895 4.19634   1
   3   4  15 5.81043 3.88741   2
   4   4 -15 2.09044 3.83305   2
  -4  -4 -15 6.67907 3.81903   1
  -4  -4 -15 -6.7977 6.47796   3
  -4   4  15 4.42237 4.08022   2
   4  -4  15 1.60020 3.88584   1
   4  -4 -15 3.87489 4.04491   1
  -4  -4  15 7.98289 4.30245   1
  -4   4 -15 1.01500 3.75650   2
   4   4  15 5.23648 3.89201   2
  -5  -4 -15 44.2826 9.90273   3
  -5   4  15 57.2555 6.90600   2
   5   4 -15 78.3679 7.36369   2
   5  -4  15 66.0494 6.99768   1
  -5  -4 -15 51.2376 6.27820   1
  -5  -4  15 65.5282 7.14550   1
   5   4  15 55.1202 6.53670   2
   5  -4 -15 66.9722 7.28649   1
  -5   4 -15 62.9573 6.78504   2
  -5  -4  15 75.8536 8.98220   3
   6   4 -15 47.6886 6.50587   2
  -6  -4 -15 46.5293 10.7149   3
  -6  -4 -15 45.0539 6.29022   1
   6  -4  15 50.7139 6.54659   1
  -6   4  15 55.6778 7.07072   2
  -6  -4  15 47.2915 6.69851   1
   6   4  15 50.8948 6.61703   2
  -6   4 -15 56.4784 6.59541   2
   6  -4 -15 50.4866 7.03307   1
   7  -4  15 460.076 16.7715   1
   7   4 -15 471.018 16.7928   2
  -7   4  15 467.244 17.2176   2
  -7  -4 -15 500.253 25.1675   3
  -7  -4 -15 457.090 16.5719   1
  -7  -4  15 497.254 17.4927   1
   7  -4 -15 490.918 17.9628   1
   7   4  15 472.602 16.4557   2
  -7   4 -15 452.838 16.1967   2
   8   4 -15 92.7727 9.14198   2
  -8  -4 -15 85.2093 8.35340   1
   8  -4  15 98.9815 8.88864   1
  -8  -4 -15 98.1641 14.0939   3
  -8   4  15 95.6932 9.35965   2
  -8  -4  15 94.2500 9.24456   1
   8  -4 -15 87.1467 9.07445   1
   8   4  15 79.2311 8.43816   2
  -8   4 -15 99.3466 8.69027   2
  -9   4  15 142.552 11.2373   2
  -9  -4 -15 145.291 10.4913   1
   9  -4  15 128.264 10.3352   1
   9   4 -15 141.837 11.0360   2
  -9  -4 -15 131.167 15.2286   3
   9  -4 -15 117.597 10.5347   1
   9   4  15 116.317 9.74807   2
  -9  -4  15 119.371 10.3190   1
  -9   4 -15 135.138 10.3472   2
 -10   4  15 2.38552 5.20289   2
  10   4 -15 -3.3033 4.74505   2
 -10  -4 -15 -1.2106 7.86866   3
  10  -4  15 -0.5778 4.56448   1
 -10  -4 -15 -5.3027 4.28617   1
 -10   4 -15 7.38240 4.84164   2
 -10  -4  15 -3.2236 4.59145   1
  10   4  15 -0.4384 4.82590   2
  10  -4 -15 -2.5664 4.78028   1
  11   4 -15 31.6319 7.23071   2
  11  -4  15 32.2543 6.94088   1
 -11   4  15 28.7660 7.01779   2
 -11  -4 -15 22.9832 6.44245   1
 -11  -4 -15 35.5244 9.64574   3
  11   4  15 22.3169 6.34795   2
 -11  -4  15 20.7412 6.48728   1
 -11   4 -15 25.0959 6.37141   2
  11  -4 -15 35.8094 7.62833   1
 -12  -4 -15 8.93169 5.76472   1
 -12  -4 -15 10.2636 8.32045   3
  12  -4  15 8.67919 5.68393   1
  12   4 -15 1.68267 5.53791   2
 -12   4  15 7.16545 5.89568   2
 -12  -4  15 14.4724 6.30652   1
 -12   4 -15 5.14047 5.25963   2
  12   4  15 3.32860 5.27868   2
  12  -4 -15 3.73547 5.85297   1
   0   5 -15 654.662 18.3551   2
   0   5  15 646.149 18.0914   2
   0  -5 -15 618.351 18.1656   1
   0  -5  15 633.050 18.4641   1
   1  -5  15 -0.1766 3.60024   1
  -1   5  15 5.11283 3.98156   2
  -1  -5 -15 1.62950 3.78686   1
   1   5 -15 -6.1226 3.34687   2
  -1  -5 -15 -0.9638 5.36384   3
  -1  -5  15 3.44723 3.81637   1
  -1   5 -15 1.88084 3.55886   2
   1   5  15 1.31054 3.67979   2
  -2   5  15 5.65302 4.12927   2
   2   5 -15 4.17288 3.81671   2
   2  -5  15 10.7294 4.27207   1
  -2  -5 -15 7.30077 4.04562   1
  -2  -5 -15 1.69272 5.48277   3
   2   5  15 1.29215 3.74449   2
  -2  -5  15 -2.6603 3.72686   1
  -2   5 -15 1.91685 3.61094   2
   3  -5  15 105.326 8.47053   1
  -3  -5 -15 106.242 8.22685   1
   3   5 -15 101.750 8.16244   2
  -3   5  15 114.621 8.77729   2
  -3  -5 -15 105.832 11.5261   3
  -3  -5  15 108.198 11.1583   3
  -3  -5  15 109.563 8.39948   1
   3  -5 -15 107.168 8.64756   1
   3   5  15 84.7212 7.39469   2
  -3   5 -15 102.402 8.03781   2
   4   5 -15 7.80773 4.37079   2
   4  -5  15 2.54464 3.86132   1
  -4   5  15 1.61237 4.02298   2
  -4  -5 -15 6.24310 4.26061   1
  -4  -5 -15 -0.1857 6.89719   3
  -4  -5  15 10.9844 6.19949   3
   4   5  15 -1.5761 3.58300   2
   4  -5 -15 5.56508 4.38698   1
  -4  -5  15 -2.2889 4.02281   1
  -4   5 -15 2.70401 4.04481   2
  -5  -5 -15 2.64907 3.79456   1
   5   5 -15 0.07187 4.12328   2
  -5  -5 -15 5.73490 7.71089   3
   5  -5  15 4.75075 4.21676   1
  -5   5  15 1.31017 4.19759   2
   5  -5 -15 -1.7351 4.03475   1
  -5  -5  15 1.34246 4.12051   1
  -5  -5  15 -3.8120 5.34941   3
  -5   5 -15 1.18048 3.94393   2
   5   5  15 -0.4554 3.92953   2
  -6  -5 -15 -10.926 6.83698   3
  -6   5  15 3.15262 4.59616   2
  -6  -5 -15 -3.0126 3.91488   1
   6   5 -15 1.46408 4.22935   2
   6  -5  15 5.64829 4.36222   1
  -6  -5  15 3.80667 5.71929   3
   6  -5 -15 -8.2081 3.78440   1
  -6  -5  15 -1.2269 4.30568   1
   6   5  15 -2.5981 4.01791   2
  -6   5 -15 1.33304 3.86535   2
   7  -5  15 103.402 9.14159   1
   7   5 -15 104.620 9.33623   2
  -7   5  15 105.109 9.59645   2
  -7  -5 -15 110.679 9.03169   1
  -7  -5 -15 119.752 14.9596   3
   7   5  15 102.461 8.84105   2
  -7   5 -15 105.307 8.91795   2
   7  -5 -15 103.315 9.52933   1
  -7  -5  15 102.570 9.50437   1
  -8   5  15 26.7462 6.57698   2
   8  -5  15 42.5469 6.70806   1
   8   5 -15 32.4402 6.67593   2
  -8  -5 -15 26.7083 5.92909   1
  -8  -5 -15 48.1300 11.8179   3
   8  -5 -15 36.7565 6.93450   1
  -8  -5  15 26.5400 6.41692   1
  -8   5 -15 26.7135 5.97408   2
   8   5  15 40.7537 6.59083   2
   9   5 -15 4.74019 4.95196   2
  -9   5  15 10.5667 5.32359   2
   9  -5  15 2.12631 4.47087   1
  -9  -5 -15 12.8559 9.52798   3
  -9  -5 -15 -0.7862 4.52755   1
   9   5  15 8.78267 5.01394   2
  -9   5 -15 9.56614 5.01613   2
  -9  -5  15 -3.6825 4.85329   1
   9  -5 -15 0.66438 5.04449   1
 -10  -5 -15 38.6841 7.01069   1
  10  -5  15 39.7627 6.97667   1
 -10  -5 -15 19.4483 9.64578   3
 -10   5  15 38.3489 7.44234   2
  10   5 -15 41.6177 7.56806   2
 -10   5 -15 45.8392 7.37671   2
  10   5  15 32.0609 6.72772   2
 -10  -5  15 38.4079 7.44127   1
  10  -5 -15 16.7404 6.55868   1
   0  -6  15 -3.5263 3.73661   1
   0   6  15 0.49489 3.97986   2
   0  -6 -15 4.14972 4.00962   1
   0   6 -15 3.47873 3.97422   2
  -1  -6 -15 297.975 11.9828   1
  -1   6  15 271.232 12.0400   2
   1   6 -15 281.677 12.3090   2
   1  -6  15 302.324 12.4358   1
  -1  -6  15 297.054 12.4300   1
   1  -6 -15 311.050 12.3586   1
  -1   6 -15 289.188 12.1679   2
   1   6  15 289.276 12.2502   2
  -2  -6 -15 7.97902 4.35370   1
  -2   6  15 18.4067 4.90075   2
  -2  -6 -15 11.4337 7.34413   3
   2  -6  15 1.15656 4.14232   1
   2   6 -15 4.07647 4.21973   2
   2   6  15 11.9401 4.29450   2
  -2  -6  15 10.6262 4.60808   1
  -2   6 -15 11.2127 4.49588   2
  -2  -6  15 11.8938 7.24922   3
  -3  -6 -15 33.9528 8.70012   3
  -3  -6 -15 41.5816 5.96045   1
   3   6 -15 32.8738 5.71840   2
   3  -6  15 33.9210 5.74935   1
  -3   6  15 31.2436 5.63536   2
   3   6  15 26.8029 5.48295   2
  -3  -6  15 28.1387 8.39999   3
  -3  -6  15 35.7431 5.69303   1
  -3   6 -15 27.3430 5.38197   2
  -4  -6 -15 50.9915 10.1878   3
   4  -6  15 57.9623 6.96667   1
  -4   6  15 57.9026 7.24848   2
   4   6 -15 47.4562 6.64523   2
  -4  -6 -15 56.2592 6.59966   1
   4   6  15 56.4764 6.63212   2
  -4  -6  15 67.9636 10.3324   3
   4  -6 -15 58.3620 6.92988   1
  -4  -6  15 67.7462 7.21354   1
  -4   6 -15 59.5397 6.88833   2
  -5   6  15 4.29508 4.88137   2
  -5  -6 -15 1.09357 7.60230   3
  -5  -6 -15 3.14938 4.33335   1
   5   6 -15 6.64392 4.96580   2
   5  -6  15 5.66388 4.53461   1
  -5  -6  15 -5.7341 5.95608   3
  -5  -6  15 0.63308 4.50204   1
   5   6  15 5.61220 4.26568   2
   5  -6 -15 -0.9312 4.39657   1
  -5   6 -15 -0.4657 4.06487   2
  -6   6  15 223.522 12.3418   2
  -6  -6 -15 175.847 17.1891   3
   6   6 -15 201.310 11.8561   2
   6  -6  15 235.247 11.9914   1
  -6  -6 -15 212.969 11.3168   1
   6   6  15 192.718 10.9695   2
  -6  -6  15 185.066 14.8638   3
   6  -6 -15 196.147 11.9208   1
  -6  -6  15 213.334 11.9737   1
  -6   6 -15 196.179 11.3540   2
   7   6 -15 18.5813 6.03054   2
  -7  -6 -15 12.2847 5.17381   1
  -7   6  15 28.5750 6.62485   2
   7  -6  15 24.5718 6.03586   1
  -7  -6 -15 21.1477 10.0218   3
  -7   6 -15 35.1414 6.15092   2
   7   6  15 16.6615 5.42964   2
  -7  -6  15 27.2251 6.28516   1
   7  -6 -15 26.0947 6.15632   1
   8   6 -15 136.309 10.9341   2
  -8   6  15 134.498 10.8639   2
  -8  -6 -15 137.423 16.3703   3
  -8  -6 -15 129.169 10.2143   1
   8  -6  15 125.201 10.3350   1
   8  -6 -15 140.885 11.3511   1
  -8   6 -15 147.896 10.5438   2
   8   6  15 151.380 10.7742   2
  -8  -6  15 153.869 11.2865   1
   0   7 -15 347.403 13.8998   2
   0  -7  15 375.527 14.0894   1
   0   7  15 360.400 13.8285   2
  -1   7  15 4.23825 4.57314   2
   1  -7  15 -3.3995 4.19539   1
   1   7 -15 0.44906 4.14769   2
  -1   7 -15 -0.7923 3.82180   2
   1   7  15 -0.7379 4.34319   2
  -1  -7  15 0.85734 4.29540   1
  -2   7  15 2.94841 4.46935   2
   2  -7  15 4.74005 4.55050   1
   2   7 -15 0.50247 4.34914   2
  -2  -7  15 3.59065 4.27398   1
  -2   7 -15 0.03262 4.00718   2
   2   7  15 0.48366 4.36097   2
  -2  -7  15 -2.1788 7.06362   3
   3   7 -15 59.0044 7.18624   2
  -3   7  15 46.8685 6.77288   2
   3  -7  15 59.1154 6.82689   1
  -3  -7 -15 55.0145 10.1804   3
  -3  -7  15 63.7683 10.5985   3
  -3   7 -15 53.3860 6.67001   2
  -3  -7  15 57.1159 6.99871   1
   3   7  15 54.1591 6.94293   2
   0   0 -16 31.5667 5.15796   1
   0   0  16 43.4444 4.94308   7
   0   0  16 45.1721 5.34966   2
   0   0  16 44.8091 5.89224   1
  -1   0  16 670.386 18.4055   2
  -1   0 -16 685.289 19.0931   1
   1   0  16 687.854 18.4524   2
  -1   0  16 723.797 18.0111   7
   1   0  16 702.318 17.6725   7
  -1   0  16 679.062 19.3167   1
   1   0  16 662.608 19.0927   1
   2   0  16 80.4060 6.94598   2
  -2   0  16 87.1486 7.46988   1
  -2   0  16 75.0925 6.37088   7
   2   0  16 79.2562 7.06899   1
   2   0  16 82.3501 6.54578   7
  -2   0  16 85.6355 7.09625   2
  -2   0 -16 91.3863 7.35426   1
   2   0 -16 79.1477 7.22269   1
   3   0  16 108.045 7.63400   2
  -3   0  16 95.0778 8.23143   1
  -3   0 -16 104.383 7.70497   1
   3   0  16 113.830 8.20613   1
   3   0 -16 93.9835 7.69105   1
   3   0  16 99.8600 7.14115   7
  -3   0  16 107.324 7.49764   7
  -4   0  16 321.660 13.1975   1
   4   0  16 333.058 12.8427   1
  -4   0 -16 330.047 12.9566   1
  -4   0  16 315.154 11.8949   7
   4   0 -16 320.533 13.1680   1
   4   0  16 334.249 13.3576   2
   4   0  16 307.395 11.3749   7
   5   0  16 233.804 11.4199   1
   5   0  16 238.083 10.2588   7
  -5   0  16 234.019 11.8201   1
  -5   0  16 252.212 10.7885   7
  -5   0 -16 237.276 11.1159   1
   5   0 -16 237.396 11.7192   1
   5   0 -16 244.962 10.7207   7
   6   0 -16 95.5510 9.12140   1
  -6   0  16 91.5238 8.69867   1
  -6   0  16 108.020 8.12803   7
   6   0  16 89.9176 7.05798   7
   6   0 -16 102.676 8.08280   7
   6   0  16 106.906 8.36741   1
  -6   0 -16 93.1184 8.29566   1
   7   0 -16 626.043 20.2498   1
  -7   0 -16 623.311 19.8834   1
   7   0 -16 629.667 18.1404   7
   7   0  16 617.949 19.6686   1
  -7   0  16 615.647 18.1278   7
  -7   0  16 659.624 20.6468   1
   7   0  16 630.825 17.7285   7
   8   0  16 89.3654 8.86233   1
  -8   0  16 102.337 8.46403   7
   8   0 -16 106.213 9.84957   1
  -8   0 -16 101.777 9.26287   1
   8   0 -16 108.787 8.39423   7
  -8   0  16 115.293 10.1050   1
   8   0  16 102.396 7.99595   7
   9   0 -16 1.71695 4.13857   7
  -9   0  16 -5.2541 4.17505   1
  -9   0 -16 3.61316 4.99705   1
   9   0 -16 1.92375 4.86524   1
   9   0  16 -0.1815 4.12807   7
  -9   0  16 1.76144 4.41592   7
   9   0  16 0.16522 4.62404   1
  10   0 -16 78.4256 7.81317   7
 -10   0  16 79.2986 9.32878   1
  10   0  16 84.8947 9.08449   1
  10   0 -16 86.1818 9.49529   1
  10   0  16 70.1780 7.33270   7
 -10   0 -16 82.1369 9.16310   1
 -10   0  16 72.6535 7.61491   7
 -11   0  16 92.0198 8.57962   7
  11   0 -16 73.7442 7.87581   7
 -11   0 -16 111.721 10.6044   1
  11   0  16 79.0912 7.94382   7
  11   0  16 85.7617 9.56988   1
 -11   0  16 103.512 10.5298   1
  11   0 -16 81.5178 9.62909   1
  12   0 -16 92.1082 8.69652   7
  12   0  16 79.4498 8.27420   7
  12   0 -16 94.9054 10.8606   1
 -12   0 -16 110.111 10.9032   1
 -12   0  16 106.281 9.25668   7
 -12   0  16 81.4529 10.0604   1
 -13   0  16 -6.7160 5.17958   1
  13   0  16 -7.6570 4.44514   7
 -13   0 -16 6.30461 5.86858   1
 -13   0  16 0.42410 4.59059   7
  13   0 -16 0.71902 4.62989   7
 -14   0 -16 11.4996 6.42660   1
 -14   0  16 5.46129 5.01445   7
  14   0 -16 7.64995 5.37823   7
 -14   0  16 27.3142 7.94133   1
  14   0  16 6.21859 5.55305   7
   0   1 -16 -0.3159 3.13947   2
   0  -1  16 0.83732 3.08179   7
   0  -1  16 0.02630 3.29815   1
   0   1  16 4.95174 3.60872   2
   0   1  16 -4.1097 2.91308   7
   0   1 -16 -1.8175 3.42045   1
   0  -1 -16 2.43181 3.41427   1
   0   1  16 6.11563 3.70943   1
  -1  -1 -16 11.8302 4.00068   1
  -1   1  16 19.5492 4.43123   1
  -1   1  16 15.9449 4.01228   7
   1  -1  16 7.51600 3.54374   7
  -1   1  16 6.19628 3.80956   2
   1   1 -16 12.0465 3.78798   2
   1  -1  16 7.97839 3.81665   1
   1   1  16 8.46722 3.80231   2
  -1  -1  16 13.5556 3.79926   7
  -1   1 -16 10.1388 3.55149   2
  -1   1 -16 7.95684 3.92821   1
   1   1  16 15.4861 4.24955   1
   1   1  16 3.49345 3.41197   7
  -1  -1  16 12.7559 4.24736   1
   2   1 -16 28.5199 4.65026   2
   2  -1  16 28.9979 5.09760   1
  -2   1  16 28.8099 4.98188   2
  -2  -1 -16 36.2795 5.36477   1
  -2   1  16 39.6296 4.99236   7
   2  -1  16 28.5258 4.31226   7
  -2   1  16 37.2106 5.50327   1
  -2  -1  16 38.4200 5.56256   1
   2   1  16 26.8837 4.63548   2
  -2   1 -16 29.9710 5.21172   1
  -2  -1  16 35.5868 4.85261   7
   2   1  16 34.0115 4.78401   7
  -2   1 -16 29.4621 4.75642   2
   2  -1 -16 28.3418 5.25335   1
   2   1  16 28.3053 5.02947   1
   3   1 -16 51.7835 5.74899   2
  -3  -1 -16 51.5829 6.13868   1
   3   1 -16 41.6017 6.01239   1
   3  -1  16 46.3920 5.88818   1
  -3   1  16 45.2987 6.06654   1
  -3   1  16 36.6614 5.11126   7
  -3   1  16 45.9930 5.98597   2
   3  -1  16 43.1219 4.96516   7
   3   1  16 45.4900 5.25158   7
  -3   1 -16 46.3813 5.87583   1
   3  -1 -16 47.1194 6.06717   1
   3  -1 -16 52.7566 5.48199   7
  -3  -1  16 37.6190 5.87584   1
   3   1  16 43.1875 5.88090   1
  -3   1 -16 41.9975 5.12660   2
  -3  -1  16 41.5104 5.08486   7
   3   1  16 43.1304 5.54143   2
  -4   1  16 790.574 20.8731   2
  -4   1  16 796.475 21.6848   1
   4  -1  16 745.804 20.8842   1
   4   1 -16 737.913 20.2472   2
   4  -1  16 740.470 18.6077   7
  -4   1  16 732.703 19.3601   7
   4   1 -16 788.099 21.2596   1
  -4  -1 -16 745.449 20.8939   1
   4  -1 -16 743.155 18.8352   7
   4   1  16 741.089 20.0546   2
  -4  -1  16 740.708 18.8616   7
  -4   1 -16 739.047 19.8217   2
  -4   1 -16 746.719 20.9434   1
   4   1  16 725.695 20.7791   1
   4   1  16 748.462 18.9330   7
   4  -1 -16 747.930 21.4019   1
  -4  -1  16 729.470 21.1032   1
   5   1 -16 106.244 8.77714   1
  -5  -1 -16 97.8472 8.17569   1
  -5   1  16 105.964 8.12322   7
   5  -1  16 97.8773 7.23510   7
   5   1 -16 85.6809 7.70313   2
  -5   1  16 112.484 8.82521   2
   5  -1  16 97.9733 8.27321   1
  -5   1  16 106.259 8.71980   1
  -5  -1  16 99.6374 7.52065   7
  -5   1 -16 100.123 8.38458   1
   5  -1 -16 90.2198 7.10146   7
   5   1  16 98.0890 9.27293   1
   5   1  16 80.3994 6.89490   7
  -5  -1  16 104.131 8.53668   1
   5  -1 -16 108.151 9.12094   1
   5   1  16 102.292 8.13718   2
  -5   1 -16 107.524 7.93270   2
  -6   1  16 9.76832 4.84625   1
   6   1 -16 14.3618 4.89248   1
  -6   1  16 10.2978 4.82006   2
   6   1 -16 11.2025 4.41073   2
  -6  -1 -16 3.23519 4.25626   1
  -6   1  16 16.3062 4.56247   7
   6  -1  16 16.0289 4.15256   7
   6  -1  16 13.8327 4.65785   1
   6   1  16 11.7166 4.12512   7
   6   1  16 3.02141 3.98295   2
   6  -1 -16 6.20212 4.57608   1
  -6  -1  16 6.37223 3.83697   7
  -6  -1  16 9.30571 4.80884   1
  -6   1 -16 6.51811 4.11639   2
  -6   1 -16 13.8085 4.72716   1
   6  -1 -16 6.23853 3.84472   7
  -7   1  16 58.9136 7.58680   1
   7  -1  16 49.2637 6.87061   1
   7  -1  16 47.7504 5.70042   7
   7   1 -16 52.6994 6.95014   2
   7   1 -16 51.7139 6.33050   7
   7   1 -16 46.3792 6.99133   1
  -7   1  16 53.7310 6.99114   2
  -7  -1 -16 46.2977 6.60306   1
  -7   1  16 54.3860 6.72682   7
   7  -1 -16 57.4755 7.61249   1
   7   1  16 64.7876 7.21508   2
   7  -1 -16 61.0539 6.14679   7
   7   1  16 43.4840 5.87838   7
  -7   1 -16 46.0283 6.59175   1
  -7  -1  16 55.7646 6.22487   7
  -7  -1  16 59.1606 7.54624   1
  -8   1  16 222.326 11.4658   7
   8   1 -16 254.917 11.7473   7
   8  -1  16 209.998 10.2745   7
  -8  -1 -16 209.316 12.0730   1
   8  -1  16 229.486 12.3315   1
   8   1  16 215.648 11.7536   2
   8   1  16 226.857 10.9339   7
   8  -1 -16 236.387 13.0620   1
  -8  -1  16 233.888 12.6234   1
  -8  -1  16 204.879 10.3330   7
   8  -1 -16 217.356 10.4400   7
  -8   1 -16 225.957 12.1764   1
   9  -1  16 88.4157 7.46700   7
   9   1 -16 93.0378 8.47805   7
  -9  -1 -16 80.1553 8.68154   1
   9  -1  16 91.7288 9.02847   1
  -9   1  16 92.1541 8.55956   7
  -9  -1  16 101.037 8.10451   7
   9  -1 -16 95.7680 9.67936   1
  -9   1 -16 90.5218 9.29776   1
   9   1  16 84.2041 7.66075   7
   9  -1 -16 108.040 8.42065   7
   9   1  16 100.148 9.29050   2
  -9  -1  16 89.4093 9.42051   1
  10  -1  16 30.8449 6.59326   1
  10   1 -16 40.6977 6.42426   7
 -10   1  16 33.1255 6.10013   7
  10  -1  16 31.6827 5.54683   7
 -10  -1 -16 31.6270 6.85649   1
  10  -1 -16 29.8979 7.17573   1
  10  -1 -16 32.2246 5.74181   7
  10   1  16 25.8082 5.80422   7
 -10  -1  16 34.6543 7.12218   1
 -10  -1  16 35.3895 5.65066   7
 -11   1  16 128.897 10.3314   7
 -11  -1 -16 108.928 10.6462   1
  11  -1  16 114.297 8.76053   7
  11   1 -16 133.936 10.3103   7
  11  -1  16 138.378 11.6485   1
  11  -1 -16 126.439 11.5971   1
  11   1  16 112.159 9.24965   7
  11  -1 -16 111.192 8.82801   7
 -11  -1  16 141.227 11.5020   1
 -11  -1  16 132.673 9.57177   7
  12  -1  16 15.0101 6.21502   1
  12   1 -16 2.82194 4.86101   7
 -12  -1 -16 -5.8259 4.48261   1
  12  -1  16 -1.2047 4.41725   7
 -12   1  16 2.31148 5.01088   7
  12  -1 -16 1.13459 5.78462   1
  12  -1 -16 0.58929 4.26923   7
 -12  -1  16 1.62817 5.33273   1
  12   1  16 1.52838 4.82731   7
 -12  -1  16 -5.7021 4.12658   7
  13  -1  16 1.30436 4.70552   7
  13   1 -16 8.98400 5.46453   7
 -13  -1 -16 8.29629 6.11638   1
  13  -1  16 -6.1953 5.09728   1
 -13   1  16 12.1669 5.67631   7
 -13  -1  16 10.5498 6.37010   1
  13  -1 -16 -0.3392 4.59117   7
 -13  -1  16 1.27241 4.55160   7
  13  -1 -16 3.68950 6.12921   1
  13   1  16 -0.6095 5.04318   7
   0   2  16 788.789 19.1596   7
   0  -2 -16 747.200 17.5347   7
   0  -2  16 772.995 17.8820   7
   0   2 -16 747.902 19.7687   2
   0   2  16 738.360 19.8699   2
   0  -2  16 743.184 20.6477   1
   1   2 -16 128.066 8.09282   2
  -1  -2 -16 128.603 8.50767   1
  -1   2  16 131.180 8.45188   2
  -1   2  16 147.903 7.97932   7
   1  -2  16 123.126 8.33091   1
   1  -2  16 132.268 7.11444   7
   1   2  16 118.333 8.01507   2
  -1   2 -16 133.906 7.99182   2
   1  -2 -16 119.738 6.73812   7
   1   2  16 132.025 7.87189   7
  -1  -2  16 120.165 8.42813   1
  -1  -2  16 113.417 6.87465   7
   2  -2  16 226.453 10.9015   1
  -2   2  16 249.655 10.9240   2
   2   2 -16 218.495 10.2819   2
  -2   2  16 263.611 10.4022   7
  -2  -2 -16 233.887 10.9724   1
   2  -2  16 237.784 9.08637   7
  -2   2 -16 243.435 10.5204   2
   2   2  16 250.716 10.0775   7
  -2  -2  16 223.614 10.7872   1
  -2  -2  16 230.738 9.01334   7
   2  -2 -16 232.275 11.1091   1
   2   2  16 260.241 10.8497   2
   2  -2 -16 236.202 9.01446   7
  -3   2  16 473.056 15.4258   2
   3   2 -16 480.172 15.3438   2
  -3   2  16 488.783 14.8210   7
   3  -2  16 472.202 13.2747   7
   3  -2  16 443.205 15.4117   1
  -3  -2 -16 479.294 15.6763   1
  -3  -2  16 460.508 13.2249   7
   3  -2 -16 477.950 13.1008   7
  -3  -2  16 482.292 16.2879   1
   3   2  16 500.034 14.4850   7
   3  -2 -16 473.885 16.0871   1
  -3   2 -16 480.865 15.0583   2
   3   2  16 473.915 15.2248   2
  -4   2  16 65.3593 6.85086   2
   4   2 -16 65.7887 6.85991   2
  -4  -2 -16 68.9844 6.96082   1
   4  -2  16 66.8074 7.03149   1
   4  -2  16 61.8130 5.43676   7
  -4   2  16 68.3651 6.62641   7
  -4  -2  16 80.4227 7.77774   1
   4  -2 -16 60.1643 6.87015   1
  -4   2 -16 59.2718 6.12209   2
  -4  -2  16 82.6294 6.16304   7
   4  -2 -16 57.1628 5.38740   7
   4   2  16 70.9688 6.78386   2
   4   2  16 72.5009 6.47750   7
   5  -2  16 13.6323 3.81300   7
   5   2 -16 8.52587 4.45215   2
  -5   2  16 10.2562 4.59905   2
   5  -2  16 9.79287 4.51203   1
  -5  -2 -16 10.4058 4.53804   1
  -5   2  16 14.3267 4.44378   7
  -5   2 -16 16.4917 4.56028   2
  -5  -2  16 19.1186 4.01248   7
   5  -2 -16 14.8974 4.86982   1
   5   2  16 19.4429 4.58493   7
  -5  -2  16 12.6915 5.03735   1
   5   2  16 7.28188 4.27256   2
   5  -2 -16 12.2671 3.77185   7
  -6  -2 -16 35.9689 5.93609   1
   6  -2  16 24.2918 5.38221   1
   6  -2  16 43.9489 5.14269   7
  -6   2  16 27.1089 5.53982   7
   6   2 -16 29.5578 5.55318   2
  -6   2  16 30.4871 5.74415   2
   6  -2 -16 30.2126 6.20088   1
   6   2  16 34.7038 5.78610   2
   6  -2 -16 32.2479 4.64837   7
  -6  -2  16 37.4027 6.57249   1
   6   2  16 25.0483 5.05160   7
  -6  -2  16 37.0327 4.83173   7
  -6   2 -16 30.6469 5.63505   2
   7  -2  16 17.9262 4.36587   7
  -7   2  16 24.0209 5.37386   7
   7   2 -16 20.0726 5.30801   2
  -7  -2 -16 21.3299 5.13318   1
  -7   2  16 28.4046 6.09528   2
   7  -2  16 17.0743 5.23192   1
   7  -2 -16 20.8663 4.55065   7
   7   2  16 19.0079 5.20670   2
  -7  -2  16 19.0749 5.95169   1
  -7  -2  16 17.3853 4.09516   7
  -7   2 -16 23.3340 5.09164   2
   7   2  16 16.8061 4.83225   7
   7  -2 -16 21.6142 5.94049   1
  -8   2  16 638.455 20.5334   2
   8   2 -16 598.237 19.9021   2
   8  -2  16 620.715 16.8554   7
   8   2 -16 607.612 18.9086   7
  -8  -2 -16 587.264 19.9148   1
   8  -2  16 594.988 19.9048   1
  -8   2  16 612.583 18.8748   7
   8  -2 -16 613.271 20.8256   1
   8   2  16 634.301 18.5287   7
   8  -2 -16 607.472 16.6439   7
  -8  -2  16 594.046 16.2633   7
  -8   2 -16 596.059 19.2061   2
  -8  -2  16 597.414 20.6647   1
   8   2  16 634.440 19.5642   2
   9   2 -16 20.9596 5.43564   7
   9  -2  16 14.9484 5.70692   1
  -9  -2 -16 12.3384 5.16191   1
  -9   2  16 22.6847 6.25305   2
   9   2 -16 17.0050 5.49383   2
   9  -2  16 20.1074 4.54493   7
  -9   2  16 28.4312 6.11530   7
  -9  -2  16 19.1440 4.61860   7
   9  -2 -16 28.6657 4.92521   7
  -9  -2  16 24.5182 6.22463   1
   9   2  16 21.8170 5.55998   7
   9  -2 -16 22.5560 6.20667   1
  -9   2 -16 15.7869 5.17677   2
   9   2  16 18.1452 5.45877   2
  10   2 -16 265.747 13.1589   7
  10  -2  16 251.901 13.7273   1
  10  -2  16 267.366 11.3139   7
 -10   2  16 250.201 13.0952   7
 -10   2  16 268.427 14.4939   2
 -10  -2 -16 254.951 13.8811   1
  10   2 -16 274.423 14.0438   2
  10  -2 -16 264.611 11.1106   7
  10  -2 -16 257.513 14.6376   1
 -10  -2  16 257.168 14.3241   1
 -10  -2  16 253.030 10.5720   7
  10   2  16 254.107 12.6995   7
  10   2  16 279.513 13.8681   2
  11  -2  16 316.592 12.5314   7
  11  -2  16 304.051 15.4261   1
  11   2 -16 326.906 14.5180   7
 -11  -2 -16 274.186 14.8269   1
  11   2 -16 305.561 15.6146   2
 -11   2  16 326.835 14.6295   7
  11   2  16 314.557 15.3360   2
  11  -2 -16 298.024 16.1052   1
  11   2  16 302.772 14.2141   7
 -11  -2  16 307.242 15.7676   1
  11  -2 -16 300.584 12.0352   7
 -11  -2  16 320.363 11.7456   7
 -12   2  16 53.0891 8.00318   7
  12  -2  16 46.7767 8.09988   1
 -12  -2 -16 40.4800 7.79412   1
  12  -2  16 40.4926 6.02861   7
  12   2 -16 43.1210 7.18039   7
  12  -2 -16 43.5392 6.11703   7
 -12  -2  16 34.9205 7.61598   1
  12   2  16 47.8776 8.20398   2
  12   2  16 47.6972 7.58169   7
  12  -2 -16 47.4464 8.54292   1
 -12  -2  16 62.2335 6.43978   7
  13  -2  16 4.39992 5.93924   1
  13   2 -16 9.98280 5.61596   7
  13  -2  16 -2.8691 4.37055   7
 -13   2  16 0.20391 5.48654   7
 -13  -2 -16 -4.7450 5.04207   1
 -13  -2  16 12.0568 6.33866   1
  13  -2 -16 -0.8692 6.29996   1
 -13  -2  16 6.36739 4.27982   7
  13   2  16 2.13051 5.74066   7
  13  -2 -16 3.87687 4.45235   7
   0   3 -16 1.55918 3.37217   2
   0  -3  16 -3.8234 3.01125   1
   0   3  16 0.86607 3.57209   2
   0  -3 -16 2.20032 3.35877   1
  -1   3  16 5.93061 3.79871   2
   1  -3  16 2.20459 3.58249   1
  -1  -3 -16 6.19189 3.61682   1
   1   3 -16 5.43526 3.87358   2
   1   3  16 2.10017 3.58682   2
  -1   3 -16 1.65500 3.38220   2
  -1  -3  16 2.69345 3.56607   1
  -2  -3 -16 26.7206 4.95926   1
  -2   3  16 38.9342 5.65146   2
   2   3 -16 29.7741 5.11613   2
   2  -3  16 18.9035 4.65332   1
   2   3  16 30.0622 5.28128   2
  -2  -3  16 41.0589 5.82643   1
   2  -3 -16 30.1332 5.33665   1
  -2   3 -16 33.1106 5.06946   2
  -3  -3 -16 40.7101 5.69960   1
   3   3 -16 31.4553 5.25437   2
  -3   3  16 25.0581 5.17838   2
   3  -3  16 33.0814 5.33509   1
   3  -3 -16 33.0926 5.56317   1
  -3   3 -16 27.4762 4.85609   2
  -3  -3  16 38.9980 5.87804   1
   3   3  16 21.7502 4.81204   2
   4   3 -16 670.663 18.8792   2
  -4  -3 -16 615.871 18.8652   1
   4  -3  16 614.484 18.7289   1
  -4   3  16 617.345 18.8880   2
  -4   3 -16 643.140 18.6295   2
  -4  -3  16 607.112 19.3172   1
   4  -3 -16 607.048 19.2921   1
   4   3  16 631.288 18.3923   2
   5  -3  16 81.4041 8.02707   1
  -5   3  16 83.1159 8.05608   2
   5   3 -16 75.5463 7.69479   2
  -5  -3 -16 88.8880 7.88766   1
  -5   3 -16 89.4573 7.79071   2
  -5  -3  16 88.0267 8.20682   1
   5   3  16 82.7803 7.61592   2
   5  -3 -16 75.4787 7.90963   1
   6  -3  16 -0.1546 3.88848   1
   6   3 -16 -1.8884 4.12147   2
  -6   3  16 11.9113 5.08041   2
  -6  -3 -16 11.0835 4.44676   1
   6  -3 -16 3.16688 4.34575   1
  -6   3 -16 11.1994 4.44213   2
   6   3  16 6.93842 4.40868   2
  -6  -3  16 -1.1310 4.16083   1
   7   3 -16 15.7402 5.18823   2
  -7  -3 -16 25.1416 5.67585   1
  -7   3  16 25.9013 6.05836   2
   7  -3  16 36.0799 6.17221   1
  -7   3 -16 37.1861 5.88557   2
  -7  -3  16 33.3442 6.51925   1
   7   3  16 42.4866 6.54385   2
   7  -3 -16 28.3756 6.02657   1
  -8   3  16 179.556 12.0843   2
   8   3 -16 211.558 12.2171   2
  -8  -3 -16 199.869 11.7330   1
   8  -3  16 166.854 11.1560   1
   8   3  16 209.705 11.9164   2
  -8   3 -16 201.103 11.2480   2
   8  -3 -16 182.354 12.0962   1
  -8  -3  16 212.922 12.4440   1
  -9  -3 -16 77.4518 8.55150   1
   9  -3  16 87.1037 9.09505   1
   9   3 -16 82.7475 8.65489   2
  -9   3  16 77.7128 8.95171   2
   9  -3 -16 72.3656 8.90151   1
  -9   3 -16 75.2528 8.14768   2
  -9  -3  16 70.3704 8.62118   1
   9   3  16 65.6940 8.02027   2
 -10   3  16 37.7030 7.31837   2
 -10  -3 -16 29.0394 6.53334   1
 -10   3  16 26.9332 6.48902   7
  10   3 -16 27.5344 6.56935   2
  10  -3  16 23.4679 5.93719   1
  10   3  16 20.9685 6.24740   2
 -10  -3  16 22.6643 6.71283   1
  10  -3 -16 27.0902 7.06338   1
 -10   3 -16 31.4539 6.46611   2
  11  -3  16 93.8394 10.1854   1
 -11   3  16 100.817 9.86402   7
 -11   3  16 111.229 10.9802   2
 -11  -3 -16 92.3082 9.84714   1
  11   3 -16 106.296 10.3205   2
  11   3 -16 96.5489 9.64766   7
 -11   3 -16 102.160 10.0242   2
  11  -3 -16 77.2854 9.59587   1
 -11  -3  16 90.9507 9.86145   1
  11   3  16 88.2082 9.67840   2
 -12   3  16 -4.9632 5.50887   7
 -12   3  16 6.36039 5.84303   2
  12   3 -16 0.90439 5.36030   7
 -12  -3 -16 -2.6588 4.92246   1
  12   3 -16 4.37106 5.67858   2
  12  -3  16 16.3907 6.55048   1
 -12  -3  16 -1.9601 5.18472   1
  12   3  16 -0.6320 5.30715   2
  12  -3 -16 7.65331 6.28070   1
   0   4 -16 17.5283 4.52989   2
   0  -4 -16 16.2986 4.73401   1
   0   4  16 11.1203 4.37023   2
   0  -4  16 13.4266 4.47604   1
   1   4 -16 452.382 15.1311   2
   1  -4  16 421.006 15.0641   1
  -1  -4 -16 454.357 18.3985   3
  -1   4  16 440.882 14.8640   2
  -1  -4 -16 415.577 14.8101   1
   1   4  16 436.928 14.7089   2
  -1  -4  16 439.089 15.0523   1
  -1   4 -16 455.148 14.9791   2
  -2   4  16 63.2747 6.63816   2
   2  -4  16 65.3438 6.75795   1
   2   4 -16 63.5810 6.57571   2
  -2  -4 -16 56.4588 6.45115   1
  -2  -4 -16 74.8183 10.0657   3
   2   4  16 58.7849 6.54566   2
  -2   4 -16 55.9366 6.19436   2
   2  -4 -16 69.1580 7.33780   1
  -2  -4  16 61.6986 6.87539   1
  -3  -4 -16 62.8155 6.71768   1
  -3  -4 -16 51.1592 9.17553   3
   3   4 -16 51.9730 6.51860   2
  -3   4  16 53.5409 6.57707   2
   3  -4  16 55.9570 6.72084   1
  -3  -4  16 50.1486 6.35056   1
  -3   4 -16 60.6208 6.57197   2
   3   4  16 55.7882 6.43731   2
   3  -4 -16 48.5689 6.40814   1
  -4   4  16 222.829 11.5882   2
   4   4 -16 229.068 11.3617   2
  -4  -4 -16 213.064 10.9125   1
  -4  -4 -16 197.467 16.3545   3
   4  -4  16 200.892 11.0326   1
  -4   4 -16 213.811 10.9424   2
  -4  -4  16 211.513 11.4485   1
   4  -4 -16 224.748 11.6278   1
   4   4  16 215.808 10.8483   2
   5   4 -16 149.519 10.1265   2
  -5   4  16 150.484 10.2857   2
  -5  -4 -16 154.171 15.6615   3
   5  -4  16 146.540 9.84652   1
  -5  -4 -16 151.854 9.56838   1
   5  -4 -16 151.058 10.1105   1
  -5  -4  16 159.146 10.4294   1
   5   4  16 146.267 9.77761   2
  -5   4 -16 156.205 9.85680   2
   6  -4  16 57.1787 7.12625   1
  -6  -4 -16 48.9300 11.3068   3
   6   4 -16 62.3330 7.46882   2
  -6  -4 -16 57.7669 7.04059   1
  -6   4  16 58.5614 7.44877   2
   6  -4 -16 65.5293 7.97872   1
   6   4  16 56.8028 6.98465   2
  -6  -4  16 63.7846 7.54960   1
  -6   4 -16 57.4446 6.93871   2
   7   4 -16 443.310 16.5748   2
  -7  -4 -16 432.904 16.1646   1
   7  -4  16 409.367 16.1923   1
  -7  -4 -16 413.772 24.6519   3
  -7   4  16 438.203 16.8131   2
  -7   4 -16 408.125 15.7751   2
   7  -4 -16 415.591 16.9867   1
  -7  -4  16 432.034 17.0353   1
   7   4  16 409.908 15.8894   2
  -8  -4 -16 42.5617 6.64013   1
   8  -4  16 58.8856 7.40768   1
  -8  -4 -16 69.2769 13.3902   3
   8   4 -16 51.9924 7.41678   2
  -8   4  16 68.3499 8.28644   2
   8  -4 -16 54.6570 7.86168   1
  -8  -4  16 69.2989 8.35917   1
   8   4  16 53.4795 7.23262   2
  -8   4 -16 63.6279 7.39567   2
   9  -4  16 6.23468 4.88994   1
  -9  -4 -16 -0.8634 4.87487   1
  -9   4  16 2.67012 5.12273   2
  -9  -4 -16 -12.108 8.22266   3
   9   4 -16 8.78057 5.40733   2
   9   4  16 -0.5570 4.36176   2
  -9  -4  16 -1.9159 4.84125   1
  -9   4 -16 -6.0667 4.26286   2
   9  -4 -16 4.64265 5.25138   1
 -10   4  16 62.7473 8.61842   2
  10  -4  16 43.7888 7.27550   1
 -10  -4 -16 66.2738 12.1557   3
 -10  -4 -16 50.1193 7.47778   1
  10   4 -16 50.7099 8.11270   2
  10   4  16 57.3442 8.05533   2
  10  -4 -16 53.3656 8.19206   1
 -10  -4  16 54.9890 8.38519   1
 -10   4 -16 55.6559 7.70499   2
 -11  -4 -16 53.9930 7.98863   1
  11  -4  16 64.9001 8.63438   1
 -11  -4 -16 31.1433 9.84264   3
 -11   4  16 64.0579 9.24161   2
  11   4 -16 49.2937 8.00405   2
  11   4  16 47.3878 7.88794   2
 -11   4 -16 43.3524 7.46436   2
 -11  -4  16 58.4036 8.62325   1
  11  -4 -16 46.9079 8.24208   1
   0   5 -16 1.68710 3.84587   2
   0  -5  16 -2.5553 3.77290   1
   0   5  16 -4.5783 3.56487   2
   0  -5 -16 1.67670 3.71871   1
  -1   5  16 6.80765 4.13960   2
   1  -5  16 15.7179 4.80835   1
  -1  -5 -16 2.93169 4.21161   1
   1   5 -16 5.21268 4.28833   2
   1  -5 -16 4.58504 4.10090   1
   1   5  16 8.62440 4.30619   2
  -1   5 -16 10.6794 4.28272   2
  -1  -5  16 9.71858 4.57893   1
   2   5 -16 20.2701 4.96279   2
  -2  -5 -16 20.9997 4.97517   1
  -2   5  16 10.3193 4.54727   2
  -2  -5 -16 16.4981 6.87171   3
   2  -5  16 18.7343 5.08679   1
  -2   5 -16 12.5644 4.50424   2
   2   5  16 22.4472 4.97693   2
  -2  -5  16 15.4445 4.88609   1
   3  -5  16 35.3953 5.86581   1
   3   5 -16 34.4927 5.69493   2
  -3  -5 -16 19.6763 5.05113   1
  -3   5  16 26.4933 5.46654   2
  -3  -5 -16 21.6705 7.97664   3
  -3   5 -16 30.4157 5.36786   2
   3  -5 -16 36.4834 5.85155   1
  -3  -5  16 31.9885 5.66989   1
   3   5  16 32.0836 5.61167   2
  -4   5  16 439.133 16.0189   2
   4  -5  16 444.203 15.8730   1
  -4  -5 -16 460.019 15.8343   1
  -4  -5 -16 446.539 21.5023   3
   4   5 -16 437.192 15.8148   2
  -4   5 -16 445.499 15.8024   2
   4  -5 -16 452.933 16.1844   1
   4   5  16 436.465 15.3780   2
  -4  -5  16 412.133 15.7457   1
   5   5 -16 50.9786 6.83598   2
   5  -5  16 56.1377 6.92049   1
  -5  -5 -16 62.3539 11.4514   3
  -5   5  16 54.8460 7.02772   2
  -5  -5 -16 72.8931 7.41132   1
  -5  -5  16 65.7153 9.84875   3
  -5   5 -16 59.6550 7.16990   2
   5  -5 -16 52.9822 7.37685   1
   5   5  16 43.9446 6.46076   2
  -5  -5  16 55.4568 7.34169   1
  -6  -5 -16 2.21132 4.20749   1
   6  -5  16 6.53250 4.70579   1
   6   5 -16 7.33996 4.95175   2
  -6   5  16 -0.8159 4.76995   2
  -6  -5 -16 1.25301 8.25229   3
   6   5  16 4.31927 4.42751   2
  -6  -5  16 9.53323 5.17074   1
   6  -5 -16 -3.9749 4.46084   1
  -6   5 -16 -3.4096 4.00792   2
   7  -5  16 40.7161 6.83555   1
  -7   5  16 43.4163 7.13013   2
  -7  -5 -16 60.3794 12.7269   3
   7   5 -16 37.8681 7.03529   2
  -7  -5 -16 33.4979 6.16149   1
  -7  -5  16 21.0117 6.02732   1
   7  -5 -16 42.0872 6.99909   1
  -7   5 -16 39.2138 6.43402   2
   7   5  16 35.9883 6.33598   2
  -8  -5 -16 142.899 17.1167   3
   8  -5  16 160.078 11.0911   1
   8   5 -16 142.006 11.3938   2
  -8   5  16 158.129 11.8881   2
  -8  -5 -16 129.785 10.3313   1
  -8  -5  16 132.144 11.0813   1
   8  -5 -16 142.873 11.7057   1
  -8   5 -16 169.318 11.0472   2
   8   5  16 153.602 10.6370   2
  -9   5  16 64.2392 8.32893   2
  -9  -5 -16 36.7083 11.8929   3
   9  -5  16 52.6005 7.46936   1
   9   5 -16 45.4022 7.65716   2
  -9  -5 -16 46.9313 7.35691   1
  -9   5 -16 57.3353 7.70029   2
   9   5  16 54.6010 7.61672   2
  -9  -5  16 59.9405 8.41401   1
   9  -5 -16 51.7471 8.05626   1
   0  -6  16 367.498 13.8847   1
   0  -6 -16 321.162 13.2585   1
   0   6 -16 359.642 13.8197   2
   0   6  16 315.584 13.2885   2
   1  -6  16 64.4220 7.04945   1
  -1  -6 -16 76.3257 7.42403   1
  -1   6  16 78.7904 7.67158   2
   1   6 -16 71.0198 7.54641   2
   1   6  16 87.7628 7.87558   2
  -1  -6  16 65.2600 7.45968   1
  -1   6 -16 70.8037 7.35116   2
   1  -6 -16 76.5455 7.46508   1
   2   6 -16 122.199 9.57903   2
  -2   6  16 122.771 9.53988   2
   2  -6  16 131.371 9.65914   1
  -2  -6 -16 167.071 13.8303   3
  -2  -6 -16 125.056 9.14464   1
   2   6  16 115.681 8.83601   2
  -2  -6  16 137.663 9.64190   1
   2  -6 -16 143.041 9.39267   1
  -2   6 -16 138.346 9.30181   2
  -3  -6 -16 217.286 16.2067   3
  -3   6  16 205.734 11.4479   2
  -3  -6 -16 195.579 10.6590   1
   3  -6  16 217.482 11.4007   1
   3   6 -16 216.907 11.6389   2
  -3  -6  16 206.912 11.3892   1
   3   6  16 210.260 11.1006   2
  -3   6 -16 219.086 11.1976   2
  -4   6  16 34.1476 6.46649   2
  -4  -6 -16 34.9291 5.88138   1
   4   6 -16 40.4922 6.36879   2
   4  -6  16 39.2548 6.25647   1
  -4  -6 -16 37.9741 9.71347   3
  -4  -6  16 31.0789 8.89188   3
   4   6  16 30.8719 5.82927   2
  -4  -6  16 48.2959 6.73003   1
   4  -6 -16 42.0337 6.67987   1
  -4   6 -16 41.4429 6.22117   2
  -5  -6 -16 3.07790 4.55327   1
   5   6 -16 8.21113 5.00202   2
  -5   6  16 11.1241 5.27847   2
   5  -6  16 2.83474 4.62761   1
  -5  -6 -16 10.2339 8.31142   3
  -5  -6  16 2.03766 4.81995   1
   5  -6 -16 4.35007 4.74899   1
  -5   6 -16 7.41587 4.60877   2
   5   6  16 -0.0450 4.20737   2
  -5  -6  16 3.81700 6.92772   3
   6  -6  16 15.3909 5.28771   1
  -6  -6 -16 24.0478 5.67484   1
  -6   6  16 5.29343 5.01752   2
   6   6 -16 18.8603 5.60687   2
  -6  -6 -16 7.37237 8.98931   3
   6   6  16 12.9302 5.17582   2
  -6   6 -16 16.0888 5.46797   2
  -6  -6  16 13.2041 5.32609   1
   6  -6 -16 12.3664 5.46153   1
  -6  -6  16 12.0600 7.04756   3
  -7  -6 -16 6.03940 9.64883   3
   7  -6  16 21.5375 5.86067   1
  -7   6  16 17.6877 5.77369   2
   7   6 -16 11.7720 5.67257   2
  -7  -6 -16 18.2094 5.78026   1
   7   6  16 13.9198 5.34060   2
  -7   6 -16 11.1317 5.16180   2
  -7  -6  16 9.05128 5.34419   1
   7  -6 -16 18.3274 5.84038   1
   0   0  17 -4.1495 3.10966   7
   0   0 -17 -3.2135 3.38040   1
   0   0  17 1.07395 3.64036   1
  -1   0  17 24.6464 4.98987   1
  -1   0  17 15.5775 4.09351   7
   1   0  17 18.4143 4.12049   7
  -1   0 -17 19.9263 4.86246   1
   1   0  17 10.9486 4.41231   1
   2   0  17 397.009 14.4992   1
  -2   0  17 403.348 13.3152   7
   2   0  17 409.230 13.1278   7
   2   0 -17 406.142 15.0117   1
  -2   0 -17 396.492 14.5070   1
  -2   0  17 400.491 14.7181   1
   3   0  17 806.840 20.7891   7
  -3   0  17 894.227 23.7901   1
   3   0  17 853.619 23.0547   1
  -3   0 -17 884.068 23.2724   1
  -3   0  17 862.630 21.4185   7
   3   0 -17 893.104 23.8949   1
   4   0  17 231.150 11.2817   1
  -4   0 -17 250.539 11.7211   1
   4   0  17 228.008 10.2541   7
  -4   0  17 226.448 11.5240   1
  -4   0  17 226.161 10.5917   7
   4   0 -17 232.702 11.6743   1
  -5   0 -17 29.5182 5.57410   1
   5   0 -17 20.0513 4.67892   7
   5   0  17 17.4777 4.40218   7
  -5   0  17 20.0522 5.49208   1
   5   0 -17 36.5241 6.12029   1
  -5   0  17 21.5049 4.84382   7
   5   0  17 21.8949 5.31186   1
  -6   0 -17 79.4263 7.96910   1
   6   0 -17 78.6975 7.42263   7
  -6   0  17 69.6137 7.12274   7
   6   0  17 79.5620 6.98904   7
   6   0 -17 80.7466 8.46225   1
  -6   0  17 76.6316 8.32286   1
   6   0  17 72.6625 7.88532   1
   7   0  17 112.495 8.37249   7
  -7   0  17 129.912 9.22764   7
  -7   0 -17 122.700 9.64549   1
  -7   0  17 115.298 10.2882   1
   7   0 -17 129.011 10.4364   1
   7   0 -17 138.688 9.16558   7
   7   0  17 112.350 9.56937   1
   8   0  17 65.2770 6.77554   7
   8   0 -17 53.1968 6.80156   7
  -8   0  17 56.4952 8.09604   1
  -8   0 -17 68.0659 8.30126   1
  -8   0  17 58.5814 6.97781   7
   8   0 -17 48.3655 7.70188   1
   8   0  17 55.7994 7.51266   1
   9   0 -17 51.7776 6.73566   7
   9   0  17 47.1577 7.48610   1
  -9   0 -17 45.7935 7.33054   1
   9   0 -17 62.8041 8.43371   1
  -9   0  17 51.2855 8.10316   1
   9   0  17 41.7381 6.05480   7
  -9   0  17 49.9195 6.69153   7
 -10   0  17 65.9624 7.46166   7
  10   0 -17 60.8465 8.85400   1
 -10   0  17 71.3091 9.21201   1
  10   0  17 59.9127 8.22697   1
  10   0  17 75.5099 7.85268   7
  10   0 -17 54.6214 7.06465   7
 -10   0 -17 82.3620 9.50853   1
 -11   0 -17 200.588 12.7784   1
 -11   0  17 186.261 13.2319   1
  11   0 -17 187.378 11.3354   7
 -11   0  17 191.378 11.4747   7
  11   0 -17 162.215 12.9328   1
  11   0  17 185.395 11.3261   7
 -12   0  17 340.010 14.6206   7
 -12   0  17 312.025 16.6768   1
  12   0 -17 282.543 16.3021   1
 -12   0 -17 359.309 17.0390   1
  12   0 -17 324.834 14.4210   7
  12   0  17 312.775 14.2073   7
 -13   0 -17 34.0262 7.45997   1
  13   0 -17 38.6040 6.82093   7
 -13   0  17 30.1378 7.70684   1
 -13   0  17 37.1100 6.69785   7
  13   0  17 38.8415 7.10839   7
   0   1  17 479.165 14.7883   7
   0   1  17 489.758 16.1777   1
   0  -1  17 498.601 16.3471   1
   0   1  17 481.256 15.5073   2
   0   1 -17 499.482 16.1816   1
   0  -1 -17 496.803 16.3802   1
   0  -1  17 492.434 14.5637   7
   0   1 -17 494.269 15.3616   2
  -1  -1 -17 21.7010 4.77735   1
   1  -1  17 14.4899 4.62171   1
   1   1 -17 17.2164 4.35403   2
  -1   1  17 14.4043 4.65036   1
   1   1 -17 25.8115 4.91046   1
   1  -1  17 18.1370 4.18575   7
  -1   1  17 9.97709 3.95288   2
  -1   1  17 29.0915 4.65008   7
  -1  -1  17 12.8192 4.50687   1
   1   1  17 18.8568 4.51790   2
  -1   1 -17 20.0764 4.81254   1
  -1  -1  17 18.7529 4.19300   7
  -1   1 -17 11.9139 4.07119   2
   1   1  17 9.31586 4.48288   1
   1   1  17 11.5155 4.03714   7
   2   1 -17 13.7474 4.29197   2
   2  -1  17 16.6467 4.02896   7
  -2   1  17 21.6399 4.59053   2
  -2   1  17 13.0231 4.18901   7
   2  -1  17 12.6437 4.43807   1
  -2   1  17 11.9065 4.40809   1
  -2  -1 -17 8.24289 4.41935   1
  -2   1 -17 11.0852 3.81603   2
  -2  -1  17 16.2149 4.29666   7
   2   1  17 21.6442 4.63005   7
  -2   1 -17 18.5268 4.77645   1
   2   1  17 10.6454 4.34811   1
   2   1  17 16.9984 4.33549   2
   2  -1 -17 12.6613 4.63773   1
  -2  -1  17 10.0939 4.61184   1
  -3   1  17 3.67030 4.05308   1
   3   1 -17 10.1963 4.56311   1
  -3  -1 -17 9.27658 4.17638   1
   3   1 -17 6.53058 4.08477   2
   3  -1  17 12.1313 4.40605   1
   3  -1  17 7.76656 3.52843   7
  -3   1  17 9.75923 3.83850   7
  -3   1  17 2.57773 4.02834   2
   3   1  17 8.92322 3.86195   7
   3  -1 -17 9.54752 3.69234   7
  -3   1 -17 5.23654 3.58960   2
  -3   1 -17 8.05034 4.24808   1
   3   1  17 10.1367 4.29153   2
  -3  -1  17 13.7584 4.62891   1
   3  -1 -17 2.01601 4.09713   1
  -3  -1  17 -0.2417 3.17424   7
   3   1  17 5.36197 4.12235   1
   4   1 -17 94.2677 7.83601   2
  -4   1  17 77.2843 7.98900   1
   4   1 -17 93.3396 8.34193   1
  -4   1  17 92.4908 7.46459   7
   4  -1  17 71.3502 7.74190   1
  -4  -1 -17 81.2772 7.77145   1
  -4   1  17 78.7258 7.56756   2
   4  -1  17 86.5050 7.00270   7
   4   1  17 84.0913 7.65810   2
  -4   1 -17 77.4697 7.00544   2
   4  -1 -17 94.4655 7.34876   7
   4   1  17 85.3397 6.96877   7
  -4  -1  17 86.0392 8.31292   1
   4  -1 -17 93.5013 8.50702   1
  -4   1 -17 88.1144 7.97097   1
  -4  -1  17 79.9831 6.80957   7
   5  -1  17 -4.0080 3.42179   7
  -5   1  17 -5.3750 3.94221   2
   5   1 -17 -0.5987 4.14312   1
   5   1 -17 -1.8967 3.88096   2
  -5   1  17 -6.5514 3.45092   7
   5  -1  17 -4.6778 3.69854   1
  -5   1  17 8.24255 4.87101   1
  -5  -1 -17 5.92192 4.19420   1
   5  -1 -17 6.92251 4.49607   1
  -5   1 -17 -4.1629 3.38433   2
  -5  -1  17 -3.0096 3.25817   7
   5   1  17 2.85082 3.38778   7
   5   1  17 0.98985 3.79069   2
  -5  -1  17 -1.9836 4.07987   1
   5  -1 -17 -0.5539 3.54564   7
  -5   1 -17 3.68252 4.09718   1
  -6   1  17 -5.0086 4.44770   2
  -6   1  17 0.44063 4.01449   7
   6  -1  17 2.06194 4.24331   1
  -6  -1 -17 -0.7107 4.09339   1
   6  -1  17 -3.1487 3.41753   7
   6   1 -17 1.03181 4.10833   2
   6   1 -17 3.50271 4.63238   1
   6   1  17 -6.2993 3.29059   7
  -6   1 -17 2.44192 4.24635   1
   6  -1 -17 -3.0701 3.53206   7
   6  -1 -17 3.15971 4.55946   1
   6   1  17 -1.9485 3.76610   2
  -6  -1  17 4.09155 3.76656   7
  -6  -1  17 2.93105 4.43262   1
  -7   1  17 177.837 10.3493   7
   7   1 -17 154.073 10.0319   7
  -7  -1 -17 172.927 10.8530   1
   7  -1  17 166.005 10.9753   1
   7  -1  17 158.596 9.22773   7
   7  -1 -17 150.602 9.20663   7
   7  -1 -17 170.591 11.5882   1
  -7  -1  17 158.048 9.34455   7
  -7  -1  17 143.463 10.9545   1
   7   1  17 158.146 9.63756   7
   7   1  17 168.590 10.7056   2
  -7   1 -17 166.170 10.8221   1
   8   1 -17 235.262 11.8054   7
  -8   1  17 225.864 11.9556   7
   8  -1  17 230.830 10.8086   7
   8  -1  17 263.398 13.4262   1
  -8  -1 -17 243.588 12.9599   1
  -8  -1  17 232.490 13.3173   1
   8  -1 -17 266.570 14.0247   1
   8  -1 -17 238.941 11.0791   7
  -8   1 -17 247.655 13.0995   1
  -8  -1  17 216.511 10.8838   7
   8   1  17 252.561 12.6593   2
   8   1  17 244.810 11.7409   7
   9  -1  17 17.6701 5.02656   7
  -9   1  17 10.6633 5.25764   7
  -9  -1 -17 -0.8131 4.61734   1
   9   1 -17 10.5120 5.06958   7
   9  -1  17 3.86139 4.65058   1
   9   1  17 14.8122 5.10709   7
  -9   1 -17 5.32056 5.60902   1
   9  -1 -17 7.88174 5.55985   1
  -9  -1  17 13.9155 5.90473   1
  -9  -1  17 10.8935 4.59911   7
   9  -1 -17 10.1102 4.62566   7
 -10   1  17 -5.5939 4.41040   7
  10   1 -17 -1.5091 4.41257   7
 -10  -1 -17 -4.8786 4.67223   1
  10  -1  17 -3.1449 4.75471   1
  10  -1  17 -1.7579 3.89724   7
  10  -1 -17 0.55922 5.16344   1
 -10  -1  17 1.52113 5.27562   1
  10  -1 -17 -9.1626 3.68444   7
 -10  -1  17 0.87928 4.26800   7
  10   1  17 0.92720 4.82580   7
 -11  -1 -17 24.2728 6.68082   1
  11  -1  17 22.2444 6.77689   1
 -11   1  17 28.7231 6.27128   7
  11  -1  17 22.3724 5.35053   7
  11   1 -17 21.7785 6.12156   7
 -11  -1  17 25.4099 5.52407   7
  11  -1 -17 27.0961 7.37612   1
 -11  -1  17 12.8033 6.21071   1
  11  -1 -17 32.4647 5.96664   7
  11   1  17 32.0576 6.51128   7
 -12   1  17 53.0557 7.72501   7
  12  -1  17 55.4371 7.24212   7
  12   1 -17 68.3619 8.23337   7
 -12  -1 -17 74.7366 9.27239   1
  12  -1  17 66.1861 9.24138   1
  12  -1 -17 60.9205 9.33936   1
 -12  -1  17 84.2676 10.1433   1
 -12  -1  17 64.5091 7.47966   7
  12  -1 -17 66.5249 7.52282   7
  12   1  17 74.0234 8.43480   7
  13  -1  17 278.061 13.2738   7
  13   1 -17 293.629 14.4157   7
  13  -1  17 281.553 16.1379   1
 -13   1  17 257.890 14.0489   7
 -13  -1 -17 271.063 15.8037   1
 -13  -1  17 259.854 12.5784   7
  13   1  17 271.073 14.1114   7
 -13  -1  17 292.851 16.2902   1
  13  -1 -17 283.974 16.6666   1
  13  -1 -17 266.990 12.9936   7
   0  -2 -17 2.19594 3.65987   1
   0   2 -17 -4.2784 3.26088   2
   0  -2  17 -3.6317 3.12098   7
   0   2  17 0.46294 3.40875   7
   0  -2 -17 4.48665 3.18047   7
   0  -2  17 -0.3633 3.63474   1
   0   2  17 -0.0603 3.60924   2
  -1   2  17 3.34378 3.56213   7
   1  -2  17 3.15590 3.92328   1
   1   2 -17 0.60847 3.23871   2
  -1  -2 -17 -0.8606 3.39086   1
   1  -2  17 -0.8251 3.19476   7
  -1   2  17 4.06458 3.70938   2
   1  -2 -17 -0.0597 3.00348   7
  -1  -2  17 1.31932 3.19120   7
   1   2  17 -1.3433 3.63446   2
  -1  -2  17 2.10924 3.91060   1
  -1   2 -17 7.51847 3.78765   2
   1   2  17 -1.7415 3.24288   7
   2   2 -17 102.025 8.18937   2
   2  -2  17 95.8611 8.06973   1
  -2   2  17 101.442 7.81303   7
  -2   2  17 116.808 8.57244   2
   2  -2  17 97.9394 6.92535   7
  -2  -2 -17 87.6748 8.20113   1
  -2  -2  17 106.463 8.60426   1
   2  -2 -17 96.5203 8.33431   1
  -2   2 -17 102.789 7.79799   2
   2   2  17 102.321 8.15154   2
   2  -2 -17 108.045 6.93396   7
  -2  -2  17 103.679 6.99843   7
   2   2  17 111.873 7.64486   7
   3  -2  17 13.9233 4.64111   1
  -3   2  17 20.6762 5.14117   2
  -3   2  17 16.2786 4.71994   7
  -3  -2 -17 15.3907 4.59899   1
   3  -2  17 16.7652 3.86199   7
   3   2 -17 23.0886 4.99776   2
   3   2  17 20.4388 4.58359   7
   3  -2 -17 10.5667 4.52825   1
  -3  -2  17 17.3022 4.97826   1
   3   2  17 16.8313 4.72589   2
   3  -2 -17 17.1674 3.86960   7
  -3  -2  17 13.5166 3.83471   7
  -3   2 -17 12.2602 4.30126   2
  -4   2  17 924.571 23.4011   7
   4  -2  17 922.134 21.5633   7
  -4   2  17 953.676 24.7905   2
   4   2 -17 964.432 24.4849   2
   4  -2  17 873.762 24.5704   1
  -4  -2 -17 969.684 25.3213   1
  -4   2 -17 946.685 23.9938   2
   4   2  17 947.474 24.2094   2
  -4  -2  17 938.180 21.4323   7
   4  -2 -17 955.705 25.5945   1
   4   2  17 953.462 22.9736   7
  -4  -2  17 932.877 25.5890   1
   4  -2 -17 931.009 21.3150   7
  -5  -2 -17 158.208 10.1474   1
  -5   2  17 159.403 10.0751   2
   5  -2  17 136.035 9.51011   1
   5   2 -17 150.770 10.2787   2
   5  -2  17 132.688 7.91453   7
  -5   2  17 149.810 9.38154   7
  -5  -2  17 142.283 10.2568   1
   5   2  17 153.630 9.07743   7
   5  -2 -17 153.945 8.26447   7
  -5   2 -17 138.201 9.42699   2
  -5  -2  17 151.092 8.05013   7
   5   2  17 148.294 9.80630   2
   5  -2 -17 156.022 10.4308   1
  -6   2  17 260.360 12.8699   2
   6  -2  17 245.790 10.0385   7
   6   2 -17 249.964 12.3586   2
  -6   2  17 247.967 11.8019   7
  -6  -2 -17 237.346 12.3847   1
   6  -2  17 251.838 12.5740   1
   6   2  17 239.335 11.2738   7
   6  -2 -17 245.437 13.0075   1
  -6  -2  17 258.504 10.2828   7
  -6   2 -17 253.135 11.9076   2
  -6  -2  17 269.464 13.4059   1
   6   2  17 258.701 12.3730   2
   6  -2 -17 239.030 10.0148   7
   7  -2  17 512.448 18.4004   1
   7  -2  17 532.543 15.5837   7
  -7   2  17 556.212 18.8938   2
  -7  -2 -17 530.885 18.4179   1
  -7   2  17 542.421 17.5843   7
   7   2 -17 560.021 18.6245   2
  -7  -2  17 533.013 15.2237   7
   7  -2 -17 527.189 15.3378   7
  -7   2 -17 535.174 17.9953   2
   7   2  17 572.579 18.4268   2
  -7  -2  17 525.724 19.2301   1
   7  -2 -17 528.852 19.3030   1
   7   2  17 555.452 17.1610   7
   8  -2  17 6.07002 4.05646   7
  -8   2  17 -2.4064 4.65222   2
   8   2 -17 3.97602 4.61377   7
   8  -2  17 -1.4365 4.85811   1
  -8   2  17 6.59362 4.69471   7
   8   2 -17 2.96506 4.98197   2
  -8  -2 -17 9.55573 4.91943   1
  -8  -2  17 4.80394 5.21221   1
  -8   2 -17 9.05992 4.79711   2
   8   2  17 1.72661 4.25368   7
  -8  -2  17 1.90813 3.61311   7
   8   2  17 3.75289 4.64186   2
   8  -2 -17 -4.7776 4.41562   1
   8  -2 -17 4.70529 3.92417   7
   9   2 -17 1.94632 4.58005   7
   9  -2  17 6.90795 4.22456   7
  -9   2  17 -0.7857 4.99789   2
  -9  -2 -17 3.09308 4.97539   1
   9   2 -17 12.8845 5.43635   2
  -9   2  17 20.5160 5.93955   7
   9  -2  17 3.72752 5.06142   1
   9   2  17 11.8675 5.21759   7
  -9  -2  17 16.8847 6.32279   1
   9  -2 -17 -1.7108 4.94956   1
  -9  -2  17 0.13854 3.72223   7
   9  -2 -17 4.29354 4.06233   7
   9   2  17 8.45014 5.23103   2
 -10  -2 -17 59.6382 8.64120   1
 -10   2  17 52.0187 7.62376   7
  10  -2  17 72.1288 7.20505   7
  10   2 -17 54.3170 7.94876   2
  10  -2  17 63.0208 8.58224   1
  10   2 -17 55.6103 7.44447   7
  10   2  17 51.2869 7.61383   2
 -10  -2  17 56.2213 8.34775   1
  10   2  17 65.7708 7.87742   7
  10  -2 -17 66.3948 9.11339   1
 -10  -2  17 58.1804 6.24317   7
  10  -2 -17 50.7682 6.10173   7
  11  -2  17 58.2376 8.26534   1
 -11   2  17 63.0042 8.27303   7
  11   2 -17 73.7132 8.44101   7
 -11  -2 -17 72.9540 9.10631   1
  11  -2  17 75.6599 7.49280   7
  11   2  17 74.6156 8.37730   7
  11  -2 -17 52.7278 8.55448   1
  11  -2 -17 75.0320 7.06027   7
 -11  -2  17 62.7493 9.15896   1
 -11  -2  17 55.5549 6.07050   7
  11   2  17 62.8129 8.76557   2
  12  -2  17 50.7100 6.59079   7
 -12   2  17 66.2250 8.38498   7
 -12  -2 -17 66.7489 9.06084   1
  12  -2  17 57.5792 8.76840   1
  12   2 -17 63.1263 8.51664   7
 -12  -2  17 62.7488 6.59835   7
  12  -2 -17 57.2471 6.58492   7
 -12  -2  17 55.5113 8.83033   1
  12  -2 -17 68.8658 9.69502   1
  12   2  17 46.0458 7.78854   7
   0  -3  17 441.408 15.3821   1
   0   3  17 437.142 15.0091   2
   0  -3 -17 399.970 14.9858   1
   0   3 -17 458.816 15.1205   2
  -1  -3 -17 20.7500 4.68077   1
   1   3 -17 24.0001 5.07902   2
   1  -3  17 15.5875 4.63142   1
  -1   3  17 12.1656 4.45203   2
   1   3  17 20.4849 4.94560   2
  -1  -3  17 18.3296 5.01414   1
  -1   3 -17 19.2606 4.43650   2
   2   3 -17 7.51000 4.53027   2
  -2  -3 -17 5.99945 4.06462   1
  -2   3  17 5.26768 4.20625   2
   2  -3  17 16.8653 4.81097   1
   2  -3 -17 7.98719 4.12979   1
   2   3  17 2.91996 3.84254   2
  -2   3 -17 15.8544 4.43117   2
  -2  -3  17 12.7036 4.54762   1
  -3   3  17 9.01784 4.37631   2
   3  -3  17 12.1452 4.32048   1
  -3  -3 -17 9.81565 4.42876   1
   3   3 -17 5.65551 4.15478   2
   3   3  17 11.1795 4.56218   2
   3  -3 -17 7.46234 4.18515   1
  -3  -3  17 9.87926 4.76709   1
  -3   3 -17 8.76451 4.18683   2
  -4   3  17 81.1830 8.04713   2
   4  -3  17 74.3402 7.46573   1
   4   3 -17 75.6054 7.51598   2
  -4  -3 -17 66.5237 7.37479   1
   4  -3 -17 64.9614 7.71698   1
  -4  -3  17 60.6923 7.37993   1
   4   3  17 79.1576 7.61777   2
  -4   3 -17 67.5244 7.00951   2
  -5   3  17 4.34106 4.52898   2
  -5  -3 -17 7.00681 4.33119   1
   5   3 -17 4.88427 4.37248   2
   5  -3  17 1.89196 3.93161   1
   5  -3 -17 2.08847 4.43152   1
   5   3  17 -3.5409 3.74640   2
  -5   3 -17 5.59231 4.22141   2
  -5  -3  17 -0.4462 4.31584   1
   6  -3  17 1.67862 4.27613   1
  -6  -3 -17 1.93094 4.36854   1
  -6   3  17 5.79804 4.90749   2
   6   3 -17 -0.5334 3.99829   2
   6   3  17 -0.9345 4.17638   2
   6  -3 -17 0.67760 4.46568   1
  -6  -3  17 -3.9741 4.35421   1
  -6   3 -17 0.66010 4.06412   2
  -7   3  17 128.750 10.4674   2
   7  -3  17 124.194 9.88940   1
   7   3 -17 129.009 10.1772   2
  -7  -3 -17 131.473 9.79755   1
   7  -3 -17 135.020 11.1661   1
   7   3  17 114.056 9.61222   2
  -7  -3  17 126.630 10.6037   1
  -7   3 -17 123.461 9.89680   2
   8  -3  17 216.256 12.3656   1
  -8  -3 -17 204.761 12.1704   1
   8   3 -17 228.612 12.8368   2
  -8   3  17 220.429 13.2199   2
   8  -3 -17 209.144 13.0149   1
  -8   3 -17 223.704 12.3708   2
  -8  -3  17 215.860 13.1132   1
   8   3  17 208.511 12.3029   2
  -9   3  17 7.62978 5.37415   7
  -9   3  17 16.2776 5.85083   2
   9   3 -17 5.45871 5.56270   7
   9  -3  17 -0.5130 4.77230   1
   9   3 -17 6.24234 5.28572   2
  -9  -3 -17 5.51951 5.20259   1
   9   3  17 8.55998 5.43584   2
  -9   3 -17 6.02027 4.77956   2
   9  -3 -17 11.4527 5.85055   1
  -9  -3  17 9.46864 5.88770   1
 -10  -3 -17 -2.0234 4.81132   1
  10   3 -17 3.37712 5.08083   7
 -10   3  17 0.36072 5.43475   7
 -10   3  17 -2.3395 5.30030   2
  10   3 -17 7.75692 5.78412   2
  10  -3  17 -0.2374 5.04847   1
 -10   3 -17 2.77997 4.77548   2
  10  -3 -17 -9.0324 4.60936   1
 -10  -3  17 -3.4044 5.27871   1
  10   3  17 -3.5134 4.84050   2
  11  -3  17 37.9763 7.54151   1
 -11   3  17 32.7778 7.07681   7
 -11  -3 -17 21.6723 6.41606   1
  11   3 -17 18.5674 6.40722   7
 -11   3  17 27.6780 7.50369   2
  11   3 -17 23.8879 7.06656   2
  11   3  17 19.3211 6.38059   2
 -11   3 -17 18.1828 6.28967   2
 -11  -3  17 18.1313 6.76771   1
  11  -3 -17 19.5085 6.84654   1
 -12   3  17 55.7975 8.59444   7
  12   3 -17 41.8607 7.64442   7
  12   3 -17 54.7363 8.67579   2
 -12  -3 -17 62.3914 9.00677   1
  12  -3  17 51.5729 8.57088   1
 -12   3  17 54.2284 9.27615   2
  12   3  17 50.0206 8.49485   2
 -12  -3  17 61.5238 9.01725   1
  12  -3 -17 60.1021 8.94058   1
   0  -4 -17 -1.8766 3.99737   1
   0   4 -17 3.54990 4.02243   2
   0  -4  17 3.09042 4.19048   1
   0   4  17 5.33832 4.24906   2
   1   4 -17 1.51781 4.09114   2
  -1  -4 -17 19.5517 6.64478   3
   1  -4  17 7.62174 4.58987   1
  -1  -4 -17 13.4880 4.74250   1
  -1   4  17 13.0350 4.54629   2
  -1  -4  17 8.02820 4.40999   1
  -1   4 -17 14.5939 4.69965   2
   1   4  17 11.2183 4.49197   2
  -2  -4 -17 268.074 12.1190   1
  -2  -4 -17 266.829 15.8594   3
  -2   4  17 257.304 12.1613   2
   2   4 -17 269.927 12.2729   2
   2  -4  17 265.391 12.2235   1
   2   4  17 270.238 12.2600   2
  -2  -4  17 277.306 12.6642   1
  -2   4 -17 289.155 12.2466   2
   3   4 -17 560.427 17.9176   2
  -3  -4 -17 530.446 17.7432   1
  -3  -4 -17 584.133 23.8996   3
   3  -4  17 556.309 17.8416   1
  -3   4  17 577.965 18.0983   2
  -3  -4  17 547.661 18.2327   1
  -3   4 -17 536.362 17.5046   2
   3   4  17 562.288 17.6656   2
   3  -4 -17 547.321 18.4147   1
   4   4 -17 136.141 9.65075   2
  -4  -4 -17 119.320 8.99258   1
  -4  -4 -17 115.329 14.0726   3
   4  -4  17 134.761 9.73080   1
  -4   4  17 144.976 10.1546   2
   4   4  17 129.088 9.38225   2
  -4   4 -17 106.513 8.69671   2
  -4  -4  17 135.453 9.86130   1
   4  -4 -17 128.827 9.74763   1
  -5  -4 -17 12.6246 4.79138   1
  -5   4  17 9.25069 4.98418   2
   5  -4  17 9.84610 4.58298   1
   5   4 -17 16.5421 5.22835   2
  -5  -4 -17 21.1274 10.1251   3
   5   4  17 10.3750 4.73797   2
   5  -4 -17 8.12083 5.06848   1
  -5   4 -17 15.5606 4.88131   2
  -5  -4  17 13.2183 5.11302   1
   6  -4  17 49.5184 6.94717   1
  -6   4  17 58.4771 7.69777   2
   6   4 -17 59.8762 7.38125   2
  -6  -4 -17 39.6272 11.9895   3
  -6  -4 -17 45.4600 6.66067   1
   6   4  17 43.1280 6.61614   2
   6  -4 -17 44.9219 7.14426   1
  -6  -4  17 69.7260 8.01603   1
  -6   4 -17 59.7249 7.35256   2
  -7  -4 -17 126.902 9.97566   1
  -7   4  17 94.2366 9.39161   2
   7  -4  17 71.0272 8.08270   1
  -7  -4 -17 127.474 17.2741   3
   7   4 -17 113.185 9.73738   2
   7   4  17 87.2173 8.53154   2
  -7  -4  17 86.9440 9.28318   1
   7  -4 -17 88.4121 9.19908   1
  -7   4 -17 113.729 9.57780   2
  -8   4  17 43.2293 7.70885   2
  -8  -4 -17 70.2337 14.1343   3
   8   4 -17 47.8037 7.63901   2
  -8  -4 -17 53.7632 7.51431   1
   8  -4  17 45.1977 7.04352   1
  -8  -4  17 24.7991 6.99740   1
   8   4  17 39.5664 6.71766   2
   8  -4 -17 37.4840 7.23248   1
  -8   4 -17 40.5799 6.83814   2
  -9  -4 -17 36.3706 6.95198   1
  -9  -4 -17 39.6485 11.5831   3
   9   4 -17 43.5500 7.47092   2
   9  -4  17 32.2972 6.80184   1
  -9   4  17 20.6966 6.58043   2
   9  -4 -17 27.0802 6.94053   1
  -9   4 -17 45.7246 7.30840   2
  -9  -4  17 35.1145 7.18210   1
   9   4  17 41.2806 7.17950   2
 -10  -4 -17 38.6238 7.29622   1
  10  -4  17 28.3683 6.52656   1
 -10   4  17 54.7841 8.54600   2
 -10  -4 -17 52.8018 12.0850   3
  10   4 -17 42.6458 7.77182   2
 -10  -4  17 35.8117 7.56947   1
  10  -4 -17 34.6255 7.65647   1
  10   4  17 37.4811 7.10375   2
 -10   4 -17 48.5002 7.47361   2
   0   5  17 287.737 12.5086   2
   0   5 -17 277.881 12.4360   2
   0  -5 -17 272.724 12.3082   1
   0  -5  17 286.990 12.8735   1
   1  -5  17 14.9176 4.84988   1
  -1  -5 -17 11.1743 4.60750   1
  -1   5  17 11.6599 4.62884   2
   1   5 -17 0.21665 4.07085   2
  -1   5 -17 12.8740 4.59235   2
  -1  -5  17 8.85658 4.62975   1
   1  -5 -17 8.51439 4.54222   1
   1   5  17 7.93910 4.49699   2
  -2   5  17 8.63213 4.58458   2
  -2  -5 -17 6.01246 4.43482   1
   2  -5  17 6.84821 4.48642   1
   2   5 -17 14.5862 5.04073   2
  -2  -5 -17 8.05689 6.89698   3
   2   5  17 4.32245 4.15167   2
  -2   5 -17 8.92824 4.31752   2
  -2  -5  17 12.4980 5.23985   1
  -3  -5 -17 -3.5414 6.51546   3
  -3  -5 -17 6.22368 4.12804   1
   3  -5  17 7.84686 4.50187   1
  -3   5  17 4.89812 4.55551   2
   3   5 -17 5.84030 4.57563   2
   3   5  17 -5.6216 3.83041   2
  -3  -5  17 -4.1817 4.21047   1
  -3   5 -17 1.61421 4.08400   2
   3  -5 -17 2.17402 4.48350   1
  -4  -5 -17 65.0079 11.0101   3
  -4  -5 -17 63.9125 7.28539   1
   4   5 -17 52.6951 6.96008   2
   4  -5  17 50.2856 6.92289   1
  -4   5  17 63.5409 7.58931   2
  -4   5 -17 53.6015 6.98593   2
   4  -5 -17 55.3471 7.42239   1
  -4  -5  17 46.5958 6.96308   1
   4   5  17 53.4438 6.74143   2
   5   5 -17 2.78936 4.50430   2
  -5  -5 -17 0.22687 4.04440   1
  -5  -5 -17 1.36598 8.15920   3
  -5   5  17 -1.9967 4.33714   2
   5  -5  17 2.47634 4.41470   1
  -5   5 -17 4.39087 4.51591   2
  -5  -5  17 -1.8589 4.20293   1
   5   5  17 0.01445 4.07766   2
   5  -5 -17 3.28954 4.86559   1
  -6   5  17 3.77783 5.01565   2
   6  -5  17 -1.0738 4.37558   1
  -6  -5 -17 -1.3913 8.68392   3
   6   5 -17 2.23241 4.91583   2
  -6  -5 -17 4.25280 4.46921   1
   6  -5 -17 -2.2443 4.74636   1
  -6   5 -17 1.05002 4.61015   2
  -6  -5  17 0.78780 4.82505   1
   6   5  17 3.76519 4.66600   2
  -7  -5 -17 106.739 9.57393   1
   7   5 -17 82.2613 8.93388   2
  -7  -5 -17 69.5576 14.0548   3
   7  -5  17 103.744 9.67854   1
  -7   5  17 99.6535 9.71085   2
  -7   5 -17 100.830 9.21788   2
  -7  -5  17 97.6035 9.72052   1
   7  -5 -17 94.8554 9.87534   1
   7   5  17 107.111 9.24653   2
   8  -5  17 146.146 11.0870   1
  -8  -5 -17 146.019 18.3396   3
   8   5 -17 138.013 11.3445   2
  -8   5  17 137.738 11.4053   2
  -8  -5 -17 139.454 10.7051   1
   8  -5 -17 144.204 11.5057   1
  -8  -5  17 128.434 11.0414   1
   8   5  17 129.456 10.5287   2
  -8   5 -17 111.074 9.99504   2
  -9   5  17 2.47423 5.41697   2
  -9  -5 -17 2.25156 5.08924   1
   9   5 -17 4.33575 5.57208   2
   9  -5  17 4.54543 5.19543   1
  -9  -5 -17 -1.1225 9.83818   3
   9   5  17 7.49553 5.43545   2
   9  -5 -17 2.04421 5.22682   1
  -9  -5  17 10.2199 5.97186   1
  -9   5 -17 2.03845 5.00150   2
   0   6 -17 3.00076 4.22767   2
   0   6  17 -3.8696 4.12319   2
   0  -6  17 -8.2673 3.78633   1
   0  -6 -17 -2.0754 3.76215   1
   1   6 -17 4.28476 4.32683   2
  -1   6  17 2.11629 4.20478   2
  -1  -6 -17 5.79871 4.40206   1
   1  -6  17 -3.3342 4.15867   1
  -1  -6  17 -1.3328 4.35218   1
   1   6  17 1.04598 4.30300   2
   1  -6 -17 4.99943 4.22609   1
  -1   6 -17 -2.7046 3.83251   2
  -2   6  17 58.1072 7.19595   2
   2   6 -17 49.5559 6.73520   2
  -2  -6 -17 56.6402 6.93703   1
   2  -6  17 57.0541 7.52245   1
  -2  -6  17 61.2226 7.30187   1
   2   6  17 61.4935 7.24546   2
  -2   6 -17 57.7732 6.93723   2
   2  -6 -17 52.4093 7.02798   1
   3   6 -17 12.5987 5.18579   2
  -3  -6 -17 7.41482 7.42192   3
  -3  -6 -17 7.73319 4.48707   1
   3  -6  17 17.8220 5.34441   1
  -3   6  17 12.3478 5.32839   2
  -3  -6  17 21.2941 5.49826   1
  -3   6 -17 6.83010 4.51026   2
   3   6  17 5.31552 4.56637   2
   4   6 -17 410.645 16.2536   2
  -4   6  17 404.745 16.3264   2
  -4  -6 -17 390.365 21.6107   3
   4  -6  17 409.767 15.9330   1
  -4  -6 -17 442.239 15.7945   1
  -4  -6  17 432.718 16.3183   1
   4  -6 -17 434.954 16.7110   1
  -4   6 -17 414.412 15.7231   2
   4   6  17 401.480 15.4254   2
  -5  -6 -17 68.0088 12.4505   3
  -5   6  17 75.5187 8.58863   2
   5   6 -17 62.3273 7.94878   2
   5  -6  17 76.2815 8.27211   1
  -5  -6 -17 84.1870 8.42999   1
   5   6  17 71.4081 7.88438   2
  -5  -6  17 85.9359 8.82995   1
   5  -6 -17 77.1015 8.80321   1
  -5   6 -17 68.7602 7.99020   2
   6  -6  17 118.374 10.0787   1
  -6   6  17 124.364 10.3950   2
  -6  -6 -17 112.245 15.3825   3
   6   6 -17 135.833 10.8909   2
  -6  -6 -17 136.795 10.3962   1
  -6  -6  17 132.932 10.7954   1
  -6   6 -17 155.096 10.8173   2
   6  -6 -17 132.902 10.4509   1
   6   6  17 120.564 9.84568   2
   0   0  18 975.554 23.5192   7
   0   0  18 979.292 25.7517   1
   0   0 -18 999.295 25.9514   1
   1   0  18 4.33818 3.77908   7
   1   0  18 4.06829 3.98843   1
  -1   0  18 7.04829 4.38561   1
  -1   0 -18 8.64241 4.58790   1
  -1   0  18 5.95713 3.68866   7
   2   0  18 18.6201 4.51072   7
  -2   0  18 21.2505 5.25710   1
  -2   0 -18 29.6968 5.51877   1
  -2   0  18 18.0546 4.46208   7
   2   0  18 13.2660 4.85566   1
   3   0  18 580.189 18.5251   1
   3   0  18 576.625 16.9441   7
  -3   0  18 603.360 17.3374   7
  -3   0 -18 593.872 18.7264   1
  -3   0  18 607.867 19.2795   1
   3   0 -18 606.787 19.2494   1
   4   0  18 83.7858 7.33375   7
   4   0  18 96.2480 8.58331   1
  -4   0  18 93.4675 7.83534   7
  -4   0 -18 75.8440 7.88998   1
  -4   0  18 89.3204 8.69155   1
   4   0 -18 92.5445 8.77522   1
  -5   0 -18 221.715 11.4218   1
   5   0  18 182.116 9.88800   7
   5   0  18 191.596 11.3076   1
  -5   0  18 198.114 10.6227   7
   5   0 -18 206.082 12.0344   1
  -5   0  18 201.241 11.9321   1
   5   0 -18 193.732 10.3224   7
  -6   0  18 4.03706 4.42415   7
   6   0  18 12.5409 4.30627   7
   6   0 -18 5.71927 4.30273   7
   6   0 -18 9.51274 5.26759   1
   6   0  18 15.5633 5.25234   1
  -6   0  18 18.6881 5.82214   1
  -6   0 -18 3.48901 4.72015   1
  -7   0 -18 6.65033 4.89998   1
   7   0 -18 5.55137 5.26191   1
   7   0  18 12.2120 4.47556   7
   7   0  18 19.5662 5.71902   1
   7   0 -18 14.6817 4.81510   7
  -7   0  18 15.1515 5.99423   1
  -7   0  18 11.7052 4.81765   7
  -8   0  18 853.908 22.7028   7
   8   0  18 858.407 24.9503   1
  -8   0  18 797.836 25.3694   1
   8   0  18 828.526 22.1185   7
   8   0 -18 788.586 22.3167   7
  -8   0 -18 788.458 24.5747   1
   8   0 -18 823.567 25.5220   1
   9   0 -18 13.3013 5.13234   7
  -9   0 -18 17.3843 5.90747   1
  -9   0  18 21.2901 5.55299   7
   9   0 -18 12.5823 6.00293   1
   9   0  18 17.5570 6.00419   1
  -9   0  18 20.4212 6.47983   1
   9   0  18 6.63401 4.72058   7
  10   0  18 30.9014 5.98671   7
  10   0 -18 30.1770 7.37737   1
 -10   0 -18 42.7018 7.84673   1
  10   0 -18 31.7331 6.24817   7
 -10   0  18 45.5098 8.11110   1
  10   0  18 42.7424 7.91254   1
 -10   0  18 33.7186 6.20693   7
  11   0 -18 89.3574 10.7305   1
 -11   0  18 79.2690 9.88892   1
 -11   0 -18 83.0155 9.87752   1
  11   0  18 91.9456 8.83494   7
 -11   0  18 94.5244 8.88093   7
  11   0 -18 89.8388 8.66804   7
 -12   0  18 7.54126 6.15298   1
  12   0  18 15.6648 5.88332   7
 -12   0 -18 19.0123 6.88470   1
  12   0 -18 21.7004 6.03005   7
 -12   0  18 13.7094 5.73448   7
   0   1 -18 0.55569 3.52487   2
   0   1  18 5.90632 3.82188   7
   0  -1 -18 0.44426 3.94327   1
   0  -1  18 -2.7354 3.29103   7
   0   1 -18 2.93830 3.69728   1
   0  -1  18 0.14310 3.69427   1
   0   1  18 5.20978 3.94414   1
   0   1  18 1.78654 3.79042   2
  -1   1  18 104.693 8.76101   1
   1  -1  18 106.455 8.73488   1
  -1  -1 -18 143.309 9.36901   1
  -1   1  18 115.446 8.44685   2
   1   1 -18 106.476 8.78003   1
   1  -1  18 127.879 8.24688   7
   1   1 -18 110.039 8.35357   2
  -1   1  18 115.428 8.25283   7
  -1  -1  18 113.943 9.04227   1
  -1   1 -18 134.597 8.90394   2
  -1  -1  18 119.983 8.07194   7
   1   1  18 113.184 8.03772   7
   1   1  18 120.371 8.83442   2
   1   1  18 118.446 9.61264   1
  -1   1 -18 114.790 9.25982   1
  -2   1  18 217.855 11.5068   1
  -2   1  18 237.454 11.4357   2
   2  -1  18 231.401 11.4288   1
  -2   1  18 223.819 10.5493   7
   2  -1  18 222.858 9.90298   7
  -2  -1 -18 228.512 11.5691   1
   2   1 -18 235.540 11.1506   2
   2   1  18 204.583 10.9417   2
   2  -1 -18 219.774 11.7707   1
  -2   1 -18 220.322 10.5518   2
  -2  -1  18 241.883 11.8345   1
   2   1  18 225.748 10.4167   7
  -2  -1  18 231.667 10.3438   7
  -2   1 -18 215.253 11.0489   1
   3  -1  18 155.656 10.0881   1
  -3   1  18 157.363 10.0880   2
   3   1 -18 156.742 9.87105   2
  -3   1  18 154.601 9.39575   7
   3  -1  18 142.631 8.56528   7
  -3  -1 -18 169.793 10.2352   1
   3   1 -18 146.266 10.0905   1
  -3   1  18 144.611 10.3759   1
   3  -1 -18 145.566 8.62271   7
  -3   1 -18 156.700 9.55034   2
   3   1  18 151.036 9.04950   7
  -3  -1  18 160.152 8.89766   7
   3  -1 -18 165.562 10.5305   1
  -3  -1  18 134.103 10.0303   1
  -3   1 -18 138.393 9.57565   1
   3   1  18 176.478 9.90628   2
   4   1 -18 13.7534 4.99731   1
  -4   1  18 15.9370 5.26306   2
  -4   1  18 11.0533 4.61617   7
   4  -1  18 21.8770 5.39491   1
   4  -1  18 15.1442 4.30703   7
   4   1 -18 13.8609 4.86342   2
  -4  -1 -18 17.7963 5.12358   1
   4  -1 -18 12.9943 5.04675   1
  -4   1 -18 16.7038 5.04434   1
   4   1  18 10.1368 4.16391   7
  -4  -1  18 18.6416 4.37194   7
   4   1  18 18.6375 5.17825   2
  -4  -1  18 14.6130 5.31671   1
   4  -1 -18 12.8223 4.28189   7
   5   1 -18 271.131 13.7447   2
   5  -1  18 272.129 13.1343   1
   5  -1  18 255.246 11.0183   7
   5   1 -18 256.352 12.8759   1
  -5   1  18 291.036 12.4410   7
  -5   1  18 286.847 13.4443   2
  -5  -1 -18 262.976 12.9201   1
   5   1  18 260.358 11.5087   7
  -5   1 -18 287.820 13.0397   1
   5  -1 -18 284.629 13.6930   1
  -5  -1  18 268.597 11.4637   7
   5   1  18 278.223 12.7424   2
  -5  -1  18 260.252 13.3328   1
   5  -1 -18 264.648 11.2858   7
   6  -1  18 -2.6665 3.62378   7
   6  -1  18 2.03861 4.55628   1
  -6  -1 -18 0.13713 4.48915   1
  -6   1  18 6.54388 4.55793   7
  -6   1 -18 -1.0685 3.96098   1
   6   1  18 0.03127 3.70306   7
  -6  -1  18 6.27130 4.70559   1
   6  -1 -18 -1.8541 3.67874   7
   6   1  18 0.76413 4.29246   2
  -6  -1  18 5.21945 4.12658   7
   6  -1 -18 5.67170 4.88434   1
  -7  -1 -18 79.6026 8.52966   1
  -7   1  18 86.6319 8.39898   7
   7  -1  18 77.0668 8.50145   1
   7   1 -18 90.6455 8.25728   7
   7  -1  18 68.9225 6.92260   7
   7   1  18 74.6794 7.53455   7
  -7   1 -18 74.4611 8.44188   1
   7  -1 -18 88.3581 7.49488   7
  -7  -1  18 74.0053 8.84593   1
  -7  -1  18 97.6362 7.80947   7
   7  -1 -18 88.1197 9.32230   1
   7   1  18 94.0422 9.01149   2
   8  -1  18 65.0962 8.17182   1
  -8   1  18 79.3733 8.16533   7
   8   1 -18 69.2749 7.59324   7
  -8  -1 -18 59.8971 7.96716   1
   8  -1  18 75.4250 7.31359   7
  -8   1 -18 84.2229 9.85397   1
   8  -1 -18 63.8882 6.98484   7
  -8  -1  18 67.1514 8.75235   1
  -8  -1  18 58.3171 6.69903   7
   8  -1 -18 83.9754 9.39965   1
   8   1  18 79.4734 7.69989   7
   9  -1  18 8.45101 4.53769   7
   9  -1  18 8.56861 5.49816   1
  -9  -1 -18 8.79605 5.23346   1
  -9   1  18 4.39775 4.98043   7
   9   1 -18 -0.2398 4.63381   7
   9  -1 -18 -5.9752 3.69091   7
   9  -1 -18 11.1264 5.88631   1
  -9  -1  18 2.58182 5.66568   1
   9   1  18 4.72597 4.75393   7
  -9  -1  18 7.04001 4.58455   7
 -10   1  18 24.2138 6.12401   7
 -10  -1 -18 27.1509 6.87717   1
  10   1 -18 12.9925 5.48451   7
  10  -1  18 20.6106 6.50759   1
  10  -1  18 16.8691 4.99681   7
 -10  -1  18 18.1547 5.08035   7
 -10  -1  18 32.3128 7.33905   1
  10  -1 -18 19.9941 7.06729   1
  10  -1 -18 18.6982 5.27741   7
  10   1  18 26.9445 6.21977   7
  11   1 -18 6.03008 5.50355   7
  11  -1  18 20.0373 6.72700   1
  11  -1  18 17.8639 5.54850   7
 -11  -1 -18 9.84856 6.06511   1
 -11   1  18 4.78497 5.53579   7
  11  -1 -18 11.3047 6.44750   1
  11  -1 -18 9.76377 4.88520   7
  11   1  18 10.6167 5.65877   7
 -11  -1  18 19.8391 5.36670   7
 -11  -1  18 26.0750 7.25446   1
  12  -1  18 10.4883 5.35422   7
 -12  -1 -18 23.6141 7.01793   1
  12   1 -18 25.9100 6.39988   7
  12  -1  18 16.9721 6.55999   1
 -12   1  18 10.0583 5.74636   7
 -12  -1  18 17.3185 5.65504   7
  12  -1 -18 17.1613 5.52274   7
 -12  -1  18 16.4221 6.84320   1
  12  -1 -18 19.8986 6.95362   1
  12   1  18 17.5490 6.10248   7
   0   2  18 114.485 8.93634   2
   0   2  18 115.183 8.30620   7
   0   2 -18 130.061 9.10480   2
   0  -2 -18 104.598 8.94917   1
   0  -2  18 128.268 9.30570   1
   0  -2  18 115.673 7.56389   7
   0  -2 -18 114.823 7.24719   7
  -1   2  18 756.957 20.0042   7
   1  -2  18 732.400 18.6051   7
  -1   2  18 771.354 21.3151   2
   1   2 -18 772.455 20.9635   2
   1  -2  18 771.696 21.8435   1
  -1  -2 -18 774.582 21.8878   1
   1  -2 -18 784.609 18.3358   7
  -1  -2  18 718.080 21.6199   1
  -1  -2  18 784.898 18.8091   7
   1   2  18 750.587 20.8602   2
  -1   2 -18 741.221 20.7237   2
   1   2  18 740.180 19.8827   7
   2   2 -18 64.7957 6.95402   2
  -2   2  18 81.0596 7.36727   7
  -2   2  18 64.1751 7.21974   2
   2  -2  18 55.3352 5.54094   7
  -2  -2 -18 71.3749 7.63852   1
   2  -2  18 63.0243 7.17662   1
  -2  -2  18 59.1593 7.10663   1
   2   2  18 61.6837 6.80025   2
  -2  -2  18 64.4145 5.92785   7
   2  -2 -18 63.8290 5.81338   7
   2  -2 -18 59.3344 7.26522   1
   2   2  18 67.4509 6.74632   7
  -2   2 -18 58.3070 6.56012   2
   3   2 -18 83.2512 7.93521   2
  -3   2  18 73.9097 7.58064   2
   3  -2  18 73.1292 6.35757   7
  -3   2  18 80.8011 7.45258   7
  -3  -2 -18 62.3293 7.36972   1
   3  -2  18 85.0775 8.22895   1
   3  -2 -18 61.3026 7.56899   1
   3   2  18 76.7704 7.09694   7
   3   2  18 70.7082 7.31964   2
  -3  -2  18 70.0993 7.78262   1
  -3   2 -18 83.2586 7.55080   2
   3  -2 -18 75.4271 6.11136   7
  -3  -2  18 79.5212 6.44443   7
   4  -2  18 26.7470 4.56649   7
  -4   2  18 16.0763 4.90205   7
   4  -2  18 21.3684 5.43562   1
  -4  -2 -18 25.0202 5.69913   1
  -4   2  18 24.5492 5.67634   2
   4   2 -18 23.8376 5.32114   2
   4   2  18 13.0955 4.74540   2
  -4   2 -18 23.8251 5.38819   2
   4   2  18 30.3079 5.29535   7
  -4  -2  18 21.0411 5.50862   1
   4  -2 -18 27.7488 5.78372   1
  -4  -2  18 19.5568 4.28187   7
   4  -2 -18 20.9680 4.23651   7
  -5   2  18 -0.1756 4.15552   7
   5  -2  18 -0.2543 3.33198   7
   5  -2  18 3.29385 4.63063   1
  -5  -2 -18 0.70374 4.17573   1
  -5   2  18 2.51502 4.44792   2
   5   2 -18 0.69451 4.24944   2
   5  -2 -18 1.09761 4.50758   1
  -5  -2  18 6.27443 3.92181   7
   5   2  18 3.12697 4.08845   7
  -5   2 -18 -0.2680 3.77402   2
   5  -2 -18 1.86787 3.56367   7
  -5  -2  18 1.56026 4.50311   1
   5   2  18 -2.3089 4.06376   2
  -6  -2 -18 14.8497 5.25785   1
   6   2 -18 6.03753 4.72895   2
   6  -2  18 0.08252 3.72441   7
  -6   2  18 0.62155 4.65037   2
   6  -2  18 4.15874 4.90294   1
  -6   2  18 3.72850 4.52415   7
   6  -2 -18 9.75607 5.22423   1
  -6  -2  18 6.08382 4.88994   1
  -6   2 -18 6.50793 4.59940   2
  -6  -2  18 2.46353 3.76335   7
   6   2  18 4.18792 4.15831   7
   6   2  18 13.4057 5.21298   2
   6  -2 -18 6.66766 3.76883   7
  -7   2  18 28.3672 6.02108   7
  -7  -2 -18 29.2177 6.16263   1
   7  -2  18 37.3061 5.28595   7
   7  -2  18 19.2705 6.09059   1
  -7   2  18 30.5125 6.56362   2
   7   2 -18 28.7576 6.17221   2
   7   2  18 21.8126 5.74266   2
   7   2  18 39.3655 6.21916   7
  -7   2 -18 36.2971 6.21773   2
   7  -2 -18 34.0373 5.25162   7
   7  -2 -18 14.0629 5.73009   1
  -7  -2  18 32.5232 6.96014   1
  -7  -2  18 32.9289 5.14810   7
  -8   2  18 29.5489 6.68654   2
  -8   2  18 28.2717 6.26418   7
   8  -2  18 32.2892 6.60394   1
   8   2 -18 35.8830 6.38754   7
   8   2 -18 34.0488 7.00098   2
  -8  -2 -18 26.1680 6.41153   1
   8  -2  18 32.2542 5.37575   7
   8   2  18 28.1723 6.04862   7
   8  -2 -18 19.1418 6.49373   1
   8  -2 -18 26.5431 4.95074   7
   8   2  18 26.0795 6.25407   2
  -8  -2  18 38.4427 7.36354   1
  -8  -2  18 25.2972 4.85987   7
   9  -2  18 743.352 23.9949   1
   9   2 -18 823.745 23.1931   7
   9   2 -18 835.055 24.6715   2
  -9   2  18 769.202 24.6107   2
   9  -2  18 827.594 20.7677   7
  -9  -2 -18 727.533 24.0605   1
  -9   2  18 784.735 23.2360   7
  -9  -2  18 772.373 25.3181   1
   9   2  18 785.809 24.0465   2
   9  -2 -18 758.726 19.8598   7
   9  -2 -18 755.142 25.2306   1
   9   2  18 772.568 22.3883   7
  -9  -2  18 773.367 19.8833   7
  10  -2  18 166.855 12.5617   1
 -10   2  18 190.638 12.4057   7
  10   2 -18 180.437 11.9978   7
  10  -2  18 204.996 10.7024   7
 -10  -2 -18 177.072 12.6865   1
 -10  -2  18 202.972 13.6436   1
  10  -2 -18 188.016 10.0541   7
  10   2  18 173.029 11.7299   7
 -10  -2  18 198.919 9.91530   7
  10   2  18 201.409 13.0222   2
  10  -2 -18 207.903 14.0902   1
  11   2 -18 -1.0990 4.88366   7
  11  -2  18 0.95435 4.26807   7
 -11  -2 -18 1.46266 5.24708   1
  11  -2  18 2.49149 5.18107   1
 -11   2  18 2.82046 5.42229   7
  11   2  18 3.31627 5.32751   7
  11  -2 -18 7.88422 6.22448   1
 -11  -2  18 1.97961 5.77337   1
  11  -2 -18 3.87528 4.36293   7
 -11  -2  18 7.57666 4.07011   7
  12  -2  18 -1.0675 4.37405   7
  12   2 -18 -3.8054 4.84075   7
 -12  -2 -18 11.1680 6.06505   1
  12  -2  18 1.61807 5.34466   1
 -12   2  18 1.89839 5.42127   7
 -12  -2  18 -2.2495 3.92473   7
  12  -2 -18 -0.4834 5.91495   1
  12   2  18 1.13647 5.23593   7
  12  -2 -18 -2.9314 4.21515   7
 -12  -2  18 3.36905 5.95525   1
   0   3 -18 -1.6019 3.75584   2
   0  -3 -18 -0.8641 3.85603   1
   0   3  18 7.50431 4.23125   2
   0  -3  18 -5.4472 3.73578   1
   1  -3  18 98.6362 8.58279   1
  -1   3  18 100.098 8.40544   2
   1   3 -18 83.8707 7.80554   2
  -1  -3 -18 94.1388 8.31320   1
  -1  -3  18 98.4995 8.60543   1
   1   3  18 110.440 8.99255   2
  -1   3 -18 97.6517 8.11708   2
   2  -3  18 226.402 11.3918   1
  -2  -3 -18 201.402 10.9128   1
  -2   3  18 201.775 11.1704   2
   2   3 -18 205.321 11.0036   2
  -2   3 -18 191.173 10.5987   2
  -2  -3  18 209.378 11.2740   1
   2   3  18 187.325 10.5851   2
   2  -3 -18 180.222 11.0513   1
  -3   3  18 109.227 9.14090   2
   3  -3  18 138.810 9.42984   1
  -3  -3 -18 126.996 9.49142   1
   3   3 -18 121.878 9.35017   2
  -3  -3  18 127.771 9.66374   1
   3   3  18 122.645 9.22634   2
  -3   3 -18 132.343 9.28661   2
   3  -3 -18 137.276 9.93370   1
   4  -3  18 14.2203 4.89584   1
  -4   3  18 1.92198 4.43404   2
  -4  -3 -18 7.20283 4.60883   1
   4   3 -18 1.14100 4.05412   2
   4  -3 -18 -4.5754 3.87119   1
  -4  -3  18 2.01128 4.49176   1
   4   3  18 5.18148 4.40335   2
  -4   3 -18 10.6954 4.57252   2
   5  -3  18 206.727 11.9450   1
   5   3 -18 248.352 12.6027   2
  -5  -3 -18 234.175 12.1863   1
  -5   3  18 247.157 12.9348   2
   5  -3 -18 232.066 12.6525   1
   5   3  18 231.103 12.1669   2
  -5   3 -18 228.344 11.9868   2
  -5  -3  18 229.076 12.7539   1
   6   3 -18 5.01497 4.62313   2
  -6   3  18 -10.393 4.14067   2
   6  -3  18 4.85375 4.69772   1
  -6  -3 -18 5.63747 4.86413   1
  -6  -3  18 8.22466 4.87835   1
   6  -3 -18 -2.0302 4.45521   1
  -6   3 -18 -3.5830 4.19589   2
   6   3  18 -5.5314 4.07043   2
  -7   3  18 76.4510 8.45035   2
  -7  -3 -18 64.2184 7.90802   1
   7   3 -18 70.1442 8.15108   2
   7  -3  18 65.7972 8.05660   1
  -7  -3  18 76.0019 8.67497   1
  -7   3 -18 80.1683 8.56347   2
   7  -3 -18 68.1952 8.53014   1
   7   3  18 66.6103 8.20800   2
  -8  -3 -18 58.5883 7.95238   1
   8   3 -18 54.1800 7.75421   2
  -8   3  18 56.5910 8.59090   7
  -8   3  18 56.0909 8.22795   2
   8  -3  18 51.7702 7.79724   1
   8  -3 -18 63.1014 8.61456   1
   8   3  18 62.0659 7.81255   2
  -8  -3  18 63.0435 8.85996   1
  -8   3 -18 45.0978 7.15332   2
  -9   3  18 3.33826 5.40149   2
   9  -3  18 -1.4920 4.83660   1
   9   3 -18 -4.4422 4.64982   2
  -9  -3 -18 3.22725 4.82893   1
  -9   3  18 6.84001 5.71676   7
   9   3 -18 0.65797 4.96768   7
   9   3  18 -0.9719 5.09615   2
   9  -3 -18 -0.1452 5.11800   1
  -9   3 -18 1.50957 4.89871   2
  -9  -3  18 12.2874 6.14400   1
  10  -3  18 25.5418 6.77491   1
 -10   3  18 22.7955 6.68981   7
  10   3 -18 17.4735 6.67103   2
  10   3 -18 16.5554 5.86806   7
 -10  -3 -18 16.2114 6.05726   1
 -10   3  18 22.6827 7.05300   2
 -10   3 -18 12.4371 5.69207   2
 -10  -3  18 12.8879 6.32300   1
  10  -3 -18 20.7819 7.10248   1
  10   3  18 18.8103 6.50345   2
 -11   3  18 25.2209 6.93948   7
 -11  -3 -18 13.9524 6.02318   1
  11   3 -18 18.2490 6.08594   7
  11  -3  18 10.5977 6.00863   1
 -11   3  18 9.78351 6.29060   2
  11   3 -18 16.6250 6.62137   2
 -11  -3  18 21.0495 6.83772   1
  11  -3 -18 25.3224 7.37108   1
  11   3  18 20.7231 6.38672   2
   0   4 -18 601.775 18.7000   2
   0  -4 -18 562.293 18.6096   1
   0  -4  18 560.675 18.6191   1
   0   4  18 618.650 18.7983   2
  -1  -4 -18 0.75243 4.14426   1
   1  -4  18 2.15890 4.20722   1
  -1   4  18 3.56206 4.05541   2
   1   4 -18 5.95496 4.29625   2
   1   4  18 9.03718 4.41942   2
   1  -4 -18 0.03605 4.11643   1
  -1   4 -18 5.64990 4.28259   2
  -1  -4  18 10.5901 4.79514   1
  -2  -4 -18 12.9954 7.30457   3
  -2  -4 -18 2.40751 4.30418   1
  -2   4  18 14.6134 5.11752   2
   2   4 -18 7.91719 4.84742   2
   2  -4  18 11.3547 4.68073   1
  -2   4 -18 19.6434 5.06161   2
  -2  -4  18 13.4896 5.02963   1
   2   4  18 10.1905 4.40594   2
  -3  -4 -18 390.053 15.5287   1
   3  -4  18 415.799 15.5694   1
   3   4 -18 406.123 15.6729   2
  -3   4  18 413.422 15.9838   2
  -3  -4 -18 404.962 20.9365   3
   3  -4 -18 414.087 16.0935   1
   3   4  18 403.323 15.3203   2
  -3   4 -18 407.547 15.3149   2
  -3  -4  18 399.717 15.6675   1
   4   4 -18 55.7019 7.07457   2
  -4  -4 -18 51.5261 11.4890   3
  -4   4  18 58.7112 7.45619   2
   4  -4  18 70.2060 8.04090   1
  -4  -4 -18 73.1022 7.73860   1
   4   4  18 61.1033 7.29739   2
  -4   4 -18 72.6639 7.81246   2
   4  -4 -18 66.5528 7.97832   1
  -4  -4  18 73.8178 8.21620   1
   5   4 -18 132.851 10.3715   2
  -5  -4 -18 133.420 16.6597   3
  -5  -4 -18 135.711 10.0632   1
  -5   4  18 140.289 10.8652   2
   5  -4  18 113.174 9.78963   1
  -5  -4  18 125.992 10.2438   1
   5  -4 -18 149.909 11.0036   1
   5   4  18 131.295 10.2642   2
  -5   4 -18 131.324 9.98016   2
  -6  -4 -18 7.20854 4.88055   1
   6   4 -18 1.60459 4.84154   2
  -6   4  18 2.83038 5.15190   2
   6  -4  18 0.67478 4.37481   1
  -6  -4 -18 5.36505 11.0822   3
  -6   4 -18 7.24773 4.73974   2
   6  -4 -18 1.89244 4.91438   1
   6   4  18 -2.5663 4.34042   2
  -6  -4  18 2.41561 5.24760   1
  -7  -4 -18 8.17294 5.12044   1
   7   4 -18 10.4937 5.36311   2
  -7  -4 -18 2.27530 11.1101   3
   7  -4  18 2.03870 4.49815   1
  -7   4  18 8.39257 5.44383   2
   7  -4 -18 6.33599 5.37302   1
   7   4  18 1.41352 4.84666   2
  -7  -4  18 10.8342 5.61717   1
  -7   4 -18 12.2636 5.47073   2
  -8  -4 -18 653.062 32.2457   3
  -8  -4 -18 534.230 19.7335   1
   8  -4  18 536.011 19.8567   1
  -8   4  18 558.798 20.9057   2
   8   4 -18 560.961 20.6670   2
   8  -4 -18 536.229 20.5320   1
  -8  -4  18 549.960 20.7164   1
   8   4  18 559.984 19.8532   2
  -8   4 -18 585.151 19.9880   2
  -9   4  18 -3.3169 5.22312   2
  -9  -4 -18 15.2188 5.80323   1
  -9  -4 -18 0.79638 9.25514   3
   9  -4  18 -5.5275 4.44969   1
   9   4 -18 14.2177 6.11408   2
   9  -4 -18 5.75987 5.46656   1
   9   4  18 5.06275 5.44499   2
  -9   4 -18 18.1451 6.20183   2
  -9  -4  18 12.9782 5.99684   1
  10   4 -18 16.1830 6.73241   2
 -10  -4 -18 35.2807 11.3273   3
 -10   4  18 41.8694 8.24064   2
  10  -4  18 15.6049 5.87742   1
 -10  -4 -18 26.4496 6.89551   1
  10   4  18 17.9770 6.04168   2
  10  -4 -18 42.2205 8.00567   1
 -10  -4  18 25.3337 7.04257   1
 -10   4 -18 28.6873 6.83664   2
   0  -5 -18 6.01635 4.50081   1
   0   5 -18 0.95303 4.23604   2
   0   5  18 -1.7756 4.25248   2
   0  -5  18 -14.568 3.48319   1
   1   5 -18 67.8904 7.48450   2
  -1  -5 -18 59.6530 7.13084   1
  -1   5  18 54.7577 7.16859   2
   1  -5  18 63.9415 7.39360   1
  -1  -5  18 59.1673 7.38552   1
   1  -5 -18 67.7854 7.66138   1
   1   5  18 73.8063 7.67204   2
  -1   5 -18 58.7630 7.00666   2
   2  -5  18 117.480 9.44620   1
  -2  -5 -18 135.208 9.67395   1
  -2   5  18 137.759 9.99321   2
   2   5 -18 127.440 9.87293   2
   2   5  18 130.834 9.62146   2
  -2   5 -18 129.881 9.74685   2
  -2  -5  18 108.266 9.22474   1
   3   5 -18 90.9830 8.65848   2
  -3  -5 -18 111.721 12.4200   3
  -3   5  18 93.9292 8.76422   2
   3  -5  18 100.650 9.17675   1
  -3  -5 -18 103.657 8.91269   1
  -3  -5  18 86.7708 8.62482   1
  -3   5 -18 79.0624 7.92090   2
   3   5  18 87.7125 8.37900   2
  -4  -5 -18 22.9537 8.91959   3
   4   5 -18 11.9345 5.25909   2
   4  -5  18 15.4145 5.35867   1
  -4   5  18 10.5731 5.00384   2
  -4  -5 -18 21.5758 5.49730   1
   4  -5 -18 16.4605 5.67882   1
  -4   5 -18 6.58025 4.50688   2
  -4  -5  18 16.6208 5.58410   1
   4   5  18 6.73995 4.62490   2
   5  -5  18 146.049 10.4871   1
   5   5 -18 163.245 11.4567   2
  -5  -5 -18 151.611 16.7004   3
  -5  -5 -18 165.042 10.7671   1
  -5   5  18 139.618 10.8564   2
  -5   5 -18 156.407 10.8813   2
   5  -5 -18 145.562 11.0127   1
  -5  -5  18 153.009 11.0992   1
   5   5  18 157.307 10.7727   2
   6  -5  18 1.89176 4.56853   1
  -6  -5 -18 12.0451 5.31960   1
  -6   5  18 -7.2326 4.40221   2
   6   5 -18 5.67729 5.17204   2
  -6  -5 -18 19.0892 10.9847   3
  -6   5 -18 9.34899 5.09894   2
  -6  -5  18 3.82215 5.39088   1
   6   5  18 7.04664 4.99257   2
   6  -5 -18 4.80035 5.39525   1
  -7  -5 -18 38.8566 6.97564   1
  -7   5  18 49.5690 7.57674   2
   7  -5  18 46.9347 7.49577   1
   7   5 -18 41.4147 7.40850   2
  -7  -5 -18 61.4919 14.4176   3
  -7  -5  18 52.5047 7.92357   1
  -7   5 -18 42.4161 7.21340   2
   7  -5 -18 44.1712 7.74117   1
   7   5  18 46.9530 7.40583   2
   8   5 -18 53.5357 8.43482   2
  -8  -5 -18 53.8701 14.8871   3
  -8  -5 -18 47.9357 7.53852   1
   8  -5  18 45.6718 7.51169   1
  -8   5  18 49.9888 8.28612   2
  -8  -5  18 51.5895 8.00777   1
   8  -5 -18 53.5805 8.36852   1
   8   5  18 45.1486 7.58988   2
  -8   5 -18 43.5965 7.35963   2
   0  -6  18 28.6838 6.08495   1
   0   6 -18 34.7499 6.49488   2
   0  -6 -18 44.9331 6.57837   1
   0   6  18 38.5646 6.24104   2
   1  -6  18 368.925 14.9090   1
  -1   6  18 342.107 14.6468   2
  -1  -6 -18 358.101 14.4354   1
   1   6 -18 344.075 14.5700   2
   1  -6 -18 356.720 14.7299   1
   1   6  18 364.696 14.8414   2
  -1   6 -18 351.012 14.6351   2
  -1  -6  18 377.000 15.3041   1
   2   6 -18 24.4186 5.98364   2
  -2  -6 -18 23.4575 5.30358   1
   2  -6  18 36.5759 6.61999   1
  -2   6  18 24.4064 5.82297   2
   2   6  18 18.8623 5.54283   2
  -2   6 -18 37.6062 6.50714   2
  -2  -6  18 21.5880 5.90880   1
   2  -6 -18 49.4732 7.10054   1
  -3  -6 -18 43.8975 6.67481   1
  -3   6  18 54.0326 7.69535   2
   3   6 -18 50.1027 7.06977   2
   3  -6  18 48.2298 7.21718   1
  -3  -6 -18 50.1006 10.1764   3
   3   6  18 33.5398 6.03477   2
  -3  -6  18 45.3325 7.09427   1
  -3   6 -18 40.1177 6.55007   2
  -4  -6 -18 2.12598 7.64096   3
   4   6 -18 10.4422 5.28419   2
  -4   6  18 16.0820 5.64732   2
  -4  -6 -18 17.2186 5.44566   1
   4  -6  18 16.1883 5.64334   1
   4   6  18 20.2212 5.53767   2
  -4   6 -18 3.81613 4.68565   2
  -4  -6  18 10.9301 5.59665   1
   0   0  19 4.89606 4.33244   1
   0   0  19 9.44893 4.28220   7
   0   0 -19 4.74574 4.33495   1
   1   0  19 278.613 11.6725   7
  -1   0  19 267.797 11.5500   7
  -1   0  19 285.718 12.8978   1
   1   0 -19 279.625 12.8485   1
  -1   0 -19 283.283 13.0336   1
   1   0  19 264.608 12.5448   1
  -2   0  19 162.394 10.6556   1
   2   0  19 140.273 9.97932   1
  -2   0  19 133.773 9.00301   7
   2   0  19 146.316 9.08096   7
  -2   0 -19 125.459 9.61079   1
   3   0  19 81.7742 7.24464   7
  -3   0  19 76.4422 8.42431   1
  -3   0 -19 70.8562 7.77683   1
   3   0  19 77.3332 7.93476   1
   3   0 -19 78.2701 8.43919   1
  -3   0  19 70.0393 7.07570   7
   4   0  19 1081.48 25.7525   7
  -4   0  19 1061.68 28.5934   1
  -4   0 -19 1057.46 28.2192   1
   4   0  19 1077.50 28.2163   1
   4   0 -19 1070.05 28.7082   1
  -4   0  19 1086.68 26.2029   7
   5   0 -19 47.2234 7.50109   1
  -5   0  19 59.2529 7.79181   1
   5   0  19 45.5501 7.16006   1
  -5   0 -19 47.9020 6.98424   1
   5   0  19 41.6317 5.85884   7
  -5   0  19 45.5111 6.48248   7
   5   0 -19 37.8099 5.99255   7
   6   0  19 154.592 9.68028   7
  -6   0  19 168.956 11.7509   1
   6   0 -19 180.516 11.9197   1
   6   0  19 176.833 11.4652   1
  -6   0  19 156.109 10.3197   7
  -6   0 -19 155.035 11.1080   1
   6   0 -19 168.099 10.3177   7
   7   0  19 183.542 10.4696   7
   7   0 -19 184.064 12.3639   1
  -7   0  19 209.672 12.8263   1
   7   0  19 167.259 11.7539   1
  -7   0 -19 177.440 11.7413   1
   7   0 -19 194.977 10.9109   7
  -7   0  19 180.202 10.7621   7
   8   0 -19 314.471 15.7827   1
  -8   0  19 275.908 15.1620   1
  -8   0  19 300.997 13.5319   7
  -8   0 -19 303.428 15.0924   1
   8   0  19 276.266 14.5401   1
   8   0  19 289.884 13.0644   7
   8   0 -19 298.441 13.5342   7
  -9   0 -19 30.9688 7.05243   1
   9   0  19 25.0232 6.75223   1
   9   0 -19 25.5336 6.92774   1
   9   0  19 30.4847 6.01122   7
   9   0 -19 21.4538 5.71846   7
  -9   0  19 42.6107 8.10903   1
  -9   0  19 20.7650 5.84203   7
 -10   0  19 247.395 14.9433   1
 -10   0  19 248.905 12.7305   7
  10   0  19 265.663 13.0065   7
 -10   0 -19 230.625 14.4749   1
  10   0 -19 253.211 15.1335   1
  10   0 -19 260.287 12.9987   7
 -11   0  19 29.5401 7.96900   1
  11   0  19 42.7979 6.78731   7
  11   0 -19 41.2349 6.90795   7
  11   0 -19 30.4780 7.88118   1
 -11   0  19 48.0500 7.24482   7
 -11   0 -19 32.5548 7.39915   1
  12   0 -19 250.439 13.1627   7
 -12   0  19 227.836 12.9850   7
  12   0  19 230.821 12.9034   7
 -12   0 -19 244.518 15.0722   1
 -12   0  19 213.716 16.3284   1
   0  -1 -19 469.432 16.5793   1
   0   1  19 437.995 14.6233   7
   0  -1  19 433.034 16.3197   1
   0   1  19 460.741 15.8421   2
   0  -1  19 425.512 14.1998   7
   0   1 -19 436.510 16.0039   1
   0   1 -19 427.876 15.5946   2
   1  -1  19 88.4682 8.28591   1
  -1  -1 -19 83.4104 8.32412   1
  -1   1  19 69.7281 7.04913   7
   1   1 -19 87.1539 8.05969   2
  -1   1  19 89.5303 8.23432   2
   1  -1  19 97.1914 7.48875   7
   1   1 -19 89.1526 8.68760   1
  -1  -1  19 82.5211 8.34806   1
  -1  -1  19 82.6986 7.09177   7
   1   1  19 92.9337 7.88948   7
  -1   1 -19 103.623 8.90420   1
   1   1  19 98.4361 8.53332   2
   2  -1  19 191.484 11.1582   1
   2   1 -19 179.541 11.2551   2
   2  -1  19 173.401 9.52541   7
  -2   1  19 198.747 11.0940   2
  -2   1  19 184.767 10.2868   7
  -2  -1 -19 184.155 11.0869   1
   2   1  19 189.626 10.0657   7
  -2  -1  19 179.873 9.80960   7
  -2  -1  19 188.883 10.9961   1
   2   1  19 190.930 10.7126   2
  -2   1 -19 177.772 10.7654   1
  -3  -1 -19 136.304 9.87989   1
  -3   1  19 124.612 9.67182   2
  -3   1  19 131.967 9.15909   7
   3  -1  19 129.577 8.56409   7
   3  -1  19 138.778 9.62783   1
   3   1  19 152.835 9.90420   2
   3  -1 -19 138.687 8.59296   7
  -3  -1  19 134.117 10.1515   1
  -3   1 -19 118.164 9.59911   1
  -3  -1  19 118.977 8.55388   7
   3  -1 -19 124.348 10.0488   1
   3   1  19 127.138 9.02628   7
  -4   1  19 6.27832 4.34850   7
  -4  -1 -19 0.93652 4.28310   1
  -4   1  19 -1.5303 4.15664   2
   4   1 -19 -2.8614 4.41109   1
   4  -1  19 10.7604 5.03143   1
   4  -1  19 2.84634 3.86768   7
   4  -1 -19 6.50760 5.00794   1
   4  -1 -19 -1.1543 3.51100   7
  -4  -1  19 0.94463 3.94928   7
  -4   1 -19 0.43808 4.32437   1
   4   1  19 8.46869 4.29589   7
   4   1  19 -4.3756 3.84942   2
  -4  -1  19 -1.9795 4.49395   1
  -5   1  19 13.8881 4.96371   7
   5  -1  19 21.2033 5.75534   1
   5  -1  19 14.5366 4.63678   7
  -5  -1 -19 19.0512 5.68498   1
  -5   1 -19 17.6175 5.58823   1
  -5  -1  19 21.3759 5.99535   1
   5   1  19 10.4840 4.89202   2
   5  -1 -19 10.5580 4.46154   7
  -5  -1  19 9.58034 4.63301   7
   5   1  19 17.7998 4.76997   7
   5  -1 -19 14.4733 5.43222   1
  -6   1  19 167.478 10.6234   7
   6   1 -19 147.447 10.0586   7
  -6  -1 -19 157.643 11.1581   1
   6  -1  19 153.947 9.56104   7
   6  -1  19 145.865 11.0315   1
   6  -1 -19 154.883 9.43821   7
   6   1  19 141.259 9.83241   7
  -6   1 -19 173.619 11.3331   1
  -6  -1  19 138.200 9.49409   7
  -6  -1  19 168.505 11.7723   1
   6  -1 -19 150.232 11.4451   1
   7   1 -19 41.8843 6.83367   7
  -7  -1 -19 24.3725 6.17294   1
  -7   1  19 32.6084 6.19253   7
   7  -1  19 40.9446 5.97025   7
   7  -1  19 38.4687 6.83308   1
   7  -1 -19 25.5555 6.74591   1
  -7  -1  19 31.8524 6.99252   1
  -7  -1  19 41.4707 5.95760   7
   7  -1 -19 30.3517 5.59599   7
   7   1  19 34.6683 5.65677   7
   8  -1  19 15.3277 6.18498   1
  -8  -1 -19 21.0715 5.99041   1
  -8   1  19 17.5819 5.72488   7
   8  -1  19 16.9992 5.03134   7
   8   1 -19 7.21266 5.12917   7
   8  -1 -19 24.7357 6.75282   1
   8  -1 -19 19.3276 4.95277   7
   8   1  19 10.6448 5.11094   7
  -8  -1  19 5.22617 4.59071   7
  -8  -1  19 22.8544 6.73166   1
   9  -1  19 155.171 10.1389   7
   9   1 -19 152.943 11.1317   7
  -9   1  19 177.885 11.5670   7
  -9  -1 -19 156.040 12.1096   1
   9  -1  19 156.373 12.0429   1
  -9  -1  19 160.515 12.6238   1
   9  -1 -19 173.794 12.9630   1
   9  -1 -19 141.675 9.87802   7
   9   1  19 153.345 10.8452   7
  -9  -1  19 161.095 10.2965   7
  10  -1  19 20.0720 6.66114   1
  10   1 -19 13.9992 5.85221   7
 -10   1  19 12.7109 5.70456   7
 -10  -1 -19 15.3329 6.55771   1
  10  -1  19 18.7027 5.31373   7
 -10  -1  19 10.0423 6.46012   1
  10   1  19 19.5418 5.86796   7
  10  -1 -19 5.43021 4.69269   7
 -10  -1  19 9.20635 4.95688   7
  10  -1 -19 11.8918 6.39968   1
 -11   1  19 41.3778 7.08082   7
  11  -1  19 29.0081 6.06240   7
  11  -1  19 32.2404 7.65444   1
 -11  -1 -19 42.8198 8.22206   1
  11   1 -19 36.0839 6.77277   7
 -11  -1  19 34.2455 6.20157   7
  11  -1 -19 34.5838 8.07685   1
 -11  -1  19 25.4107 7.57804   1
  11   1  19 26.5580 6.52630   7
  11  -1 -19 27.7199 5.92108   7
 -12  -1 -19 4.96033 6.06479   1
  12  -1  19 17.0811 5.67312   7
  12  -1  19 23.6943 7.34245   1
 -12   1  19 5.72331 5.62354   7
  12   1 -19 15.7490 5.83999   7
 -12  -1  19 7.49764 6.39043   1
  12  -1 -19 17.6287 6.92029   1
  12  -1 -19 10.8430 5.06964   7
  12   1  19 12.0888 5.80917   7
 -12  -1  19 19.6270 5.64336   7
   0  -2  19 -4.1180 4.20915   1
   0  -2  19 -1.9277 3.33222   7
   0  -2 -19 -2.8493 4.04138   1
   0  -2 -19 -0.9806 3.59895   7
   0   2  19 -0.4116 3.96285   2
   0   2  19 0.66514 4.11740   7
   0   2 -19 3.49980 3.85821   2
  -1  -2 -19 21.7328 4.35301   7
  -1   2  19 22.0745 4.93870   7
   1  -2  19 27.6551 5.75534   1
   1  -2  19 23.9647 4.62941   7
  -1  -2 -19 12.5699 5.10394   1
   1   2 -19 22.7024 5.46534   2
  -1   2  19 20.6332 5.15148   2
  -1   2 -19 31.5174 5.73440   2
  -1  -2  19 23.3770 5.65669   1
   1  -2 -19 25.0019 4.40633   7
   1   2  19 20.5158 5.28765   2
   1   2  19 13.5054 4.61250   7
  -1  -2  19 23.5271 4.53009   7
  -2   2  19 179.853 10.8153   2
  -2   2  19 144.157 9.40241   7
  -2  -2 -19 166.863 10.6187   1
   2  -2  19 151.818 10.5160   1
   2   2 -19 166.281 10.1781   2
   2  -2  19 158.402 8.61765   7
   2   2  19 140.021 9.48980   7
  -2   2 -19 152.649 9.69696   2
   2  -2 -19 165.864 8.51831   7
  -2  -2  19 154.681 10.3074   1
  -2  -2  19 161.793 8.67106   7
   2   2  19 150.954 10.2190   2
  -3  -2 -19 331.095 14.2532   1
   3   2 -19 334.559 14.0801   2
  -3   2  19 370.794 14.6923   2
   3  -2  19 328.688 14.2398   1
   3  -2  19 342.970 11.9343   7
  -3   2  19 352.314 13.7043   7
  -3  -2  19 329.242 14.5632   1
  -3  -2  19 326.383 11.8174   7
   3  -2 -19 291.544 14.1316   1
   3   2  19 337.949 13.9022   2
   3   2  19 337.435 13.2321   7
   3  -2 -19 340.246 11.5698   7
  -3   2 -19 327.169 13.6202   2
  -4   2  19 351.689 15.0446   2
   4   2 -19 368.669 14.8386   2
  -4  -2 -19 341.154 14.8486   1
   4  -2  19 368.061 12.5999   7
   4  -2  19 368.815 15.1681   1
  -4   2  19 392.648 14.5335   7
   4   2  19 359.194 13.6777   7
   4   2  19 330.436 14.2134   2
   4  -2 -19 363.853 12.2493   7
  -4  -2  19 363.553 12.3838   7
  -4   2 -19 361.421 14.4195   2
  -4  -2  19 364.181 15.4548   1
   4  -2 -19 364.501 15.6537   1
  -5   2  19 726.098 21.8246   2
   5  -2  19 646.529 18.0846   7
  -5  -2 -19 712.733 22.1678   1
   5   2 -19 726.420 21.7005   2
  -5   2  19 691.894 20.3705   7
   5  -2  19 698.248 21.9756   1
   5  -2 -19 689.300 17.9908   7
  -5  -2  19 672.463 18.0747   7
  -5   2 -19 707.047 20.8455   2
   5   2  19 709.523 19.9634   7
  -5  -2  19 705.193 22.4653   1
   5   2  19 675.139 20.9667   2
   5  -2 -19 629.018 21.7551   1
  -6   2  19 77.8729 8.12684   7
  -6   2  19 81.9309 8.93105   2
   6  -2  19 76.5022 6.89149   7
   6   2 -19 89.6524 9.13971   2
  -6  -2 -19 97.0490 9.43226   1
   6  -2  19 94.9376 9.32334   1
   6   2  19 79.5434 8.46943   2
  -6  -2  19 84.3253 6.74012   7
   6  -2 -19 68.7618 8.52083   1
   6   2  19 77.7167 7.77229   7
  -6  -2  19 69.7051 8.65775   1
  -6   2 -19 74.4566 7.94525   2
   6  -2 -19 84.8310 7.00108   7
   7  -2  19 26.1777 5.09993   7
   7  -2  19 19.7821 5.94497   1
  -7   2  19 22.4300 5.92198   7
  -7  -2 -19 32.6744 6.53534   1
   7   2 -19 22.6519 6.32244   2
  -7   2  19 11.0912 5.72554   2
  -7  -2  19 22.8860 5.01001   7
   7  -2 -19 17.0378 6.20349   1
   7  -2 -19 27.5563 5.07058   7
  -7  -2  19 28.6827 6.80808   1
   7   2  19 22.6868 5.49872   7
   7   2  19 26.4140 6.24146   2
   8  -2  19 30.9349 6.92385   1
   8  -2  19 30.7165 5.54085   7
   8   2 -19 32.1617 6.94608   2
  -8  -2 -19 27.9237 6.69036   1
  -8   2  19 27.6713 6.73854   2
   8   2 -19 32.3783 6.73088   7
  -8   2  19 42.4280 6.99090   7
  -8  -2  19 33.0251 5.26512   7
   8  -2 -19 21.6202 6.42261   1
   8   2  19 32.0104 6.51256   7
   8   2  19 25.7820 6.29375   2
  -8  -2  19 39.7455 7.79988   1
   8  -2 -19 37.2134 5.46352   7
  -9  -2 -19 57.1931 8.24122   1
   9  -2  19 70.9316 8.83628   1
  -9   2  19 63.6660 8.33078   7
   9  -2  19 61.7657 6.89386   7
   9   2 -19 64.6678 8.05189   7
  -9  -2  19 69.3856 6.79177   7
  -9  -2  19 64.3349 9.36298   1
   9   2  19 54.4010 8.41633   2
   9  -2 -19 67.0222 9.23958   1
   9  -2 -19 62.1124 6.51718   7
   9   2  19 58.3919 7.95544   7
  10   2 -19 2.29562 5.28600   7
  10  -2  19 4.71867 4.53864   7
  10  -2  19 3.56600 5.60705   1
 -10  -2 -19 4.00136 5.48013   1
 -10   2  19 0.64366 5.26544   7
  10  -2 -19 2.94216 4.14716   7
  10  -2 -19 -1.7021 5.71798   1
 -10  -2  19 -8.9417 5.42930   1
  10   2  19 10.9795 5.83571   7
 -10  -2  19 1.98605 4.04202   7
 -11   2  19 9.98619 5.79583   7
  11   2 -19 11.1291 5.73653   7
  11  -2  19 12.8028 6.28160   1
 -11  -2 -19 11.3452 6.17112   1
  11  -2  19 2.77673 4.77450   7
  11  -2 -19 7.87088 4.42610   7
 -11  -2  19 13.6918 4.71358   7
  11   2  19 5.82496 5.91298   7
 -11  -2  19 10.6929 6.81018   1
  11  -2 -19 5.56354 6.19651   1
   0  -3  19 345.551 14.3968   1
   0   3 -19 347.064 14.3246   2
   0   3  19 345.211 14.2128   2
   0  -3 -19 335.563 14.3060   1
  -1   3  19 94.7142 8.74088   2
   1  -3  19 81.6659 8.34016   1
   1   3 -19 98.9869 8.48102   2
  -1  -3 -19 78.2949 8.24364   1
   1   3  19 73.2085 7.63863   2
  -1  -3  19 95.9553 8.85111   1
  -1   3 -19 96.1397 8.28104   2
   2   3 -19 152.344 10.3736   2
  -2   3  19 145.783 10.2335   2
   2  -3  19 168.062 10.5286   1
  -2  -3 -19 168.084 10.5975   1
  -2   3 -19 172.880 10.1661   2
   2   3  19 146.409 10.0919   2
  -2  -3  19 145.670 10.4050   1
   3  -3  19 95.0790 8.78207   1
  -3   3  19 105.607 9.13334   2
   3   3 -19 102.111 8.92959   2
  -3  -3 -19 87.9481 8.48800   1
   3  -3 -19 97.5620 9.12042   1
   3   3  19 105.588 9.02847   2
  -3   3 -19 95.0214 8.36502   2
  -3  -3  19 79.3315 8.26936   1
   4  -3  19 4.60115 4.34122   1
  -4  -3 -19 -1.3557 4.11189   1
   4   3 -19 7.73910 4.80130   2
  -4   3  19 -1.3850 4.44202   2
   4   3  19 1.62966 4.48757   2
   4  -3 -19 3.66001 4.59564   1
  -4  -3  19 -6.3337 4.34329   1
  -4   3 -19 1.00809 4.24953   2
   5  -3  19 14.6186 5.43651   1
   5   3 -19 20.2956 5.77044   2
  -5  -3 -19 9.38118 4.78959   1
  -5   3  19 10.5466 5.25039   2
   5   3  19 4.40642 4.90600   2
  -5   3 -19 4.38595 4.74828   2
  -5  -3  19 14.3990 5.63250   1
   5  -3 -19 17.0409 5.50813   1
   6  -3  19 111.573 9.75761   1
  -6  -3 -19 143.130 10.7444   1
  -6   3  19 132.179 10.9049   2
   6   3 -19 139.878 11.0045   2
  -6   3 -19 133.997 10.3978   2
   6   3  19 121.902 10.1108   2
  -6  -3  19 111.974 10.5270   1
   6  -3 -19 120.521 10.6463   1
   7   3 -19 44.3989 7.36364   2
  -7   3  19 35.3818 6.81304   2
   7  -3  19 24.3951 6.37301   1
  -7  -3 -19 35.2591 6.45036   1
  -7   3 -19 24.4911 6.33893   2
   7   3  19 24.1330 6.08575   2
   7  -3 -19 28.6333 7.00954   1
  -7  -3  19 11.5814 5.93345   1
  -8  -3 -19 13.6044 5.63246   1
  -8   3  19 6.50220 5.80392   2
   8  -3  19 11.1258 5.91831   1
  -8   3  19 13.0623 6.10723   7
   8   3 -19 6.82373 5.26856   2
  -8   3 -19 13.4841 5.46806   2
   8   3  19 5.75385 5.31255   2
   8  -3 -19 13.4445 6.00326   1
  -8  -3  19 5.10738 5.43108   1
   9   3 -19 127.111 11.5900   2
   9   3 -19 160.958 11.8612   7
  -9   3  19 169.963 12.5568   7
   9  -3  19 158.811 11.9044   1
  -9  -3 -19 149.150 11.6540   1
  -9   3  19 165.379 12.9645   2
   9   3  19 168.129 12.3492   2
  -9   3 -19 171.850 12.2194   2
   9  -3 -19 171.145 12.9606   1
  -9  -3  19 169.206 12.9630   1
  10   3 -19 10.9005 5.91036   7
 -10  -3 -19 17.5950 6.60834   1
 -10   3  19 22.2835 6.82600   7
  10  -3  19 2.36225 5.66945   1
  10   3 -19 15.7313 6.35836   2
 -10   3  19 9.13523 6.50709   2
 -10  -3  19 14.2504 6.11496   1
  10   3  19 12.9780 5.93819   2
  10  -3 -19 9.72275 6.26005   1
   0   4  19 -1.9086 4.16249   2
   0   4 -19 0.14287 4.33750   2
   0  -4 -19 5.21363 4.33714   1
   0  -4  19 -2.0294 4.11966   1
   1  -4  19 170.772 10.8616   1
  -1   4  19 176.648 11.2404   2
   1   4 -19 191.218 11.1523   2
  -1  -4 -19 175.316 11.0956   1
   1   4  19 187.622 11.1134   2
  -1   4 -19 183.844 10.9847   2
   1  -4 -19 173.150 11.0243   1
  -1  -4  19 170.013 10.9596   1
  -2  -4 -19 94.9916 8.55798   1
  -2  -4 -19 114.665 12.2608   3
   2  -4  19 80.2496 8.20678   1
   2   4 -19 72.0348 7.87370   2
  -2   4  19 96.3340 8.89262   2
  -2   4 -19 97.7814 8.89879   2
   2   4  19 90.9171 8.44294   2
  -2  -4  19 97.2312 8.99389   1
  -3  -4 -19 37.5830 10.2946   3
   3  -4  19 54.5710 7.25401   1
   3   4 -19 60.0554 7.58993   2
  -3   4  19 59.9143 7.56478   2
  -3  -4 -19 53.2406 7.22640   1
  -3  -4  19 68.7087 8.02215   1
   3   4  19 54.4598 7.27980   2
   3  -4 -19 55.0894 7.54643   1
  -3   4 -19 58.2076 7.20373   2
   4  -4  19 706.467 22.3933   1
  -4  -4 -19 727.336 30.3855   3
  -4   4  19 773.323 22.9159   2
  -4  -4 -19 696.747 22.0022   1
   4   4 -19 759.160 22.6596   2
  -4   4 -19 737.502 21.9096   2
  -4  -4  19 695.632 22.4444   1
   4   4  19 718.727 21.7781   2
   4  -4 -19 693.782 22.7297   1
  -5   4  19 23.5459 6.00404   2
  -5  -4 -19 -11.731 9.65694   3
   5  -4  19 17.7707 5.19529   1
   5   4 -19 25.5871 6.15583   2
  -5  -4 -19 23.6709 5.88667   1
   5  -4 -19 10.1905 5.53244   1
   5   4  19 18.2011 5.74927   2
  -5   4 -19 19.7714 5.44327   2
  -5  -4  19 17.4019 5.87018   1
   6  -4  19 92.6468 9.36397   1
  -6  -4 -19 115.424 9.90207   1
  -6  -4 -19 107.947 17.9541   3
   6   4 -19 122.496 10.5566   2
  -6   4  19 95.5023 9.66947   2
  -6   4 -19 120.338 9.91175   2
   6   4  19 119.246 10.2327   2
  -6  -4  19 96.8516 9.76993   1
   6  -4 -19 104.995 10.1857   1
   7  -4  19 116.091 10.3102   1
  -7  -4 -19 149.822 21.0074   3
  -7   4  19 124.322 10.9066   2
   7   4 -19 108.098 10.2162   2
  -7  -4 -19 147.876 11.2408   1
  -7   4 -19 136.918 11.1387   2
   7  -4 -19 132.063 11.4569   1
  -7  -4  19 114.488 10.7669   1
   7   4  19 103.385 9.75213   2
  -8  -4 -19 234.152 22.5002   3
  -8  -4 -19 224.397 13.3612   1
  -8   4  19 217.157 14.1156   2
   8  -4  19 205.242 13.1529   1
   8   4 -19 222.588 14.1247   2
  -8   4 -19 230.129 13.3648   2
  -8  -4  19 217.197 13.7178   1
   8  -4 -19 227.485 14.1948   1
   8   4  19 198.142 12.9257   2
   9   4 -19 27.2816 7.27932   2
  -9  -4 -19 25.5455 6.66912   1
   9  -4  19 7.95439 5.75933   1
  -9   4  19 17.3111 6.72147   2
  -9  -4 -19 24.9740 11.8243   3
  -9   4 -19 20.2544 6.33639   2
   9  -4 -19 10.4524 6.32148   1
  -9  -4  19 20.0914 6.71818   1
   9   4  19 28.7562 6.78095   2
   0   5  19 306.341 13.7939   2
   0  -5 -19 292.428 13.5948   1
   0  -5  19 277.578 13.5647   1
   0   5 -19 298.510 13.8614   2
  -1   5  19 58.1887 7.64246   2
   1  -5  19 40.2523 6.58345   1
   1   5 -19 51.8750 7.04406   2
  -1  -5 -19 44.6815 6.75613   1
   1   5  19 53.8495 7.30986   2
  -1   5 -19 39.4142 6.53273   2
  -1  -5  19 32.3711 6.44677   1
   1  -5 -19 43.3201 6.96817   1
   2   5 -19 111.299 9.61491   2
  -2  -5 -19 110.806 9.26562   1
   2  -5  19 93.2886 8.91049   1
  -2   5  19 107.573 9.51144   2
   2  -5 -19 125.679 9.95135   1
  -2   5 -19 101.769 9.05140   2
   2   5  19 93.8899 9.05816   2
  -2  -5  19 106.439 9.64410   1
   3  -5  19 77.7256 8.48203   1
  -3  -5 -19 104.057 12.3652   3
  -3   5  19 80.5568 8.57511   2
   3   5 -19 82.3764 8.76093   2
  -3  -5 -19 86.3911 8.41653   1
  -3   5 -19 94.7930 8.93090   2
  -3  -5  19 92.3081 8.91550   1
   3   5  19 77.6943 8.15334   2
  -4  -5 -19 1.63019 4.40793   1
   4   5 -19 -5.9865 4.41285   2
  -4  -5 -19 -0.8897 8.01594   3
   4  -5  19 -2.3381 4.33877   1
  -4   5  19 7.82425 5.15919   2
   4   5  19 -0.8725 4.50486   2
  -4   5 -19 1.38982 4.48619   2
  -4  -5  19 1.68665 4.75782   1
   4  -5 -19 9.55484 5.35670   1
   5  -5  19 13.5711 5.19279   1
  -5  -5 -19 13.6171 5.30526   1
  -5   5  19 12.5149 5.65009   2
  -5  -5 -19 -6.5247 8.59993   3
   5   5 -19 14.6933 6.02064   2
   5   5  19 10.7345 5.24474   2
   5  -5 -19 13.9410 5.79482   1
  -5   5 -19 10.2744 5.08687   2
  -5  -5  19 1.43549 5.16332   1
  -6  -5 -19 80.1613 15.2131   3
  -6  -5 -19 80.7161 8.68849   1
   6   5 -19 86.1583 9.29314   2
   6  -5  19 85.5700 9.10469   1
  -6   5  19 85.4190 9.39416   2
   6   5  19 88.8043 9.20306   2
  -6  -5  19 77.7108 9.07559   1
  -6   5 -19 99.5998 9.54678   2
   6  -5 -19 80.6752 9.11077   1
   7  -5  19 19.9621 6.00566   1
   7   5 -19 26.8378 6.87900   2
  -7  -5 -19 30.2403 13.2570   3
  -7  -5 -19 20.0394 6.13088   1
  -7   5  19 16.0515 6.37095   2
  -7   5 -19 0.89791 4.96469   2
   7  -5 -19 21.6274 6.84682   1
   7   5  19 12.5272 5.69004   2
  -7  -5  19 12.6210 6.03949   1
   0   6  19 1.60859 4.70804   2
   0  -6 -19 7.64501 4.92095   1
   0   6 -19 5.36670 4.85490   2
   0  -6  19 -4.4701 4.27846   1
   1   6 -19 20.2929 5.76129   2
  -1  -6 -19 12.2632 5.21585   1
   1  -6  19 19.7889 5.76578   1
  -1   6  19 13.9050 5.38105   2
  -1  -6  19 17.7485 5.60294   1
   1  -6 -19 8.63711 5.01688   1
   1   6  19 18.2781 5.50641   2
  -1   6 -19 30.4631 6.15848   2
  -2   6  19 60.5126 7.79293   2
   2   6 -19 64.4597 7.80092   2
   2  -6  19 69.8880 8.25953   1
  -2  -6 -19 81.4756 8.31203   1
   2   6  19 56.3377 7.37311   2
   2  -6 -19 51.1944 7.42722   1
  -2  -6  19 56.4437 7.56810   1
  -2   6 -19 57.0496 7.32930   2
   0   0 -20 242.689 12.4790   1
   0   0  20 262.275 13.0500   1
   0   0  20 246.357 11.5050   7
   1   0 -20 4.98886 4.48687   1
   1   0  20 -0.1018 3.68365   7
   1   0  20 1.03047 4.83029   1
  -1   0  20 1.50421 4.14410   7
  -1   0  20 -4.0979 4.37635   1
  -1   0 -20 -0.2234 4.43183   1
  -2   0  20 228.756 12.4617   1
   2   0  20 226.938 12.0712   1
  -2   0  20 220.459 11.0919   7
   2   0  20 217.693 10.9282   7
  -2   0 -20 223.935 12.3307   1
   3   0  20 21.7106 5.14740   7
  -3   0  20 25.3234 5.42936   7
  -3   0 -20 29.0961 6.24147   1
   3   0  20 19.8082 5.55917   1
  -3   0  20 20.6613 5.60320   1
   4   0 -20 182.919 12.0268   1
   4   0  20 215.391 10.8752   7
  -4   0  20 186.281 10.9325   7
   4   0  20 190.835 11.7370   1
  -4   0 -20 167.570 11.1232   1
  -4   0  20 194.366 12.2677   1
   5   0  20 7.46012 4.45660   7
   5   0 -20 4.32771 5.09275   1
   5   0  20 -4.4612 4.23501   1
   5   0 -20 2.38728 4.21369   7
  -5   0 -20 -0.6439 4.62968   1
  -5   0  20 2.98652 5.35805   1
  -5   0  20 0.96713 4.23513   7
   6   0 -20 24.8627 6.36725   1
   6   0  20 22.3018 5.37371   7
  -6   0 -20 15.8790 5.70670   1
   6   0  20 21.4732 6.14308   1
   6   0 -20 29.4451 5.91838   7
  -6   0  20 21.4347 5.70425   7
  -6   0  20 40.3083 7.53485   1
  -7   0 -20 -1.9005 4.64517   1
  -7   0  20 1.95270 4.80315   7
   7   0  20 5.20651 5.43308   1
   7   0  20 4.00763 4.50332   7
  -7   0  20 -4.9000 5.05364   1
   7   0 -20 3.86797 5.43106   1
   7   0 -20 3.94140 4.51161   7
  -8   0 -20 64.4347 8.91197   1
   8   0  20 73.1934 9.26755   1
   8   0  20 68.0067 7.58743   7
  -8   0  20 84.4863 8.47722   7
   8   0 -20 52.6331 8.29463   1
  -8   0  20 82.5670 9.63913   1
   8   0 -20 64.8635 7.79397   7
   9   0 -20 122.578 11.9122   1
   9   0  20 106.236 9.01934   7
  -9   0  20 111.633 11.3030   1
  -9   0 -20 122.244 11.2916   1
   9   0 -20 122.278 10.0056   7
  -9   0  20 121.490 9.84257   7
  10   0 -20 21.8347 5.91516   7
 -10   0  20 13.4420 6.82746   1
  10   0 -20 2.24127 5.81236   1
  10   0  20 7.25455 5.35251   7
 -10   0 -20 13.3280 6.76142   1
 -10   0  20 5.30899 5.25470   7
  11   0 -20 -0.2842 4.80407   7
  11   0  20 -4.6059 4.59374   7
 -11   0 -20 6.61042 6.08186   1
 -11   0  20 1.43881 4.87225   7
 -11   0  20 7.23633 6.74096   1
   0   1  20 -1.2608 4.28741   2
   0  -1  20 3.37523 4.26961   1
   0   1 -20 -0.1741 4.37144   1
   0   1  20 -1.3904 3.82638   7
   0  -1  20 4.69609 3.93109   7
   0  -1 -20 4.23548 4.52633   1
  -1  -1 -20 54.2869 7.41093   1
  -1   1  20 49.6851 6.53239   7
   1  -1  20 44.8678 6.91285   1
   1  -1  20 46.0778 6.05167   7
   1   1 -20 32.6424 6.19079   1
  -1   1  20 45.5519 6.73629   2
   1   1  20 42.9055 6.38979   2
  -1   1 -20 43.9483 6.72380   1
   1  -1 -20 41.5772 6.74676   1
   1   1  20 45.4308 6.06351   7
  -1  -1  20 60.5456 7.64524   1
  -1  -1  20 48.3534 6.23268   7
   2  -1  20 9.62018 4.19926   7
  -2   1  20 10.5565 5.16059   2
  -2   1  20 -0.3445 4.04495   7
   2  -1  20 2.94461 4.71868   1
  -2  -1 -20 -6.3323 3.85080   1
   2   1 -20 3.11010 4.61082   1
  -2  -1  20 7.74991 4.33115   7
   2   1  20 2.62821 4.49451   2
   2   1  20 3.96768 4.05976   7
  -2   1 -20 4.36535 4.55919   1
  -2  -1  20 3.17996 4.67598   1
   3  -1  20 1.14730 3.78250   7
  -3   1  20 12.3501 4.82563   7
  -3  -1 -20 9.63293 5.22816   1
   3  -1  20 10.8566 4.89088   1
   3   1  20 20.3761 5.49758   2
  -3  -1  20 10.7004 5.44246   1
  -3   1 -20 6.99874 4.70715   1
  -3  -1  20 22.4758 5.09574   7
   3  -1 -20 7.64831 5.30839   1
   3   1  20 16.7996 5.05893   7
   3  -1 -20 16.5148 4.68273   7
   4  -1  20 2.77893 4.65409   1
  -4   1  20 -1.4303 4.33908   7
   4  -1  20 -2.0115 3.99276   7
  -4  -1 -20 5.06355 4.68834   1
  -4  -1  20 0.09302 4.02257   7
  -4   1 -20 6.21863 5.29006   1
   4  -1 -20 4.87424 4.00419   7
  -4  -1  20 4.77407 5.12338   1
   4  -1 -20 0.06772 4.71785   1
   4   1  20 0.38133 4.15050   7
   5  -1  20 7.05694 4.31598   7
  -5  -1 -20 6.61606 4.83972   1
   5  -1  20 -6.3757 4.16967   1
  -5   1  20 8.17311 5.04525   7
  -5  -1  20 10.0106 5.45479   1
   5  -1 -20 2.94524 5.01474   1
   5  -1 -20 5.87970 4.46204   7
  -5  -1  20 6.46105 4.46496   7
   5   1  20 1.34738 4.31757   7
  -6   1  20 145.660 10.4701   7
   6  -1  20 116.424 9.07797   7
   6  -1  20 123.848 10.9421   1
   6   1 -20 131.611 10.0041   7
  -6  -1 -20 120.371 10.4604   1
  -6  -1  20 132.513 9.46686   7
   6  -1 -20 137.883 9.33950   7
   6  -1 -20 126.541 11.0563   1
   6   1  20 126.970 9.62361   7
  -6  -1  20 114.831 10.8616   1
   7   1 -20 45.1719 7.04660   7
   7  -1  20 52.4646 7.79173   1
   7  -1  20 50.2438 6.54913   7
  -7  -1 -20 46.8035 7.49796   1
  -7   1  20 43.0494 6.79327   7
  -7  -1  20 42.4123 6.34540   7
   7  -1 -20 54.8945 8.52649   1
   7  -1 -20 57.0949 6.69621   7
   7   1  20 54.1144 7.15465   7
  -7  -1  20 45.8246 7.95904   1
  -8   1  20 230.966 12.9504   7
   8  -1  20 228.038 13.9013   1
  -8  -1 -20 237.627 14.0459   1
   8  -1  20 251.564 11.9485   7
   8   1 -20 239.710 12.9060   7
   8   1  20 234.559 12.5805   7
  -8  -1  20 248.815 14.6626   1
  -8  -1  20 235.561 11.7695   7
   8  -1 -20 249.248 14.4015   1
   8  -1 -20 242.162 11.7688   7
  -9   1  20 3.08742 5.23047   7
  -9  -1 -20 12.0433 6.29519   1
   9  -1  20 3.88438 4.61556   7
   9   1 -20 12.2417 5.48092   7
   9  -1  20 10.6287 5.91190   1
  -9  -1  20 13.5691 6.56899   1
  -9  -1  20 8.43693 4.89939   7
   9  -1 -20 24.8187 6.98541   1
   9   1  20 12.1606 5.35220   7
   9  -1 -20 3.29447 4.42311   7
 -10  -1 -20 53.7443 8.72833   1
  10  -1  20 54.8758 8.45444   1
  10  -1  20 59.2855 7.32424   7
  10   1 -20 42.3602 7.06090   7
 -10   1  20 55.3445 7.89060   7
 -10  -1  20 46.7122 8.74630   1
  10  -1 -20 52.5369 8.99383   1
  10   1  20 56.3951 7.60134   7
  10  -1 -20 42.2187 6.54092   7
 -10  -1  20 64.3799 7.34068   7
 -11   1  20 41.9496 7.39059   7
  11  -1  20 32.7520 7.94420   1
  11   1 -20 32.1412 7.16199   7
  11  -1  20 36.1939 6.57534   7
 -11  -1 -20 29.2061 7.86281   1
 -11  -1  20 54.9060 9.15504   1
 -11  -1  20 49.5136 6.94421   7
  11  -1 -20 54.5584 7.02549   7
  11   1  20 36.6554 7.21467   7
  11  -1 -20 47.1404 8.66236   1
   0   2 -20 369.312 14.8785   2
   0  -2  20 407.729 16.0616   1
   0  -2  20 397.548 13.1403   7
   0   2  20 411.737 15.6275   2
   0  -2 -20 408.034 12.8693   7
   0  -2 -20 389.229 16.0344   1
   0   2  20 412.292 14.7534   7
   1  -2  20 136.535 8.56242   7
   1  -2  20 134.879 10.0814   1
   1   2 -20 146.059 10.2734   2
  -1  -2 -20 143.700 8.20100   7
  -1  -2 -20 143.045 10.5594   1
  -1   2  20 141.747 9.81738   7
  -1   2  20 164.616 10.5979   2
   1  -2 -20 153.573 8.36050   7
   1  -2 -20 137.196 10.2423   1
  -1   2 -20 134.948 10.1301   2
   1   2  20 131.424 9.45427   7
  -1  -2  20 138.706 10.4766   1
  -1  -2  20 134.732 8.44231   7
   1   2  20 138.054 10.1047   2
  -2  -2 -20 519.673 18.3845   1
   2   2 -20 487.974 17.4429   2
  -2   2  20 488.880 16.7503   7
   2  -2  20 490.449 18.0012   1
   2  -2  20 487.361 14.8575   7
  -2   2  20 499.257 17.6373   2
  -2   2 -20 498.823 17.1989   2
  -2  -2  20 511.798 18.3174   1
   2   2  20 515.977 17.4879   2
   2  -2 -20 498.655 14.6259   7
  -2  -2  20 502.663 14.9823   7
   2   2  20 485.169 16.3288   7
   3   2 -20 10.8394 4.88801   2
  -3   2  20 20.1491 5.22019   7
  -3  -2 -20 18.6870 5.77467   1
   3  -2  20 13.0352 5.18376   1
   3  -2  20 15.7820 4.65813   7
  -3   2  20 19.7168 5.84492   2
  -3   2 -20 22.1046 5.36564   2
  -3  -2  20 21.2531 4.69684   7
   3   2  20 18.4157 5.18461   7
  -3  -2  20 22.2275 5.86560   1
   3  -2 -20 23.3191 4.60341   7
   3   2  20 28.3576 5.85439   2
   3  -2 -20 20.6995 5.80972   1
  -4   2  20 50.5894 6.93762   7
   4  -2  20 49.6420 7.21803   1
   4   2 -20 43.9761 6.93843   2
   4  -2  20 48.1330 5.99509   7
  -4  -2 -20 53.7487 7.44497   1
  -4   2  20 57.9154 7.80946   2
   4  -2 -20 62.8563 6.02021   7
  -4  -2  20 65.6942 6.35148   7
  -4   2 -20 54.9955 7.01677   2
   4   2  20 59.4745 7.14794   7
  -4  -2  20 52.4222 7.67735   1
   4   2  20 45.2181 7.01969   2
   4  -2 -20 48.7303 7.67102   1
  -5   2  20 3.52569 4.65254   7
  -5  -2 -20 16.6496 5.56768   1
   5  -2  20 0.13976 4.78509   1
   5   2 -20 1.03467 4.54683   2
   5  -2  20 -1.3579 3.80736   7
  -5   2  20 -5.7278 4.32655   2
  -5  -2  20 3.56622 5.03469   1
  -5   2 -20 1.49700 4.51588   2
   5   2  20 0.18123 4.61036   2
   5  -2 -20 7.67829 5.14187   1
   5   2  20 -3.1124 3.96335   7
  -5  -2  20 4.65458 4.01465   7
   5  -2 -20 0.45172 3.78911   7
   6  -2  20 528.487 19.5908   1
   6  -2  20 532.341 15.9813   7
   6   2 -20 542.662 19.3667   2
  -6   2  20 539.424 18.4812   7
  -6   2  20 548.703 19.7749   2
  -6  -2 -20 532.587 19.5062   1
   6  -2 -20 517.508 19.8906   1
  -6  -2  20 532.538 15.7138   7
  -6  -2  20 499.359 19.9685   1
   6  -2 -20 545.547 15.7828   7
   6   2  20 538.033 19.0822   2
   6   2  20 494.253 17.3835   7
   7   2 -20 25.9317 6.92089   2
   7  -2  20 20.1956 6.14087   1
  -7  -2 -20 21.2735 6.23196   1
  -7   2  20 12.7391 6.15137   2
   7  -2  20 22.3761 5.22220   7
  -7   2  20 18.4309 6.10872   7
   7   2  20 14.6003 5.77360   2
  -7  -2  20 24.4471 5.03059   7
   7  -2 -20 28.9067 5.06890   7
   7   2  20 15.6100 5.56565   7
   7  -2 -20 21.8750 6.71379   1
  -7  -2  20 10.5158 6.17228   1
   8  -2  20 -0.7210 4.21824   7
   8  -2  20 -1.2260 4.76779   1
  -8   2  20 6.20184 5.59690   7
   8   2 -20 3.53451 5.11254   7
  -8  -2 -20 6.49137 5.33939   1
  -8  -2  20 12.8407 6.25161   1
  -8  -2  20 6.94710 4.38180   7
   8  -2 -20 0.74415 5.66779   1
   8   2  20 -0.8037 5.23192   2
   8  -2 -20 2.25834 4.16937   7
   8   2  20 0.19958 4.89930   7
   9  -2  20 -0.4133 4.36445   7
  -9  -2 -20 -1.9036 5.07381   1
   9   2 -20 -2.8247 4.92889   7
   9  -2  20 -4.3467 5.10387   1
  -9   2  20 -8.4820 4.78695   7
   9  -2 -20 -1.4105 3.88024   7
  -9  -2  20 -1.1896 3.94231   7
  -9  -2  20 1.44440 5.78539   1
   9  -2 -20 -9.0226 4.87493   1
   9   2  20 6.49505 5.51723   7
  10   2 -20 97.6022 9.82342   7
 -10  -2 -20 106.180 10.9239   1
 -10   2  20 102.933 10.2301   7
  10  -2  20 102.809 8.67698   7
  10  -2  20 115.421 11.1962   1
  10  -2 -20 108.630 11.5403   1
  10  -2 -20 112.577 8.69565   7
 -10  -2  20 113.196 8.66020   7
  10   2  20 111.311 10.2949   7
 -10  -2  20 101.061 11.0479   1
   0   3 -20 2.00849 4.24369   2
   0   3  20 -1.5465 4.24634   2
   0  -3 -20 -4.8227 4.08767   1
   0  -3  20 2.61502 4.63609   1
  -1   3  20 49.8862 6.97745   2
  -1  -3 -20 32.0564 6.28122   1
   1  -3  20 43.0312 6.82372   1
   1   3 -20 51.7016 7.09652   2
  -1  -3  20 51.3385 7.40802   1
   1   3  20 35.4589 6.45243   2
   1  -3 -20 46.9852 6.87236   1
  -1   3 -20 43.7401 6.68181   2
   2   3 -20 0.97032 4.19789   2
   2  -3  20 0.62957 4.54804   1
  -2   3  20 2.34519 4.63245   2
  -2  -3 -20 -1.8678 4.24531   1
  -2   3 -20 1.39584 4.11249   2
  -2  -3  20 3.66316 4.76467   1
   2   3  20 3.04205 4.56820   2
   3  -3  20 1.50837 4.52456   1
  -3   3  20 6.23579 5.02067   2
   3   3 -20 4.70410 4.82975   2
  -3  -3 -20 13.1131 5.09743   1
  -3   3 -20 6.19356 4.83313   2
  -3  -3  20 8.57703 5.20467   1
   3   3  20 4.07530 4.54348   2
   3  -3 -20 8.22929 5.33222   1
  -4   3  20 4.56691 4.95196   2
   4  -3  20 -0.0115 4.23016   1
  -4  -3 -20 1.61391 4.55112   1
   4   3 -20 7.54464 4.88566   2
   4  -3 -20 -2.6269 4.48418   1
  -4  -3  20 5.82650 4.97945   1
   4   3  20 3.97315 4.68618   2
  -4   3 -20 5.12971 4.81481   2
   5   3 -20 0.79307 5.02734   2
  -5   3  20 11.9725 5.51975   2
   5  -3  20 9.46263 5.22353   1
  -5  -3 -20 16.5849 5.48276   1
   5  -3 -20 14.0684 5.64379   1
  -5  -3  20 8.52287 5.59854   1
   5   3  20 5.30721 5.00124   2
  -5   3 -20 15.2342 5.34758   2
   6  -3  20 98.5421 9.57044   1
  -6   3  20 93.7362 9.84203   2
   6   3 -20 117.931 10.3847   2
  -6  -3 -20 100.872 9.99508   1
  -6   3 -20 88.3905 9.07203   2
   6   3  20 107.186 9.92536   2
   6  -3 -20 91.4994 10.0241   1
  -6  -3  20 102.107 10.0641   1
  -7  -3 -20 31.8332 6.63779   1
  -7   3  20 33.1310 6.89574   2
   7  -3  20 39.6302 7.32645   1
  -7   3  20 45.8339 7.76879   7
   7   3 -20 44.9915 7.60717   2
   7  -3 -20 21.2782 6.88487   1
  -7   3 -20 38.7554 6.90585   2
   7   3  20 28.7788 6.89509   2
  -7  -3  20 47.2131 8.05058   1
  -8  -3 -20 192.005 12.9005   1
  -8   3  20 211.979 13.3055   7
   8  -3  20 187.841 13.1810   1
   8   3 -20 221.090 13.8123   2
  -8   3  20 206.962 14.1569   2
   8   3 -20 227.301 13.2724   7
  -8  -3  20 208.131 13.6165   1
   8   3  20 218.216 13.3648   2
   8  -3 -20 201.969 13.6941   1
  -8   3 -20 212.954 13.4050   2
  -9   3  20 1.76210 6.09188   7
  -9  -3 -20 10.4427 5.64904   1
   9   3 -20 14.6174 6.06089   7
   9   3 -20 7.75249 5.85500   2
  -9   3  20 13.7276 6.65322   2
   9  -3  20 14.2950 5.90062   1
  -9  -3  20 4.34291 5.88591   1
   9  -3 -20 5.10341 5.58981   1
   9   3  20 16.3791 6.13147   2
   0   4 -20 190.514 11.6764   2
   0  -4 -20 188.112 11.6115   1
   0   4  20 194.095 11.8175   2
   0  -4  20 190.627 11.7202   1
   1  -4  20 0.93655 4.61008   1
  -1   4  20 4.02970 4.86059   2
   1   4 -20 0.42920 4.43104   2
  -1  -4 -20 -7.1759 3.88491   1
   1  -4 -20 -4.4521 4.26744   1
  -1   4 -20 -0.4560 4.35810   2
  -1  -4  20 0.53947 4.41981   1
   1   4  20 -0.0169 4.43341   2
  -2   4  20 161.263 11.3833   2
   2  -4  20 132.824 10.3532   1
  -2  -4 -20 144.033 10.4701   1
   2   4 -20 146.920 10.7803   2
  -2   4 -20 149.710 10.5472   2
   2   4  20 126.175 10.2751   2
  -2  -4  20 129.172 10.5574   1
  -3   4  20 17.9023 5.82808   2
  -3  -4 -20 20.6526 9.39898   3
   3   4 -20 12.5438 5.41430   2
  -3  -4 -20 21.6609 5.72396   1
   3  -4  20 15.9482 5.40364   1
  -3  -4  20 7.08397 5.13123   1
   3   4  20 8.35438 5.14907   2
  -3   4 -20 8.98701 4.98663   2
  -4   4  20 140.717 11.2238   2
   4   4 -20 141.691 11.2187   2
   4  -4  20 118.669 10.4465   1
  -4  -4 -20 117.309 16.0366   3
  -4  -4 -20 154.125 10.9502   1
   4  -4 -20 135.652 10.7797   1
  -4  -4  20 129.431 10.5366   1
   4   4  20 115.140 9.96305   2
  -4   4 -20 135.421 10.4858   2
  -5   4  20 5.33732 5.19555   2
  -5  -4 -20 4.82759 4.80598   1
   5   4 -20 -1.3611 4.92303   2
   5  -4  20 5.91217 4.80143   1
  -5  -4 -20 -5.9989 10.4223   3
  -5   4 -20 1.13315 4.65916   2
   5  -4 -20 2.37994 5.01003   1
  -5  -4  20 5.96177 5.42297   1
   5   4  20 -0.9536 4.95050   2
  -6   4  20 15.6614 6.01952   2
   6   4 -20 17.0525 6.12176   2
   6  -4  20 16.2688 5.72561   1
  -6  -4 -20 -1.0896 12.1799   3
  -6  -4 -20 10.5043 5.47767   1
   6  -4 -20 11.6452 5.52374   1
  -6  -4  20 6.52296 5.66626   1
   6   4  20 14.4122 5.78552   2
  -6   4 -20 5.60859 4.84316   2
  -7  -4 -20 -3.5289 4.82333   1
   7   4 -20 -7.7148 4.52480   2
  -7  -4 -20 16.4699 13.2603   3
  -7   4  20 5.06829 5.43975   2
   7  -4  20 0.36183 4.82817   1
  -7  -4  20 4.29939 5.41313   1
   7   4  20 1.72304 4.93428   2
  -7   4 -20 2.81368 4.94311   2
   7  -4 -20 -7.7828 4.65684   1
   8   4 -20 49.2584 8.55884   2
  -8  -4 -20 46.7386 7.82477   1
   8  -4  20 38.6737 7.39242   1
  -8   4  20 61.7470 9.35308   2
  -8  -4 -20 46.3118 14.4783   3
  -8  -4  20 54.0213 8.52719   1
  -8   4 -20 59.8962 8.63129   2
   8   4  20 65.2177 8.63822   2
   8  -4 -20 46.3882 8.32773   1
   0   5  20 -2.3662 4.41206   2
   0   5 -20 -2.4575 4.59511   2
   0  -5 -20 5.21168 5.17044   1
   0  -5  20 -0.8819 4.38656   1
   1  -5  20 21.7775 5.89616   1
   1   5 -20 21.1327 6.11689   2
  -1   5  20 19.6569 5.90797   2
  -1  -5 -20 19.0492 5.68810   1
  -1   5 -20 18.7831 6.00664   2
   1   5  20 13.5772 5.65934   2
   1  -5 -20 15.1263 5.49104   1
  -1  -5  20 23.0756 6.15100   1
  -2   5  20 7.04846 4.99757   2
   2  -5  20 -1.8244 4.18052   1
   2   5 -20 1.21991 4.59575   2
  -2  -5 -20 0.19093 4.72653   1
   2   5  20 1.35673 4.67542   2
  -2   5 -20 7.27941 4.95059   2
   2  -5 -20 -1.1781 4.48454   1
  -2  -5  20 -3.1736 4.55525   1
  -3   5  20 6.30804 5.41096   2
  -3  -5 -20 8.47622 4.90385   1
   3   5 -20 11.0134 5.47723   2
   3  -5  20 4.68858 5.04685   1
  -3  -5  20 2.19528 5.17089   1
  -3   5 -20 4.74200 4.84140   2
   3   5  20 -2.2327 4.40280   2
   4   5 -20 0.04633 5.23363   2
  -4  -5 -20 5.25037 4.98667   1
   4  -5  20 -2.7590 4.50663   1
  -4   5  20 4.93996 5.18350   2
  -4  -5 -20 -4.9957 8.25780   3
   4   5  20 -1.1128 4.66464   2
  -4  -5  20 9.22587 5.17745   1
  -4   5 -20 -4.7023 4.36799   2
   5  -5  20 -5.4372 4.35379   1
  -5  -5 -20 -7.3132 4.27986   1
  -5   5  20 0.62420 5.00062   2
   5   5 -20 -3.7773 4.98331   2
  -5  -5 -20 0.82033 9.94515   3
   5   5  20 1.99080 5.04151   2
   5  -5 -20 3.70313 5.54725   1
  -5  -5  20 -0.3537 4.88661   1
  -5   5 -20 9.89481 5.22628   2
   0   0 -21 11.2485 5.09174   1
   0   0  21 6.47930 5.10670   1
   0   0  21 2.54419 3.99223   7
  -1   0 -21 151.219 11.2878   1
   1   0  21 182.758 11.8833   1
   1   0 -21 171.336 11.6619   1
   1   0  21 172.624 10.2500   7
  -1   0  21 177.194 10.4348   7
  -1   0  21 161.136 11.4218   1
   2   0  21 144.767 10.8201   1
  -2   0  21 167.014 10.3147   7
  -2   0 -21 136.695 10.7084   1
  -2   0  21 149.378 11.1759   1
   2   0  21 160.492 10.0109   7
  -3   0 -21 3.35325 5.08971   1
   3   0  21 3.18680 4.72927   1
  -3   0  21 -1.1385 4.40868   7
  -3   0  21 9.08037 5.31942   1
   3   0  21 -2.2585 4.04800   7
   4   0 -21 103.062 10.2981   1
   4   0  21 107.217 10.0967   1
   4   0  21 131.562 9.69304   7
  -4   0  21 106.397 8.91166   7
  -4   0 -21 102.426 9.73130   1
  -4   0  21 110.060 10.7457   1
  -5   0  21 -6.8846 4.94112   1
   5   0  21 -2.4670 4.78814   1
  -5   0  21 -4.2089 4.45270   7
   5   0 -21 4.30837 4.43454   7
  -5   0 -21 4.49793 5.12817   1
   5   0  21 5.93721 4.93191   7
   5   0 -21 -3.6965 4.77969   1
   6   0 -21 26.4023 6.99359   1
  -6   0  21 20.1698 6.81155   1
   6   0 -21 23.4813 5.76567   7
   6   0  21 22.8726 6.40444   1
  -6   0  21 25.9462 6.01473   7
   6   0  21 23.3547 5.90118   7
  -6   0 -21 40.5406 7.28602   1
   7   0 -21 467.028 19.2442   1
   7   0  21 435.510 18.4548   1
   7   0  21 460.829 16.4671   7
  -7   0  21 421.098 18.8611   1
   7   0 -21 410.233 16.1394   7
  -7   0 -21 452.016 18.3783   1
  -7   0  21 413.440 16.2150   7
   8   0 -21 356.338 17.5696   1
  -8   0 -21 372.833 17.3374   1
   8   0  21 361.515 14.9938   7
  -8   0  21 405.718 18.3285   1
  -8   0  21 348.215 15.2331   7
   8   0 -21 378.709 15.4113   7
  -9   0 -21 19.9114 6.86685   1
   9   0 -21 13.0466 5.60971   7
   9   0  21 18.7021 5.74660   7
  -9   0  21 19.0048 5.89023   7
   9   0 -21 3.42861 6.01171   1
  -9   0  21 33.8910 7.73589   1
 -10   0  21 28.3407 6.43979   7
 -10   0 -21 21.7755 7.12409   1
 -10   0  21 21.4325 7.78104   1
  10   0 -21 9.57476 5.38568   7
  10   0  21 26.7988 6.16537   7
   0   1  21 192.333 10.9732   7
   0  -1  21 187.002 11.5234   1
   0  -1 -21 198.602 11.9474   1
   0  -1  21 183.247 10.3463   7
   1  -1  21 18.9129 5.21095   7
  -1  -1 -21 17.1274 6.04175   1
   1  -1  21 25.6490 6.23344   1
  -1   1  21 27.8294 5.76180   7
   1  -1 -21 24.8820 6.45191   1
  -1  -1  21 23.9329 5.61148   7
  -1  -1  21 15.2784 5.31962   1
   1   1  21 30.0057 5.54822   7
   2  -1  21 22.0717 5.30721   7
   2  -1  21 24.5027 6.04264   1
  -2   1  21 15.6378 5.22356   7
  -2  -1 -21 17.8136 5.85832   1
  -2  -1  21 21.1709 6.07595   1
   2  -1 -21 17.8172 4.92031   7
   2   1  21 18.0758 5.22370   7
  -2  -1  21 26.2300 5.46675   7
  -3  -1 -21 52.4477 7.46293   1
   3  -1  21 46.2807 6.45818   7
  -3   1  21 35.1558 6.27122   7
   3  -1  21 57.0753 7.80623   1
  -3  -1  21 46.3681 7.39996   1
  -3  -1  21 45.0940 6.57784   7
   3   1  21 52.4621 6.93471   7
   3  -1 -21 38.7587 5.89403   7
  -4   1  21 140.101 10.4849   7
   4  -1  21 147.751 9.66262   7
   4  -1  21 144.833 11.0688   1
  -4  -1 -21 147.513 11.2915   1
  -4  -1  21 136.194 11.4022   1
   4   1  21 147.794 10.2251   7
   4  -1 -21 142.920 11.5037   1
  -4  -1  21 150.437 9.86414   7
   4  -1 -21 145.908 9.39751   7
   5  -1  21 7.63183 4.48976   7
  -5   1  21 0.68120 4.57061   7
   5  -1  21 7.78125 5.56501   1
  -5  -1 -21 1.87552 5.12424   1
   5   1  21 -0.3756 4.54290   7
   5  -1 -21 4.85433 4.47508   7
   5  -1 -21 2.02025 5.16869   1
  -5  -1  21 5.07180 5.72515   1
  -5  -1  21 4.54789 4.55939   7
  -6  -1 -21 86.0687 9.42051   1
   6  -1  21 86.8408 8.01616   7
   6   1 -21 72.9082 8.22918   7
  -6   1  21 88.9256 9.09816   7
   6  -1  21 91.7706 9.92462   1
  -6  -1  21 95.2401 8.40667   7
   6  -1 -21 77.5184 9.35790   1
  -6  -1  21 77.4916 9.35848   1
   6   1  21 75.0693 8.00228   7
   6  -1 -21 94.8714 8.04856   7
   7  -1  21 29.6642 5.99705   7
  -7   1  21 22.4383 6.27545   7
   7   1 -21 24.2505 6.13117   7
   7  -1  21 15.7481 6.25008   1
  -7  -1 -21 20.7534 6.26736   1
  -7  -1  21 28.6489 7.37347   1
   7  -1 -21 26.5866 7.03411   1
  -7  -1  21 29.4907 5.89249   7
   7  -1 -21 27.9615 5.85801   7
   7   1  21 19.9063 5.73604   7
   8  -1  21 21.2977 5.79289   7
  -8  -1 -21 17.1826 6.61317   1
   8  -1  21 27.1042 6.90421   1
  -8   1  21 25.0589 6.67736   7
   8   1 -21 33.0101 6.64549   7
  -8  -1  21 25.8750 5.84757   7
  -8  -1  21 19.0144 6.95410   1
   8   1  21 20.8515 5.90240   7
   8  -1 -21 20.0350 5.49356   7
   8  -1 -21 17.0434 7.06472   1
  -9  -1 -21 26.0802 7.28749   1
   9  -1  21 34.0811 6.31897   7
   9   1 -21 27.6662 6.55738   7
  -9   1  21 26.5677 6.63389   7
   9  -1  21 29.4497 7.33243   1
   9  -1 -21 19.5870 5.48081   7
   9   1  21 24.3408 6.41254   7
  -9  -1  21 35.6974 6.24820   7
   9  -1 -21 16.9039 6.78894   1
  -9  -1  21 44.0925 8.44377   1
 -10  -1 -21 166.633 13.2640   1
  10  -1  21 157.330 10.9957   7
 -10   1  21 140.523 11.3881   7
  10   1 -21 166.423 12.0964   7
  10  -1  21 162.225 13.0670   1
 -10  -1  21 173.008 11.0547   7
  10  -1 -21 147.480 10.3803   7
 -10  -1  21 175.125 13.9014   1
  10   1  21 179.943 12.0515   7
  10  -1 -21 150.355 13.4484   1
   0  -2  21 2.21312 3.73327   7
   0  -2 -21 5.50800 4.86230   1
   0   2  21 -0.8206 4.15559   7
   0   2 -21 1.79687 4.51890   2
   0   2  21 4.76628 4.63378   2
   0  -2  21 -5.4458 4.30856   1
   0  -2 -21 -9.5457 3.14674   7
  -1  -2 -21 -5.7791 4.27801   1
  -1   2  21 0.72183 4.49150   2
   1  -2  21 2.62985 5.04091   1
  -1  -2 -21 3.25626 3.81905   7
  -1   2  21 2.14189 4.55915   7
   1  -2  21 5.93206 4.11945   7
   1   2 -21 -7.5489 4.03512   2
   1   2  21 -2.2600 4.30601   2
   1   2  21 -1.3126 4.42100   7
   1  -2 -21 3.88726 3.68282   7
  -1  -2  21 0.32915 3.61947   7
   1  -2 -21 9.45117 5.08880   1
  -1  -2  21 1.28732 4.92756   1
  -1   2 -21 -1.4714 4.30313   2
   2   2 -21 283.379 13.9242   2
   2  -2  21 321.381 12.1292   7
  -2   2  21 309.606 14.2965   2
   2  -2  21 288.580 14.0142   1
  -2  -2 -21 274.627 14.1209   1
  -2   2  21 308.592 13.7312   7
   2  -2 -21 317.977 11.6516   7
  -2  -2  21 303.810 14.7199   1
  -2  -2  21 298.888 11.6532   7
  -2   2 -21 276.795 13.6766   2
   2   2  21 291.172 13.1818   7
   2   2  21 289.993 13.9690   2
  -3  -2 -21 35.9602 6.75106   1
  -3   2  21 42.8673 6.62475   7
   3   2 -21 32.5524 6.46835   2
  -3   2  21 39.2749 6.99069   2
   3  -2  21 47.7294 5.82809   7
   3  -2  21 30.0216 6.53769   1
  -3  -2  21 37.5594 5.51239   7
   3   2  21 47.1507 6.61260   7
   3   2  21 45.8094 7.09407   2
   3  -2 -21 39.7058 5.38323   7
  -3   2 -21 40.7790 6.55498   2
  -3  -2  21 44.0255 7.47985   1
   4  -2  21 13.4982 4.40182   7
  -4   2  21 -2.6313 4.87445   2
   4   2 -21 9.39955 5.47763   2
  -4   2  21 11.4421 5.05545   7
   4  -2  21 4.43268 4.92980   1
  -4  -2 -21 0.71275 4.82864   1
  -4  -2  21 8.55072 5.68500   1
   4  -2 -21 -0.3595 4.90442   1
  -4  -2  21 0.61116 3.92112   7
   4  -2 -21 11.1380 4.36917   7
   4   2  21 2.12419 4.37027   7
   4   2  21 -2.5528 4.67376   2
  -5   2  21 98.4537 9.93326   2
   5  -2  21 129.835 8.85331   7
  -5   2  21 126.636 10.4640   7
   5   2 -21 139.902 11.1283   2
  -5  -2 -21 113.158 10.2718   1
   5  -2  21 117.429 10.6058   1
   5   2  21 110.391 9.94203   2
   5  -2 -21 135.566 11.6898   1
   5  -2 -21 143.834 8.70250   7
  -5  -2  21 130.579 8.93231   7
   5   2  21 136.850 10.1869   7
  -5  -2  21 118.247 11.1585   1
  -6   2  21 385.138 17.2906   2
   6  -2  21 335.778 16.2829   1
  -6  -2 -21 340.007 16.1720   1
   6  -2  21 353.758 13.3681   7
  -6   2  21 370.623 15.7292   7
  -6  -2  21 368.979 13.0227   7
   6   2  21 356.285 16.0686   2
   6  -2 -21 374.241 17.0120   1
   6   2  21 372.102 15.2264   7
   6  -2 -21 364.993 12.9044   7
  -6  -2  21 316.681 16.5748   1
   7  -2  21 4.29018 5.36409   1
  -7  -2 -21 2.53367 5.06776   1
   7   2 -21 6.04879 5.23898   7
   7  -2  21 -0.3662 3.94262   7
  -7   2  21 7.24616 5.59315   7
   7   2  21 14.3418 5.82850   2
   7  -2 -21 3.84830 4.33178   7
  -7  -2  21 1.09382 4.05370   7
   7   2  21 3.64002 5.08313   7
  -7  -2  21 2.10538 5.68841   1
   7  -2 -21 0.08500 5.44181   1
   8  -2  21 23.5439 5.59041   7
   8   2 -21 9.58753 5.76812   7
  -8   2  21 16.4340 6.47654   7
   8  -2  21 29.3577 7.23113   1
  -8  -2 -21 17.5460 6.82853   1
   8  -2 -21 17.9687 4.88892   7
   8   2  21 22.1382 6.22451   7
  -8  -2  21 19.8657 4.83647   7
  -8  -2  21 23.5130 7.39769   1
   8  -2 -21 15.8142 6.89283   1
   9   2 -21 24.8448 6.41494   7
   9  -2  21 29.4742 5.93998   7
   9  -2  21 30.1368 7.23748   1
  -9   2  21 44.1668 7.80242   7
  -9  -2 -21 29.6266 7.43116   1
  -9  -2  21 29.5964 5.52042   7
   9  -2 -21 43.8279 5.87207   7
  -9  -2  21 38.0431 8.02532   1
   9   2  21 38.0025 7.36921   7
   9  -2 -21 24.4771 7.34256   1
   0   3 -21 150.857 10.7643   2
   0  -3 -21 135.620 10.6076   1
   0  -3  21 134.493 10.5290   1
   0   3  21 152.521 10.9734   2
   1  -3  21 14.6762 5.46013   1
  -1  -3 -21 20.3043 6.15371   1
  -1   3  21 19.7444 5.81027   2
   1   3 -21 12.8937 5.44558   2
  -1  -3  21 20.1254 5.96443   1
  -1   3 -21 19.6790 5.68864   2
   1   3  21 26.0902 6.13112   2
   1  -3 -21 16.9757 5.92969   1
  -2   3  21 10.5323 5.35030   2
   2   3 -21 16.9750 5.56168   2
  -2  -3 -21 12.3113 5.50293   1
   2  -3  21 24.1470 6.03534   1
  -2   3 -21 22.5574 5.80985   2
  -2  -3  21 23.1023 6.10678   1
   2   3  21 10.6185 5.42474   2
   3  -3  21 49.9540 7.32331   1
   3   3 -21 38.5085 6.98939   2
  -3  -3 -21 49.0588 7.40925   1
  -3   3  21 31.5836 6.74447   2
  -3  -3  21 31.0075 6.89414   1
   3   3  21 44.8614 7.37287   2
  -3   3 -21 40.6920 6.88181   2
  -4   3  21 119.815 10.4960   2
  -4  -3 -21 122.652 10.7248   1
   4   3 -21 145.635 11.2734   2
   4  -3  21 111.575 10.3465   1
   4   3  21 120.883 10.1734   2
  -4   3 -21 132.667 10.5368   2
   4  -3 -21 110.285 10.4518   1
  -4  -3  21 141.180 11.3697   1
   5  -3  21 2.70167 4.80177   1
  -5  -3 -21 -1.0456 4.55539   1
   5   3 -21 1.48609 5.14364   2
  -5   3  21 12.9846 5.52184   2
  -5  -3  21 -1.7343 5.24947   1
   5   3  21 -0.7119 4.81283   2
   5  -3 -21 -2.3646 5.02170   1
  -5   3 -21 10.1888 5.13959   2
  -6   3  21 94.4666 9.87819   7
   6  -3  21 77.8336 9.06960   1
   6   3 -21 102.309 10.1013   2
  -6   3  21 92.9535 9.94883   2
  -6  -3 -21 72.9639 9.12037   1
  -6  -3  21 71.5738 9.13854   1
   6  -3 -21 87.0862 9.56507   1
   6   3  21 97.9898 9.83932   2
  -6   3 -21 88.2511 9.30106   2
  -7  -3 -21 37.9591 7.17089   1
  -7   3  21 26.7246 7.09289   7
  -7   3  21 23.7113 6.96239   2
   7   3 -21 16.8004 6.26009   2
   7  -3  21 18.6249 6.33437   1
  -7  -3  21 29.2363 7.13308   1
   7  -3 -21 29.3400 7.09470   1
  -7   3 -21 20.7385 6.15143   2
   7   3  21 25.4503 7.05957   2
   8   3 -21 9.23583 5.81658   7
  -8   3  21 15.8046 6.68162   7
   8   3 -21 9.56302 6.24911   2
  -8  -3 -21 27.3456 6.84874   1
  -8   3  21 6.66483 6.15010   2
   8  -3  21 21.2568 6.67749   1
   8  -3 -21 18.5189 6.73155   1
  -8  -3  21 20.4027 6.85041   1
   8   3  21 15.6896 6.48033   2
   0   4  21 -4.0353 4.44993   2
   0   4 -21 4.43385 4.60554   2
   0  -4 -21 1.68437 4.69720   1
   0  -4  21 1.44124 4.58119   1
  -1   4  21 119.929 10.3603   2
   1   4 -21 128.328 10.7741   2
  -1  -4 -21 111.386 9.94614   1
   1  -4  21 129.698 10.4967   1
  -1  -4  21 128.416 10.4803   1
  -1   4 -21 120.707 10.3083   2
   1  -4 -21 106.293 10.0500   1
   1   4  21 108.352 9.86719   2
   2  -4  21 91.9676 9.19059   1
  -2   4  21 94.3626 9.58732   2
   2   4 -21 99.9412 9.63306   2
  -2  -4 -21 93.1643 9.21109   1
  -2  -4  21 84.2289 8.98924   1
   2  -4 -21 81.8824 8.96822   1
   2   4  21 98.3572 9.42041   2
  -2   4 -21 100.269 9.54601   2
   3   4 -21 6.50783 5.06457   2
  -3  -4 -21 -4.3545 4.23215   1
  -3  -4 -21 -1.2052 7.84657   3
  -3   4  21 -8.1108 4.46082   2
   3  -4  21 -1.6439 4.37720   1
  -3   4 -21 -5.8737 4.09711   2
  -3  -4  21 10.2193 5.61759   1
   3   4  21 4.27814 5.10248   2
   4   4 -21 80.4683 9.04262   2
  -4  -4 -21 93.6556 14.6384   3
   4  -4  21 65.2574 8.36862   1
  -4   4  21 69.3060 8.57137   2
  -4  -4 -21 73.7294 8.54207   1
   4  -4 -21 73.0874 9.15896   1
  -4   4 -21 74.4573 8.46022   2
  -4  -4  21 81.1984 9.14295   1
   4   4  21 71.1198 8.48265   2
  -5  -4 -21 2.77430 4.73322   1
  -5  -4 -21 16.4002 11.9833   3
   5   4 -21 -0.4004 5.15155   2
  -5   4  21 -3.9444 5.01066   2
   5  -4  21 4.58591 4.97739   1
   5   4  21 9.49706 5.36762   2
  -5  -4  21 -4.4800 4.95901   1
  -5   4 -21 6.72035 5.00475   2
   5  -4 -21 2.31947 5.21647   1
  -6   4  21 2.19768 5.70420   2
   6  -4  21 12.1629 5.85530   1
  -6  -4 -21 3.57807 5.14433   1
  -6  -4 -21 8.95736 12.8800   3
   6   4 -21 3.29437 5.60145   2
  -6   4 -21 15.1954 5.67484   2
   6   4  21 15.1088 6.06613   2
  -6  -4  21 18.5308 6.75289   1
   6  -4 -21 12.0178 5.66364   1
  -7   4  21 315.830 16.3259   2
   7  -4  21 316.147 15.7342   1
  -7  -4 -21 358.761 28.1947   3
  -7  -4 -21 316.228 16.0076   1
   7   4 -21 328.693 16.4012   2
   7  -4 -21 299.332 16.1765   1
  -7   4 -21 319.146 15.6731   2
   7   4  21 319.955 15.8551   2
  -7  -4  21 279.402 15.6324   1
   0  -5 -21 111.674 10.2643   1
   0   5  21 100.803 9.69265   2
   0   5 -21 128.358 10.7350   2
   0  -5  21 112.247 10.2466   1
  -1   5  21 22.3280 6.10548   2
   1  -5  21 20.2492 5.92796   1
   1   5 -21 18.0792 6.07982   2
  -1  -5 -21 19.3296 5.83309   1
  -1   5 -21 11.5121 5.68025   2
   1   5  21 18.8697 6.04055   2
   1  -5 -21 14.8396 5.53644   1
  -1  -5  21 3.14740 5.05105   1
  -2  -5 -21 17.3701 5.70005   1
  -2   5  21 26.2464 6.44040   2
   2   5 -21 17.4985 6.04131   2
   2  -5  21 33.0778 6.92687   1
  -2  -5  21 27.3590 6.52645   1
  -2   5 -21 25.0887 6.18817   2
   2   5  21 18.7208 5.73654   2
   2  -5 -21 12.5542 5.82012   1
  -3  -5 -21 24.2627 6.47372   1
   3   5 -21 21.2968 6.21499   2
   3  -5  21 18.5900 6.05708   1
  -3   5  21 26.8934 6.62244   2
  -3   5 -21 25.9894 6.35099   2
  -3  -5  21 34.0604 6.77087   1
   3   5  21 32.5342 6.85858   2
   0   0 -22 893.800 26.2232   1
   0   0  22 876.958 23.5338   7
   0   0  22 850.160 25.6815   1
  -1   0 -22 119.824 10.3547   1
   1   0  22 107.704 10.0565   1
  -1   0  22 120.131 10.7278   1
   1   0 -22 119.328 10.7855   1
   1   0  22 108.774 9.05242   7
  -1   0  22 106.557 8.85844   7
   2   0  22 65.7836 7.29403   7
   2   0  22 89.5328 9.32893   1
  -2   0  22 89.2468 9.51885   1
  -2   0 -22 73.4215 8.72749   1
  -2   0  22 82.7127 8.11184   7
   2   0 -22 86.3316 9.38058   1
   3   0  22 526.087 17.5349   7
   3   0  22 512.124 19.2049   1
  -3   0  22 533.586 17.8708   7
  -3   0 -22 524.730 19.5284   1
  -3   0  22 511.731 19.5008   1
  -4   0  22 4.14309 5.48035   1
  -4   0 -22 -6.4493 4.04876   1
   4   0  22 6.01220 5.20558   1
   4   0 -22 2.47653 4.63478   7
  -4   0  22 9.92466 4.95849   7
   4   0  22 5.23275 4.69570   7
  -5   0  22 286.243 13.6470   7
  -5   0 -22 288.274 15.0741   1
   5   0 -22 290.941 13.4671   7
   5   0  22 305.798 15.2741   1
   5   0  22 284.602 13.4465   7
  -5   0  22 311.660 15.8386   1
   5   0 -22 295.756 15.5338   1
  -6   0 -22 151.892 11.8849   1
   6   0 -22 141.434 12.4908   1
   6   0  22 131.808 10.2324   7
  -6   0  22 121.294 10.1130   7
  -6   0  22 154.582 12.5099   1
   6   0 -22 143.011 10.6338   7
   6   0  22 134.760 11.7938   1
  -7   0 -22 7.86990 5.75954   1
   7   0 -22 -4.5675 5.13475   1
  -7   0  22 -13.053 5.08299   1
  -7   0  22 8.85350 5.40433   7
   7   0  22 1.11517 4.88629   7
   7   0 -22 3.66770 4.91927   7
  -8   0  22 177.529 14.2300   1
  -8   0  22 180.526 11.9228   7
   8   0  22 180.437 11.7440   7
   8   0 -22 190.097 11.7727   7
   8   0 -22 168.550 13.5947   1
  -8   0 -22 187.260 13.4963   1
   9   0  22 3.03583 5.16643   7
  -9   0  22 -4.3199 4.79825   7
   9   0 -22 5.78624 6.87053   1
  -9   0 -22 2.73223 5.78497   1
   9   0 -22 -0.9307 4.68512   7
   0  -1  22 -0.3714 4.07061   7
   0   1  22 4.89717 4.39322   7
   0  -1 -22 8.89396 5.60434   1
   0  -1  22 6.53742 5.28528   1
   1  -1  22 17.0271 5.19243   7
   1  -1  22 10.9084 5.67573   1
  -1   1  22 7.60083 5.08842   7
  -1  -1 -22 11.6986 5.87024   1
   1  -1 -22 16.4123 6.01741   1
  -1  -1  22 8.35960 5.32675   1
  -1  -1  22 15.3860 5.19292   7
   1   1  22 15.5789 5.23309   7
   2  -1  22 42.6510 6.28539   7
   2  -1  22 65.7358 8.13550   1
  -2   1  22 36.5169 6.60269   7
  -2  -1 -22 42.9775 7.44953   1
   2  -1 -22 41.8436 7.32953   1
  -2  -1  22 34.3402 5.96102   7
   2  -1 -22 47.3665 6.22294   7
   2   1  22 41.7862 6.69385   7
  -2  -1  22 31.4770 6.83790   1
   3  -1  22 16.9019 5.19021   7
   3  -1  22 10.1664 5.57651   1
  -3   1  22 15.3462 5.37426   7
  -3  -1 -22 5.25981 5.43635   1
   3   1  22 17.0698 5.72161   7
   3  -1 -22 15.2751 4.99749   7
  -3  -1  22 12.5451 4.97576   7
  -3  -1  22 18.1602 6.33983   1
  -4   1  22 8.54868 5.20584   7
   4  -1  22 13.8344 4.98973   7
  -4  -1 -22 9.42208 5.55489   1
   4  -1  22 11.0326 5.50666   1
  -4  -1  22 1.53175 5.33522   1
  -4  -1  22 12.5602 5.17483   7
   4  -1 -22 9.58607 5.89606   1
   4  -1 -22 17.4027 4.94272   7
   4   1  22 10.5457 5.33765   7
  -5  -1 -22 224.588 13.5476   1
  -5   1  22 216.827 12.8258   7
   5  -1  22 205.914 13.5138   1
   5  -1  22 209.680 11.3202   7
   5  -1 -22 219.149 14.0138   1
   5  -1 -22 218.546 11.4466   7
  -5  -1  22 219.351 13.8451   1
   5   1  22 235.776 12.6109   7
  -5  -1  22 216.387 11.4927   7
   6  -1  22 187.221 12.9025   1
   6   1 -22 174.686 11.8822   7
  -6  -1 -22 170.137 12.7225   1
  -6   1  22 202.492 12.4942   7
   6  -1  22 183.779 10.8726   7
   6  -1 -22 196.531 13.5168   1
   6  -1 -22 172.845 10.5831   7
  -6  -1  22 195.718 13.5591   1
  -6  -1  22 184.647 11.1286   7
   6   1  22 192.322 11.8609   7
   7   1 -22 168.790 11.7184   7
   7  -1  22 159.791 10.6857   7
  -7   1  22 149.637 11.4754   7
   7  -1  22 199.331 13.2707   1
  -7  -1 -22 174.635 12.7172   1
  -7  -1  22 161.205 10.5502   7
  -7  -1  22 177.848 13.6504   1
   7   1  22 167.501 11.4923   7
   7  -1 -22 173.312 10.7178   7
   7  -1 -22 191.599 13.4815   1
   8  -1  22 16.6814 5.62366   7
  -8  -1 -22 12.2701 6.49775   1
   8  -1  22 19.8918 6.61010   1
  -8   1  22 22.5427 6.32548   7
   8   1 -22 27.7381 6.45447   7
  -8  -1  22 17.3448 5.57182   7
   8  -1 -22 34.0203 8.15446   1
   8   1  22 13.3683 5.69884   7
   8  -1 -22 15.3274 5.28307   7
  -8  -1  22 3.34775 6.48685   1
   9   1 -22 20.8259 6.47333   7
  -9  -1 -22 9.68798 6.44641   1
   9  -1  22 18.1062 5.78483   7
  -9   1  22 19.6875 6.59069   7
   9  -1  22 9.62631 6.46590   1
  -9  -1  22 15.0796 6.49046   1
   9  -1 -22 3.28822 6.22041   1
   9   1  22 9.25757 5.57794   7
  -9  -1  22 3.48303 4.90084   7
   9  -1 -22 23.8697 5.82568   7
   0  -2  22 6.23949 4.24232   7
   0  -2 -22 0.25641 3.86480   7
   0  -2  22 8.67582 5.56523   1
   0   2  22 4.75515 4.85689   2
   0  -2 -22 -2.4004 4.24343   1
   0   2  22 2.91014 4.77397   7
  -1   2  22 347.380 14.5079   7
   1   2 -22 330.840 16.8179   2
   1  -2  22 326.013 12.5715   7
  -1  -2 -22 319.175 11.9921   7
  -1   2  22 335.962 15.1247   2
   1  -2  22 308.488 15.2536   1
  -1  -2 -22 295.168 15.2572   1
   1  -2 -22 299.906 15.3180   1
   1   2  22 359.453 15.4588   2
   1   2  22 331.856 14.1469   7
   1  -2 -22 322.623 11.9078   7
  -1  -2  22 348.749 12.6745   7
  -1  -2  22 314.971 15.4443   1
   2  -2  22 9.21906 5.38906   1
  -2   2  22 4.29136 5.40798   2
   2  -2  22 8.43271 4.59300   7
  -2  -2 -22 9.06805 5.54820   1
  -2   2  22 8.36514 5.18628   7
  -2  -2 -22 0.92627 3.84792   7
  -2  -2  22 7.22946 4.24363   7
  -2  -2  22 18.6241 6.05069   1
   2   2  22 19.8364 5.74638   2
   2  -2 -22 11.5968 4.44556   7
   2   2  22 10.9376 4.84805   7
  -3   2  22 14.7511 5.82734   2
  -3  -2 -22 -2.3047 4.63039   1
   3  -2  22 -7.0798 4.68796   1
  -3   2  22 -2.7587 4.55357   7
   3  -2  22 6.08477 4.20119   7
   3  -2 -22 -2.3970 3.62502   7
   3   2  22 0.34470 4.43114   7
   3   2  22 1.29936 4.90072   2
  -3  -2  22 -4.1358 4.77421   1
  -3  -2  22 4.59684 4.26470   7
  -4   2  22 63.0586 8.78831   2
  -4   2  22 66.8805 7.89541   7
  -4  -2 -22 61.8653 8.56334   1
   4  -2  22 62.3504 8.52691   1
   4  -2  22 66.2024 6.84894   7
   4  -2 -22 71.2656 9.17264   1
   4  -2 -22 74.7788 6.86082   7
   4   2  22 56.5701 7.67575   7
   4   2  22 66.4087 8.39337   2
  -4  -2  22 86.6468 9.55487   1
  -4  -2  22 69.2900 6.87209   7
  -5   2  22 8.77878 5.51316   7
  -5  -2 -22 3.81920 5.57091   1
   5  -2  22 5.62708 5.58737   1
   5  -2  22 -3.7139 4.02546   7
   5  -2 -22 3.60347 5.64938   1
   5  -2 -22 3.05321 4.19635   7
  -5  -2  22 6.15961 5.83017   1
   5   2  22 4.47215 5.02753   2
  -5  -2  22 9.52549 4.63758   7
   5   2  22 9.33526 5.08358   7
  -6  -2 -22 5.67140 5.46524   1
   6  -2  22 6.43488 4.58259   7
   6  -2  22 -2.0816 5.21643   1
  -6   2  22 10.2749 5.93370   7
  -6  -2  22 8.21169 6.00904   1
  -6  -2  22 1.81302 4.10409   7
   6   2  22 13.2507 5.44294   7
   6  -2 -22 4.13922 4.09698   7
   6   2  22 8.74168 5.67879   2
   6  -2 -22 1.84336 5.59636   1
  -7  -2 -22 20.7864 6.54009   1
   7   2 -22 12.7601 5.90437   7
   7  -2  22 9.79271 4.84193   7
   7  -2  22 24.0430 6.78084   1
  -7   2  22 15.6599 6.40874   7
  -7  -2  22 12.1534 4.89405   7
   7  -2 -22 15.7065 6.49484   1
  -7  -2  22 22.9129 7.22942   1
   7   2  22 8.99086 5.49342   7
   7  -2 -22 15.4524 4.72561   7
   8   2 -22 20.9615 6.55254   7
   8  -2  22 11.3405 4.89132   7
  -8  -2 -22 13.7357 6.47618   1
   8  -2  22 18.6083 6.95266   1
  -8   2  22 19.9944 6.58612   7
   8   2  22 7.10753 5.65694   7
  -8  -2  22 14.2959 6.89874   1
  -8  -2  22 21.6588 5.14576   7
   8  -2 -22 20.2534 4.96412   7
   8  -2 -22 13.1150 6.42445   1
   0   3 -22 -6.7875 4.38413   2
   0  -3 -22 -5.8274 4.36489   1
   0  -3  22 4.37777 5.15961   1
   0   3  22 13.2810 5.54420   2
   1  -3  22 7.48804 5.45147   1
   1   3 -22 -2.7711 4.75300   2
  -1   3  22 8.67040 5.28803   2
  -1  -3 -22 5.71828 5.31074   1
   1   3  22 7.32009 5.24711   2
  -1  -3  22 11.8023 5.60271   1
  -1   3 -22 12.9193 5.42514   2
   1  -3 -22 6.74099 5.31369   1
  -2   3  22 36.9993 6.96171   2
   2  -3  22 15.7251 5.94217   1
  -2  -3 -22 35.9952 7.10232   1
   2   3 -22 28.0225 6.42147   2
   2  -3 -22 29.0385 6.42775   1
  -2   3 -22 33.5573 6.83752   2
   2   3  22 36.6593 6.82842   2
  -2  -3  22 28.9724 6.68784   1
  -3  -3 -22 8.31169 5.65646   1
   3  -3  22 12.1115 5.54702   1
   3   3 -22 13.9348 5.56715   2
  -3   3  22 12.9838 5.93817   2
  -3   3 -22 12.2745 5.46705   2
  -3  -3  22 7.96053 5.76285   1
   3   3  22 16.6998 5.79825   2
   4  -3  22 7.43738 5.46197   1
  -4   3  22 12.2629 6.04438   2
   4   3 -22 7.50759 5.90137   2
  -4   3  22 6.23740 5.86541   7
  -4  -3 -22 5.35833 5.36373   1
   4  -3 -22 4.40207 5.61634   1
   4   3  22 7.92717 5.13450   2
  -4   3 -22 6.66581 5.07077   2
  -4  -3  22 9.92543 5.63133   1
  -5   3  22 199.062 13.5403   2
   5  -3  22 179.500 12.4967   1
   5   3 -22 204.160 13.2752   2
  -5   3  22 206.697 12.7636   7
  -5  -3 -22 188.864 12.6332   1
  -5  -3  22 209.625 13.7361   1
  -5   3 -22 221.631 13.1792   2
   5   3  22 193.918 12.9869   2
   5  -3 -22 186.374 13.0427   1
   6   3 -22 174.842 12.8879   2
  -6  -3 -22 148.071 11.8975   1
  -6   3  22 165.865 12.6506   7
   6  -3  22 152.135 11.9654   1
  -6   3  22 144.251 12.0953   2
  -6  -3  22 145.758 12.5775   1
  -6   3 -22 166.533 12.1644   2
   6  -3 -22 142.285 12.2887   1
   6   3  22 165.518 12.5444   2
   7  -3  22 127.384 11.4585   1
   7   3 -22 129.818 11.8543   2
  -7  -3 -22 119.294 11.3266   1
  -7   3  22 152.505 12.8674   2
  -7   3  22 143.713 11.7468   7
  -7  -3  22 137.365 12.5168   1
   7   3  22 173.813 12.7993   2
   7  -3 -22 112.444 11.3296   1
   0   4  22 604.639 20.9896   2
   0  -4  22 563.083 20.8637   1
   0   4 -22 628.880 20.9700   2
   0  -4 -22 596.729 21.0653   1
  -1  -4 -22 70.9367 8.70576   1
   1  -4  22 82.0376 8.89351   1
   1   4 -22 99.0738 10.0327   2
  -1   4  22 93.5710 9.65092   2
   1  -4 -22 102.127 10.0343   1
  -1  -4  22 83.9202 9.44703   1
   1   4  22 94.7616 9.51695   2
  -1   4 -22 96.5049 9.69024   2
  -2   4  22 43.9050 7.67179   2
   2  -4  22 47.8778 7.60330   1
   2   4 -22 56.6247 8.03816   2
  -2  -4 -22 54.6349 8.20099   1
  -2   4 -22 64.5588 8.25128   2
  -2  -4  22 52.8566 7.98786   1
   2   4  22 46.9021 7.53795   2
   2  -4 -22 46.7740 7.94650   1
   3   4 -22 377.462 16.5332   2
  -3   4  22 349.759 16.5281   2
  -3  -4 -22 361.496 16.2935   1
   3  -4  22 327.735 15.7807   1
  -3   4 -22 361.200 16.0831   2
  -3  -4  22 346.351 16.3999   1
   3   4  22 342.701 15.9514   2
  -4   4  22 1.29046 5.53488   2
  -4  -4 -22 9.14324 9.79511   3
   4   4 -22 4.13901 5.32473   2
   4  -4  22 0.14543 4.84582   1
  -4  -4 -22 1.85800 4.97209   1
   4   4  22 -3.8711 4.42977   2
  -4   4 -22 1.20981 5.14945   2
  -4  -4  22 14.0696 6.02374   1
  -5   4  22 221.439 14.1212   2
   5  -4  22 213.506 13.2753   1
  -5  -4 -22 233.223 22.7687   3
  -5  -4 -22 211.137 13.2530   1
   5   4 -22 216.470 14.0190   2
   5   4  22 234.221 13.7620   2
  -5  -4  22 194.688 13.2994   1
   5  -4 -22 202.264 13.9163   1
  -5   4 -22 205.414 13.4694   2
   0   0  23 -2.7199 5.08821   1
   0   0 -23 11.4517 5.78767   1
   0   0  23 10.4098 5.15628   7
   1   0  23 384.063 15.3573   7
  -1   0  23 351.846 14.8346   7
   1   0  23 379.643 17.1850   1
  -1   0  23 408.302 17.5042   1
   1   0 -23 405.356 17.1786   1
  -1   0 -23 369.272 16.8205   1
   2   0 -23 2.91079 5.32604   1
   2   0  23 4.41116 5.56920   1
  -2   0  23 1.90725 5.04240   7
  -2   0 -23 13.7412 5.63927   1
   2   0  23 2.66886 4.72433   7
  -2   0  23 4.94632 5.09652   1
  -3   0 -23 148.208 11.9348   1
   3   0  23 128.296 10.0650   7
  -3   0  23 140.797 12.3834   1
   3   0  23 148.426 11.8061   1
  -3   0  23 134.758 10.3469   7
  -4   0  23 461.299 16.8550   7
  -4   0 -23 447.238 18.4149   1
   4   0  23 428.809 18.6166   1
   4   0 -23 429.083 16.3847   7
  -4   0  23 472.205 19.5887   1
   4   0  23 460.823 16.5516   7
  -5   0  23 66.2364 9.42573   1
  -5   0  23 90.2146 8.91948   7
   5   0 -23 93.9595 10.5363   1
   5   0 -23 66.1085 7.80610   7
  -5   0 -23 71.2794 9.14740   1
   5   0  23 62.4330 7.79276   7
  -6   0  23 29.2392 6.49885   7
  -6   0 -23 27.8531 6.95218   1
   6   0 -23 36.4845 8.22457   1
   6   0 -23 17.9231 5.70259   7
   6   0  23 24.1230 6.11289   7
  -6   0  23 37.5635 7.97367   1
  -7   0 -23 43.5544 8.24798   1
   7   0 -23 49.6412 8.91020   1
  -7   0  23 47.6041 9.41122   1
   7   0  23 44.6038 7.26087   7
  -7   0  23 58.5331 8.13269   7
   7   0 -23 35.7094 6.71237   7
  -8   0 -23 117.910 11.5539   1
   8   0 -23 113.117 9.69724   7
  -8   0  23 119.304 10.1703   7
   8   0  23 123.868 10.2031   7
   8   0 -23 101.866 12.3240   1
   0  -1 -23 62.0143 8.61770   1
   0  -1  23 50.8226 6.85793   7
   0  -1  23 52.1451 8.11347   1
   0   1  23 42.0689 6.97818   7
   1  -1  23 117.246 10.9314   1
  -1  -1 -23 117.201 10.7106   1
   1  -1  23 112.410 8.99825   7
  -1   1  23 121.803 9.68751   7
   1   1  23 102.983 9.35251   7
  -1  -1  23 118.278 9.25321   7
   1  -1 -23 108.373 10.6382   1
  -1  -1  23 117.061 11.1396   1
   2  -1  23 75.9247 9.20190   1
  -2  -1 -23 82.9334 9.38417   1
  -2   1  23 56.1246 7.55015   7
   2  -1  23 57.7559 6.98886   7
   2   1  23 63.9805 7.87527   7
  -2  -1  23 64.5305 8.85071   1
   2  -1 -23 86.0782 9.81205   1
   2  -1 -23 64.7387 7.06609   7
  -2  -1  23 54.7574 6.98658   7
  -3   1  23 80.5586 8.62824   7
   3  -1  23 68.1914 7.50373   7
   3  -1  23 66.0065 8.72548   1
  -3  -1 -23 78.4905 9.58097   1
   3   1  23 67.2141 8.08067   7
   3  -1 -23 62.1275 7.15397   7
  -3  -1  23 56.6020 7.30964   7
  -3  -1  23 59.8193 8.93200   1
  -4   1  23 113.909 10.0560   7
   4  -1  23 110.605 10.8979   1
  -4  -1 -23 126.452 11.3545   1
   4  -1  23 95.9643 8.61952   7
  -4  -1  23 129.897 9.83497   7
  -4  -1  23 108.117 11.2622   1
   4  -1 -23 121.503 9.30997   7
   4   1  23 118.106 9.94699   7
  -5  -1 -23 20.3259 6.77077   1
   5  -1  23 16.2163 5.00720   7
   5  -1  23 20.9941 6.78024   1
  -5   1  23 18.2579 6.23971   7
  -5  -1  23 19.0804 5.65326   7
   5   1  23 17.4239 5.83382   7
  -5  -1  23 13.7568 6.62563   1
   5  -1 -23 20.1295 5.55357   7
   5  -1 -23 11.9529 6.44012   1
   6  -1  23 103.428 10.6494   1
   6   1 -23 97.0337 9.59348   7
  -6   1  23 84.6199 9.17172   7
  -6  -1 -23 95.8643 10.5518   1
   6  -1  23 93.7110 8.48472   7
  -6  -1  23 101.942 11.4262   1
   6  -1 -23 95.3055 8.40428   7
   6  -1 -23 117.187 11.7846   1
  -6  -1  23 84.1756 8.28629   7
   6   1  23 98.5121 9.26043   7
  -7  -1 -23 99.7787 10.6373   1
   7  -1  23 84.3035 8.51909   7
   7  -1  23 105.933 11.1289   1
   7   1 -23 80.8869 8.88244   7
  -7   1  23 99.1569 9.99569   7
   7  -1 -23 83.2646 10.3228   1
  -7  -1  23 88.0303 8.46803   7
   7  -1 -23 84.7150 8.25350   7
   7   1  23 97.7281 9.35552   7
  -7  -1  23 122.776 11.9094   1
   8  -1  23 15.9451 6.84653   1
   8   1 -23 20.3554 6.17228   7
  -8  -1 -23 14.0151 6.87435   1
   8  -1  23 10.2399 5.48988   7
  -8   1  23 18.6339 6.26025   7
   8  -1 -23 23.3252 5.79996   7
  -8  -1  23 24.0465 5.92491   7
   8  -1 -23 7.83071 5.99213   1
  -8  -1  23 -0.5930 6.08086   1
   8   1  23 20.0674 6.26793   7
   0  -2  23 -2.6101 3.96919   7
   0   2  23 -0.9275 4.52717   7
   0  -2 -23 -1.9285 4.77148   1
   0  -2  23 0.89564 4.83482   1
   0   2  23 -5.5840 4.64742   2
   0  -2 -23 3.92267 3.97477   7
   1  -2  23 34.3894 5.70564   7
  -1  -2 -23 23.0498 6.61366   1
   1  -2  23 27.8290 6.72235   1
  -1  -2 -23 34.7423 5.34856   7
  -1   2  23 30.0637 6.84242   2
  -1   2  23 25.0445 6.33310   7
   1  -2 -23 21.6660 6.77636   1
   1  -2 -23 43.5207 5.80876   7
   1   2  23 48.4477 7.09840   7
  -1  -2  23 19.9653 5.12740   7
   1   2  23 24.9973 6.63951   2
  -1  -2  23 36.1243 7.13671   1
   2  -2  23 1.20179 4.26094   7
  -2   2  23 6.10230 5.10534   7
  -2   2  23 0.88888 5.31353   2
  -2  -2 -23 8.01977 4.25719   7
  -2  -2 -23 5.00536 5.26916   1
   2  -2  23 1.10935 5.03034   1
  -2  -2  23 -0.0963 4.94960   1
   2  -2 -23 -0.5171 5.15616   1
  -2  -2  23 -0.8352 3.87482   7
   2  -2 -23 -6.3756 3.62929   7
   2   2  23 -4.2965 4.62239   2
   2   2  23 -1.8818 4.72650   7
   3  -2  23 305.614 12.4050   7
  -3   2  23 311.480 14.5615   7
  -3  -2 -23 313.295 15.8398   1
   3  -2  23 281.743 14.9069   1
  -3  -2  23 313.825 12.3474   7
   3   2  23 298.600 14.9975   2
   3  -2 -23 282.021 11.7345   7
   3   2  23 290.337 14.1647   7
  -3  -2  23 288.852 15.6416   1
   4  -2  23 297.363 12.4033   7
  -4  -2 -23 260.793 14.9809   1
  -4   2  23 265.692 14.1316   7
   4  -2  23 302.337 15.5086   1
   4   2  23 307.305 14.3893   7
   4  -2 -23 312.504 11.8947   7
  -4  -2  23 285.317 15.7262   1
  -4  -2  23 292.923 12.0813   7
   5  -2  23 137.842 9.62443   7
  -5  -2 -23 128.377 11.5678   1
   5  -2  23 152.550 12.1945   1
  -5   2  23 141.526 11.4528   7
  -5  -2  23 132.456 12.2276   1
   5  -2 -23 152.593 9.07777   7
   5   2  23 128.880 10.7339   7
   5  -2 -23 124.242 11.8058   1
  -5  -2  23 149.608 9.43037   7
  -6   2  23 56.8913 8.29287   7
   6  -2  23 49.1844 8.18612   1
   6  -2  23 41.7689 6.27563   7
  -6  -2 -23 49.5693 8.26954   1
   6   2  23 51.9450 7.52631   7
   6  -2 -23 49.1772 6.12079   7
   6  -2 -23 56.7299 8.78275   1
  -6  -2  23 39.4383 8.17784   1
  -6  -2  23 61.3013 6.69612   7
  -7  -2 -23 6.36900 5.76219   1
   7   2 -23 -5.1324 5.22690   7
   7  -2  23 -5.8843 4.30720   7
  -7   2  23 -6.2512 4.73138   7
   7  -2  23 6.70777 5.77154   1
   7  -2 -23 5.58868 4.31394   7
  -7  -2  23 2.17895 6.05534   1
  -7  -2  23 3.55146 4.48568   7
   7  -2 -23 3.47613 5.93259   1
   7   2  23 6.66529 5.37306   7
   0   3 -23 61.7749 8.74672   2
   0   3  23 57.2077 8.11834   2
   0  -3  23 52.6499 8.12976   1
   0  -3 -23 63.5049 8.38200   1
  -1  -3 -23 98.9066 10.1920   1
   1  -3  23 91.0597 9.93133   1
  -1   3  23 125.870 10.8653   2
   1   3 -23 115.053 10.3882   2
   1  -3 -23 100.354 10.2207   1
  -1   3 -23 104.973 9.83043   2
  -1  -3  23 103.260 10.2583   1
   1   3  23 108.897 10.5720   2
   2  -3  23 62.8863 8.55800   1
  -2   3  23 47.1574 8.14751   2
  -2  -3 -23 51.4537 7.98789   1
   2   3 -23 45.8513 7.88577   2
  -2  -3  23 41.0131 7.87404   1
   2   3  23 41.7176 7.49378   2
  -2   3 -23 56.1278 8.29430   2
   2  -3 -23 34.1977 7.53327   1
  -3   3  23 57.0254 8.51039   2
  -3  -3 -23 38.7527 7.39447   1
  -3   3  23 52.7169 7.71774   7
   3  -3  23 34.3114 7.10386   1
   3   3 -23 46.0306 8.08401   2
   3   3  23 33.7029 7.31154   2
  -3  -3  23 39.2712 7.73181   1
  -3   3 -23 40.8845 7.36744   2
  -4   3  23 87.1603 9.88936   2
  -4   3  23 114.764 10.7520   7
  -4  -3 -23 82.9890 9.60560   1
   4   3 -23 79.6161 9.42161   2
   4  -3  23 82.8611 9.55328   1
  -4  -3  23 95.9656 10.3242   1
   4   3  23 85.7518 9.86898   2
  -4   3 -23 85.0268 9.34646   2
   5   3 -23 19.0110 6.80006   2
  -5  -3 -23 13.5794 6.08777   1
  -5   3  23 24.5715 6.70106   7
  -5   3  23 16.3458 6.90266   2
   5  -3  23 23.8346 6.62056   1
   5   3  23 30.1063 6.73889   2
   5  -3 -23 29.4402 7.50415   1
  -5  -3  23 9.62096 6.04395   1
   6   3 -23 80.5059 10.0884   2
  -6   3  23 83.3579 9.79285   7
  -6  -3 -23 72.0938 9.43821   1
   6  -3  23 62.8738 8.97316   1
  -6   3  23 90.1699 10.6880   2
  -6  -3  23 83.8574 10.4372   1
   6  -3 -23 60.8019 9.21087   1
   6   3  23 74.0777 9.40449   2
   0   4 -23 4.88800 5.73849   2
   0  -4  23 -1.8543 4.66238   1
   0   4  23 0.58465 5.13524   2
   0  -4 -23 -0.4873 5.38125   1
  -1  -4 -23 268.486 14.6597   1
  -1   4  23 260.954 14.6388   2
   1   4 -23 281.119 14.9748   2
   1  -4  23 271.070 14.6967   1
  -1   4 -23 296.494 14.9195   2
   1  -4 -23 259.424 14.3147   1
  -1  -4  23 259.957 14.3727   1
   1   4  23 264.369 14.6981   2
   2   4 -23 2.93958 5.34597   2
  -2   4  23 3.95595 5.70836   2
  -2  -4 -23 8.64238 5.32906   1
   2  -4  23 -7.5780 4.45729   1
   2  -4 -23 1.60231 5.35232   1
   2   4  23 3.53423 5.56743   2
  -2  -4  23 3.81013 5.22092   1
  -2   4 -23 -2.5288 4.88147   2
   3  -4  23 89.8136 9.94211   1
   3   4 -23 98.6330 10.4411   2
  -3  -4 -23 79.1659 9.28324   1
  -3   4  23 101.581 10.5941   2
   3   4  23 98.4236 10.1871   2
  -3   4 -23 105.423 10.3897   2
   3  -4 -23 92.6037 9.86832   1
  -3  -4  23 96.7384 10.3505   1
   0   0 -24 -3.2387 4.87098   1
   0   0  24 10.0853 5.78490   1
   0   0  24 -6.4458 4.33307   7
   1   0  24 7.15932 5.67441   1
   1   0 -24 12.6210 6.02372   1
  -1   0  24 1.45320 4.76542   7
  -1   0  24 11.3670 6.30658   1
   1   0  24 5.72000 4.76801   7
  -1   0 -24 -2.2520 5.08903   1
  -2   0  24 25.6332 6.39812   7
  -2   0 -24 49.3730 8.18929   1
   2   0 -24 47.6342 8.38900   1
   2   0  24 31.7882 6.41373   7
   2   0  24 28.9572 7.70995   1
  -2   0  24 22.5290 6.86165   1
   3   0 -24 18.5250 6.54031   1
   3   0  24 14.5258 5.43238   7
  -3   0  24 15.8463 6.98238   1
  -3   0  24 7.06185 5.58697   7
  -3   0 -24 20.5994 6.71431   1
  -4   0  24 6.49078 6.38652   1
   4   0 -24 3.40010 4.97676   7
  -4   0 -24 13.6963 6.35342   1
   4   0  24 10.5935 5.34513   7
  -4   0  24 20.3143 6.24461   7
   5   0  24 27.5403 6.22185   7
   5   0 -24 26.7405 6.03902   7
  -5   0 -24 20.1993 6.95544   1
  -5   0  24 19.3923 5.99365   7
  -6   0  24 95.0704 9.38575   7
  -6   0 -24 113.942 11.4401   1
   6   0  24 113.387 10.0242   7
   6   0 -24 108.635 11.7077   1
   6   0 -24 87.9464 8.83389   7
   7   0  24 27.4885 6.77249   7
  -7   0  24 21.9464 6.41325   7
   7   0 -24 28.4850 6.68123   7
  -7   0 -24 38.0408 8.11600   1
   0  -1  24 -5.2202 5.22007   1
   0  -1  24 1.70321 4.77050   7
   0  -1 -24 -2.2379 5.22439   1
   0   1  24 -5.4583 4.68860   7
   1  -1  24 62.8941 9.01203   1
   1  -1  24 66.8598 7.71843   7
  -1  -1 -24 70.4355 9.06220   1
  -1   1  24 86.5668 9.05734   7
  -1  -1  24 80.2078 8.15479   7
   1  -1 -24 69.5714 9.08488   1
   1  -1 -24 67.0879 7.29731   7
   1   1  24 81.3760 8.61427   7
  -1  -1  24 74.8518 9.44370   1
  -2   1  24 13.9969 5.92444   7
   2  -1  24 11.7575 6.17613   1
  -2  -1 -24 26.3998 6.80983   1
   2  -1  24 19.5008 5.61296   7
   2   1  24 13.4005 5.53604   7
  -2  -1  24 8.95597 6.36297   1
   2  -1 -24 12.5109 5.21666   7
   2  -1 -24 8.71585 6.10471   1
  -2  -1  24 8.00232 4.99025   7
   3  -1  24 5.97901 5.52293   1
  -3   1  24 5.11531 5.31362   7
  -3  -1 -24 -2.1409 5.24558   1
   3  -1  24 4.06776 4.76947   7
  -3  -1  24 -0.1850 4.48631   7
   3   1  24 1.61514 4.89030   7
  -3  -1  24 2.70475 5.83103   1
   3  -1 -24 5.06099 4.66328   7
   3  -1 -24 11.0945 5.93438   1
  -4   1  24 208.182 13.1672   7
  -4  -1 -24 250.187 14.6502   1
   4  -1  24 202.889 13.9056   1
   4  -1  24 235.496 12.4589   7
   4   1  24 209.528 12.8908   7
  -4  -1  24 254.587 15.2395   1
  -4  -1  24 252.523 12.5477   7
   4  -1 -24 242.177 11.9248   7
   5   1 -24 5.09196 5.19131   7
  -5   1  24 8.17836 5.61950   7
   5  -1  24 0.70104 5.27472   1
   5  -1  24 0.49562 4.75254   7
  -5  -1 -24 8.78038 6.09492   1
  -5  -1  24 3.01858 5.73868   1
   5   1  24 3.00753 5.20340   7
   5  -1 -24 -0.3151 4.52560   7
  -5  -1  24 2.90176 4.98494   7
   6  -1  24 35.4251 7.81337   1
  -6   1  24 24.4613 6.70922   7
  -6  -1 -24 24.0450 7.33472   1
   6  -1  24 42.3494 6.59140   7
   6   1 -24 34.7599 7.15703   7
   6   1  24 36.1661 7.25444   7
   6  -1 -24 44.2198 8.48959   1
  -6  -1  24 31.2357 8.00038   1
   6  -1 -24 30.0317 6.17341   7
  -6  -1  24 23.2282 6.00477   7
   7  -1  24 8.03872 6.13236   1
  -7   1  24 1.98947 5.21872   7
   7  -1  24 2.29952 4.96766   7
  -7  -1 -24 -1.0679 5.39900   1
   7   1 -24 6.21516 5.29316   7
   7  -1 -24 -1.4011 5.83962   1
  -7  -1  24 -11.452 5.21153   1
  -7  -1  24 -5.6729 4.59792   7
   7  -1 -24 -5.1871 4.24301   7
   7   1  24 10.8185 5.95903   7
   0  -2  24 1024.83 31.2273   1
   0  -2 -24 1097.19 25.2458   7
   0  -2 -24 1117.56 31.6821   1
   0  -2  24 1128.36 26.4446   7
   0   2  24 1106.92 28.9380   7
  -1   2  24 1.87706 5.05769   7
   1  -2  24 9.04421 4.57271   7
   1  -2  24 -6.3635 4.90546   1
  -1  -2 -24 4.32025 5.37207   1
  -1  -2 -24 4.52474 4.23623   7
  -1  -2  24 1.31540 4.52517   7
   1   2  24 -1.0947 5.09394   7
   1  -2 -24 1.88224 5.41104   1
   1  -2 -24 5.47310 4.35750   7
  -1  -2  24 0.39147 5.67894   1
  -2  -2 -24 207.471 13.5084   1
   2  -2  24 192.499 13.2297   1
  -2  -2 -24 226.472 10.8056   7
  -2   2  24 207.298 12.8288   7
   2  -2  24 205.434 11.0254   7
   2  -2 -24 178.859 13.3616   1
  -2  -2  24 213.640 13.9409   1
  -2  -2  24 201.103 10.6541   7
   2  -2 -24 204.292 10.0639   7
   2   2  24 203.709 12.5391   7
  -3   2  24 28.0375 6.67238   7
  -3  -2 -24 20.4688 6.68658   1
   3  -2  24 28.6521 7.15798   1
   3  -2  24 24.9425 5.72808   7
   3   2  24 38.6136 7.22460   7
   3  -2 -24 24.2405 5.23329   7
  -3  -2  24 28.9275 5.58620   7
  -3  -2  24 34.7420 7.54395   1
   4  -2  24 9.79865 4.68609   7
   4  -2  24 1.52731 5.69414   1
  -4   2  24 1.03310 5.48879   7
  -4  -2 -24 11.3526 6.06903   1
  -4  -2  24 -1.3920 5.23742   1
  -4  -2  24 11.1116 4.67502   7
   4   2  24 5.77329 5.56420   7
   4  -2 -24 12.0881 4.66577   7
   5  -2  24 0.87636 5.16512   1
   5  -2  24 -1.5432 4.14333   7
  -5   2  24 7.44958 5.75393   7
  -5  -2 -24 0.30472 5.39841   1
  -5  -2  24 -5.7514 5.46861   1
   5  -2 -24 -5.8604 5.39978   1
  -5  -2  24 1.51777 4.31026   7
   5  -2 -24 2.62443 4.15422   7
   5   2  24 -2.9097 4.88506   7
  -6  -2 -24 -0.5589 5.47153   1
   6  -2  24 -8.3062 5.27225   1
  -6   2  24 0.96322 5.55232   7
   6  -2  24 -7.3494 4.05625   7
  -6  -2  24 5.97390 4.56334   7
   6  -2 -24 -3.2048 5.75015   1
   6   2  24 -0.8064 5.23584   7
  -6  -2  24 -6.3961 5.37694   1
   0   3 -24 -5.9424 5.02221   2
   0   3  24 4.19691 5.21972   7
   0  -3 -24 2.05734 5.23497   1
   0  -3  24 -0.1937 5.36131   1
   0   3  24 5.96480 5.36460   2
  -1   3  24 68.2276 9.10831   2
   1   3 -24 59.8863 8.58104   2
  -1  -3 -24 55.9465 8.54998   1
   1  -3  24 76.8059 9.12648   1
  -1   3  24 75.4897 9.04583   7
   1  -3 -24 86.1212 9.67986   1
   1   3  24 76.9820 9.22740   7
  -1   3 -24 78.7519 9.41733   2
   1   3  24 82.6637 9.63399   2
  -1  -3  24 78.4341 9.74350   1
   2   3 -24 7.53094 5.94136   2
  -2   3  24 20.0905 6.65947   7
  -2  -3 -24 12.8435 6.27336   1
  -2   3  24 31.3598 7.39279   2
   2  -3  24 20.7814 6.40607   1
   2   3  24 18.3452 6.85950   7
   2  -3 -24 13.4719 6.50519   1
   2   3  24 4.47054 5.69885   2
  -2   3 -24 19.4275 6.44306   2
  -2  -3  24 19.7552 6.58787   1
  -3   3  24 6.97729 5.89247   2
   3  -3  24 0.57485 5.05960   1
  -3   3  24 -1.4913 5.19824   7
   3   3 -24 -0.5529 5.62557   2
  -3  -3 -24 2.05374 5.13949   1
   3   3  24 -5.1459 5.34265   2
  -3  -3  24 0.36949 5.56161   1
   3  -3 -24 1.65139 4.86442   1
   3   3  24 2.38369 5.91790   7
  -4  -3 -24 233.577 14.5926   1
  -4   3  24 236.312 13.9551   7
  -4   3  24 236.730 15.1033   2
   4   3 -24 224.128 15.9563   2
   4  -3  24 221.685 14.3513   1
   4   3  24 218.363 13.8966   7
  -4  -3  24 233.663 14.9223   1
   4   3  24 238.888 14.3946   2
   0   0  25 2.21615 5.03064   7
   0   0 -25 6.11008 5.53880   1
   1   0 -25 415.302 18.7058   1
  -1   0  25 428.639 16.7635   7
   1   0  25 404.076 16.6206   7
  -1   0 -25 420.291 18.6358   1
   2   0  25 21.7906 6.35673   7
  -2   0  25 33.6528 6.82785   7
  -2   0 -25 38.2276 8.17184   1
   2   0 -25 35.6898 7.66916   1
   3   0  25 196.802 12.5120   7
   3   0 -25 206.039 12.0668   7
  -3   0 -25 207.171 14.1408   1
   3   0 -25 212.963 14.5701   1
  -3   0  25 204.682 12.7688   7
  -4   0  25 29.1617 6.67331   7
  -4   0 -25 41.1787 8.23297   1
   4   0 -25 33.5906 7.77015   1
   4   0  25 41.5606 6.82537   7
   4   0 -25 45.2243 7.30099   7
   5   0  25 117.304 10.2184   7
  -5   0 -25 114.605 11.5614   1
  -5   0  25 114.056 10.2812   7
   5   0 -25 107.458 9.66791   7
   0  -1 -25 89.1174 10.4792   1
   0  -1  25 87.3261 10.3208   1
   0   1  25 87.9381 9.34328   7
   0  -1  25 93.6392 8.80481   7
   1  -1  25 63.9154 7.75343   7
   1  -1  25 67.3660 9.15444   1
  -1   1  25 53.8190 7.91338   7
  -1  -1 -25 67.6592 9.29163   1
  -1  -1  25 44.5462 8.34235   1
   1   1  25 58.2969 8.15777   7
  -1  -1  25 78.7364 8.28063   7
   1  -1 -25 70.2717 9.54082   1
   1  -1 -25 52.7584 6.79673   7
   2  -1  25 11.5136 6.11714   1
  -2   1  25 12.8979 5.67422   7
  -2  -1 -25 4.74375 5.89964   1
   2  -1  25 5.87023 4.85017   7
  -2  -1  25 6.79104 6.25194   1
   2  -1 -25 12.5093 6.75637   1
  -2  -1  25 2.55138 4.94408   7
   2  -1 -25 14.5132 5.03825   7
   2   1  25 19.0246 6.00913   7
   3  -1  25 218.660 12.1582   7
  -3   1  25 192.873 13.2506   7
  -3  -1 -25 221.822 14.5062   1
   3  -1  25 227.681 14.4332   1
  -3  -1  25 202.649 14.3235   1
   3   1  25 215.789 13.0988   7
   3  -1 -25 187.655 11.1165   7
   3  -1 -25 206.173 14.3815   1
  -3  -1  25 218.507 12.2641   7
  -4   1  25 66.2918 8.52628   7
  -4  -1 -25 57.7723 8.95803   1
   4  -1  25 53.5535 7.24834   7
   4  -1  25 55.3184 8.95390   1
   4   1  25 61.7347 8.03510   7
  -4  -1  25 59.0846 7.73457   7
   4  -1 -25 63.9277 7.50609   7
  -4  -1  25 76.3320 10.4192   1
   5  -1  25 66.9637 8.03093   7
  -5   1  25 74.8764 8.93911   7
  -5  -1 -25 77.6727 10.1293   1
   5  -1  25 76.2819 9.69516   1
   5   1 -25 80.0854 9.21044   7
  -5  -1  25 88.9606 11.1414   1
   5  -1 -25 85.9828 8.23596   7
  -5  -1  25 73.2068 8.24784   7
   5   1  25 91.4236 9.71428   7
   0   2  25 4.93901 5.71471   7
   0  -2  25 5.77572 5.89423   1
   0  -2 -25 -1.5027 5.73350   1
   0  -2  25 0.98212 4.55706   7
   1  -2  25 6.95902 5.75387   1
   1  -2  25 -1.7142 4.68199   7
  -1  -2 -25 1.66304 5.56269   1
  -1   2  25 4.87820 5.51581   7
  -1  -2  25 9.09244 5.69997   1
   1  -2 -25 9.41049 6.29408   1
  -1  -2  25 8.78290 4.77604   7
   1   2  25 4.97380 5.65001   7
   2  -2  25 205.634 13.7562   1
  -2  -2 -25 204.288 13.8759   1
   2  -2  25 188.427 10.7949   7
  -2   2  25 214.953 13.3999   7
  -2  -2  25 222.878 11.2130   7
   2  -2 -25 214.502 14.4139   1
   2   2  25 226.577 13.4121   7
  -2  -2  25 222.619 14.5551   1
   3  -2  25 204.076 14.1383   1
   3  -2  25 245.475 11.9934   7
  -3   2  25 243.147 13.7962   7
  -3  -2 -25 212.727 14.3931   1
  -3  -2  25 225.368 14.9437   1
   3  -2 -25 226.151 14.7159   1
   3   2  25 244.723 13.7723   7
  -3  -2  25 230.785 11.3854   7
  -4   2  25 264.239 15.1464   7
   4  -2  25 297.243 13.1776   7
   4   2  25 286.342 14.8243   7
  -4  -2  25 289.570 12.2833   7
   0   0 -26 119.300 11.9385   1
   0   0  26 111.996 9.99403   7
   1   0  26 111.291 10.1014   7
   1   0 -26 134.840 12.7841   1
  -1   0  26 131.198 10.8378   7
  -1   0 -26 118.048 11.7871   1
   2   0  26 5.32721 5.25747   7
  -2   0  26 2.73695 5.36116   7
  -2   0 -26 0.80239 5.97999   1
   2   0 -26 0.29632 5.57063   1
   3   0  26 129.276 10.7068   7
   3   0 -26 100.560 9.52324   7
  -3   0  26 121.002 10.3618   7
   0  -1 -26 0.04794 5.58146   1
   0   1  26 -0.9166 5.25109   7
   0  -1  26 2.42967 4.96682   7
   0  -1  26 -0.7259 5.53030   1
   0  -1 -26 4.06890 4.51082   7
   1  -1  26 24.8882 6.50151   7
   1  -1  26 25.6853 7.60858   1
  -1  -1 -26 29.8801 7.54115   1
  -1   1  26 26.7385 6.75592   7
   1   1  26 29.0761 6.88841   7
  -1  -1  26 11.7816 6.81487   1
   1  -1 -26 28.6466 7.30864   1
   1  -1 -26 34.4217 6.15773   7
  -1  -1  26 32.7231 6.40105   7
  -2  -1 -26 7.18059 6.08784   1
   2  -1  26 6.10000 6.29468   1
  -2   1  26 0.64260 5.32119   7
   2  -1  26 13.1762 5.48826   7
   2  -1 -26 13.5602 5.31938   7
  -2  -1  26 1.10767 4.97278   7
   2  -1 -26 2.83858 5.56497   1
   2   1  26 14.8660 6.22363   7
  -2  -1  26 6.32334 6.16906   1
   0   0   0    0.00    0.00   0
;
_shelx_hkl_checksum              19757
loop_
_space_group_symop_operation_xyz
'x, y, z'
'-x+1/2, -y, z+1/2'
'x+1/2, -y+1/2, -z+1/2'
'-x, y+1/2, -z'
'-x, -y, -z'
'x-1/2, y, -z-1/2'
'-x-1/2, y-1/2, z-1/2'
'x, -y-1/2, z'
loop_
_atom_site_label
_atom_site_type_symbol
_atom_site_fract_x
_atom_site_fract_y
_atom_site_fract_z
_atom_site_U_iso_or_equiv
_atom_site_adp_type
_atom_site_occupancy
_atom_site_site_symmetry_order
_atom_site_calc_flag
_atom_site_refinement_flags_posn
_atom_site_refinement_flags_adp
_atom_site_refinement_flags_occupancy
Th1 Th 0.28947(2) 0.2500 0.37406(2) 0.00702(5) Uani 1 2 d S T P
Ba1 Ba 0.32257(2) 0.2500 0.05640(2) 0.00845(7) Uani 1 2 d S T P
Ba2 Ba 0.44664(2) 0.2500 0.72456(2) 0.00768(6) Uani 1 2 d S T P
Te1 Te 0.07468(2) 0.00109(4) 0.39849(2) 0.00941(5) Uani 1 1 d . . .
Te2 Te 0.30668(2) 0.00152(4) 0.22801(2) 0.00903(5) Uani 1 1 d . . .
Te3 Te 0.04202(3) 0.2500 0.12080(2) 0.00778(7) Uani 1 2 d S T P
Te4 Te 0.32549(3) 0.2500 0.54146(2) 0.00777(7) Uani 1 2 d S T P
Te5 Te 0.63789(3) 0.2500 0.58471(2) 0.00635(7) Uani 1 2 d S T P
Cr1 Cr 0.0000 0.0000 0.0000 0.00838(16) Uani 1 2 d S . P
loop_
_atom_site_aniso_label
_atom_site_aniso_U_11
_atom_site_aniso_U_22
_atom_site_aniso_U_33
_atom_site_aniso_U_23
_atom_site_aniso_U_13
_atom_site_aniso_U_12
Th1 0.00735(9) 0.00655(9) 0.00716(9) 0.000 -0.00078(7) 0.000
Ba1 0.00883(14) 0.00793(14) 0.00858(15) 0.000 -0.00216(12) 0.000
Ba2 0.00700(14) 0.00835(14) 0.00770(14) 0.000 0.00039(11) 0.000
Te1 0.00529(10) 0.01460(12) 0.00833(11) -0.00220(10) 0.00009(8) 0.00101(10)
Te2 0.00713(10) 0.01403(12) 0.00594(11) 0.00051(10) -0.00041(8) 0.00008(10)
Te3 0.00653(15) 0.00813(16) 0.00868(16) 0.000 -0.00100(12) 0.000
Te4 0.00841(15) 0.00809(16) 0.00680(16) 0.000 0.00087(12) 0.000
Te5 0.00557(15) 0.00732(16) 0.00616(15) 0.000 -0.00055(12) 0.000
Cr1 0.0068(4) 0.0105(4) 0.0078(4) -0.0005(3) 0.0000(3) 0.0001(3)
loop_
_atom_type_symbol
_atom_type_description
_atom_type_scat_dispersion_real
_atom_type_scat_dispersion_imag
_atom_type_scat_source
Cr Cr 0.3209 0.6236 'International Tables Vol C Tables 4.2.6.8 and 6.1.1.4'
Te Te -0.5308 1.6751 'International Tables Vol C Tables 4.2.6.8 and 6.1.1.4'
Ba Ba -0.3244 2.2819 'International Tables Vol C Tables 4.2.6.8 and 6.1.1.4'
Th Th -7.2400 8.8979 'International Tables Vol C Tables 4.2.6.8 and 6.1.1.4'
loop_
_geom_angle_atom_site_label_1
_geom_angle_atom_site_label_2
_geom_angle_atom_site_label_3
_geom_angle
_geom_angle_site_symmetry_1
_geom_angle_site_symmetry_3
Te1 Th1 Te1 59.016(10) . 8_565
Te1 Th1 Te2 86.731(7) . .
Te1 Th1 Te2 115.292(9) 8_565 .
Te1 Th1 Te2 115.291(8) . 8_565
Te1 Th1 Te2 86.731(7) 8_565 8_565
Te2 Th1 Te2 58.888(10) . 8_565
Te1 Th1 Te4 88.797(9) . .
Te1 Th1 Te4 88.797(8) 8_565 .
Te2 Th1 Te4 148.141(6) . .
Te2 Th1 Te4 148.141(6) 8_565 .
Te1 Th1 Te3 148.571(6) . 6_656
Te1 Th1 Te3 148.570(6) 8_565 6_656
Te2 Th1 Te3 87.569(8) . 6_656
Te2 Th1 Te3 87.568(8) 8_565 6_656
Te4 Th1 Te3 80.038(10) . 6_656
Te1 Th1 Te5 131.388(9) . 5_666
Te1 Th1 Te5 75.019(7) 8_565 5_666
Te2 Th1 Te5 129.860(9) . 5_666
Te2 Th1 Te5 73.924(8) 8_565 5_666
Te4 Th1 Te5 74.447(7) . 5_666
Te3 Th1 Te5 73.700(6) 6_656 5_666
Te1 Th1 Te5 75.020(7) . 5_656
Te1 Th1 Te5 131.388(9) 8_565 5_656
Te2 Th1 Te5 73.924(8) . 5_656
Te2 Th1 Te5 129.859(9) 8_565 5_656
Te4 Th1 Te5 74.447(7) . 5_656
Te3 Th1 Te5 73.700(6) 6_656 5_656
Te5 Th1 Te5 137.992(12) 5_666 5_656
Te5 Ba1 Te2 129.680(10) 6_556 8_565
Te5 Ba1 Te2 129.679(10) 6_556 .
Te2 Ba1 Te2 51.371(10) 8_565 .
Te5 Ba1 Te1 67.598(8) 6_556 2_554
Te2 Ba1 Te1 161.958(11) 8_565 2_554
Te2 Ba1 Te1 124.933(7) . 2_554
Te5 Ba1 Te1 67.598(8) 6_556 7_665
Te2 Ba1 Te1 124.932(7) 8_565 7_665
Te2 Ba1 Te1 161.958(11) . 7_665
Te1 Ba1 Te1 51.737(9) 2_554 7_665
Te5 Ba1 Te1 138.734(10) 6_556 3
Te2 Ba1 Te1 69.783(7) 8_565 3
Te2 Ba1 Te1 91.422(9) . 3
Te1 Ba1 Te1 93.631(9) 2_554 3
Te1 Ba1 Te1 71.970(8) 7_665 3
Te5 Ba1 Te1 138.734(10) 6_556 6_656
Te2 Ba1 Te1 91.422(9) 8_565 6_656
Te2 Ba1 Te1 69.783(7) . 6_656
Te1 Ba1 Te1 71.970(8) 2_554 6_656
Te1 Ba1 Te1 93.631(9) 7_665 6_656
Te1 Ba1 Te1 50.590(9) 3 6_656
Te5 Ba1 Te4 66.700(7) 6_556 2_554
Te2 Ba1 Te4 114.293(10) 8_565 2_554
Te2 Ba1 Te4 70.704(8) . 2_554
Te1 Ba1 Te4 75.385(7) 2_554 2_554
Te1 Ba1 Te4 119.633(10) 7_665 2_554
Te1 Ba1 Te4 146.151(9) 3 2_554
Te1 Ba1 Te4 95.693(7) 6_656 2_554
Te5 Ba1 Te4 66.700(7) 6_556 2_564
Te2 Ba1 Te4 70.704(8) 8_565 2_564
Te2 Ba1 Te4 114.292(10) . 2_564
Te1 Ba1 Te4 119.633(10) 2_554 2_564
Te1 Ba1 Te4 75.385(7) 7_665 2_564
Te1 Ba1 Te4 95.693(7) 3 2_564
Te1 Ba1 Te4 146.151(9) 6_656 2_564
Te4 Ba1 Te4 117.691(13) 2_554 2_564
Te5 Ba1 Te3 67.537(9) 6_556 .
Te2 Ba1 Te3 69.894(8) 8_565 .
Te2 Ba1 Te3 69.894(8) . .
Te1 Ba1 Te3 127.419(9) 2_554 .
Te1 Ba1 Te3 127.419(9) 7_665 .
Te1 Ba1 Te3 138.722(9) 3 .
Te1 Ba1 Te3 138.723(9) 6_656 .
Te4 Ba1 Te3 62.659(7) 2_554 .
Te4 Ba1 Te3 62.659(7) 2_564 .
Te2 Ba2 Te2 52.368(10) 2 7_666
Te2 Ba2 Te5 128.345(10) 2 .
Te2 Ba2 Te5 128.345(10) 7_666 .
Te2 Ba2 Te2 164.620(10) 2 4_656
Te2 Ba2 Te2 125.359(8) 7_666 4_656
Te5 Ba2 Te2 66.240(8) . 4_656
Te2 Ba2 Te2 125.359(8) 2 5_656
Te2 Ba2 Te2 164.620(10) 7_666 5_656
Te5 Ba2 Te2 66.240(8) . 5_656
Te2 Ba2 Te2 51.800(9) 4_656 5_656
Te2 Ba2 Te1 96.189(9) 2 7_666
Te2 Ba2 Te1 74.137(7) 7_666 7_666
Te5 Ba2 Te1 135.398(9) . 7_666
Te2 Ba2 Te1 69.693(7) 4_656 7_666
Te2 Ba2 Te1 91.733(9) 5_656 7_666
Te2 Ba2 Te1 74.137(7) 2 2
Te2 Ba2 Te1 96.189(9) 7_666 2
Te5 Ba2 Te1 135.398(9) . 2
Te2 Ba2 Te1 91.733(9) 4_656 2
Te2 Ba2 Te1 69.693(7) 5_656 2
Te1 Ba2 Te1 51.175(9) 7_666 2
Te2 Ba2 Te3 70.748(7) 2 2
Te2 Ba2 Te3 114.744(10) 7_666 2
Te5 Ba2 Te3 65.444(7) . 2
Te2 Ba2 Te3 117.882(10) 4_656 2
Te2 Ba2 Te3 74.152(8) 5_656 2
Te1 Ba2 Te3 147.600(9) 7_666 2
Te1 Ba2 Te3 96.426(7) 2 2
Te2 Ba2 Te3 114.744(10) 2 2_565
Te2 Ba2 Te3 70.748(7) 7_666 2_565
Te5 Ba2 Te3 65.444(7) . 2_565
Te2 Ba2 Te3 74.151(8) 4_656 2_565
Te2 Ba2 Te3 117.882(10) 5_656 2_565
Te1 Ba2 Te3 96.426(7) 7_666 2_565
Te1 Ba2 Te3 147.600(9) 2 2_565
Te3 Ba2 Te3 115.972(12) 2 2_565
Te2 Ba2 Te4 69.643(8) 2 .
Te2 Ba2 Te4 69.643(8) 7_666 .
Te5 Ba2 Te4 66.544(9) . .
Te2 Ba2 Te4 125.271(10) 4_656 .
Te2 Ba2 Te4 125.271(10) 5_656 .
Te1 Ba2 Te4 142.307(9) 7_666 .
Te1 Ba2 Te4 142.307(9) 2 .
Te3 Ba2 Te4 62.137(7) 2 .
Te3 Ba2 Te4 62.137(7) 2_565 .
Te1 Te1 Te1 180.0 8_565 8
Te1 Te1 Th1 60.492(5) 8_565 .
Te1 Te1 Th1 119.508(5) 8 .
Te1 Te1 Ba1 115.868(5) 8_565 2
Te1 Te1 Ba1 64.131(5) 8 2
Th1 Te1 Ba1 91.454(8) . 2
Te1 Te1 Ba2 115.588(5) 8_565 2_554
Te1 Te1 Ba2 64.413(5) 8 2_554
Th1 Te1 Ba2 98.376(8) . 2_554
Ba1 Te1 Ba2 125.403(8) 2 2_554
Te1 Te1 Ba1 64.705(5) 8_565 6_556
Te1 Te1 Ba1 115.295(5) 8 6_556
Th1 Te1 Ba1 124.961(8) . 6_556
Ba1 Te1 Ba1 108.029(8) 2 6_556
Ba2 Te1 Ba1 109.208(9) 2_554 6_556
Te2 Te2 Te2 180.0 8_565 8
Te2 Te2 Th1 60.556(5) 8_565 .
Te2 Te2 Th1 119.445(5) 8 .
Te2 Te2 Ba2 116.184(5) 8_565 2_554
Te2 Te2 Ba2 63.817(5) 8 2_554
Th1 Te2 Ba2 99.848(8) . 2_554
Te2 Te2 Ba1 64.314(5) 8_565 .
Te2 Te2 Ba1 115.685(5) 8 .
Th1 Te2 Ba1 124.862(9) . .
Ba2 Te2 Ba1 103.009(9) 2_554 .
Te2 Te2 Ba2 115.900(5) 8_565 5_656
Te2 Te2 Ba2 64.100(5) 8 5_656
Th1 Te2 Ba2 93.402(8) . 5_656
Ba2 Te2 Ba2 125.994(8) 2_554 5_656
Ba1 Te2 Ba2 111.315(9) . 5_656
Cr1 Te3 Cr1 67.698(8) . 4
Cr1 Te3 Th1 80.537(8) . 6_556
Cr1 Te3 Th1 80.537(8) 4 6_556
Cr1 Te3 Ba2 155.122(9) . 2_564
Cr1 Te3 Ba2 87.857(4) 4 2_564
Th1 Te3 Ba2 91.304(8) 6_556 2_564
Cr1 Te3 Ba2 87.857(4) . 2_554
Cr1 Te3 Ba2 155.122(9) 4 2_554
Th1 Te3 Ba2 91.304(8) 6_556 2_554
Ba2 Te3 Ba2 115.971(12) 2_564 2_554
Cr1 Te3 Ba1 85.261(9) . .
Cr1 Te3 Ba1 85.261(9) 4 .
Th1 Te3 Ba1 162.873(13) 6_556 .
Ba2 Te3 Ba1 97.714(8) 2_564 .
Ba2 Te3 Ba1 97.714(8) 2_554 .
Cr1 Te4 Cr1 67.567(8) 3 2
Cr1 Te4 Th1 80.671(9) 3 .
Cr1 Te4 Th1 80.671(9) 2 .
Cr1 Te4 Ba1 153.902(10) 3 2
Cr1 Te4 Ba1 86.922(5) 2 2
Th1 Te4 Ba1 90.161(8) . 2
Cr1 Te4 Ba1 86.922(5) 3 2_565
Cr1 Te4 Ba1 153.902(10) 2 2_565
Th1 Te4 Ba1 90.161(8) . 2_565
Ba1 Te4 Ba1 117.692(13) 2 2_565
Cr1 Te4 Ba2 86.266(9) 3 .
Cr1 Te4 Ba2 86.266(9) 2 .
Th1 Te4 Ba2 164.259(13) . .
Ba1 Te4 Ba2 97.911(8) 2 .
Ba1 Te4 Ba2 97.911(8) 2_565 .
Cr1 Te5 Cr1 67.071(7) 2 3
Cr1 Te5 Th1 144.518(9) 2 5_666
Cr1 Te5 Th1 77.456(4) 3 5_666
Cr1 Te5 Th1 77.456(4) 2 5_656
Cr1 Te5 Th1 144.518(9) 3 5_656
Th1 Te5 Th1 137.990(12) 5_666 5_656
Cr1 Te5 Ba1 89.074(9) 2 6_656
Cr1 Te5 Ba1 89.074(9) 3 6_656
Th1 Te5 Ba1 89.593(7) 5_666 6_656
Th1 Te5 Ba1 89.593(7) 5_656 6_656
Cr1 Te5 Ba2 89.885(9) 2 .
Cr1 Te5 Ba2 89.885(9) 3 .
Th1 Te5 Ba2 90.854(7) 5_666 .
Th1 Te5 Ba2 90.854(7) 5_656 .
Ba1 Te5 Ba2 178.751(13) 6_656 .
Te3 Cr1 Te3 180.0 . 5
Te3 Cr1 Te4 93.580(8) . 6_556
Te3 Cr1 Te4 86.419(8) 5 6_556
Te3 Cr1 Te4 86.420(8) . 2_554
Te3 Cr1 Te4 93.581(8) 5 2_554
Te4 Cr1 Te4 180.000(16) 6_556 2_554
Te3 Cr1 Te5 91.769(8) . 6_556
Te3 Cr1 Te5 88.231(8) 5 6_556
Te4 Cr1 Te5 91.089(8) 6_556 6_556
Te4 Cr1 Te5 88.911(8) 2_554 6_556
Te3 Cr1 Te5 88.231(8) . 2_554
Te3 Cr1 Te5 91.769(8) 5 2_554
Te4 Cr1 Te5 88.911(8) 6_556 2_554
Te4 Cr1 Te5 91.089(8) 2_554 2_554
Te5 Cr1 Te5 180.000(11) 6_556 2_554
loop_
_geom_bond_atom_site_label_1
_geom_bond_atom_site_label_2
_geom_bond_distance
_geom_bond_site_symmetry_2
Th1 Te1 3.1482(3) .
Th1 Te1 3.1482(3) 8_565
Th1 Te2 3.1490(3) .
Th1 Te2 3.1490(3) 8_565
Th1 Te4 3.1661(4) .
Th1 Te3 3.1777(4) 6_656
Th1 Te5 3.33655(14) 5_666
Th1 Te5 3.33655(14) 5_656
Ba1 Te5 3.5173(5) 6_556
Ba1 Te2 3.5714(4) 8_565
Ba1 Te2 3.5715(4) .
Ba1 Te1 3.5852(4) 2_554
Ba1 Te1 3.5852(4) 7_665
Ba1 Te1 3.6291(4) 3
Ba1 Te1 3.6291(4) 6_656
Ba1 Te4 3.6398(3) 2_554
Ba1 Te4 3.6398(3) 2_564
Ba1 Te3 3.7286(5) .
Ba2 Te2 3.5510(4) 2
Ba2 Te2 3.5510(4) 7_666
Ba2 Te5 3.5550(5) .
Ba2 Te2 3.5872(4) 4_656
Ba2 Te2 3.5872(4) 5_656
Ba2 Te1 3.6218(4) 7_666
Ba2 Te1 3.6218(4) 2
Ba2 Te3 3.6735(2) 2
Ba2 Te3 3.6735(2) 2_565
Ba2 Te4 3.7508(5) .
Te1 Te1 3.1012(5) 8_565
Te1 Te1 3.1285(5) 8
Te1 Ba1 3.5851(4) 2
Te1 Ba2 3.6218(4) 2_554
Te1 Ba1 3.6291(4) 6_556
Te2 Te2 3.0959(5) 8_565
Te2 Te2 3.1338(5) 8
Te2 Ba2 3.5510(4) 2_554
Te2 Ba2 3.5871(4) 5_656
Te3 Cr1 2.7961(3) .
Te3 Cr1 2.7961(3) 4
Te3 Th1 3.1777(4) 6_556
Te3 Ba2 3.6735(2) 2_564
Te3 Ba2 3.6735(2) 2_554
Te4 Cr1 2.8008(3) 3
Te4 Cr1 2.8008(3) 2
Te4 Ba1 3.6398(3) 2
Te4 Ba1 3.6398(3) 2_565
Te5 Cr1 2.8191(3) 2
Te5 Cr1 2.8191(3) 3
Te5 Th1 3.33657(15) 5_666
Te5 Th1 3.33657(15) 5_656
Te5 Ba1 3.5173(5) 6_656
Cr1 Te3 2.7961(3) 5
Cr1 Te4 2.8008(3) 6_556
Cr1 Te4 2.8008(3) 2_554
Cr1 Te5 2.8191(3) 6_556
Cr1 Te5 2.8191(3) 2_554
