#------------------------------------------------------------------------------
#$Date: 2015-07-08 23:11:43 +0300 (Wed, 08 Jul 2015) $
#$Revision: 141323 $
#$URL: svn://www.crystallography.net/cod/cif/4/34/34/4343430.cif $
#------------------------------------------------------------------------------
#
# This file is available in the Crystallography Open Database (COD),
# http://www.crystallography.net/
#
# All data on this site have been placed in the public domain by the
# contributors.
#
data_4343430
loop_
_publ_author_name
'Greenfield, Tiffany J.'
'Hoffman, Amanda E.'
'Marino, Nadia'
'Goos, Alan G.'
'Lloret, Francesc'
'Julve, Miguel'
'Doyle, Robert P.'
_publ_section_title
;
 Ferromagnetic Coupling in &quot;Double-Bridged&quot;
 Dihydrogenpyrophosphate Complexes of Cobalt(II) and Nickel(II).
;
_journal_issue                   13
_journal_name_full               'Inorganic chemistry'
_journal_page_first              6537
_journal_page_last               6546
_journal_paper_doi               10.1021/acs.inorgchem.5b00866
_journal_volume                  54
_journal_year                    2015
_chemical_formula_moiety         'C20 H24 Mn2 N4 O16 P4, 2(H2 O)'
_chemical_formula_sum            'C20 H28 Mn2 N4 O18 P4'
_chemical_formula_weight         846.22
_chemical_name_systematic
;
 ?
;
_space_group_crystal_system      triclinic
_space_group_IT_number           2
_space_group_name_Hall           '-P 1'
_space_group_name_H-M_alt        'P -1'
_symmetry_space_group_name_Hall  '-P 1'
_symmetry_space_group_name_H-M   'P -1'
_atom_sites_solution_hydrogens   mixed
_atom_sites_solution_primary     direct
_atom_sites_solution_secondary   difmap
_audit_creation_method           SHELXL-2013
_cell_angle_alpha                84.004(6)
_cell_angle_beta                 78.651(5)
_cell_angle_gamma                66.716(6)
_cell_formula_units_Z            1
_cell_length_a                   8.065(2)
_cell_length_b                   9.770(3)
_cell_length_c                   10.970(3)
_cell_measurement_temperature    90(2)
_cell_volume                     778.1(4)
_computing_cell_refinement       'Bruker SAINT'
_computing_data_collection       'Bruker APEX2'
_computing_data_reduction        'Bruker SAINT'
_computing_molecular_graphics    'Bruker SHELXTL'
_computing_publication_material  'Bruker SHELXTL'
_computing_structure_refinement  'SHELXL-2013 (Sheldrick, 2013)'
_computing_structure_solution    'SHELXS-97 (Sheldrick, 2008)'
_diffrn_ambient_temperature      90(2)
_diffrn_measured_fraction_theta_full 0.976
_diffrn_measured_fraction_theta_max 0.952
_diffrn_measurement_device_type  'CCD area detector'
_diffrn_measurement_method       '\f and \w scans'
_diffrn_radiation_source         'fine-focus sealed tube'
_diffrn_radiation_type           MoK\a
_diffrn_radiation_wavelength     0.71073
_diffrn_reflns_av_unetI/netI     0.0405
_diffrn_reflns_laue_measured_fraction_full 0.976
_diffrn_reflns_laue_measured_fraction_max 0.952
_diffrn_reflns_limit_h_max       11
_diffrn_reflns_limit_h_min       -11
_diffrn_reflns_limit_k_max       13
_diffrn_reflns_limit_k_min       -13
_diffrn_reflns_limit_l_max       15
_diffrn_reflns_limit_l_min       0
_diffrn_reflns_number            4281
_diffrn_reflns_point_group_measured_fraction_full 0.976
_diffrn_reflns_point_group_measured_fraction_max 0.952
_diffrn_reflns_theta_full        25.242
_diffrn_reflns_theta_max         30.450
_diffrn_reflns_theta_min         1.894
_exptl_absorpt_coefficient_mu    1.104
_exptl_absorpt_correction_T_max  0.809
_exptl_absorpt_correction_T_min  0.809
_exptl_absorpt_correction_type   multi-scan
_exptl_absorpt_process_details   'TWINABS (Sheldrick, 2012)'
_exptl_crystal_colour            yellow
_exptl_crystal_density_diffrn    1.806
_exptl_crystal_description       block
_exptl_crystal_F_000             430
_exptl_crystal_size_max          0.200
_exptl_crystal_size_mid          0.200
_exptl_crystal_size_min          0.200
_refine_diff_density_max         0.817
_refine_diff_density_min         -0.639
_refine_diff_density_rms         0.175
_refine_ls_extinction_method     none
_refine_ls_goodness_of_fit_ref   1.119
_refine_ls_hydrogen_treatment    mixed
_refine_ls_matrix_type           full
_refine_ls_number_parameters     232
_refine_ls_number_reflns         4281
_refine_ls_number_restraints     4
_refine_ls_restrained_S_all      1.119
_refine_ls_R_factor_all          0.0466
_refine_ls_R_factor_gt           0.0392
_refine_ls_shift/su_max          0.001
_refine_ls_shift/su_mean         0.000
_refine_ls_structure_factor_coef Fsqd
_refine_ls_weighting_details
'w=1/[\s^2^(Fo^2^)+(0.0939P)^2^] where P=(Fo^2^+2Fc^2^)/3'
_refine_ls_weighting_scheme      calc
_refine_ls_wR_factor_gt          0.1236
_refine_ls_wR_factor_ref         0.1336
_reflns_Friedel_coverage         0.000
_reflns_number_gt                3861
_reflns_number_total             4281
_reflns_threshold_expression     'I > 2\s(I)'
_cod_data_source_file            ic5b00866_si_003.cif
_cod_data_source_block           3
_cod_depositor_comments
'Adding full bibliography for 4343428--4343430.cif.'
_cod_original_cell_volume        778.1(3)
_cod_database_code               4343430
_shelx_space_group_comment
;
The symmetry employed for this shelxl refinement is uniquely defined
by the following loop, which should always be used as a source of
symmetry information in preference to the above space-group names.
They are only intended as comments.
;
_shelx_estimated_absorpt_t_min   0.809
_shelx_estimated_absorpt_t_max   0.809
_shelxl_version_number           2013-4
_shelx_res_file
;
TITL twin4 in P-1
CELL 0.71073 8.0647 9.7696 10.9701 84.004 78.651 66.716
ZERR 1.00 0.0020 0.0026 0.0027 0.006 0.005 0.006
LATT 1
SFAC C  H  N  O  P  Mn
UNIT 20  28  4  18  4  2
SIZE 0.20 0.20 0.20

TEMP -183

L.S. 20
BOND $H
FMAP 2
PLAN 10

LIST 4

ACTA

HTAB

Dfix 0.82 O1w H1wa O1w H1wb O2w H2wa O2w H2wb

EQIV $1 x+1, y, z
EQIV $2 -x+1, -y+1, -z+1
EQIV $3 -x, -y+2, -z+1
EQIV $4 -x+1, -y+2, -z+1

HTAB O1W O2W_$1
HTAB O1W O7_$2
HTAB O2W O7
HTAB O2W O5_$2
HTAB O2 O7_$3
HTAB O6 O1_$4

bind mn1 mn1_$4

WGHT    0.093900
BASF   0.44287
FVAR       0.48040
MN1   6    0.603650    0.762809    0.656313    11.00000    0.00995    0.00756 =
         0.00642    0.00104   -0.00237   -0.00436
P1    5    0.218870    1.055514    0.580665    11.00000    0.00690    0.00690 =
         0.00716   -0.00043   -0.00088   -0.00301
P2    5    0.350753    0.777655    0.448318    11.00000    0.00860    0.00735 =
         0.00800   -0.00088   -0.00212   -0.00367
O1    4    0.386184    0.994177    0.643983    11.00000    0.00956    0.00850 =
         0.01098    0.00117   -0.00350   -0.00322
O2    4    0.045031    1.114054    0.683090    11.00000    0.01047    0.01103 =
         0.00781    0.00018    0.00055   -0.00425
AFIX 147
H2O   2   -0.043823    1.173082    0.650430    11.00000   -1.50000
AFIX   0
O3    4    0.215890    1.169565    0.478299    11.00000    0.01063    0.01204 =
         0.01041    0.00363   -0.00167   -0.00437
O4    4    0.199253    0.916463    0.527281    11.00000    0.00908    0.00916 =
         0.01458   -0.00487   -0.00088   -0.00206
O5    4    0.493279    0.689012    0.526826    11.00000    0.01022    0.00950 =
         0.01351    0.00052   -0.00539   -0.00190
O6    4    0.436539    0.845664    0.328847    11.00000    0.01519    0.01492 =
         0.00831    0.00007   -0.00070   -0.00933
AFIX 147
H6O   2    0.498162    0.889017    0.349144    11.00000   -1.50000
AFIX   0
O7    4    0.240312    0.702509    0.408107    11.00000    0.01072    0.00839 =
         0.01665   -0.00179   -0.00483   -0.00458
O1W   4    0.808434    0.535635    0.674413    11.00000    0.01434    0.01110 =
         0.01210   -0.00055   -0.00283   -0.00677
H1WA  2    0.917213    0.523407    0.659479    11.00000   -1.50000
H1WB  2    0.778040    0.477132    0.644894    11.00000   -1.50000
O2W   4    0.157939    0.517705    0.616424    11.00000    0.01260    0.01494 =
         0.01631   -0.00209    0.00293   -0.00435
H2WA  2    0.188747    0.580992    0.571381    11.00000   -1.50000
H2WB  2    0.262415    0.459397    0.586859    11.00000   -1.50000
N1    3    0.436375    0.702823    0.826718    11.00000    0.01377    0.01028 =
         0.00955    0.00135   -0.00161   -0.00458
N2    3    0.681899    0.824363    0.822163    11.00000    0.01227    0.00778 =
         0.00974   -0.00073   -0.00296   -0.00329
C1    1    0.318346    0.638751    0.821679    11.00000    0.01848    0.01253 =
         0.01450    0.00279   -0.00298   -0.00541
AFIX  43
H1A   2    0.302422    0.619936    0.742409    11.00000   -1.20000
AFIX   0
C2    1    0.217874    0.598481    0.927669    11.00000    0.01396    0.01294 =
         0.02404    0.00644   -0.00307   -0.00661
AFIX  43
H2A   2    0.136388    0.552192    0.921001    11.00000   -1.20000
AFIX   0
C3    1    0.240367    0.627950    1.042968    11.00000    0.01555    0.01785 =
         0.01835    0.00702    0.00040   -0.00587
AFIX  43
H3A   2    0.172247    0.603890    1.116951    11.00000   -1.20000
AFIX   0
C4    1    0.364622    0.693592    1.049237    11.00000    0.01485    0.01715 =
         0.00838    0.00128    0.00043   -0.00169
AFIX  43
H4A   2    0.382401    0.713985    1.127418    11.00000   -1.20000
AFIX   0
C5    1    0.462361    0.728736    0.938330    11.00000    0.01328    0.01127 =
         0.00881    0.00214   -0.00164   -0.00452
C6    1    0.600613    0.792600    0.936083    11.00000    0.01538    0.00871 =
         0.00934   -0.00110   -0.00062   -0.00279
C7    1    0.650062    0.819184    1.044367    11.00000    0.02394    0.01614 =
         0.00884   -0.00152   -0.00211   -0.00460
AFIX  43
H7A   2    0.595510    0.794012    1.123756    11.00000   -1.20000
AFIX   0
C8    1    0.778289    0.882054    1.034955    11.00000    0.02302    0.01767 =
         0.01587   -0.00350   -0.00665   -0.00503
AFIX  43
H8A   2    0.810983    0.902498    1.107622    11.00000   -1.20000
AFIX   0
C9    1    0.859275    0.915190    0.917211    11.00000    0.01997    0.01556 =
         0.01592   -0.00179   -0.00732   -0.00776
AFIX  43
H9A   2    0.947327    0.959108    0.908196    11.00000   -1.20000
AFIX   0
C10   1    0.808450    0.882639    0.813848    11.00000    0.01673    0.00968 =
         0.01368   -0.00019   -0.00459   -0.00397
AFIX  43
H10A  2    0.865953    0.902567    0.733620    11.00000   -1.20000
AFIX   0
HKLF 5

REM  twin4 in P-1
REM R1 =  0.0392 for    3861 Fo > 4sig(Fo)  and  0.0466 for all    4281 data
REM    232 parameters refined using      4 restraints

END

WGHT      0.0939      0.0000

REM Instructions for potential hydrogen bonds
HTAB O2 O7_$3
HTAB O6 O1_$4
HTAB O1W O2W_$1
HTAB O1W O7_$2
HTAB O2W O7
HTAB O2W O5_$2
HTAB C1 O2W
EQIV $5 x, y, z+1
HTAB C7 O6_$5

REM Highest difference peak  0.817,  deepest hole -0.639,  1-sigma level  0.175
Q1    1   0.2947  1.0159  0.6168  11.00000  0.05    0.82
Q2    1   0.6579  0.7414  0.6961  11.00000  0.05    0.79
Q3    1   0.4209  0.7257  0.5013  11.00000  0.05    0.71
Q4    1   0.4277  0.8254  0.4041  11.00000  0.05    0.70
Q5    1   0.2692  0.7486  0.4573  11.00000  0.05    0.67
Q6    1   0.5369  0.7528  0.6264  11.00000  0.05    0.66
Q7    1   0.4189  0.8331  0.5784  11.00000  0.05    0.64
Q8    1   0.5328  0.7243  0.6797  11.00000  0.05    0.61
Q9    1   0.5167  0.7399  0.9489  11.00000  0.05    0.61
Q10   1   0.3030  0.9865  0.4550  11.00000  0.05    0.60
;
_shelx_res_checksum              81444
_shelx_hkl_file
;
   2   0   1 933.910 17.0621  -2
   2   0   0 933.910 17.0621   1
   3   0   0 47.2760 1.72175   1
   4   0   2 52.6727 1.01200  -2
   4   0   0 52.6727 1.01200   1
   5   0   0 717.217 9.77054   1
   6   0   3 118.630 2.77400  -2
   6   0   0 118.630 2.77400   1
   7   0   0 168.725 4.37051   1
   8   0   4 57.9724 2.90416  -2
   8   0   0 57.9724 2.90416   1
   9   0   0 5.02110 1.71226   1
  10   0   5 7.19780 1.71720  -2
  10   0   0 7.19780 1.71720   1
  10  -1   5 22.0436 3.17182  -2
 -10   1   0 22.0436 3.17182   1
  -9   1   0 16.1872 1.75807   1
   8  -1   4 86.3723 3.64963  -2
  -8   1   0 86.3723 3.64963   1
  -7   1   0 167.453 4.44261   1
   6  -1   3 73.1161 2.76191  -2
  -6   1   0 73.1161 2.76191   1
  -5   1   0 63.4859 2.23829   1
   4  -1   2 101.609 1.50436  -2
  -4   1   0 101.609 1.50436   1
  -3   1   0 104.441 2.15545   1
   2  -1   1 78.0250 2.06665  -2
  -2   1   0 78.0250 2.06665   1
  -1   1   0 9.10035 0.75524   1
   2   1   1 36.3901 3.47031  -2
   2   1   0 36.3901 3.47031   1
   3   1   2 11.6313 4.13990  -2
   3   1   0 11.6313 4.13990   1
   4   1   2 11.4276 0.87237  -2
   4   1   0 11.4276 0.87237   1
   5   1   0 141.698 2.34593   1
   6   1   3 198.275 3.74838  -2
   6   1   0 198.275 3.74838   1
   7   1   0 6.49067 1.30757   1
   8   1   4 118.364 3.95236  -2
   8   1   0 118.364 3.95236   1
   9   1   0 97.7581 3.69708   1
  10   1   5 31.5012 3.12791  -2
  10   1   0 31.5012 3.12791   1
   9  -2   4 14.7289 4.18182  -2
  -9   2   0 14.7289 4.18182   1
   8  -2   4 223.196 4.75083  -2
  -8   2   0 223.196 4.75083   1
   7  -2   3 17.5334 2.54252  -2
  -7   2   0 17.5334 2.54252   1
   6  -2   3 474.701 8.75741  -2
  -6   2   0 474.701 8.75741   1
   5  -2   2 39.2215 3.00414  -2
  -5   2   0 39.2215 3.00414   1
   4  -2   2 72.6249 1.90646  -2
  -4   2   0 72.6249 1.90646   1
   3  -2   1 838.504 20.2793  -2
  -3   2   0 838.504 20.2793   1
   2  -2   1 652.143 8.89127  -2
  -2   2   0 652.143 8.89127   1
  -1   2   0 9999.99 289.657  -2
  -1   2   0 9999.99 289.657   1
   0   2   0 672.980 20.2440   1
   3   2   2 67.5648 5.14544  -2
   3   2   0 67.5648 5.14544   1
   4   2   2 631.478 7.80607  -2
   4   2   0 631.478 7.80607   1
   5   2   0 45.1303 1.26716   1
   6   2   3 284.767 4.78399  -2
   6   2   0 284.767 4.78399   1
   7   2   4 15.6098 3.85822  -2
   7   2   0 15.6098 3.85822   1
   8   2   4 45.5423 2.81719  -2
   8   2   0 45.5423 2.81719   1
   9   2   5 28.4051 5.26144  -2
   9   2   0 28.4051 5.26144   1
  10   2   5 39.2288 4.75553  -2
  10   2   0 39.2288 4.75553   1
   9  -3   4 16.3976 4.42285  -2
  -9   3   0 16.3976 4.42285   1
   8  -3   4 68.9034 5.52926  -2
  -8   3   0 68.9034 5.52926   1
   7  -3   3 3.23998 2.12774  -2
  -7   3   0 3.23998 2.12774   1
   6  -3   3 37.8452 2.17940  -2
  -6   3   0 37.8452 2.17940   1
   5  -3   2 23.1816 3.73058  -2
  -5   3   0 23.1816 3.73058   1
   4  -3   2 179.137 3.53156  -2
  -4   3   0 179.137 3.53156   1
   3  -3   1 222.180 4.07035  -2
  -3   3   0 222.180 4.07035   1
   2  -3   1 695.633 8.24520  -2
  -2   3   0 695.633 8.24520   1
  -1   3   0 13.0392 2.99380  -2
  -1   3   0 13.0392 2.99380   1
   0   3   0 128.522 3.20292   1
   1   3   0 168.917 3.85676   1
   2   3   0 111.931 3.67093   1
   3   3   0 73.1313 3.04272   1
   4   3   2 255.305 6.01181  -2
   4   3   0 255.305 6.01181   1
   5   3   3 90.8650 4.45471  -2
   5   3   0 90.8650 4.45471   1
   6   3   3 23.7480 2.19864  -2
   6   3   0 23.7480 2.19864   1
  10   3   5 8.61309 4.39279  -2
  10   3   0 8.61309 4.39279   1
  11   3   6 82.2608 6.81612  -2
  11   3   0 82.2608 6.81612   1
   8  -4   4 10.8114 3.99147  -2
  -8   4   0 10.8114 3.99147   1
   7  -4   3 49.7700 4.93929  -2
  -7   4   0 49.7700 4.93929   1
   6  -4   3 8.93922 3.18226  -2
  -6   4   0 8.93922 3.18226   1
   5  -4   2 42.9779 2.83538  -2
  -5   4   0 42.9779 2.83538   1
   4  -4   2 168.359 4.31914  -2
  -4   4   0 168.359 4.31914   1
   3  -4   1 158.624 3.14197  -2
  -3   4   0 158.624 3.14197   1
   2  -4   1 1266.71 17.0529  -2
  -2   4   0 1266.71 17.0529   1
  -1   4   0 1186.00 15.6592  -2
  -1   4   0 1186.00 15.6592   1
   0   4   0 116.811 3.26700   1
   1   4   1 174.996 4.47168  -2
   1   4   0 174.996 4.47168   1
   2   4   0 42.4130 1.98335   1
   3   4   2 680.424 16.7182  -2
   3   4   0 680.424 16.7182   1
   4   4   2 191.468 8.93437  -2
   4   4   0 191.468 8.93437   1
   5   4   3 378.417 6.94139  -2
   5   4   0 378.417 6.94139   1
   6   4   0 6.51153 1.13513   1
   7   4   4 35.1019 2.61758  -2
   7   4   0 35.1019 2.61758   1
   8   4   4 255.517 8.23994  -2
   8   4   0 255.517 8.23994   1
   9   4   5 118.077 6.12120  -2
   9   4   0 118.077 6.12120   1
  10   4   5 15.5478 5.16982  -2
  10   4   0 15.5478 5.16982   1
  11   4   6 18.3240 5.35707  -2
  11   4   0 18.3240 5.35707   1
  -8   5   0 19.7713 3.84848   1
   7  -5   3 50.1679 5.52863  -2
  -7   5   0 50.1679 5.52863   1
   6  -5   3 5.22495 5.23887  -2
  -6   5   0 5.22495 5.23887   1
   5  -5   2 45.7020 4.48950  -2
  -5   5   0 45.7020 4.48950   1
   4  -5   2 390.226 7.61937  -2
  -4   5   0 390.226 7.61937   1
   3  -5   1 513.409 8.92306  -2
  -3   5   0 513.409 8.92306   1
  -2   5   0 54.4038 2.41392   1
  -1   5   0 41.0540 1.68090  -2
  -1   5   0 41.0540 1.68090   1
   0   5   0 23.9668 3.85268  -2
   0   5   0 23.9668 3.85268   1
   1   5   1 553.449 9.55216  -2
   1   5   0 553.449 9.55216   1
   2   5   0 26.8810 1.84407   1
   3   5   2 628.329 15.8404  -2
   3   5   0 628.329 15.8404   1
   4   5   0 11.6476 1.72848   1
   5   5   3 150.573 5.76128  -2
   5   5   0 150.573 5.76128   1
   6   5   0 57.9068 2.38496   1
   7   5   4 119.950 3.90613  -2
   7   5   0 119.950 3.90613   1
   8   5   0 4.81629 1.86792   1
   9   5   5 66.9654 4.94852  -2
   9   5   0 66.9654 4.94852   1
  10   5   0 1.39690 2.17732   1
  11   5   6 38.9258 5.47799  -2
  11   5   0 38.9258 5.47799   1
   7  -6   3 6.29828 4.25229  -2
  -7   6   0 6.29828 4.25229   1
   6  -6   3 8.53358 5.90181  -2
  -6   6   0 8.53358 5.90181   1
   5  -6   2 37.9890 4.59547  -2
  -5   6   0 37.9890 4.59547   1
  -4   6   0 23.5649 3.48279   1
   3  -6   1 771.218 20.2299  -2
  -3   6   0 771.218 20.2299   1
  -2   6   0 18.1495 1.75759   1
  -1   6   0 12.6506 1.93428  -2
  -1   6   0 12.6506 1.93428   1
   0   6   0 43.3078 2.91832   1
   1   6   1 56.1082 3.42149  -2
   1   6   0 56.1082 3.42149   1
   2   6   0 91.7439 3.91917   1
   3   6   2 63.6005 3.57437  -2
   3   6   0 63.6005 3.57437   1
   4   6   0 269.285 8.22227   1
   5   6   3 352.272 10.3810  -2
   5   6   0 352.272 10.3810   1
   6   6   0 43.4919 2.19396   1
   7   6   4 148.922 6.25037  -2
   7   6   0 148.922 6.25037   1
   8   6   0 26.0844 2.81608   1
  10   6   0 21.6362 3.14831   1
  11   6   6 19.4903 4.21638  -2
  11   6   0 19.4903 4.21638   1
  -6   7   0 1.39894 2.99467   1
   5  -7   2 85.3493 5.88422  -2
  -5   7   0 85.3493 5.88422   1
  -4   7   0 59.4565 5.01918   1
   3  -7   1 391.164 12.2775  -2
  -3   7   0 391.164 12.2775   1
  -2   7   0 133.158 6.15876   1
  -1   7   0 11.5576 1.70537  -2
  -1   7   0 11.5576 1.70537   1
   0   7   0 77.6511 2.97089   1
   1   7   1 40.0716 3.02412  -2
   1   7   0 40.0716 3.02412   1
   2   7   0 11.2526 1.93802   1
   3   7   2 366.976 10.6102  -2
   3   7   0 366.976 10.6102   1
   4   7   0 42.4820 3.23972   1
   5   7   3 42.4997 3.38157  -2
   5   7   0 42.4997 3.38157   1
   6   7   0 22.9279 2.80067   1
   7   7   4 8.36605 2.84236  -2
   7   7   0 8.36605 2.84236   1
   8   7   0 101.781 4.89811   1
   9   7   5 27.3080 3.41989  -2
   9   7   0 27.3080 3.41989   1
  10   7   0 33.2475 3.70411   1
  11   7   6 70.8900 5.45748  -2
  11   7   0 70.8900 5.45748   1
   5  -8   2 2.85966 4.49280  -2
  -5   8   0 2.85966 4.49280   1
   4  -8   1 306.500 11.9727  -2
  -4   8   0 306.500 11.9727   1
   3  -8   1 30.3549 4.27950  -2
  -3   8   0 30.3549 4.27950   1
  -2   8   0 76.6246 6.14137  -2
  -2   8   0 76.6246 6.14137   1
  -1   8   0 12.7452 3.49249  -2
  -1   8   0 12.7452 3.49249   1
   0   8   0 2.05002 1.34707   1
   1   8   1 54.2684 4.12982  -2
   1   8   0 54.2684 4.12982   1
   2   8   0 9.63677 2.07007   1
   3   8   2 308.789 9.83733  -2
   3   8   0 308.789 9.83733   1
   4   8   0 398.998 11.8211   1
   5   8   3 214.864 7.98287  -2
   5   8   0 214.864 7.98287   1
   6   8   0 22.0566 3.01145   1
   7   8   4 48.9884 4.51752  -2
   7   8   0 48.9884 4.51752   1
   5  -9   2 103.086 7.13388  -2
  -5   9   0 103.086 7.13388   1
   4  -9   1 237.771 11.0086  -2
  -4   9   0 237.771 11.0086   1
   3  -9   1 111.306 7.62803  -2
  -3   9   0 111.306 7.62803   1
  -2   9   0 15.3569 5.52684  -2
  -2   9   0 15.3569 5.52684   1
  -1   9   0 -0.2129 4.21232  -2
  -1   9   0 -0.2129 4.21232   1
   0   9   1 55.5378 5.64808  -2
   0   9   0 55.5378 5.64808   1
   1   9   1 149.134 6.88401  -2
   1   9   0 149.134 6.88401   1
   2   9   2 100.786 6.33640  -2
   2   9   0 100.786 6.33640   1
   3   9   2 96.1439 5.62440  -2
   3   9   0 96.1439 5.62440   1
   4   9   3 45.5619 5.17519  -2
   4   9   0 45.5619 5.17519   1
   5   9   3 97.2958 5.99644  -2
   5   9   0 97.2958 5.99644   1
   6   9   0 32.8449 3.80479   1
   7   9   4 10.8722 4.80152  -2
   7   9   0 10.8722 4.80152   1
   3 -10   1 11.3159 6.33581  -2
  -3  10   0 11.3159 6.33581   1
  -2  10   0 -0.4792 5.37099  -2
  -2  10   0 -0.4792 5.37099   1
  -1  10   0 -2.5632 4.93206  -2
  -1  10   0 -2.5632 4.93206   1
   0  10   1 21.2498 4.87425  -2
   0  10   0 21.2498 4.87425   1
   1  10   1 6.78714 4.55585  -2
   1  10   0 6.78714 4.55585   1
   2  10   2 19.2961 4.55850  -2
   2  10   0 19.2961 4.55850   1
   3  10   2 40.9190 5.05212  -2
   3  10   0 40.9190 5.05212   1
   4  10   3 38.6500 5.20261  -2
   4  10   0 38.6500 5.20261   1
   5  10   3 170.279 8.14515  -2
   5  10   0 170.279 8.14515   1
   6  10   4 82.5008 6.70847  -2
   6  10   0 82.5008 6.70847   1
  -2  11   0 18.8810 5.82025  -2
  -2  11   0 18.8810 5.82025   1
  -1  11   0 2.57578 6.00684  -2
  -1  11   0 2.57578 6.00684   1
   0  11   1 88.2093 7.00574  -2
   0  11   0 88.2093 7.00574   1
   1  11   1 230.444 10.0204  -2
   1  11   0 230.444 10.0204   1
   2  11   2 96.0281 6.42802  -2
   2  11   0 96.0281 6.42802   1
   3  11   2 205.873 9.27694  -2
   3  11   0 205.873 9.27694   1
   4  11   3 10.6927 4.79798  -2
   4  11   0 10.6927 4.79798   1
   5  11   3 180.683 8.98127  -2
   5  11   0 180.683 8.98127   1
   6  11   4 104.081 7.34710  -2
   6  11   0 104.081 7.34710   1
  -1  12   0 8.10604 7.41133  -2
  -1  12   0 8.10604 7.41133   1
   0  12   1 -1.2310 4.02052  -2
   0  12   0 -1.2310 4.02052   1
   1  12   1 1.82554 6.20074  -2
   1  12   0 1.82554 6.20074   1
   2  12   2 -0.2155 4.76721  -2
   2  12   0 -0.2155 4.76721   1
   3  12   2 17.4830 6.17534  -2
   3  12   0 17.4830 6.17534   1
   4  12   3 124.017 7.54920  -2
   4  12   0 124.017 7.54920   1
   5  12   3 25.6470 6.37887  -2
   5  12   0 25.6470 6.37887   1
   6  12   4 19.9806 5.21686  -2
   6  12   0 19.9806 5.21686   1
   2  13   2 75.5335 6.11426  -2
   2  13   0 75.5335 6.11426   1
   3  13   0 3.74647 3.07342   1
   4  13   3 113.440 7.12688  -2
   4  13   0 113.440 7.12688   1
   5  13   0 74.4629 6.18619   1
   6  13   4 13.2491 4.37944  -2
   6  13   0 13.2491 4.37944   1
  -7 -13   1 6.55151 3.13655   1
   6  13   5 6.02014 4.62136  -2
  -6 -13   1 6.02014 4.62136   1
  -5 -13   1 -0.5943 2.63382   1
   4  13   4 84.9367 6.23936  -2
  -4 -13   1 84.9367 6.23936   1
  -3 -13   1 27.2123 4.28006   1
   2  13   3 110.487 7.24195  -2
  -2 -13   1 110.487 7.24195   1
   7  12   5 10.8677 7.02836  -2
  -7 -12   1 10.8677 7.02836   1
   6  12   5 39.2213 5.96655  -2
  -6 -12   1 39.2213 5.96655   1
   5  12   4 101.115 8.04278  -2
  -5 -12   1 101.115 8.04278   1
   4  12   4 74.6577 6.52168  -2
  -4 -12   1 74.6577 6.52168   1
  -3 -12   1 31.5784 4.26946   1
   2  12   3 51.7834 5.57624  -2
  -2 -12   1 51.7834 5.57624   1
   1  12   2 7.40702 6.11657  -2
  -1 -12   1 7.40702 6.11657   1
   0  12   2 9.52047 4.29868  -2
   0 -12   1 9.52047 4.29868   1
  -1  12   1 30.6284 7.18784  -2
   1 -12   1 30.6284 7.18784   1
   8  11   6 42.2448 6.74386  -2
  -8 -11   1 42.2448 6.74386   1
   7  11   5 124.281 8.63809  -2
  -7 -11   1 124.281 8.63809   1
   6  11   5 28.9822 5.70037  -2
  -6 -11   1 28.9822 5.70037   1
   5  11   4 122.811 7.87218  -2
  -5 -11   1 122.811 7.87218   1
   4  11   4 4.23008 4.64180  -2
  -4 -11   1 4.23008 4.64180   1
   3  11   3 116.161 7.51186  -2
  -3 -11   1 116.161 7.51186   1
   2  11   3 125.121 7.10043  -2
  -2 -11   1 125.121 7.10043   1
   1  11   2 128.726 7.94566  -2
  -1 -11   1 128.726 7.94566   1
   0  11   2 54.7471 5.99090  -2
   0 -11   1 54.7471 5.99090   1
  -1  11   1 5.85687 5.90003  -2
   1 -11   1 5.85687 5.90003   1
  -2  11   1 93.3863 6.71158  -2
   2 -11   1 93.3863 6.71158   1
   8  10   6 52.8246 7.15193  -2
  -8 -10   1 52.8246 7.15193   1
   7  10   5 31.6109 6.01294  -2
  -7 -10   1 31.6109 6.01294   1
   6  10   5 257.961 10.5775  -2
  -6 -10   1 257.961 10.5775   1
   5  10   4 131.947 7.54485  -2
  -5 -10   1 131.947 7.54485   1
   4  10   4 11.7469 5.01768  -2
  -4 -10   1 11.7469 5.01768   1
   3  10   3 31.3823 4.88678  -2
  -3 -10   1 31.3823 4.88678   1
   2  10   3 25.7011 5.03000  -2
  -2 -10   1 25.7011 5.03000   1
   1  10   2 111.485 6.74130  -2
  -1 -10   1 111.485 6.74130   1
   0  10   2 59.1951 5.75765  -2
   0 -10   1 59.1951 5.75765   1
  -1  10   1 3.24210 5.05636  -2
   1 -10   1 3.24210 5.05636   1
  -2  10   1 40.0750 6.15112  -2
   2 -10   1 40.0750 6.15112   1
  -3  10   0 16.3184 6.17895  -2
   3 -10   1 16.3184 6.17895   1
   4 -10   1 19.5918 3.97771   1
   8   9   6 44.8584 6.50676  -2
  -8  -9   1 44.8584 6.50676   1
   7   9   5 39.9297 5.57091  -2
  -7  -9   1 39.9297 5.57091   1
   6   9   5 3.00893 5.45670  -2
  -6  -9   1 3.00893 5.45670   1
   5   9   4 51.9111 4.87378  -2
  -5  -9   1 51.9111 4.87378   1
   4   9   4 78.8908 5.98326  -2
  -4  -9   1 78.8908 5.98326   1
   3   9   3 53.1222 4.74871  -2
  -3  -9   1 53.1222 4.74871   1
   2   9   3 194.374 8.23177  -2
  -2  -9   1 194.374 8.23177   1
   1   9   2 219.412 8.35077  -2
  -1  -9   1 219.412 8.35077   1
   0   9   2 27.3339 4.90528  -2
   0  -9   1 27.3339 4.90528   1
  -1   9   1 75.9966 5.85208  -2
   1  -9   1 75.9966 5.85208   1
  -2   9   1 17.1868 5.43160  -2
   2  -9   1 17.1868 5.43160   1
  -3   9   0 104.009 6.64995  -2
   3  -9   1 104.009 6.64995   1
  -4   9   0 131.856 7.44342  -2
   4  -9   1 131.856 7.44342   1
   5  -9   1 56.9011 5.92118  -2
   5  -9   1 56.9011 5.92118   1
 -10  -8   1 2.04457 2.34633   1
  -8  -8   1 73.8579 5.52578   1
   7   8   5 116.806 6.31605  -2
  -7  -8   1 116.806 6.31605   1
  -6  -8   1 90.0651 5.09867   1
   5   8   4 90.0343 5.25955  -2
  -5  -8   1 90.0343 5.25955   1
  -4  -8   1 93.0371 4.84861   1
   3   8   3 56.3615 4.15035  -2
  -3  -8   1 56.3615 4.15035   1
  -2  -8   1 70.4733 4.03737   1
   1   8   2 233.536 8.01016  -2
  -1  -8   1 233.536 8.01016   1
   0  -8   1 20.2104 2.70705   1
  -1   8   1 7.33653 3.57867  -2
   1  -8   1 7.33653 3.57867   1
  -2   8   1 108.609 6.74850  -2
   2  -8   1 108.609 6.74850   1
  -3   8   0 36.8797 4.41210  -2
   3  -8   1 36.8797 4.41210   1
  -4   8   0 370.275 13.3221  -2
   4  -8   1 370.275 13.3221   1
   5  -8   1 12.2345 4.49793  -2
   5  -8   1 12.2345 4.49793   1
 -10  -7   1 3.28421 2.31957   1
   9   7   6 6.00596 2.93337  -2
  -9  -7   1 6.00596 2.93337   1
  -8  -7   1 217.308 5.58635   1
   7   7   5 58.5540 2.75331  -2
  -7  -7   1 58.5540 2.75331   1
  -6  -7   1 106.511 5.27591   1
   5   7   4 35.9053 3.23685  -2
  -5  -7   1 35.9053 3.23685   1
  -4  -7   1 6.48345 1.84405   1
   3   7   3 644.542 16.7640  -2
  -3  -7   1 644.542 16.7640   1
  -2  -7   1 115.651 4.76580   1
   1   7   2 34.0086 2.86118  -2
  -1  -7   1 34.0086 2.86118   1
   0  -7   1 15.9647 2.22530   1
  -1   7   1 66.7871 3.94860  -2
   1  -7   1 66.7871 3.94860   1
   2  -7   1 224.042 8.07881   1
  -3   7   0 376.465 11.7583  -2
   3  -7   1 376.465 11.7583   1
   4  -7   1 3.85429 2.73335   1
   5  -7   1 8.02255 2.92805  -2
   5  -7   1 8.02255 2.92805   1
  11   6   7 18.1061 3.98332  -2
 -11  -6   1 18.1061 3.98332   1
 -10  -6   1 103.479 5.73418   1
   9   6   6 58.0125 4.51081  -2
  -9  -6   1 58.0125 4.51081   1
  -8  -6   1 21.5927 2.06560   1
   7   6   5 40.7735 2.49739  -2
  -7  -6   1 40.7735 2.49739   1
  -6  -6   1 48.1576 2.33864   1
   5   6   4 466.708 13.0244  -2
  -5  -6   1 466.708 13.0244   1
  -4  -6   1 231.738 7.34402   1
   3   6   3 -1.1575 2.19259  -2
  -3  -6   1 -1.1575 2.19259   1
  -2  -6   1 366.222 8.04611   1
   1   6   2 121.391 2.23777  -2
  -1  -6   1 121.391 2.23777   1
   0  -6   1 21.1034 1.31500   1
  -1   6   1 128.487 3.67056  -2
   1  -6   1 128.487 3.67056   1
   2  -6   1 175.825 6.48287   1
  -3   6   0 913.030 23.1791  -2
   3  -6   1 913.030 23.1791   1
   4  -6   1 5.11876 2.46453   1
   5  -6   1 98.0556 5.88459  -2
   5  -6   1 98.0556 5.88459   1
   6  -6   2 0.61117 3.95692  -2
   6  -6   1 0.61117 3.95692   1
   7  -6   2 0.84642 3.88169  -2
   7  -6   1 0.84642 3.88169   1
  11   5   7 19.9148 5.14789  -2
 -11  -5   1 19.9148 5.14789   1
  10   5   6 65.7760 6.17536  -2
 -10  -5   1 65.7760 6.17536   1
   9   5   6 145.951 6.54384  -2
  -9  -5   1 145.951 6.54384   1
  -8  -5   1 11.7205 1.71988   1
   7   5   5 27.0316 2.58730  -2
  -7  -5   1 27.0316 2.58730   1
  -6  -5   1 18.8200 1.58233   1
   5   5   4 664.066 11.0946  -2
  -5  -5   1 664.066 11.0946   1
  -4  -5   1 21.4593 1.44246   1
   3   5   3 151.306 4.25487  -2
  -3  -5   1 151.306 4.25487   1
   2   5   2 14.8188 5.70943  -2
  -2  -5   1 14.8188 5.70943   1
   1   5   2 75.7754 2.63414  -2
  -1  -5   1 75.7754 2.63414   1
   0   5   1 212.354 9.63454  -2
   0  -5   1 212.354 9.63454   1
  -1   5   1 110.573 2.08193  -2
   1  -5   1 110.573 2.08193   1
  -2   5   0 180.754 4.39371  -2
   2  -5   1 180.754 4.39371   1
  -3   5   0 471.131 13.0216  -2
   3  -5   1 471.131 13.0216   1
   4  -5   1 124.532 6.59721  -2
   4  -5   1 124.532 6.59721   1
   5  -5   1 6.70859 3.30320  -2
   5  -5   1 6.70859 3.30320   1
   6  -5   2 50.3339 4.50850  -2
   6  -5   1 50.3339 4.50850   1
   7  -5   2 30.0957 4.80868  -2
   7  -5   1 30.0957 4.80868   1
   8  -5   1 0.22530 2.50723   1
  11   4   7 38.2008 5.89789  -2
 -11  -4   1 38.2008 5.89789   1
  10   4   6 56.6770 5.86588  -2
 -10  -4   1 56.6770 5.86588   1
   9   4   6 54.4904 4.97027  -2
  -9  -4   1 54.4904 4.97027   1
   8   4   5 139.745 6.05507  -2
  -8  -4   1 139.745 6.05507   1
   7   4   5 43.9292 2.94621  -2
  -7  -4   1 43.9292 2.94621   1
   6   4   4 123.686 3.79183  -2
  -6  -4   1 123.686 3.79183   1
   5   4   4 438.695 7.80354  -2
  -5  -4   1 438.695 7.80354   1
  -4  -4   1 294.494 4.87001   1
   3   4   3 72.2590 3.01829  -2
  -3  -4   1 72.2590 3.01829   1
  -2  -4   1 1.97016 0.92080   1
   1   4   2 70.1831 2.53543  -2
  -1  -4   1 70.1831 2.53543   1
   0   4   1 887.469 27.6654  -2
   0  -4   1 887.469 27.6654   1
  -1   4   1 151.441 3.65459  -2
   1  -4   1 151.441 3.65459   1
  -2   4   0 1512.49 19.8248  -2
   2  -4   1 1512.49 19.8248   1
  -3   4   0 186.344 3.68179  -2
   3  -4   1 186.344 3.68179   1
   4  -4   1 3.19616 3.68366  -2
   4  -4   1 3.19616 3.68366   1
   5  -4   1 56.8253 4.17956  -2
   5  -4   1 56.8253 4.17956   1
   6  -4   2 44.8994 4.10417  -2
   6  -4   1 44.8994 4.10417   1
   7  -4   2 51.7063 4.92976  -2
   7  -4   1 51.7063 4.92976   1
   8  -4   3 6.38686 3.90310  -2
   8  -4   1 6.38686 3.90310   1
  10   3   6 4.03660 4.57797  -2
 -10  -3   1 4.03660 4.57797   1
   7   3   5 24.5845 2.66882  -2
  -7  -3   1 24.5845 2.66882   1
   6   3   4 187.558 4.54412  -2
  -6  -3   1 187.558 4.54412   1
   5   3   4 90.0043 2.96667  -2
  -5  -3   1 90.0043 2.96667   1
   4   3   3 181.192 6.05875  -2
  -4  -3   1 181.192 6.05875   1
  -3  -3   1 544.414 10.6868   1
  -2  -3   1 0.44665 0.76058   1
   1   3   2 109.780 5.76440  -2
  -1  -3   1 109.780 5.76440   1
   0   3   1 208.358 4.83335  -2
   0  -3   1 208.358 4.83335   1
  -1   3   1 975.023 29.7691  -2
   1  -3   1 975.023 29.7691   1
  -2   3   0 737.527 8.66750  -2
   2  -3   1 737.527 8.66750   1
  -3   3   0 224.120 5.65570  -2
   3  -3   1 224.120 5.65570   1
   4  -3   1 325.903 4.80083  -2
   4  -3   1 325.903 4.80083   1
   5  -3   1 43.9998 3.53870  -2
   5  -3   1 43.9998 3.53870   1
   6  -3   2 103.377 5.29582  -2
   6  -3   1 103.377 5.29582   1
   7  -3   2 0.59901 2.85255  -2
   7  -3   1 0.59901 2.85255   1
   8  -3   3 12.6117 3.70517  -2
   8  -3   1 12.6117 3.70517   1
   9  -3   3 -1.0431 3.51086  -2
   9  -3   1 -1.0431 3.51086   1
  10   2   6 11.5557 2.72759  -2
 -10  -2   1 11.5557 2.72759   1
   9   2   6 21.9593 3.55793  -2
  -9  -2   1 21.9593 3.55793   1
   8   2   5 20.8578 3.28156  -2
  -8  -2   1 20.8578 3.28156   1
   7   2   5 31.9684 3.97995  -2
  -7  -2   1 31.9684 3.97995   1
   6   2   4 151.192 3.25721  -2
  -6  -2   1 151.192 3.25721   1
   5   2   4 125.873 5.11976  -2
  -5  -2   1 125.873 5.11976   1
   4   2   3 6.89685 1.19395  -2
  -4  -2   1 6.89685 1.19395   1
   3   2   3 175.807 5.78835  -2
  -3  -2   1 175.807 5.78835   1
   2   2   2 562.768 10.7437  -2
  -2  -2   1 562.768 10.7437   1
  -1  -2   1 1575.74 24.0435   1
   0   2   1 199.888 7.22624  -2
   0  -2   1 199.888 7.22624   1
  -1   2   1 908.363 16.5278  -2
   1  -2   1 908.363 16.5278   1
  -2   2   0 732.467 11.8222  -2
   2  -2   1 732.467 11.8222   1
  -3   2   0 798.350 15.2819  -2
   3  -2   1 798.350 15.2819   1
   4  -2   1 188.455 2.09383  -2
   4  -2   1 188.455 2.09383   1
   5  -2   1 78.8575 3.87229  -2
   5  -2   1 78.8575 3.87229   1
   6  -2   2 138.801 3.08625  -2
   6  -2   1 138.801 3.08625   1
   7  -2   2 54.3922 5.03415  -2
   7  -2   1 54.3922 5.03415   1
   8  -2   3 83.5637 3.72468  -2
   8  -2   1 83.5637 3.72468   1
   9  -2   3 31.2617 5.98851  -2
   9  -2   1 31.2617 5.98851   1
  10   1   6 27.7820 2.78507  -2
 -10  -1   1 27.7820 2.78507   1
  -9  -1   1 148.751 4.71730   1
   8   1   5 53.2476 3.05783  -2
  -8  -1   1 53.2476 3.05783   1
  -7  -1   1 64.3078 2.32024   1
   6   1   4 138.769 3.09107  -2
  -6  -1   1 138.769 3.09107   1
  -5  -1   1 2.83003 0.73742   1
   4   1   3 477.582 6.68992  -2
  -4  -1   1 477.582 6.68992   1
  -3  -1   1 11.3820 0.95729   1
   2   1   2 363.133 9.02682  -2
  -2  -1   1 363.133 9.02682   1
  -1  -1   1 198.359 6.49692   1
   0   1   1 744.803 15.8377  -2
   0  -1   1 744.803 15.8377   1
  -1   1   1 370.796 7.09839  -2
   1  -1   1 370.796 7.09839   1
  -2   1   0 92.0086 1.69558  -2
   2  -1   1 92.0086 1.69558   1
   3  -1   1 74.7550 1.32530   1
   4  -1   1 81.1825 1.29695  -2
   4  -1   1 81.1825 1.29695   1
   5  -1   1 33.5400 1.01914   1
   6  -1   2 86.9960 2.86097  -2
   6  -1   1 86.9960 2.86097   1
   7  -1   1 153.895 3.35766   1
   8  -1   3 30.7315 2.18378  -2
   8  -1   1 30.7315 2.18378   1
   9  -1   1 22.6284 2.39628   1
  10  -1   4 14.9979 3.00927  -2
  10  -1   1 14.9979 3.00927   1
  10   0   6 61.4006 3.60839  -2
 -10   0   1 61.4006 3.60839   1
  -9   0   1 3.71750 1.74213   1
   8   0   5 2.32466 1.58564  -2
  -8   0   1 2.32466 1.58564   1
  -7   0   1 10.2846 1.51379   1
   6   0   4 49.5797 1.93622  -2
  -6   0   1 49.5797 1.93622   1
  -5   0   1 275.773 4.54223   1
   4   0   3 507.443 6.11744  -2
  -4   0   1 507.443 6.11744   1
  -3   0   1 148.761 3.87728   1
   2   0   2 1660.13 26.6601  -2
  -2   0   1 1660.13 26.6601   1
  -1   0   1 207.730 4.78194   1
   0   0   1 1351.74 22.3524  -2
   0   0   1 1351.74 22.3524   1
   1   0   1 77.4595 1.94141   1
   2   0   0 804.166 11.5927  -2
   2   0   1 804.166 11.5927   1
   3   0   1 0.58143 0.32433   1
   4   0   1 47.0781 0.83298  -2
   4   0   1 47.0781 0.83298   1
   5   0   1 51.2696 1.00922   1
   6   0   2 24.9085 1.69800  -2
   6   0   1 24.9085 1.69800   1
   7   0   1 229.371 5.15635   1
   8   0   3 38.3447 2.52193  -2
   8   0   1 38.3447 2.52193   1
   9   0   1 8.35220 1.43247   1
  10   0   4 11.0187 2.31794  -2
  10   0   1 11.0187 2.31794   1
  -9   1   1 6.21472 1.86304   1
   8  -1   5 70.6409 3.45575  -2
  -8   1   1 70.6409 3.45575   1
  -7   1   1 61.5574 2.91359   1
   6  -1   4 20.9507 1.60132  -2
  -6   1   1 20.9507 1.60132   1
  -5   1   1 548.756 9.45617   1
   4  -1   3 158.998 3.00311  -2
  -4   1   1 158.998 3.00311   1
  -3   1   1 2.68962 0.51992   1
   2  -1   2 139.170 3.14707  -2
  -2   1   1 139.170 3.14707   1
   0  -1   1 890.415 26.5095  -2
   0   1   1 890.415 26.5095   1
   1   1   1 323.571 6.97316   1
   3   1   1 11.8332 4.05117  -2
   3   1   1 11.8332 4.05117   1
   4   1   1 15.3382 0.71849  -2
   4   1   1 15.3382 0.71849   1
   5   1   2 24.2772 5.77949  -2
   5   1   1 24.2772 5.77949   1
   6   1   2 347.574 6.53322  -2
   6   1   1 347.574 6.53322   1
   7   1   1 13.4907 1.45014   1
   8   1   3 41.2762 2.60877  -2
   8   1   1 41.2762 2.60877   1
   9   1   1 9.53911 1.54847   1
  10   1   4 105.369 3.52236  -2
  10   1   1 105.369 3.52236   1
   9  -2   5 2.45594 3.75666  -2
  -9   2   1 2.45594 3.75666   1
   8  -2   5 142.573 4.82061  -2
  -8   2   1 142.573 4.82061   1
   7  -2   4 28.0482 4.05608  -2
  -7   2   1 28.0482 4.05608   1
   6  -2   4 132.817 3.97335  -2
  -6   2   1 132.817 3.97335   1
   5  -2   3 116.444 5.57803  -2
  -5   2   1 116.444 5.57803   1
   4  -2   3 10.7298 1.45053  -2
  -4   2   1 10.7298 1.45053   1
   3  -2   2 391.722 10.4630  -2
  -3   2   1 391.722 10.4630   1
   2  -2   2 624.941 9.55481  -2
  -2   2   1 624.941 9.55481   1
  -1   2   1 107.038 2.54349   1
   1   2   1 20.3850 1.56992   1
   3   2   1 86.5001 5.36431  -2
   3   2   1 86.5001 5.36431   1
   4   2   1 1.75064 0.78435  -2
   4   2   1 1.75064 0.78435   1
   5   2   2 2.23486 2.08134  -2
   5   2   1 2.23486 2.08134   1
   6   2   2 286.174 8.61429  -2
   6   2   1 286.174 8.61429   1
   7   2   1 116.766 5.11782   1
   8   2   3 107.713 3.75254  -2
   8   2   1 107.713 3.75254   1
   9   2   4 9.35321 4.49752  -2
   9   2   1 9.35321 4.49752   1
  10   2   4 7.35803 2.75252  -2
  10   2   1 7.35803 2.75252   1
  11   2   5 31.9606 5.22383  -2
  11   2   1 31.9606 5.22383   1
   9  -3   5 4.48027 3.91101  -2
  -9   3   1 4.48027 3.91101   1
   8  -3   5 63.5947 3.85285  -2
  -8   3   1 63.5947 3.85285   1
   7  -3   4 11.8832 2.58870  -2
  -7   3   1 11.8832 2.58870   1
   6  -3   4 129.844 4.15541  -2
  -6   3   1 129.844 4.15541   1
   5  -3   3 62.7517 3.01210  -2
  -5   3   1 62.7517 3.01210   1
   4  -3   3 69.9118 2.37279  -2
  -4   3   1 69.9118 2.37279   1
   3  -3   2 113.355 2.66247  -2
  -3   3   1 113.355 2.66247   1
   2  -3   2 428.365 7.12461  -2
  -2   3   1 428.365 7.12461   1
  -1   3   1 559.951 8.56672   1
   0   3   1 216.396 5.97197   1
   2   3   0 110.584 5.80135  -2
   2   3   1 110.584 5.80135   1
   3   3   1 -0.5449 4.06356  -2
   3   3   1 -0.5449 4.06356   1
   4   3   1 47.5734 1.96801  -2
   4   3   1 47.5734 1.96801   1
   5   3   2 222.675 4.55345  -2
   5   3   1 222.675 4.55345   1
   6   3   2 16.7704 2.06883  -2
   6   3   1 16.7704 2.06883   1
   7   3   3 8.94396 2.89798  -2
   7   3   1 8.94396 2.89798   1
   8   3   3 141.251 5.96460  -2
   8   3   1 141.251 5.96460   1
   9   3   4 105.809 5.86426  -2
   9   3   1 105.809 5.86426   1
  10   3   4 35.9006 5.08300  -2
  10   3   1 35.9006 5.08300   1
  11   3   5 13.1623 5.48177  -2
  11   3   1 13.1623 5.48177   1
   8  -4   5 18.6610 6.28839  -2
  -8   4   1 18.6610 6.28839   1
   7  -4   4 10.1790 3.85838  -2
  -7   4   1 10.1790 3.85838   1
   6  -4   4 27.4139 3.06318  -2
  -6   4   1 27.4139 3.06318   1
   5  -4   3 62.1220 3.09859  -2
  -5   4   1 62.1220 3.09859   1
   4  -4   3 264.753 4.85538  -2
  -4   4   1 264.753 4.85538   1
   3  -4   2 29.1226 1.82822  -2
  -3   4   1 29.1226 1.82822   1
   2  -4   2 78.6072 3.08696  -2
  -2   4   1 78.6072 3.08696   1
   1  -4   1 167.159 3.61010  -2
  -1   4   1 167.159 3.61010   1
   0   4   1 161.518 4.05436   1
   1   4   1 33.7882 2.21236   1
   2   4   0 60.2878 5.26160  -2
   2   4   1 60.2878 5.26160   1
   3   4   1 0.47648 3.00905  -2
   3   4   1 0.47648 3.00905   1
   4   4   1 149.235 7.86108  -2
   4   4   1 149.235 7.86108   1
   5   4   2 163.316 3.88992  -2
   5   4   1 163.316 3.88992   1
   6   4   2 357.201 10.6028  -2
   6   4   1 357.201 10.6028   1
   7   4   3 66.1391 4.13693  -2
   7   4   1 66.1391 4.13693   1
   8   4   1 136.974 5.34498   1
   9   4   4 28.4131 4.46099  -2
   9   4   1 28.4131 4.46099   1
  10   4   4 36.4594 5.28467  -2
  10   4   1 36.4594 5.28467   1
  11   4   5 55.1262 5.79947  -2
  11   4   1 55.1262 5.79947   1
   7  -5   4 0.51936 4.05323  -2
  -7   5   1 0.51936 4.05323   1
   6  -5   4 26.8428 5.69266  -2
  -6   5   1 26.8428 5.69266   1
   5  -5   3 110.365 3.84034  -2
  -5   5   1 110.365 3.84034   1
   4  -5   3 502.012 14.8438  -2
  -4   5   1 502.012 14.8438   1
   3  -5   2 1.20377 1.57092  -2
  -3   5   1 1.20377 1.57092   1
  -2   5   1 124.905 3.63517   1
   1  -5   1 128.216 3.68768  -2
  -1   5   1 128.216 3.68768   1
   0  -5   1 176.874 8.36553  -2
   0   5   1 176.874 8.36553   1
   1   5   0 476.095 12.3810  -2
   1   5   1 476.095 12.3810   1
   2   5   0 224.633 9.55103  -2
   2   5   1 224.633 9.55103   1
   3   5   1 248.599 5.99283  -2
   3   5   1 248.599 5.99283   1
   4   5   1 152.165 7.98203  -2
   4   5   1 152.165 7.98203   1
   5   5   2 90.3180 4.34453  -2
   5   5   1 90.3180 4.34453   1
   6   5   1 68.0741 2.48300   1
   7   5   3 120.972 5.15046  -2
   7   5   1 120.972 5.15046   1
   8   5   1 17.0858 2.40287   1
   9   5   4 1.34557 3.60057  -2
   9   5   1 1.34557 3.60057   1
  10   5   1 1.29777 2.13252   1
   7  -6   4 35.2901 5.41236  -2
  -7   6   1 35.2901 5.41236   1
  -6   6   1 1.93468 2.89614   1
   5  -6   3 104.884 6.35864  -2
  -5   6   1 104.884 6.35864   1
  -4   6   1 32.0183 2.31252   1
   3  -6   2 87.7825 3.09509  -2
  -3   6   1 87.7825 3.09509   1
  -2   6   1 46.2863 2.62698   1
   1  -6   1 134.220 3.93158  -2
  -1   6   1 134.220 3.93158   1
   0   6   1 9.24759 1.21547   1
   1   6   0 64.6334 3.64426  -2
   1   6   1 64.6334 3.64426   1
   2   6   1 38.9244 2.71874   1
   3   6   1 0.39035 2.18523  -2
   3   6   1 0.39035 2.18523   1
   4   6   1 272.014 8.28429   1
   5   6   2 85.6483 4.23422  -2
   5   6   1 85.6483 4.23422   1
   6   6   1 104.019 4.86730   1
   8   6   1 13.7918 2.28808   1
  10   6   1 2.27210 2.17587   1
  -6   7   1 25.8605 4.26405   1
   5  -7   3 151.013 7.77262  -2
  -5   7   1 151.013 7.77262   1
  -4   7   1 10.0790 3.25184   1
   3  -7   2 10.6096 1.74561  -2
  -3   7   1 10.6096 1.74561   1
  -2   7   1 13.6336 1.79883   1
   1  -7   1 95.6397 3.43119  -2
  -1   7   1 95.6397 3.43119   1
   0   7   1 138.651 3.97597   1
   1   7   0 48.5398 3.22049  -2
   1   7   1 48.5398 3.22049   1
   2   7   1 20.5344 2.36263   1
   3   7   1 8.66541 2.23251  -2
   3   7   1 8.66541 2.23251   1
   4   7   1 123.580 5.15555   1
   5   7   2 108.717 5.03246  -2
   5   7   1 108.717 5.03246   1
   6   7   1 11.4201 2.18505   1
   5  -8   3 47.5524 5.33082  -2
  -5   8   1 47.5524 5.33082   1
   4  -8   2 26.9246 6.76654  -2
  -4   8   1 26.9246 6.76654   1
   3  -8   2 55.8862 5.69802  -2
  -3   8   1 55.8862 5.69802   1
   2  -8   1 133.272 7.44782  -2
  -2   8   1 133.272 7.44782   1
   1  -8   1 7.13681 2.50329  -2
  -1   8   1 7.13681 2.50329   1
   0   8   1 52.2231 2.77126   1
   1   8   0 61.6848 4.36428  -2
   1   8   1 61.6848 4.36428   1
   2   8   1 23.3362 2.94076   1
   3   8   1 784.015 20.2498  -2
   3   8   1 784.015 20.2498   1
   4   8   1 339.904 10.3981   1
   5   8   2 109.949 5.50645  -2
   5   8   1 109.949 5.50645   1
   6   8   1 14.6501 2.59900   1
   4  -9   2 33.0728 7.24239  -2
  -4   9   1 33.0728 7.24239   1
   3  -9   2 73.3210 6.89716  -2
  -3   9   1 73.3210 6.89716   1
   2  -9   1 11.4750 5.54083  -2
  -2   9   1 11.4750 5.54083   1
   1  -9   1 100.466 6.34516  -2
  -1   9   1 100.466 6.34516   1
   0   9   0 75.2438 5.82836  -2
   0   9   1 75.2438 5.82836   1
   1   9   0 139.835 6.74006  -2
   1   9   1 139.835 6.74006   1
   2   9   1 27.7628 4.54285  -2
   2   9   1 27.7628 4.54285   1
   3   9   1 248.369 8.87920  -2
   3   9   1 248.369 8.87920   1
   4   9   2 446.652 13.6884  -2
   4   9   1 446.652 13.6884   1
   5   9   2 16.7978 4.23663  -2
   5   9   1 16.7978 4.23663   1
   6   9   3 210.863 9.12048  -2
   6   9   1 210.863 9.12048   1
   3 -10   2 148.936 9.29819  -2
  -3  10   1 148.936 9.29819   1
   2 -10   1 27.6821 6.01878  -2
  -2  10   1 27.6821 6.01878   1
   1 -10   1 9.40753 5.28738  -2
  -1  10   1 9.40753 5.28738   1
   0  10   0 25.1885 5.24949  -2
   0  10   1 25.1885 5.24949   1
   1  10   0 4.43899 4.72534  -2
   1  10   1 4.43899 4.72534   1
   2  10   1 109.592 6.45481  -2
   2  10   1 109.592 6.45481   1
   3  10   1 217.906 8.99309  -2
   3  10   1 217.906 8.99309   1
   4  10   2 12.8003 4.61368  -2
   4  10   1 12.8003 4.61368   1
   5  10   2 16.2949 4.88324  -2
   5  10   1 16.2949 4.88324   1
   6  10   3 10.5623 5.25251  -2
   6  10   1 10.5623 5.25251   1
   2 -11   1 81.0915 7.39942  -2
  -2  11   1 81.0915 7.39942   1
   1 -11   1 9.29159 6.19140  -2
  -1  11   1 9.29159 6.19140   1
   0  11   0 107.713 7.53607  -2
   0  11   1 107.713 7.53607   1
   1  11   0 193.484 9.34646  -2
   1  11   1 193.484 9.34646   1
   2  11   1 39.8031 5.45328  -2
   2  11   1 39.8031 5.45328   1
   3  11   1 449.744 14.4655  -2
   3  11   1 449.744 14.4655   1
   4  11   2 6.40703 4.87654  -2
   4  11   1 6.40703 4.87654   1
   5  11   2 20.7596 5.54540  -2
   5  11   1 20.7596 5.54540   1
   1 -12   1 36.3102 7.37494  -2
  -1  12   1 36.3102 7.37494   1
   0  12   0 0.63549 5.07502  -2
   0  12   1 0.63549 5.07502   1
   1  12   0 9.39573 6.03247  -2
   1  12   1 9.39573 6.03247   1
   2  12   1 27.4898 5.39503  -2
   2  12   1 27.4898 5.39503   1
   3  12   1 -7.8166 5.71612  -2
   3  12   1 -7.8166 5.71612   1
   4  12   2 12.8570 4.96453  -2
   4  12   1 12.8570 4.96453   1
   5  12   1 23.0138 3.76493   1
   1  13   1 2.32924 3.24981   1
   2  13   1 8.70259 4.65895  -2
   2  13   1 8.70259 4.65895   1
   3  13   1 4.19183 3.09860   1
   4  13   2 62.8318 5.80776  -2
   4  13   1 62.8318 5.80776   1
   5  13   1 82.8553 6.43995   1
   6  13   6 16.5901 5.07491  -2
  -6 -13   2 16.5901 5.07491   1
  -5 -13   2 49.6791 5.47370   1
   4  13   5 104.771 6.88101  -2
  -4 -13   2 104.771 6.88101   1
  -3 -13   2 4.15390 3.17566   1
   2  13   4 42.8924 5.18569  -2
  -2 -13   2 42.8924 5.18569   1
   8  12   7 60.4893 6.99596  -2
  -8 -12   2 60.4893 6.99596   1
  -7 -12   2 99.5707 6.84270   1
   6  12   6 16.9481 5.50133  -2
  -6 -12   2 16.9481 5.50133   1
   5  12   5 51.5959 7.17477  -2
  -5 -12   2 51.5959 7.17477   1
   4  12   5 13.2649 5.11228  -2
  -4 -12   2 13.2649 5.11228   1
   3  12   4 52.6629 7.02199  -2
  -3 -12   2 52.6629 7.02199   1
   2  12   4 90.9349 6.16329  -2
  -2 -12   2 90.9349 6.16329   1
   1  12   3 1.39722 6.10099  -2
  -1 -12   2 1.39722 6.10099   1
   0  12   3 -1.4594 4.40062  -2
   0 -12   2 -1.4594 4.40062   1
  -1  12   2 53.1056 7.67443  -2
   1 -12   2 53.1056 7.67443   1
   8  11   7 7.70469 6.27372  -2
  -8 -11   2 7.70469 6.27372   1
   7  11   6 129.250 8.84817  -2
  -7 -11   2 129.250 8.84817   1
   6  11   6 6.14941 5.09465  -2
  -6 -11   2 6.14941 5.09465   1
   5  11   5 54.0140 6.44343  -2
  -5 -11   2 54.0140 6.44343   1
   4  11   5 9.02530 4.98646  -2
  -4 -11   2 9.02530 4.98646   1
   3  11   4 24.8869 5.68034  -2
  -3 -11   2 24.8869 5.68034   1
   2  11   4 2.65502 4.64334  -2
  -2 -11   2 2.65502 4.64334   1
   1  11   3 8.20827 5.58530  -2
  -1 -11   2 8.20827 5.58530   1
   0  11   3 1.41131 4.69379  -2
   0 -11   2 1.41131 4.69379   1
  -1  11   2 49.1723 6.73828  -2
   1 -11   2 49.1723 6.73828   1
  -2  11   2 96.7632 6.61217  -2
   2 -11   2 96.7632 6.61217   1
   8  10   7 61.8651 7.58819  -2
  -8 -10   2 61.8651 7.58819   1
   7  10   6 29.8279 5.96222  -2
  -7 -10   2 29.8279 5.96222   1
   6  10   6 113.859 7.73894  -2
  -6 -10   2 113.859 7.73894   1
   5  10   5 154.157 7.93962  -2
  -5 -10   2 154.157 7.93962   1
   4  10   5 11.9070 4.88880  -2
  -4 -10   2 11.9070 4.88880   1
   3  10   4 249.814 9.62380  -2
  -3 -10   2 249.814 9.62380   1
   2  10   4 153.328 7.60557  -2
  -2 -10   2 153.328 7.60557   1
   1  10   3 39.9985 5.20412  -2
  -1 -10   2 39.9985 5.20412   1
   0  10   3 6.74722 4.74006  -2
   0 -10   2 6.74722 4.74006   1
  -1  10   2 85.3440 6.47988  -2
   1 -10   2 85.3440 6.47988   1
  -2  10   2 51.1145 6.31180  -2
   2 -10   2 51.1145 6.31180   1
  -3  10   1 131.062 7.46326  -2
   3 -10   2 131.062 7.46326   1
   8   9   7 5.56504 5.92067  -2
  -8  -9   2 5.56504 5.92067   1
   7   9   6 -1.6215 4.75806  -2
  -7  -9   2 -1.6215 4.75806   1
   6   9   6 88.7767 7.02209  -2
  -6  -9   2 88.7767 7.02209   1
   5   9   5 100.326 6.10540  -2
  -5  -9   2 100.326 6.10540   1
   4   9   5 71.3596 6.01173  -2
  -4  -9   2 71.3596 6.01173   1
   3   9   4 124.140 6.35021  -2
  -3  -9   2 124.140 6.35021   1
   2   9   4 73.0394 5.72594  -2
  -2  -9   2 73.0394 5.72594   1
   1   9   3 108.702 5.89126  -2
  -1  -9   2 108.702 5.89126   1
   0   9   3 138.690 7.09220  -2
   0  -9   2 138.690 7.09220   1
  -1   9   2 112.552 6.50905  -2
   1  -9   2 112.552 6.50905   1
  -2   9   2 13.8781 5.47342  -2
   2  -9   2 13.8781 5.47342   1
  -3   9   1 53.6224 5.22237  -2
   3  -9   2 53.6224 5.22237   1
  -4   9   1 29.1571 6.27807  -2
   4  -9   2 29.1571 6.27807   1
  -5   9   0 129.908 7.62478  -2
   5  -9   2 129.908 7.62478   1
 -10  -8   2 4.19228 2.49131   1
  -8  -8   2 -1.9983 1.29339   1
   7   8   6 98.9393 6.01113  -2
  -7  -8   2 98.9393 6.01113   1
  -6  -8   2 262.164 9.26735   1
   5   8   5 41.2375 4.21644  -2
  -5  -8   2 41.2375 4.21644   1
  -4  -8   2 76.5363 4.44754   1
   3   8   4 78.8842 4.56960  -2
  -3  -8   2 78.8842 4.56960   1
  -2  -8   2 69.2153 4.15036   1
   1   8   3 169.169 6.51914  -2
  -1  -8   2 169.169 6.51914   1
   0  -8   2 7.09302 2.06854   1
  -1   8   2 90.6977 4.83032  -2
   1  -8   2 90.6977 4.83032   1
  -2   8   2 78.9423 5.90577  -2
   2  -8   2 78.9423 5.90577   1
  -3   8   1 43.7006 4.45515  -2
   3  -8   2 43.7006 4.45515   1
  -4   8   1 21.6385 5.96253  -2
   4  -8   2 21.6385 5.96253   1
  -5   8   0 9.80560 3.15831  -2
   5  -8   2 9.80560 3.15831   1
 -10  -7   2 3.05604 2.34267   1
   9   7   7 29.7067 3.66336  -2
  -9  -7   2 29.7067 3.66336   1
  -8  -7   2 54.0092 3.00356   1
   7   7   6 242.112 5.71293  -2
  -7  -7   2 242.112 5.71293   1
  -6  -7   2 193.150 4.80155   1
   5   7   5 137.598 5.78026  -2
  -5  -7   2 137.598 5.78026   1
  -4  -7   2 181.449 6.64475   1
   3   7   4 108.355 4.75625  -2
  -3  -7   2 108.355 4.75625   1
  -2  -7   2 34.7964 2.85168   1
   1   7   3 305.168 9.14717  -2
  -1  -7   2 305.168 9.14717   1
   0  -7   2 2.38632 1.49355   1
  -1   7   2 91.1648 4.47447  -2
   1  -7   2 91.1648 4.47447   1
   2  -7   2 80.9196 4.67228   1
  -3   7   1 10.2835 2.98579  -2
   3  -7   2 10.2835 2.98579   1
   4  -7   2 66.5516 5.16365   1
  -5   7   0 95.4551 5.96184  -2
   5  -7   2 95.4551 5.96184   1
   6  -7   2 22.1085 3.93994   1
 -10  -6   2 0.68897 2.19970   1
   9   6   7 3.50965 3.19237  -2
  -9  -6   2 3.50965 3.19237   1
  -8  -6   2 58.5391 3.12574   1
   7   6   6 231.465 5.57981  -2
  -7  -6   2 231.465 5.57981   1
  -6  -6   2 61.1389 2.58535   1
   5   6   5 125.969 5.38242  -2
  -5  -6   2 125.969 5.38242   1
  -4  -6   2 0.84341 0.82339   1
   3   6   4 154.218 5.73503  -2
  -3  -6   2 154.218 5.73503   1
  -2  -6   2 571.940 5.92746   1
   1   6   3 25.6273 1.23460  -2
  -1  -6   2 25.6273 1.23460   1
   0  -6   2 0.10942 0.49488   1
  -1   6   2 3.09299 1.05843  -2
   1  -6   2 3.09299 1.05843   1
   2  -6   2 152.315 3.56574   1
  -3   6   1 101.058 5.05914  -2
   3  -6   2 101.058 5.05914   1
   4  -6   2 2.49310 2.28615   1
  -5   6   0 43.5842 4.45905  -2
   5  -6   2 43.5842 4.45905   1
   6  -6   1 0.60234 3.82510  -2
   6  -6   2 0.60234 3.82510   1
   7  -6   1 4.04594 3.95043  -2
   7  -6   2 4.04594 3.95043   1
  10   5   7 235.181 9.41389  -2
 -10  -5   2 235.181 9.41389   1
   9   5   7 79.6378 5.55145  -2
  -9  -5   2 79.6378 5.55145   1
  -8  -5   2 -0.4031 1.25850   1
   7   5   6 244.226 5.79367  -2
  -7  -5   2 244.226 5.79367   1
   6   5   5 45.5239 3.88677  -2
  -6  -5   2 45.5239 3.88677   1
   5   5   5 15.0045 1.97044  -2
  -5  -5   2 15.0045 1.97044   1
  -4  -5   2 18.1331 1.41319   1
   3   5   4 9.52166 1.98385  -2
  -3  -5   2 9.52166 1.98385   1
   2   5   3 508.745 17.5986  -2
  -2  -5   2 508.745 17.5986   1
   1   5   3 752.607 9.75388  -2
  -1  -5   2 752.607 9.75388   1
   0   5   2 106.314 6.65721  -2
   0  -5   2 106.314 6.65721   1
  -1   5   2 218.932 3.04485  -2
   1  -5   2 218.932 3.04485   1
  -2   5   1 95.3841 2.89758  -2
   2  -5   2 95.3841 2.89758   1
  -3   5   1 2.78830 1.31007  -2
   3  -5   2 2.78830 1.31007   1
  -4   5   0 325.281 10.4233  -2
   4  -5   2 325.281 10.4233   1
  -5   5   0 37.8871 3.94446  -2
   5  -5   2 37.8871 3.94446   1
   6  -5   1 30.7713 4.12693  -2
   6  -5   2 30.7713 4.12693   1
   7  -5   1 40.5731 4.89465  -2
   7  -5   2 40.5731 4.89465   1
   8  -5   2 1.86478 5.68218  -2
   8  -5   2 1.86478 5.68218   1
  10   4   7 21.4615 5.55008  -2
 -10  -4   2 21.4615 5.55008   1
   9   4   7 24.4214 4.64419  -2
  -9  -4   2 24.4214 4.64419   1
   8   4   6 14.4855 3.09209  -2
  -8  -4   2 14.4855 3.09209   1
   7   4   6 36.9598 2.88804  -2
  -7  -4   2 36.9598 2.88804   1
   6   4   5 245.551 5.44552  -2
  -6  -4   2 245.551 5.44552   1
   5   4   5 98.9764 3.08978  -2
  -5  -4   2 98.9764 3.08978   1
  -4  -4   2 3.32448 0.76234   1
   3   4   4 107.557 2.37798  -2
  -3  -4   2 107.557 2.37798   1
   2   4   3 244.071 9.95770  -2
  -2  -4   2 244.071 9.95770   1
   1   4   3 98.2819 2.80110  -2
  -1  -4   2 98.2819 2.80110   1
   0   4   2 211.988 8.73428  -2
   0  -4   2 211.988 8.73428   1
  -1   4   2 226.501 4.57503  -2
   1  -4   2 226.501 4.57503   1
  -2   4   1 94.3621 2.51228  -2
   2  -4   2 94.3621 2.51228   1
  -3   4   1 29.9296 1.67734  -2
   3  -4   2 29.9296 1.67734   1
  -4   4   0 95.6470 4.44753  -2
   4  -4   2 95.6470 4.44753   1
  -5   4   0 31.6214 3.43072  -2
   5  -4   2 31.6214 3.43072   1
   6  -4   1 45.7085 3.87837  -2
   6  -4   2 45.7085 3.87837   1
   7  -4   1 46.9948 4.46122  -2
   7  -4   2 46.9948 4.46122   1
  10   3   7 43.1396 5.39567  -2
 -10  -3   2 43.1396 5.39567   1
   8   3   6 70.0917 3.65746  -2
  -8  -3   2 70.0917 3.65746   1
   7   3   6 60.5002 3.46061  -2
  -7  -3   2 60.5002 3.46061   1
   6   3   5 144.034 4.03253  -2
  -6  -3   2 144.034 4.03253   1
   5   3   5 158.498 3.99173  -2
  -5  -3   2 158.498 3.99173   1
   4   3   4 355.882 5.70907  -2
  -4  -3   2 355.882 5.70907   1
   3   3   4 31.4664 5.28658  -2
  -3  -3   2 31.4664 5.28658   1
   2   3   3 1217.81 28.1526  -2
  -2  -3   2 1217.81 28.1526   1
   1   3   3 15.2009 3.70879  -2
  -1  -3   2 15.2009 3.70879   1
   0   3   2 343.948 6.99768  -2
   0  -3   2 343.948 6.99768   1
  -1   3   2 115.346 5.59656  -2
   1  -3   2 115.346 5.59656   1
  -2   3   1 335.672 5.50675  -2
   2  -3   2 335.672 5.50675   1
  -3   3   1 67.2182 3.19970  -2
   3  -3   2 67.2182 3.19970   1
  -4   3   0 164.176 2.43322  -2
   4  -3   2 164.176 2.43322   1
  -5   3   0 18.3890 2.85043  -2
   5  -3   2 18.3890 2.85043   1
   6  -3   1 159.975 4.40485  -2
   6  -3   2 159.975 4.40485   1
   7  -3   1 3.85811 2.58513  -2
   7  -3   2 3.85811 2.58513   1
   8  -3   2 3.31549 4.52504  -2
   8  -3   2 3.31549 4.52504   1
   9  -3   2 8.80681 5.35980  -2
   9  -3   2 8.80681 5.35980   1
  10   2   7 5.88968 2.75169  -2
 -10  -2   2 5.88968 2.75169   1
   9   2   7 -0.7040 3.50469  -2
  -9  -2   2 -0.7040 3.50469   1
   8   2   6 7.43622 1.89395  -2
  -8  -2   2 7.43622 1.89395   1
   7   2   6 49.1459 4.08270  -2
  -7  -2   2 49.1459 4.08270   1
   6   2   5 16.7196 1.52028  -2
  -6  -2   2 16.7196 1.52028   1
   5   2   5 -0.2449 2.09008  -2
  -5  -2   2 -0.2449 2.09008   1
   4   2   4 6.51559 1.02711  -2
  -4  -2   2 6.51559 1.02711   1
   3   2   4 607.232 12.0640  -2
  -3  -2   2 607.232 12.0640   1
   2   2   3 496.362 8.26648  -2
  -2  -2   2 496.362 8.26648   1
  -1  -2   2 739.988 9.03109   1
   0   2   2 325.215 5.47562  -2
   0  -2   2 325.215 5.47562   1
  -1   2   2 905.493 16.5625  -2
   1  -2   2 905.493 16.5625   1
  -2   2   1 604.297 8.11242  -2
   2  -2   2 604.297 8.11242   1
  -3   2   1 209.747 6.09178  -2
   3  -2   2 209.747 6.09178   1
  -4   2   0 63.6415 1.21787  -2
   4  -2   2 63.6415 1.21787   1
  -5   2   0 98.8136 4.88085  -2
   5  -2   2 98.8136 4.88085   1
   6  -2   1 73.5240 4.37508  -2
   6  -2   2 73.5240 4.37508   1
   7  -2   1 49.4828 4.73421  -2
   7  -2   2 49.4828 4.73421   1
   8  -2   2 93.9328 3.93425  -2
   8  -2   2 93.9328 3.93425   1
   9  -2   2 1.77898 1.96635   1
  10   1   7 82.5706 6.38293  -2
 -10  -1   2 82.5706 6.38293   1
   9   1   7 184.640 9.09319  -2
  -9  -1   2 184.640 9.09319   1
   8   1   6 115.147 4.11393  -2
  -8  -1   2 115.147 4.11393   1
  -7  -1   2 18.5608 1.52574   1
   6   1   5 275.757 4.87940  -2
  -6  -1   2 275.757 4.87940   1
  -5  -1   2 9.67060 0.97293   1
   4   1   4 371.945 5.07734  -2
  -4  -1   2 371.945 5.07734   1
  -3  -1   2 38.1141 1.17381   1
   2   1   3 594.486 9.65279  -2
  -2  -1   2 594.486 9.65279   1
   1   1   3 1386.98 41.0552  -2
  -1  -1   2 1386.98 41.0552   1
   0   1   2 292.726 6.49868  -2
   0  -1   2 292.726 6.49868   1
   1  -1   2 269.541 4.42944   1
  -2   1   1 168.660 2.05317  -2
   2  -1   2 168.660 2.05317   1
   3  -1   2 24.5073 0.62588   1
  -4   1   0 117.860 1.62125  -2
   4  -1   2 117.860 1.62125   1
   5  -1   2 3.87921 0.43616   1
   6  -1   1 79.8470 1.59432  -2
   6  -1   2 79.8470 1.59432   1
   7  -1   2 31.1911 1.74234   1
   8  -1   2 7.41900 2.24301  -2
   8  -1   2 7.41900 2.24301   1
   9  -1   2 106.681 4.12979   1
  10  -1   3 38.3429 3.40203  -2
  10  -1   2 38.3429 3.40203   1
  10   0   7 26.6644 2.72067  -2
 -10   0   2 26.6644 2.72067   1
  -9   0   2 52.4029 3.35167   1
   8   0   6 109.391 4.03432  -2
  -8   0   2 109.391 4.03432   1
  -7   0   2 65.4637 2.46538   1
   6   0   5 20.6821 1.42371  -2
  -6   0   2 20.6821 1.42371   1
  -5   0   2 0.54469 0.71964   1
   4   0   4 887.883 11.7376  -2
  -4   0   2 887.883 11.7376   1
  -3   0   2 344.981 5.32363   1
   2   0   3 548.479 7.45117  -2
  -2   0   2 548.479 7.45117   1
  -1   0   2 65.8164 1.65076   1
   0   0   2 1133.52 17.5518  -2
   0   0   2 1133.52 17.5518   1
  -2   0   1 1957.48 17.6130  -2
   2   0   2 1957.48 17.6130   1
   3   0   2 0.71844 0.26722   1
   4   0   0 43.4981 0.82430  -2
   4   0   2 43.4981 0.82430   1
   5   0   1 65.9087 7.41716  -2
   5   0   2 65.9087 7.41716   1
   6   0   1 26.3954 0.87791  -2
   6   0   2 26.3954 0.87791   1
   7   0   2 294.560 4.84281   1
   8   0   2 75.7357 2.49356  -2
   8   0   2 75.7357 2.49356   1
   9   0   2 27.9725 2.40536   1
  10   0   3 21.3042 2.34987  -2
  10   0   2 21.3042 2.34987   1
  -9   1   2 80.2731 3.87329   1
   8  -1   6 0.45312 2.36545  -2
  -8   1   2 0.45312 2.36545   1
  -7   1   2 2.67801 1.39228   1
   6  -1   5 -0.4443 1.47060  -2
  -6   1   2 -0.4443 1.47060   1
  -5   1   2 317.404 6.21304   1
   4  -1   4 166.729 3.19872  -2
  -4   1   2 166.729 3.19872   1
  -3   1   2 142.695 2.97216   1
   2  -1   3 109.026 2.43147  -2
  -2   1   2 109.026 2.43147   1
  -1   1   2 33.8685 1.40389   1
   0  -1   2 247.111 5.72279  -2
   0   1   2 247.111 5.72279   1
   1   1   2 58.8062 0.80600   1
  -2  -1   1 446.374 7.47673  -2
   2   1   2 446.374 7.47673   1
   3   1   2 29.9914 0.72818   1
   4   1   0 12.1009 0.77288  -2
   4   1   2 12.1009 0.77288   1
   5   1   2 31.0736 0.76780   1
   6   1   1 318.808 4.00740  -2
   6   1   2 318.808 4.00740   1
   7   1   2 6.81354 1.14761   1
   8   1   2 64.4583 2.45833  -2
   8   1   2 64.4583 2.45833   1
   9   1   2 0.45852 1.06512   1
  10   1   3 9.96186 2.60813  -2
  10   1   2 9.96186 2.60813   1
   9  -2   6 12.7358 3.99478  -2
  -9   2   2 12.7358 3.99478   1
   8  -2   6 102.601 4.24649  -2
  -8   2   2 102.601 4.24649   1
   7  -2   5 82.3766 6.46186  -2
  -7   2   2 82.3766 6.46186   1
   6  -2   5 2.21272 1.78438  -2
  -6   2   2 2.21272 1.78438   1
   5  -2   4 62.4351 4.81954  -2
  -5   2   2 62.4351 4.81954   1
   4  -2   4 309.702 5.04872  -2
  -4   2   2 309.702 5.04872   1
  -3   2   2 23.4883 1.14747   1
   2  -2   3 280.027 4.92976  -2
  -2   2   2 280.027 4.92976   1
  -1   2   2 1130.94 14.6687   1
   0  -2   2 407.256 6.85697  -2
   0   2   2 407.256 6.85697   1
   1   2   2 1171.29 24.3954   1
  -2  -2   1 510.438 7.54144  -2
   2   2   2 510.438 7.54144   1
   3   2   0 89.6302 5.09780  -2
   3   2   2 89.6302 5.09780   1
   4   2   0 702.929 7.79750  -2
   4   2   2 702.929 7.79750   1
   5   2   1 -3.1960 4.56439  -2
   5   2   2 -3.1960 4.56439   1
   6   2   1 534.703 5.94365  -2
   6   2   2 534.703 5.94365   1
   7   2   2 406.696 10.0117   1
   8   2   2 2.54704 1.99548  -2
   8   2   2 2.54704 1.99548   1
   9   2   2 23.6587 2.14367   1
  10   2   3 6.27971 2.36199  -2
  10   2   2 6.27971 2.36199   1
  11   2   4 29.0141 6.62772  -2
  11   2   2 29.0141 6.62772   1
   8  -3   6 59.3553 3.87264  -2
  -8   3   2 59.3553 3.87264   1
   7  -3   5 35.9158 3.48027  -2
  -7   3   2 35.9158 3.48027   1
   6  -3   5 145.729 4.70883  -2
  -6   3   2 145.729 4.70883   1
   5  -3   4 199.910 4.25157  -2
  -5   3   2 199.910 4.25157   1
   4  -3   4 31.0544 2.05422  -2
  -4   3   2 31.0544 2.05422   1
   3  -3   3 0.82038 1.54142  -2
  -3   3   2 0.82038 1.54142   1
   2  -3   3 347.578 6.05617  -2
  -2   3   2 347.578 6.05617   1
   1  -3   2 150.906 7.00077  -2
  -1   3   2 150.906 7.00077   1
   0  -3   2 312.982 11.1780  -2
   0   3   2 312.982 11.1780   1
  -1  -3   1 112.444 5.62125  -2
   1   3   2 112.444 5.62125   1
  -2  -3   1 754.680 23.3066  -2
   2   3   2 754.680 23.3066   1
   3   3   2 429.528 5.75781   1
   4   3   0 323.667 4.76920  -2
   4   3   2 323.667 4.76920   1
   5   3   1 190.417 4.43116  -2
   5   3   2 190.417 4.43116   1
   6   3   1 17.1258 1.69442  -2
   6   3   2 17.1258 1.69442   1
   7   3   2 77.8813 3.65333   1
   8   3   2 19.1389 3.64237  -2
   8   3   2 19.1389 3.64237   1
   9   3   3 3.14848 4.00456  -2
   9   3   2 3.14848 4.00456   1
  10   3   3 43.7405 3.80317  -2
  10   3   2 43.7405 3.80317   1
  11   3   4 12.0488 4.00562  -2
  11   3   2 12.0488 4.00562   1
   8  -4   6 15.9846 6.69998  -2
  -8   4   2 15.9846 6.69998   1
   7  -4   5 23.7575 3.27304  -2
  -7   4   2 23.7575 3.27304   1
   6  -4   5 132.021 4.62945  -2
  -6   4   2 132.021 4.62945   1
   5  -4   4 290.422 5.47240  -2
  -5   4   2 290.422 5.47240   1
   4  -4   4 302.324 5.37150  -2
  -4   4   2 302.324 5.37150   1
   3  -4   3 21.0402 1.82258  -2
  -3   4   2 21.0402 1.82258   1
   2  -4   3 447.312 8.75741  -2
  -2   4   2 447.312 8.75741   1
   1  -4   2 220.430 4.36057  -2
  -1   4   2 220.430 4.36057   1
   0  -4   2 228.966 9.35405  -2
   0   4   2 228.966 9.35405   1
  -1  -4   1 51.9699 3.44506  -2
   1   4   2 51.9699 3.44506   1
  -2  -4   1 74.4089 5.44048  -2
   2   4   2 74.4089 5.44048   1
   3   4   0 799.509 11.9460  -2
   3   4   2 799.509 11.9460   1
   4   4   0 581.256 7.96030  -2
   4   4   2 581.256 7.96030   1
   5   4   1 181.599 2.91132  -2
   5   4   2 181.599 2.91132   1
   6   4   2 334.069 4.67189   1
   7   4   2 20.1914 3.32215  -2
   7   4   2 20.1914 3.32215   1
   8   4   2 1.43818 1.64084   1
   9   4   3 -0.7239 3.80975  -2
   9   4   2 -0.7239 3.80975   1
  10   4   3 169.056 5.60428  -2
  10   4   2 169.056 5.60428   1
  11   4   4 70.2007 6.90114  -2
  11   4   2 70.2007 6.90114   1
   7  -5   5 9.45386 4.88987  -2
  -7   5   2 9.45386 4.88987   1
   6  -5   5 83.0678 6.90104  -2
  -6   5   2 83.0678 6.90104   1
   5  -5   4 146.994 4.59621  -2
  -5   5   2 146.994 4.59621   1
   4  -5   4 99.4838 6.62865  -2
  -4   5   2 99.4838 6.62865   1
   3  -5   3 1.36808 1.66892  -2
  -3   5   2 1.36808 1.66892   1
  -2   5   2 106.830 3.40645   1
   1  -5   2 252.918 5.67880  -2
  -1   5   2 252.918 5.67880   1
   0  -5   2 102.584 6.65864  -2
   0   5   2 102.584 6.65864   1
  -1  -5   1 91.5536 3.28753  -2
   1   5   2 91.5536 3.28753   1
  -2  -5   1 9.01866 4.31027  -2
   2   5   2 9.01866 4.31027   1
   3   5   0 653.350 7.24607  -2
   3   5   2 653.350 7.24607   1
   4   5   0 378.490 7.33065  -2
   4   5   2 378.490 7.33065   1
   5   5   1 68.8832 3.30200  -2
   5   5   2 68.8832 3.30200   1
   8   5   2 14.7344 2.26598   1
  11   5   4 28.1272 5.99965  -2
  11   5   2 28.1272 5.99965   1
   7  -6   5 86.4984 6.93626  -2
  -7   6   2 86.4984 6.93626   1
  -6   6   2 4.94812 3.15555   1
   5  -6   4 43.7563 3.00674  -2
  -5   6   2 43.7563 3.00674   1
  -4   6   2 8.75891 1.64820   1
   3  -6   3 118.255 3.11669  -2
  -3   6   2 118.255 3.11669   1
  -2   6   2 28.1350 2.27302   1
   1  -6   2 1.34467 1.74650  -2
  -1   6   2 1.34467 1.74650   1
   0   6   2 14.8662 1.43713   1
  -1  -6   1 142.213 5.33553  -2
   1   6   2 142.213 5.33553   1
   2   6   2 475.785 12.5834   1
   3   6   0 65.1236 3.50601  -2
   3   6   2 65.1236 3.50601   1
   4   6   2 2.11452 1.35698   1
   5   6   1 83.4531 4.11253  -2
   5   6   2 83.4531 4.11253   1
  10   6   2 42.1989 4.13252   1
  11   6   4 48.7439 5.77926  -2
  11   6   2 48.7439 5.77926   1
   5  -7   4 141.936 7.56125  -2
  -5   7   2 141.936 7.56125   1
  -4   7   2 32.3152 2.58334   1
   3  -7   3 36.9289 2.98658  -2
  -3   7   2 36.9289 2.98658   1
  -2   7   2 59.6081 3.13693   1
   1  -7   2 113.573 3.80727  -2
  -1   7   2 113.573 3.80727   1
   0   7   2 92.3007 3.26357   1
  -1  -7   1 28.2807 2.88356  -2
   1   7   2 28.2807 2.88356   1
   2   7   2 356.082 10.3220   1
   3   7   0 347.590 10.1219  -2
   3   7   2 347.590 10.1219   1
   4   7   2 0.10547 1.40071   1
   5   7   1 95.5586 4.59891  -2
   5   7   2 95.5586 4.59891   1
   5  -8   4 76.4075 6.70378  -2
  -5   8   2 76.4075 6.70378   1
   4  -8   3 6.20851 6.46411  -2
  -4   8   2 6.20851 6.46411   1
   3  -8   3 35.2151 5.28862  -2
  -3   8   2 35.2151 5.28862   1
  -2   8   2 16.7919 2.10122   1
   1  -8   2 109.170 4.23571  -2
  -1   8   2 109.170 4.23571   1
   0   8   2 241.586 6.00382   1
  -1  -8   1 216.636 7.86767  -2
   1   8   2 216.636 7.86767   1
   2   8   2 6.73959 1.94166   1
   3   8   0 295.642 9.49105  -2
   3   8   2 295.642 9.49105   1
   4   8   2 6.40050 1.91889   1
   5   8   1 142.408 6.20296  -2
   5   8   2 142.408 6.20296   1
   4  -9   3 22.5540 6.88295  -2
  -4   9   2 22.5540 6.88295   1
   3  -9   3 21.5296 5.83408  -2
  -3   9   2 21.5296 5.83408   1
   2  -9   2 18.9740 5.69544  -2
  -2   9   2 18.9740 5.69544   1
   1  -9   2 143.833 5.34933  -2
  -1   9   2 143.833 5.34933   1
   0   9   2 19.3729 2.01795   1
  -1  -9   1 188.713 7.83734  -2
   1   9   2 188.713 7.83734   1
   2   9   2 10.4869 2.26390   1
   3   9   0 97.2651 5.64634  -2
   3   9   2 97.2651 5.64634   1
   4   9   2 145.996 6.32542   1
   5   9   1 17.7644 4.16462  -2
   5   9   2 17.7644 4.16462   1
   3 -10   3 80.4731 7.90811  -2
  -3  10   2 80.4731 7.90811   1
   2 -10   2 41.0426 6.34911  -2
  -2  10   2 41.0426 6.34911   1
   1 -10   2 109.452 7.55895  -2
  -1  10   2 109.452 7.55895   1
   0 -10   1 63.9992 6.13409  -2
   0  10   2 63.9992 6.13409   1
  -1 -10   1 97.2691 6.37907  -2
   1  10   2 97.2691 6.37907   1
   2  10   0 16.3736 4.77176  -2
   2  10   2 16.3736 4.77176   1
   3  10   0 43.1430 5.28489  -2
   3  10   2 43.1430 5.28489   1
   4  10   1 13.7190 4.73827  -2
   4  10   2 13.7190 4.73827   1
   2 -11   2 120.573 8.27930  -2
  -2  11   2 120.573 8.27930   1
   1 -11   2 41.9106 6.88758  -2
  -1  11   2 41.9106 6.88758   1
   0 -11   1 62.3425 6.40869  -2
   0  11   2 62.3425 6.40869   1
  -1 -11   1 106.993 7.39129  -2
   1  11   2 106.993 7.39129   1
   2  11   0 111.535 7.07118  -2
   2  11   2 111.535 7.07118   1
   3  11   0 265.320 10.6155  -2
   3  11   2 265.320 10.6155   1
   4  11   1 1.68754 4.49311  -2
   4  11   2 1.68754 4.49311   1
   1 -12   2 57.0033 7.82386  -2
  -1  12   2 57.0033 7.82386   1
   0 -12   1 12.2776 5.47439  -2
   0  12   2 12.2776 5.47439   1
   1  12   2 8.23312 3.01563   1
   2  12   0 2.91616 4.79690  -2
   2  12   2 2.91616 4.79690   1
   3  12   2 22.4603 3.74772   1
   1  13   2 11.9856 3.88264   1
   2  13   0 76.9842 6.10380  -2
   2  13   2 76.9842 6.10380   1
   3  13   2 13.3934 3.58715   1
  -5 -13   3 48.2869 5.78881   1
   4  13   6 6.69670 4.69840  -2
  -4 -13   3 6.69670 4.69840   1
   3  13   5 31.2908 7.24580  -2
  -3 -13   3 31.2908 7.24580   1
   2  13   5 105.518 7.12085  -2
  -2 -13   3 105.518 7.12085   1
   7  12   7 51.0388 7.99942  -2
  -7 -12   3 51.0388 7.99942   1
   6  12   7 4.84661 5.15739  -2
  -6 -12   3 4.84661 5.15739   1
   5  12   6 23.1386 6.73407  -2
  -5 -12   3 23.1386 6.73407   1
   4  12   6 106.687 7.15485  -2
  -4 -12   3 106.687 7.15485   1
   3  12   5 51.3014 6.75755  -2
  -3 -12   3 51.3014 6.75755   1
   2  12   5 -1.9806 3.93407  -2
  -2 -12   3 -1.9806 3.93407   1
   1  12   4 14.5380 6.25111  -2
  -1 -12   3 14.5380 6.25111   1
   0  12   4 67.7449 5.96356  -2
   0 -12   3 67.7449 5.96356   1
   8  11   8 28.3184 6.86384  -2
  -8 -11   3 28.3184 6.86384   1
   7  11   7 89.0531 7.77225  -2
  -7 -11   3 89.0531 7.77225   1
   6  11   7 38.4427 6.42727  -2
  -6 -11   3 38.4427 6.42727   1
   5  11   6 12.2127 5.86127  -2
  -5 -11   3 12.2127 5.86127   1
   4  11   6 7.63899 4.88921  -2
  -4 -11   3 7.63899 4.88921   1
   3  11   5 55.6359 6.01143  -2
  -3 -11   3 55.6359 6.01143   1
   2  11   5 37.2917 5.31569  -2
  -2 -11   3 37.2917 5.31569   1
   1  11   4 16.7218 5.72973  -2
  -1 -11   3 16.7218 5.72973   1
   0  11   4 30.4371 5.20483  -2
   0 -11   3 30.4371 5.20483   1
  -1  11   3 0.84422 5.64512  -2
   1 -11   3 0.84422 5.64512   1
  -2  11   3 54.4201 5.99647  -2
   2 -11   3 54.4201 5.99647   1
   9  10   8 11.6512 6.78943  -2
  -9 -10   3 11.6512 6.78943   1
   8  10   8 19.0786 6.88418  -2
  -8 -10   3 19.0786 6.88418   1
   7  10   7 26.9430 6.44882  -2
  -7 -10   3 26.9430 6.44882   1
   6  10   7 75.2748 6.60629  -2
  -6 -10   3 75.2748 6.60629   1
   5  10   6 52.8363 5.90157  -2
  -5 -10   3 52.8363 5.90157   1
   4  10   6 121.061 7.34380  -2
  -4 -10   3 121.061 7.34380   1
   3  10   5 22.7516 4.58255  -2
  -3 -10   3 22.7516 4.58255   1
   2  10   5 43.8945 5.34952  -2
  -2 -10   3 43.8945 5.34952   1
   1  10   4 163.889 7.60092  -2
  -1 -10   3 163.889 7.60092   1
   0  10   4 37.7395 5.31452  -2
   0 -10   3 37.7395 5.31452   1
  -1  10   3 129.469 7.49071  -2
   1 -10   3 129.469 7.49071   1
  -2  10   3 103.031 7.05020  -2
   2 -10   3 103.031 7.05020   1
  -3  10   2 78.6487 7.08180  -2
   3 -10   3 78.6487 7.08180   1
   9   9   8 3.60198 5.14539  -2
  -9  -9   3 3.60198 5.14539   1
   8   9   8 52.6361 6.99093  -2
  -8  -9   3 52.6361 6.99093   1
   7   9   7 33.2717 5.28436  -2
  -7  -9   3 33.2717 5.28436   1
   6   9   7 71.4276 6.54227  -2
  -6  -9   3 71.4276 6.54227   1
   5   9   6 78.9285 5.72420  -2
  -5  -9   3 78.9285 5.72420   1
   4   9   6 231.875 9.33601  -2
  -4  -9   3 231.875 9.33601   1
   3   9   5 14.1247 4.09835  -2
  -3  -9   3 14.1247 4.09835   1
   2   9   5 18.6225 4.52232  -2
  -2  -9   3 18.6225 4.52232   1
   1   9   4 118.664 5.96370  -2
  -1  -9   3 118.664 5.96370   1
   0   9   4 37.7638 5.09724  -2
   0  -9   3 37.7638 5.09724   1
  -1   9   3 107.713 6.23810  -2
   1  -9   3 107.713 6.23810   1
  -2   9   3 24.5742 5.04212  -2
   2  -9   3 24.5742 5.04212   1
  -3   9   2 20.4828 4.06498  -2
   3  -9   3 20.4828 4.06498   1
  -4   9   2 13.1344 5.65138  -2
   4  -9   3 13.1344 5.65138   1
 -10  -8   3 29.4579 3.71143   1
   9   8   8 38.2200 5.49175  -2
  -9  -8   3 38.2200 5.49175   1
  -8  -8   3 4.51387 1.62141   1
   7   8   7 115.726 6.67890  -2
  -7  -8   3 115.726 6.67890   1
  -6  -8   3 67.7655 4.97139   1
   5   8   6 109.936 5.90981  -2
  -5  -8   3 109.936 5.90981   1
  -4  -8   3 26.0727 3.26431   1
   3   8   5 21.4775 3.52141  -2
  -3  -8   3 21.4775 3.52141   1
  -2  -8   3 9.25630 1.98952   1
   1   8   4 39.6794 3.76559  -2
  -1  -8   3 39.6794 3.76559   1
   0  -8   3 121.047 5.33746   1
  -1   8   3 388.134 11.6235  -2
   1  -8   3 388.134 11.6235   1
  -2   8   3 132.243 6.98305  -2
   2  -8   3 132.243 6.98305   1
  -3   8   2 21.1157 3.66324  -2
   3  -8   3 21.1157 3.66324   1
  -4   8   2 -2.7211 5.28765  -2
   4  -8   3 -2.7211 5.28765   1
  -5   8   1 41.1495 4.80145  -2
   5  -8   3 41.1495 4.80145   1
 -10  -7   3 0.14894 2.30188   1
   9   7   8 8.99405 2.54314  -2
  -9  -7   3 8.99405 2.54314   1
  -8  -7   3 1.86277 1.46388   1
   7   7   7 175.896 4.79941  -2
  -7  -7   3 175.896 4.79941   1
  -6  -7   3 224.930 5.28160   1
   5   7   6 180.157 4.35929  -2
  -5  -7   3 180.157 4.35929   1
  -4  -7   3 29.7239 3.08228   1
   3   7   5 42.9373 3.27420  -2
  -3  -7   3 42.9373 3.27420   1
  -2  -7   3 -1.7782 1.26437   1
   1   7   4 133.688 3.22010  -2
  -1  -7   3 133.688 3.22010   1
   0  -7   3 17.9380 1.04905   1
  -1   7   3 61.9208 2.21323  -2
   1  -7   3 61.9208 2.21323   1
   2  -7   3 0.14940 0.88662   1
  -3   7   2 34.5097 1.99069  -2
   3  -7   3 34.5097 1.99069   1
   4  -7   3 -0.0533 2.38229   1
  -5   7   1 143.113 6.89988  -2
   5  -7   3 143.113 6.89988   1
   6  -7   3 -1.8099 2.67846   1
 -10  -6   3 0.71859 2.36220   1
   9   6   8 20.9705 2.81554  -2
  -9  -6   3 20.9705 2.81554   1
  -8  -6   3 47.8116 3.00589   1
   7   6   7 56.3457 2.96178  -2
  -7  -6   3 56.3457 2.96178   1
  -6  -6   3 0.68642 1.13155   1
   5   6   6 225.364 4.98724  -2
  -5  -6   3 225.364 4.98724   1
  -4  -6   3 28.3134 1.74259   1
   3   6   5 400.958 6.85677  -2
  -3  -6   3 400.958 6.85677   1
  -2  -6   3 167.024 2.23235   1
   1   6   4 202.936 2.90553  -2
  -1  -6   3 202.936 2.90553   1
   0  -6   3 121.822 2.16858   1
  -1   6   3 103.718 2.09856  -2
   1  -6   3 103.718 2.09856   1
   2  -6   3 169.191 2.81969   1
  -3   6   2 118.614 3.13836  -2
   3  -6   3 118.614 3.13836   1
   4  -6   3 12.3458 1.35117   1
  -5   6   1 129.153 6.42090  -2
   5  -6   3 129.153 6.42090   1
   6  -6   3 -1.8854 2.44375   1
  10   5   8 95.7441 6.91554  -2
 -10  -5   3 95.7441 6.91554   1
   9   5   8 54.4057 3.72018  -2
  -9  -5   3 54.4057 3.72018   1
   8   5   7 53.2690 5.86137  -2
  -8  -5   3 53.2690 5.86137   1
   7   5   7 274.156 6.25341  -2
  -7  -5   3 274.156 6.25341   1
   6   5   6 143.832 5.76887  -2
  -6  -5   3 143.832 5.76887   1
   5   5   6 9.73085 1.87378  -2
  -5  -5   3 9.73085 1.87378   1
  -4  -5   3 -0.1008 0.78034   1
   3   5   5 359.537 4.77694  -2
  -3  -5   3 359.537 4.77694   1
   2   5   4 478.690 16.6991  -2
  -2  -5   3 478.690 16.6991   1
   1   5   4 1378.01 12.5586  -2
  -1  -5   3 1378.01 12.5586   1
   0  -5   3 3.15238 0.53302   1
  -1   5   3 42.2680 1.34316  -2
   1  -5   3 42.2680 1.34316   1
  -2   5   2 84.2636 2.82140  -2
   2  -5   3 84.2636 2.82140   1
  -3   5   2 0.53989 1.11516  -2
   3  -5   3 0.53989 1.11516   1
  -4   5   1 439.350 12.8218  -2
   4  -5   3 439.350 12.8218   1
  -5   5   1 90.4026 2.99930  -2
   5  -5   3 90.4026 2.99930   1
  -6   5   0 2.83615 4.86652  -2
   6  -5   3 2.83615 4.86652   1
  -7   5   0 51.3280 4.86985  -2
   7  -5   3 51.3280 4.86985   1
   8  -5   1 25.4550 6.13679  -2
   8  -5   3 25.4550 6.13679   1
  10   4   8 11.7596 5.21872  -2
 -10  -4   3 11.7596 5.21872   1
   9   4   8 57.4515 3.95611  -2
  -9  -4   3 57.4515 3.95611   1
   8   4   7 2.56915 2.96489  -2
  -8  -4   3 2.56915 2.96489   1
   7   4   7 4.28748 2.53725  -2
  -7  -4   3 4.28748 2.53725   1
   6   4   6 251.022 5.71190  -2
  -6  -4   3 251.022 5.71190   1
   5   4   6 48.5252 2.51521  -2
  -5  -4   3 48.5252 2.51521   1
   4   4   5 317.614 7.79270  -2
  -4  -4   3 317.614 7.79270   1
   3   4   5 68.2547 1.96702  -2
  -3  -4   3 68.2547 1.96702   1
   2   4   4 275.231 6.30948  -2
  -2  -4   3 275.231 6.30948   1
   1   4   4 90.2984 2.02362  -2
  -1  -4   3 90.2984 2.02362   1
   0   4   3 417.130 14.1731  -2
   0  -4   3 417.130 14.1731   1
  -1   4   3 177.398 3.81606  -2
   1  -4   3 177.398 3.81606   1
  -2   4   2 443.957 8.20296  -2
   2  -4   3 443.957 8.20296   1
  -3   4   2 17.1573 1.53961  -2
   3  -4   3 17.1573 1.53961   1
  -4   4   1 312.653 5.57650  -2
   4  -4   3 312.653 5.57650   1
  -5   4   1 72.7222 2.23733  -2
   5  -4   3 72.7222 2.23733   1
  -6   4   0 10.0321 4.11257  -2
   6  -4   3 10.0321 4.11257   1
  -7   4   0 68.9054 5.49351  -2
   7  -4   3 68.9054 5.49351   1
   8  -4   1 3.30756 5.04472  -2
   8  -4   3 3.30756 5.04472   1
  10   3   8 52.5469 5.61280  -2
 -10  -3   3 52.5469 5.61280   1
   9   3   8 52.9328 5.47325  -2
  -9  -3   3 52.9328 5.47325   1
   8   3   7 104.106 4.40041  -2
  -8  -3   3 104.106 4.40041   1
   7   3   7 413.485 8.42361  -2
  -7  -3   3 413.485 8.42361   1
   6   3   6 80.6350 3.31342  -2
  -6  -3   3 80.6350 3.31342   1
   5   3   6 97.0418 3.23210  -2
  -5  -3   3 97.0418 3.23210   1
   4   3   5 959.727 13.4619  -2
  -4  -3   3 959.727 13.4619   1
   3   3   5 711.051 12.4242  -2
  -3  -3   3 711.051 12.4242   1
   2   3   4 1552.91 24.1350  -2
  -2  -3   3 1552.91 24.1350   1
   1   3   4 599.813 11.4918  -2
  -1  -3   3 599.813 11.4918   1
   0   3   3 146.879 3.65318  -2
   0  -3   3 146.879 3.65318   1
  -1   3   3 17.6867 1.53949  -2
   1  -3   3 17.6867 1.53949   1
  -2   3   2 268.179 4.61843  -2
   2  -3   3 268.179 4.61843   1
  -3   3   2 1.98148 1.70453  -2
   3  -3   3 1.98148 1.70453   1
  -4   3   1 56.7458 1.79832  -2
   4  -3   3 56.7458 1.79832   1
  -5   3   1 44.0713 3.35737  -2
   5  -3   3 44.0713 3.35737   1
  -6   3   0 43.2208 1.75637  -2
   6  -3   3 43.2208 1.75637   1
  -7   3   0 51.3521 2.47103  -2
   7  -3   3 51.3521 2.47103   1
   8  -3   1 8.74987 4.52800  -2
   8  -3   3 8.74987 4.52800   1
   9  -3   1 4.38075 5.29088  -2
   9  -3   3 4.38075 5.29088   1
  10   2   8 37.8261 5.26683  -2
 -10  -2   3 37.8261 5.26683   1
   9   2   8 21.0738 3.87234  -2
  -9  -2   3 21.0738 3.87234   1
   8   2   7 9.72247 2.12899  -2
  -8  -2   3 9.72247 2.12899   1
  -7  -2   3 76.0335 4.17880   1
   6   2   6 140.387 3.32227  -2
  -6  -2   3 140.387 3.32227   1
   5   2   6 23.9773 2.12364  -2
  -5  -2   3 23.9773 2.12364   1
   4   2   5 74.1313 1.86832  -2
  -4  -2   3 74.1313 1.86832   1
   3   2   5 95.5130 4.31891  -2
  -3  -2   3 95.5130 4.31891   1
   2   2   4 95.8661 1.96407  -2
  -2  -2   3 95.8661 1.96407   1
   1   2   4 199.806 7.35358  -2
  -1  -2   3 199.806 7.35358   1
   0   2   3 25.6177 1.31097  -2
   0  -2   3 25.6177 1.31097   1
  -1   2   3 1156.57 21.0154  -2
   1  -2   3 1156.57 21.0154   1
  -2   2   2 221.665 2.24658  -2
   2  -2   3 221.665 2.24658   1
  -3   2   2 35.4120 2.57832  -2
   3  -2   3 35.4120 2.57832   1
  -4   2   1 8.46792 0.81935  -2
   4  -2   3 8.46792 0.81935   1
  -5   2   1 141.812 8.24931  -2
   5  -2   3 141.812 8.24931   1
  -6   2   0 539.609 6.94418  -2
   6  -2   3 539.609 6.94418   1
   7  -2   3 27.3642 1.26225   1
   8  -2   1 73.4438 3.61586  -2
   8  -2   3 73.4438 3.61586   1
   9  -2   1 30.2576 5.94336  -2
   9  -2   3 30.2576 5.94336   1
  10   1   8 80.2791 6.45512  -2
 -10  -1   3 80.2791 6.45512   1
   9   1   8 58.8801 7.36633  -2
  -9  -1   3 58.8801 7.36633   1
   8   1   7 40.3472 2.53896  -2
  -8  -1   3 40.3472 2.53896   1
   7   1   7 353.882 11.9860  -2
  -7  -1   3 353.882 11.9860   1
   6   1   6 422.565 6.73188  -2
  -6  -1   3 422.565 6.73188   1
  -5  -1   3 13.8239 1.14042   1
   4   1   5 169.920 3.16460  -2
  -4  -1   3 169.920 3.16460   1
   3   1   5 201.067 9.31516  -2
  -3  -1   3 201.067 9.31516   1
   2   1   4 3052.91 36.2798  -2
  -2  -1   3 3052.91 36.2798   1
   1   1   4 1195.49 35.6516  -2
  -1  -1   3 1195.49 35.6516   1
   0   1   3 98.7324 1.33361  -2
   0  -1   3 98.7324 1.33361   1
   1  -1   3 23.2160 1.89330   1
  -2   1   2 133.997 1.49744  -2
   2  -1   3 133.997 1.49744   1
   3  -1   3 73.3255 0.84620   1
  -4   1   1 151.077 1.58406  -2
   4  -1   3 151.077 1.58406   1
   5  -1   3 4.22717 0.41197   1
  -6   1   0 72.8540 1.42618  -2
   6  -1   3 72.8540 1.42618   1
   7  -1   3 2.71321 0.70871   1
   8  -1   1 25.5253 2.50331  -2
   8  -1   3 25.5253 2.50331   1
   9  -1   3 64.2419 3.31301   1
  10  -1   2 34.2162 3.11571  -2
  10  -1   3 34.2162 3.11571   1
  -9   0   3 15.2552 2.32204   1
   8   0   7 72.0457 3.50614  -2
  -8   0   3 72.0457 3.50614   1
  -7   0   3 0.19462 1.06537   1
   6   0   6 139.747 3.27679  -2
  -6   0   3 139.747 3.27679   1
  -5   0   3 72.8088 2.17230   1
   4   0   5 130.263 2.66500  -2
  -4   0   3 130.263 2.66500   1
  -3   0   3 179.254 3.18823   1
   2   0   4 11.5753 0.75729  -2
  -2   0   3 11.5753 0.75729   1
  -1   0   3 51.2353 0.96410   1
   0   0   3 586.293 9.21675  -2
   0   0   3 586.293 9.21675   1
   1   0   3 8.20704 1.16212   1
  -2   0   2 625.684 9.48383  -2
   2   0   3 625.684 9.48383   1
   3   0   3 13.7521 0.37408   1
  -4   0   1 644.723 5.12418  -2
   4   0   3 644.723 5.12418   1
   5   0   3 407.776 3.51264   1
   6   0   0 145.858 1.72137  -2
   6   0   3 145.858 1.72137   1
   7   0   3 66.8283 1.45471   1
   8   0   1 30.5204 1.39004  -2
   8   0   3 30.5204 1.39004   1
   9   0   3 159.917 4.73885   1
  10   0   2 22.1184 2.28756  -2
  10   0   3 22.1184 2.28756   1
  -9   1   3 12.3759 2.19500   1
   8  -1   7 149.289 4.90394  -2
  -8   1   3 149.289 4.90394   1
  -7   1   3 33.0925 2.06039   1
   6  -1   6 49.2562 2.29020  -2
  -6   1   3 49.2562 2.29020   1
  -5   1   3 114.226 3.28993   1
   4  -1   5 186.384 3.50942  -2
  -4   1   3 186.384 3.50942   1
  -3   1   3 1603.77 17.4113   1
   2  -1   4 90.0887 1.41344  -2
  -2   1   3 90.0887 1.41344   1
  -1   1   3 84.9153 1.32294   1
   0  -1   3 92.9574 1.54791  -2
   0   1   3 92.9574 1.54791   1
   1   1   3 188.246 4.17078   1
   2   1   3 258.556 3.60468   1
   3   1   3 21.3421 0.45660   1
  -4  -1   1 414.634 4.16864  -2
   4   1   3 414.634 4.16864   1
   5   1   0 87.1252 6.96566  -2
   5   1   3 87.1252 6.96566   1
   6   1   0 176.154 2.04168  -2
   6   1   3 176.154 2.04168   1
   7   1   3 1.52658 0.53393   1
   8   1   1 39.8611 1.45552  -2
   8   1   3 39.8611 1.45552   1
   9   1   3 4.12400 1.52406   1
  10   1   2 7.86436 2.28442  -2
  10   1   3 7.86436 2.28442   1
   9  -2   7 82.3999 5.30900  -2
  -9   2   3 82.3999 5.30900   1
   8  -2   7 2.72537 2.87430  -2
  -8   2   3 2.72537 2.87430   1
   7  -2   6 45.3717 6.04743  -2
  -7   2   3 45.3717 6.04743   1
   6  -2   6 44.3039 2.56216  -2
  -6   2   3 44.3039 2.56216   1
  -5   2   3 13.0735 1.27465   1
   4  -2   5 209.048 3.93207  -2
  -4   2   3 209.048 3.93207   1
  -3   2   3 5.04655 0.76141   1
   2  -2   4 53.5118 1.87793  -2
  -2   2   3 53.5118 1.87793   1
  -1   2   3 352.598 5.12844   1
   0  -2   3 31.3117 1.64572  -2
   0   2   3 31.3117 1.64572   1
   1   2   3 897.957 10.3156   1
  -2  -2   2 484.033 5.76444  -2
   2   2   3 484.033 5.76444   1
  -3  -2   1 125.297 5.80419  -2
   3   2   3 125.297 5.80419   1
  -4  -2   1 9.33748 0.99397  -2
   4   2   3 9.33748 0.99397   1
   5   2   3 111.497 1.61783   1
   6   2   0 363.946 3.73116  -2
   6   2   3 363.946 3.73116   1
   7   2   3 101.000 1.90406   1
   8   2   1 112.616 3.76626  -2
   8   2   3 112.616 3.76626   1
   9   2   3 28.3925 2.27559   1
  10   2   2 8.01393 4.59618  -2
  10   2   3 8.01393 4.59618   1
  11   2   3 7.78291 5.86583  -2
  11   2   3 7.78291 5.86583   1
   8  -3   7 12.8288 3.54507  -2
  -8   3   3 12.8288 3.54507   1
   7  -3   6 82.8183 4.35458  -2
  -7   3   3 82.8183 4.35458   1
   6  -3   6 118.911 3.75086  -2
  -6   3   3 118.911 3.75086   1
   5  -3   5 187.832 4.17403  -2
  -5   3   3 187.832 4.17403   1
   4  -3   5 354.750 5.90197  -2
  -4   3   3 354.750 5.90197   1
   3  -3   4 192.670 3.78933  -2
  -3   3   3 192.670 3.78933   1
   2  -3   4 186.050 2.99636  -2
  -2   3   3 186.050 2.99636   1
   1  -3   3 21.7848 2.95475  -2
  -1   3   3 21.7848 2.95475   1
   0  -3   3 161.008 7.02130  -2
   0   3   3 161.008 7.02130   1
  -1  -3   2 17.0481 3.22053  -2
   1   3   3 17.0481 3.22053   1
  -2  -3   2 1532.92 19.0801  -2
   2   3   3 1532.92 19.0801   1
  -3  -3   1 922.756 12.9520  -2
   3   3   3 922.756 12.9520   1
  -4  -3   1 148.395 2.56053  -2
   4   3   3 148.395 2.56053   1
   5   3   0 67.4154 2.00487  -2
   5   3   3 67.4154 2.00487   1
   6   3   0 20.3492 2.06745  -2
   6   3   3 20.3492 2.06745   1
   7   3   3 218.797 3.06970   1
   8   3   1 121.312 3.99761  -2
   8   3   3 121.312 3.99761   1
   9   3   2 5.31015 2.95785  -2
   9   3   3 5.31015 2.95785   1
  10   3   2 43.5952 3.66877  -2
  10   3   3 43.5952 3.66877   1
  11   3   3 -1.7059 5.26527  -2
  11   3   3 -1.7059 5.26527   1
   8  -4   7 28.5577 4.31569  -2
  -8   4   3 28.5577 4.31569   1
   7  -4   6 47.9548 3.84030  -2
  -7   4   3 47.9548 3.84030   1
   6  -4   6 163.239 5.25905  -2
  -6   4   3 163.239 5.25905   1
   5  -4   5 257.910 5.24833  -2
  -5   4   3 257.910 5.24833   1
   4  -4   5 131.648 3.43812  -2
  -4   4   3 131.648 3.43812   1
   3  -4   4 56.5517 2.33169  -2
  -3   4   3 56.5517 2.33169   1
   2  -4   4 309.585 6.74980  -2
  -2   4   3 309.585 6.74980   1
   1  -4   3 137.113 3.22826  -2
  -1   4   3 137.113 3.22826   1
   0  -4   3 478.216 16.3513  -2
   0   4   3 478.216 16.3513   1
  -1  -4   2 113.379 4.31067  -2
   1   4   3 113.379 4.31067   1
   2   4   3 211.840 3.24981   1
  -3  -4   1 64.6057 1.61244  -2
   3   4   3 64.6057 1.61244   1
  -4  -4   1 242.329 3.86914  -2
   4   4   3 242.329 3.86914   1
   5   4   0 416.636 6.04660  -2
   5   4   3 416.636 6.04660   1
   6   4   0 137.316 3.22928  -2
   6   4   3 137.316 3.22928   1
   8   4   3 44.2430 2.44989   1
   9   4   2 1.99344 4.28254  -2
   9   4   3 1.99344 4.28254   1
  10   4   2 170.220 8.07385  -2
  10   4   3 170.220 8.07385   1
  11   4   3 68.1460 6.42346  -2
  11   4   3 68.1460 6.42346   1
   7  -5   6 32.8146 3.64305  -2
  -7   5   3 32.8146 3.64305   1
   6  -5   6 12.4820 5.89392  -2
  -6   5   3 12.4820 5.89392   1
   5  -5   5 68.1385 2.90507  -2
  -5   5   3 68.1385 2.90507   1
   4  -5   5 74.3207 5.93047  -2
  -4   5   3 74.3207 5.93047   1
   3  -5   4 13.1358 1.80452  -2
  -3   5   3 13.1358 1.80452   1
  -2   5   3 116.349 3.67691   1
   1  -5   3 54.4917 2.69949  -2
  -1   5   3 54.4917 2.69949   1
   0  -5   3 33.3630 4.87269  -2
   0   5   3 33.3630 4.87269   1
  -1  -5   2 858.187 11.0126  -2
   1   5   3 858.187 11.0126   1
  -2  -5   2 475.660 16.4704  -2
   2   5   3 475.660 16.4704   1
  -3  -5   1 195.369 2.73849  -2
   3   5   3 195.369 2.73849   1
  -4  -5   1 361.669 7.03121  -2
   4   5   3 361.669 7.03121   1
   5   5   0 191.679 3.07242  -2
   5   5   3 191.679 3.07242   1
   6   5   0 305.397 7.83879  -2
   6   5   3 305.397 7.83879   1
   9   5   2 77.5299 5.32743  -2
   9   5   3 77.5299 5.32743   1
  10   5   3 43.8710 3.08488   1
  11   5   3 27.7662 5.16178  -2
  11   5   3 27.7662 5.16178   1
   6  -6   6 79.1198 7.75418  -2
  -6   6   3 79.1198 7.75418   1
   5  -6   5 2.21077 2.43423  -2
  -5   6   3 2.21077 2.43423   1
  -4   6   3 3.55052 1.23356   1
   3  -6   4 27.3143 2.80176  -2
  -3   6   3 27.3143 2.80176   1
  -2   6   3 67.5947 3.09495   1
   1  -6   3 113.104 3.75599  -2
  -1   6   3 113.104 3.75599   1
   0   6   3 1.16514 0.95043   1
  -1  -6   2 20.8932 2.67888  -2
   1   6   3 20.8932 2.67888   1
   2   6   3 0.44191 0.63010   1
  -3  -6   1 0.80225 0.96569  -2
   3   6   3 0.80225 0.96569   1
  -4  -6   1 217.814 5.79767  -2
   4   6   3 217.814 5.79767   1
   5   6   0 296.418 7.36883  -2
   5   6   3 296.418 7.36883   1
   9   6   2 172.554 6.91289  -2
   9   6   3 172.554 6.91289   1
  10   6   3 95.1527 5.37407   1
  11   6   3 25.7663 4.74030  -2
  11   6   3 25.7663 4.74030   1
  -6   7   3 0.43985 3.18649   1
   5  -7   5 29.5271 2.76373  -2
  -5   7   3 29.5271 2.76373   1
  -4   7   3 0.79462 1.50594   1
   3  -7   4 117.462 4.53944  -2
  -3   7   3 117.462 4.53944   1
  -2   7   3 86.4597 3.71335   1
   1  -7   3 69.8025 3.09302  -2
  -1   7   3 69.8025 3.09302   1
   0   7   3 31.3206 2.18283   1
  -1  -7   2 291.371 6.40607  -2
   1   7   3 291.371 6.40607   1
   2   7   3 547.406 14.6589   1
  -3  -7   1 669.070 17.2632  -2
   3   7   3 669.070 17.2632   1
   4   7   3 41.6844 3.07012   1
   9   7   2 78.5600 4.80353  -2
   9   7   3 78.5600 4.80353   1
  10   7   3 13.3366 2.84343   1
  11   7   3 6.27470 3.89766  -2
  11   7   3 6.27470 3.89766   1
   5  -8   5 62.0930 7.06395  -2
  -5   8   3 62.0930 7.06395   1
   4  -8   4 48.1198 7.19604  -2
  -4   8   3 48.1198 7.19604   1
   3  -8   4 103.116 4.10358  -2
  -3   8   3 103.116 4.10358   1
  -2   8   3 56.4063 3.42807   1
   1  -8   3 403.521 8.94863  -2
  -1   8   3 403.521 8.94863   1
   0   8   3 155.040 4.70856   1
  -1  -8   2 155.137 6.56638  -2
   1   8   3 155.137 6.56638   1
   2   8   3 19.3409 2.56323   1
  -3  -8   1 60.5198 4.27114  -2
   3   8   3 60.5198 4.27114   1
   4   8   3 26.3566 2.95426   1
   9   8   2 63.9994 4.93717  -2
   9   8   3 63.9994 4.93717   1
  10   8   3 25.0140 3.35947   1
  11   8   3 100.787 6.44687  -2
  11   8   3 100.787 6.44687   1
   4  -9   4 5.37966 6.75632  -2
  -4   9   3 5.37966 6.75632   1
   3  -9   4 22.6406 5.97088  -2
  -3   9   3 22.6406 5.97088   1
   2  -9   3 40.2767 6.26134  -2
  -2   9   3 40.2767 6.26134   1
   1  -9   3 124.210 5.08439  -2
  -1   9   3 124.210 5.08439   1
   0  -9   2 121.479 7.15857  -2
   0   9   3 121.479 7.15857   1
  -1  -9   2 121.250 6.38529  -2
   1   9   3 121.250 6.38529   1
   2   9   3 75.4188 4.73983   1
  -3  -9   1 50.1832 4.71961  -2
   3   9   3 50.1832 4.71961   1
  10   9   3 33.0375 3.61197   1
  11   9   3 175.559 8.10978  -2
  11   9   3 175.559 8.10978   1
   3 -10   4 8.01064 6.53622  -2
  -3  10   3 8.01064 6.53622   1
   2 -10   3 95.6931 7.78630  -2
  -2  10   3 95.6931 7.78630   1
   1 -10   3 159.893 6.11237  -2
  -1  10   3 159.893 6.11237   1
   0 -10   2 5.59288 3.58112  -2
   0  10   3 5.59288 3.58112   1
  -1 -10   2 38.9167 3.78384  -2
   1  10   3 38.9167 3.78384   1
  -2 -10   1 20.0826 4.92183  -2
   2  10   3 20.0826 4.92183   1
   2 -11   3 61.9777 7.25249  -2
  -2  11   3 61.9777 7.25249   1
   1 -11   3 1.84107 6.52599  -2
  -1  11   3 1.84107 6.52599   1
   0 -11   2 -4.6902 4.94298  -2
   0  11   3 -4.6902 4.94298   1
  -1 -11   2 16.7779 5.98527  -2
   1  11   3 16.7779 5.98527   1
  -2 -11   1 133.136 7.48274  -2
   2  11   3 133.136 7.48274   1
   0 -12   2 12.9084 5.44523  -2
   0  12   3 12.9084 5.44523   1
   3  13   3 6.45669 3.21985   1
   7  12   8 84.4559 8.17030  -2
  -7 -12   4 84.4559 8.17030   1
   6  12   8 21.9240 5.82632  -2
  -6 -12   4 21.9240 5.82632   1
   5  12   7 51.9557 7.37785  -2
  -5 -12   4 51.9557 7.37785   1
   4  12   7 75.1197 6.49433  -2
  -4 -12   4 75.1197 6.49433   1
   3  12   6 92.5587 7.58678  -2
  -3 -12   4 92.5587 7.58678   1
   2  12   6 92.5579 6.28951  -2
  -2 -12   4 92.5579 6.28951   1
   1  12   5 22.2767 6.40415  -2
  -1 -12   4 22.2767 6.40415   1
   0  12   5 164.886 8.14991  -2
   0 -12   4 164.886 8.14991   1
   8  11   9 33.8287 6.57529  -2
  -8 -11   4 33.8287 6.57529   1
   7  11   8 44.8063 6.87459  -2
  -7 -11   4 44.8063 6.87459   1
   6  11   8 67.7980 7.06452  -2
  -6 -11   4 67.7980 7.06452   1
   5  11   7 8.77444 5.75590  -2
  -5 -11   4 8.77444 5.75590   1
   4  11   7 52.9202 5.68964  -2
  -4 -11   4 52.9202 5.68964   1
   3  11   6 73.3093 6.74918  -2
  -3 -11   4 73.3093 6.74918   1
   2  11   6 152.372 7.60848  -2
  -2 -11   4 152.372 7.60848   1
   1  11   5 19.2799 5.65555  -2
  -1 -11   4 19.2799 5.65555   1
   0  11   5 8.37346 4.51769  -2
   0 -11   4 8.37346 4.51769   1
  -1  11   4 14.4240 5.54640  -2
   1 -11   4 14.4240 5.54640   1
  -2  11   4 38.9191 5.64678  -2
   2 -11   4 38.9191 5.64678   1
   8  10   9 103.058 8.30767  -2
  -8 -10   4 103.058 8.30767   1
   7  10   8 55.3064 6.61279  -2
  -7 -10   4 55.3064 6.61279   1
   6  10   8 161.792 8.88109  -2
  -6 -10   4 161.792 8.88109   1
   5  10   7 5.55323 4.88140  -2
  -5 -10   4 5.55323 4.88140   1
   4  10   7 95.8161 6.78560  -2
  -4 -10   4 95.8161 6.78560   1
   3  10   6 300.679 10.8505  -2
  -3 -10   4 300.679 10.8505   1
   2  10   6 19.4303 5.16100  -2
  -2 -10   4 19.4303 5.16100   1
   1  10   5 341.345 11.4820  -2
  -1 -10   4 341.345 11.4820   1
   0  10   5 85.5546 6.28168  -2
   0 -10   4 85.5546 6.28168   1
  -1  10   4 24.9962 4.90826  -2
   1 -10   4 24.9962 4.90826   1
  -2  10   4 27.8718 5.17566  -2
   2 -10   4 27.8718 5.17566   1
  -3  10   3 13.4643 5.91710  -2
   3 -10   4 13.4643 5.91710   1
   9   9   9 12.6492 5.99420  -2
  -9  -9   4 12.6492 5.99420   1
   8   9   9 87.7439 7.57380  -2
  -8  -9   4 87.7439 7.57380   1
   7   9   8 105.254 7.05975  -2
  -7  -9   4 105.254 7.05975   1
   6   9   8 31.5048 5.95467  -2
  -6  -9   4 31.5048 5.95467   1
   5   9   7 13.8291 4.77236  -2
  -5  -9   4 13.8291 4.77236   1
   4   9   7 20.2037 5.17135  -2
  -4  -9   4 20.2037 5.17135   1
   3   9   6 108.462 6.15189  -2
  -3  -9   4 108.462 6.15189   1
   2   9   6 41.8392 5.17821  -2
  -2  -9   4 41.8392 5.17821   1
   1   9   5 41.6463 4.36675  -2
  -1  -9   4 41.6463 4.36675   1
   0   9   5 12.8455 4.48871  -2
   0  -9   4 12.8455 4.48871   1
  -1   9   4 -1.9026 3.66538  -2
   1  -9   4 -1.9026 3.66538   1
  -2   9   4 34.2659 5.07549  -2
   2  -9   4 34.2659 5.07549   1
  -3   9   3 33.2077 4.30759  -2
   3  -9   4 33.2077 4.30759   1
  -4   9   3 -1.6617 5.18078  -2
   4  -9   4 -1.6617 5.18078   1
   9   8   9 166.693 8.77129  -2
  -9  -8   4 166.693 8.77129   1
  -8  -8   4 0.95401 1.53359   1
   7   8   8 65.6929 5.44070  -2
  -7  -8   4 65.6929 5.44070   1
  -6  -8   4 87.8420 3.41128   1
   5   8   7 94.0454 5.83733  -2
  -5  -8   4 94.0454 5.83733   1
  -4  -8   4 588.026 16.3324   1
   3   8   6 215.907 7.90663  -2
  -3  -8   4 215.907 7.90663   1
  -2  -8   4 60.8640 3.94526   1
   1   8   5 33.2419 2.05704  -2
  -1  -8   4 33.2419 2.05704   1
   0  -8   4 135.451 3.41266   1
  -1   8   4 342.924 5.56513  -2
   1  -8   4 342.924 5.56513   1
  -2   8   4 101.570 5.93704  -2
   2  -8   4 101.570 5.93704   1
  -3   8   3 83.2417 2.94007  -2
   3  -8   4 83.2417 2.94007   1
  -4   8   3 56.8071 6.25463  -2
   4  -8   4 56.8071 6.25463   1
  -5   8   2 60.5259 2.76955  -2
   5  -8   4 60.5259 2.76955   1
 -10  -7   4 1.78868 1.91335   1
   9   7   9 58.5427 3.54825  -2
  -9  -7   4 58.5427 3.54825   1
  -8  -7   4 61.4230 3.39624   1
   7   7   8 75.6635 3.26956  -2
  -7  -7   4 75.6635 3.26956   1
  -6  -7   4 75.0717 3.12870   1
   5   7   7 35.8643 2.25400  -2
  -5  -7   4 35.8643 2.25400   1
  -4  -7   4 316.015 6.01387   1
   3   7   6 134.396 5.50792  -2
  -3  -7   4 134.396 5.50792   1
  -2  -7   4 24.2405 1.38713   1
   1   7   5 42.6769 1.40609  -2
  -1  -7   4 42.6769 1.40609   1
   0  -7   4 10.1614 0.85782   1
  -1   7   4 626.585 7.00218  -2
   1  -7   4 626.585 7.00218   1
   2  -7   4 23.1492 1.46536   1
  -3   7   3 99.9180 2.86426  -2
   3  -7   4 99.9180 2.86426   1
   4  -7   4 2.35396 1.04492   1
  -5   7   2 112.890 3.28870  -2
   5  -7   4 112.890 3.28870   1
   6  -7   4 20.8820 1.40168   1
 -10  -6   4 23.7789 2.78184   1
   9   6   9 29.0888 3.10742  -2
  -9  -6   4 29.0888 3.10742   1
  -8  -6   4 1.36090 1.48448   1
   7   6   8 22.7968 2.36627  -2
  -7  -6   4 22.7968 2.36627   1
   6   6   7 49.3846 4.52702  -2
  -6  -6   4 49.3846 4.52702   1
   5   6   7 291.457 6.03048  -2
  -5  -6   4 291.457 6.03048   1
  -4  -6   4 29.1406 1.39462   1
   3   6   6 243.552 3.56617  -2
  -3  -6   4 243.552 3.56617   1
  -2  -6   4 10.7318 0.66089   1
   1   6   5 354.860 4.38658  -2
  -1  -6   4 354.860 4.38658   1
   0   6   5 452.512 16.0088  -2
   0  -6   4 452.512 16.0088   1
  -1   6   4 179.025 2.47699  -2
   1  -6   4 179.025 2.47699   1
   2  -6   4 10.0576 0.81280   1
  -3   6   3 20.5666 1.31673  -2
   3  -6   4 20.5666 1.31673   1
   4  -6   4 18.9810 1.50703   1
  -5   6   2 53.1981 2.38289  -2
   5  -6   4 53.1981 2.38289   1
   6  -6   4 7.30973 0.96275   1
  -7   6   1 62.8623 2.08812  -2
   7  -6   4 62.8623 2.08812   1
  10   5   9 52.7490 6.13520  -2
 -10  -5   4 52.7490 6.13520   1
   9   5   9 16.7640 3.16588  -2
  -9  -5   4 16.7640 3.16588   1
   8   5   8 33.2717 5.65382  -2
  -8  -5   4 33.2717 5.65382   1
   7   5   8 148.435 4.55982  -2
  -7  -5   4 148.435 4.55982   1
   6   5   7 221.682 7.18514  -2
  -6  -5   4 221.682 7.18514   1
   5   5   7 933.623 15.1415  -2
  -5  -5   4 933.623 15.1415   1
   4   5   6 108.547 4.40942  -2
  -4  -5   4 108.547 4.40942   1
   3   5   6 203.137 2.74663  -2
  -3  -5   4 203.137 2.74663   1
   2   5   5 213.567 9.31559  -2
  -2  -5   4 213.567 9.31559   1
   1   5   5 116.023 1.94947  -2
  -1  -5   4 116.023 1.94947   1
   0  -5   4 771.977 7.61637   1
  -1   5   4 51.9844 1.27216  -2
   1  -5   4 51.9844 1.27216   1
  -2   5   3 144.720 4.04006  -2
   2  -5   4 144.720 4.04006   1
  -3   5   3 15.2423 1.10725  -2
   3  -5   4 15.2423 1.10725   1
  -4   5   2 86.6898 3.17666  -2
   4  -5   4 86.6898 3.17666   1
  -5   5   2 115.046 3.12249  -2
   5  -5   4 115.046 3.12249   1
  -6   5   1 31.0996 4.97848  -2
   6  -5   4 31.0996 4.97848   1
  -7   5   1 2.26008 1.51760  -2
   7  -5   4 2.26008 1.51760   1
  -8   5   0 49.3077 6.56258  -2
   8  -5   4 49.3077 6.56258   1
  10   4   9 8.39522 5.25688  -2
 -10  -4   4 8.39522 5.25688   1
   9   4   9 29.1668 3.59091  -2
  -9  -4   4 29.1668 3.59091   1
   8   4   8 -0.1465 3.25145  -2
  -8  -4   4 -0.1465 3.25145   1
   7   4   8 40.9537 3.19511  -2
  -7  -4   4 40.9537 3.19511   1
   6   4   7 244.027 5.76655  -2
  -6  -4   4 244.027 5.76655   1
   5   4   7 60.7687 2.77552  -2
  -5  -4   4 60.7687 2.77552   1
   4   4   6 259.625 5.22504  -2
  -4  -4   4 259.625 5.22504   1
   3   4   6 14.7080 1.05833  -2
  -3  -4   4 14.7080 1.05833   1
   2   4   5 105.393 3.47874  -2
  -2  -4   4 105.393 3.47874   1
   1   4   5 375.867 5.10094  -2
  -1  -4   4 375.867 5.10094   1
   0   4   4 468.140 9.33982  -2
   0  -4   4 468.140 9.33982   1
  -1   4   4 11.2507 1.15291  -2
   1  -4   4 11.2507 1.15291   1
  -2   4   3 289.297 5.91270  -2
   2  -4   4 289.297 5.91270   1
  -3   4   3 44.8499 1.72482  -2
   3  -4   4 44.8499 1.72482   1
  -4   4   2 385.992 4.96356  -2
   4  -4   4 385.992 4.96356   1
  -5   4   2 300.677 3.86923  -2
   5  -4   4 300.677 3.86923   1
  -6   4   1 31.2951 2.47571  -2
   6  -4   4 31.2951 2.47571   1
  -7   4   1 12.2259 1.69939  -2
   7  -4   4 12.2259 1.69939   1
  -8   4   0 27.4940 2.09768  -2
   8  -4   4 27.4940 2.09768   1
  10   3   9 34.3898 5.67046  -2
 -10  -3   4 34.3898 5.67046   1
   9   3   9 47.2820 4.36198  -2
  -9  -3   4 47.2820 4.36198   1
   8   3   8 226.233 6.30064  -2
  -8  -3   4 226.233 6.30064   1
   7   3   8 143.018 4.86396  -2
  -7  -3   4 143.018 4.86396   1
   6   3   7 648.134 11.4131  -2
  -6  -3   4 648.134 11.4131   1
   5   3   7 49.0215 2.84921  -2
  -5  -3   4 49.0215 2.84921   1
   4   3   6 446.520 7.05302  -2
  -4  -3   4 446.520 7.05302   1
   3   3   6 1378.11 23.1533  -2
  -3  -3   4 1378.11 23.1533   1
   2   3   5 168.616 3.73741  -2
  -2  -3   4 168.616 3.73741   1
   1   3   5 333.380 6.87980  -2
  -1  -3   4 333.380 6.87980   1
   0   3   4 377.937 4.21346  -2
   0  -3   4 377.937 4.21346   1
  -1   3   4 3.83101 1.34853  -2
   1  -3   4 3.83101 1.34853   1
  -2   3   3 169.152 2.44302  -2
   2  -3   4 169.152 2.44302   1
  -3   3   3 155.137 4.10958  -2
   3  -3   4 155.137 4.10958   1
  -4   3   2 23.6847 1.41187  -2
   4  -3   4 23.6847 1.41187   1
  -5   3   2 179.157 4.47632  -2
   5  -3   4 179.157 4.47632   1
  -6   3   1 118.912 2.18331  -2
   6  -3   4 118.912 2.18331   1
  -7   3   1 15.4764 2.87184  -2
   7  -3   4 15.4764 2.87184   1
  -8   3   0 90.6509 2.53583  -2
   8  -3   4 90.6509 2.53583   1
  -9   3   0 32.4598 5.98688  -2
   9  -3   4 32.4598 5.98688   1
  10   2   9 45.0108 5.31940  -2
 -10  -2   4 45.0108 5.31940   1
   9   2   9 8.87548 6.58931  -2
  -9  -2   4 8.87548 6.58931   1
   8   2   8 56.7451 2.95950  -2
  -8  -2   4 56.7451 2.95950   1
   7   2   8 160.846 5.35486  -2
  -7  -2   4 160.846 5.35486   1
   6   2   7 23.3386 2.06836  -2
  -6  -2   4 23.3386 2.06836   1
   5   2   7 33.2595 2.82304  -2
  -5  -2   4 33.2595 2.82304   1
   4   2   6 102.340 2.42965  -2
  -4  -2   4 102.340 2.42965   1
   3   2   6 71.1915 3.30636  -2
  -3  -2   4 71.1915 3.30636   1
   2   2   5 596.474 6.50392  -2
  -2  -2   4 596.474 6.50392   1
  -1  -2   4 0.96476 0.36554   1
   0   2   4 78.6837 1.11473  -2
   0  -2   4 78.6837 1.11473   1
  -1   2   4 708.111 13.3596  -2
   1  -2   4 708.111 13.3596   1
  -2   2   3 64.2019 1.04878  -2
   2  -2   4 64.2019 1.04878   1
   3  -2   4 586.298 5.65755   1
  -4   2   2 273.221 3.01283  -2
   4  -2   4 273.221 3.01283   1
  -5   2   2 61.9832 4.15737  -2
   5  -2   4 61.9832 4.15737   1
  -6   2   1 137.836 2.01308  -2
   6  -2   4 137.836 2.01308   1
   7  -2   4 13.0094 0.87839   1
  -8   2   0 251.667 3.71202  -2
   8  -2   4 251.667 3.71202   1
   9  -2   4 26.6821 1.34912   1
  -9  -1   4 6.10292 1.91603   1
   8   1   8 63.1645 2.90858  -2
  -8  -1   4 63.1645 2.90858   1
   7   1   8 120.895 7.03845  -2
  -7  -1   4 120.895 7.03845   1
   6   1   7 140.685 3.34209  -2
  -6  -1   4 140.685 3.34209   1
  -5  -1   4 60.4751 2.04321   1
   4   1   6 359.969 5.55898  -2
  -4  -1   4 359.969 5.55898   1
   3   1   6 54.1643 5.99096  -2
  -3  -1   4 54.1643 5.99096   1
   2   1   5 412.696 4.13897  -2
  -2  -1   4 412.696 4.13897   1
   1   1   5 47.3249 2.70071  -2
  -1  -1   4 47.3249 2.70071   1
   0   1   4 11.8001 0.40992  -2
   0  -1   4 11.8001 0.40992   1
   1  -1   4 3.35420 0.40048   1
  -2   1   3 73.5040 1.82384  -2
   2  -1   4 73.5040 1.82384   1
   3  -1   4 65.4938 1.04866   1
  -4   1   2 135.005 1.47834  -2
   4  -1   4 135.005 1.47834   1
   5  -1   4 70.7545 1.07444   1
  -6   1   1 27.2793 0.91869  -2
   6  -1   4 27.2793 0.91869   1
  -7   1   1 75.8839 7.96193  -2
   7  -1   4 75.8839 7.96193   1
  -8   1   0 72.0453 1.83932  -2
   8  -1   4 72.0453 1.83932   1
   9  -1   4 -0.1355 0.73672   1
  10  -1   1 18.7006 1.52647  -2
  10  -1   4 18.7006 1.52647   1
  -9   0   4 4.87454 2.00610   1
   8   0   8 27.2278 2.24681  -2
  -8   0   4 27.2278 2.24681   1
  -7   0   4 133.594 3.57957   1
   6   0   7 60.6614 2.34726  -2
  -6   0   4 60.6614 2.34726   1
  -5   0   4 20.3542 1.38029   1
   4   0   6 76.8617 2.06257  -2
  -4   0   4 76.8617 2.06257   1
  -3   0   4 27.1461 0.81326   1
   2   0   5 181.365 1.83012  -2
  -2   0   4 181.365 1.83012   1
  -1   0   4 130.526 1.42660   1
   0   0   4 541.419 4.67469  -2
   0   0   4 541.419 4.67469   1
   1   0   4 4.09732 0.65000   1
  -2   0   3 12.3202 0.98745  -2
   2   0   4 12.3202 0.98745   1
   3   0   4 114.274 1.30297   1
  -4   0   2 1020.78 9.49087  -2
   4   0   4 1020.78 9.49087   1
   5   0   4 194.391 1.88022   1
  -6   0   1 52.3703 1.02138  -2
   6   0   4 52.3703 1.02138   1
   7   0   4 4.72575 0.58946   1
   8   0   0 65.5340 1.65496  -2
   8   0   4 65.5340 1.65496   1
   9   0   4 108.851 2.43948   1
  10   0   1 16.2498 1.37789  -2
  10   0   4 16.2498 1.37789   1
  -9   1   4 3.84962 1.96586   1
   8  -1   8 310.970 7.51874  -2
  -8   1   4 310.970 7.51874   1
  -7   1   4 5.87462 1.36143   1
   6  -1   7 47.5014 2.36683  -2
  -6   1   4 47.5014 2.36683   1
  -5   1   4 -0.1521 0.83895   1
   4  -1   6 81.2713 2.30752  -2
  -4   1   4 81.2713 2.30752   1
  -3   1   4 376.714 3.96940   1
   2  -1   5 69.1699 0.97193  -2
  -2   1   4 69.1699 0.97193   1
  -1   1   4 49.5277 0.92616   1
   0  -1   4 9.29030 0.53743  -2
   0   1   4 9.29030 0.53743   1
   1   1   4 483.078 7.25461   1
  -2  -1   3 2658.68 34.9464  -2
   2   1   4 2658.68 34.9464   1
   3   1   4 8.64762 0.43460   1
  -4  -1   2 412.133 4.50731  -2
   4   1   4 412.133 4.50731   1
  -5  -1   1 68.2597 6.17355  -2
   5   1   4 68.2597 6.17355   1
  -6  -1   1 168.794 1.98583  -2
   6   1   4 168.794 1.98583   1
   7   1   0 21.7195 6.70730  -2
   7   1   4 21.7195 6.70730   1
   8   1   0 98.7801 2.27275  -2
   8   1   4 98.7801 2.27275   1
   9   1   4 7.32759 0.96301   1
  10   1   1 107.416 2.70217  -2
  10   1   4 107.416 2.70217   1
   8  -2   8 209.471 6.24716  -2
  -8   2   4 209.471 6.24716   1
   7  -2   7 120.562 7.72886  -2
  -7   2   4 120.562 7.72886   1
   6  -2   7 34.8229 2.42912  -2
  -6   2   4 34.8229 2.42912   1
   5  -2   6 78.6163 5.45664  -2
  -5   2   4 78.6163 5.45664   1
   4  -2   6 41.5735 1.99873  -2
  -4   2   4 41.5735 1.99873   1
  -3   2   4 147.482 2.95321   1
   2  -2   5 247.936 2.68743  -2
  -2   2   4 247.936 2.68743   1
   1  -2   4 595.940 19.1568  -2
  -1   2   4 595.940 19.1568   1
   0  -2   4 63.3659 1.28016  -2
   0   2   4 63.3659 1.28016   1
  -1  -2   3 165.671 6.18325  -2
   1   2   4 165.671 6.18325   1
  -2  -2   3 121.645 1.48512  -2
   2   2   4 121.645 1.48512   1
  -3  -2   2 471.086 14.8698  -2
   3   2   4 471.086 14.8698   1
  -4  -2   2 4.54829 0.76492  -2
   4   2   4 4.54829 0.76492   1
  -5  -2   1 39.5354 5.24416  -2
   5   2   4 39.5354 5.24416   1
  -6  -2   1 150.296 2.11476  -2
   6   2   4 150.296 2.11476   1
   7   2   0 9.53879 6.23087  -2
   7   2   4 9.53879 6.23087   1
   8   2   0 68.4941 2.06447  -2
   8   2   4 68.4941 2.06447   1
   9   2   1 55.5158 3.74072  -2
   9   2   4 55.5158 3.74072   1
  10   2   1 7.13629 1.73972  -2
  10   2   4 7.13629 1.73972   1
  11   2   2 32.5677 5.79859  -2
  11   2   4 32.5677 5.79859   1
   8  -3   8 21.1057 3.83577  -2
  -8   3   4 21.1057 3.83577   1
   7  -3   7 51.5275 4.07638  -2
  -7   3   4 51.5275 4.07638   1
   6  -3   7 150.239 4.20540  -2
  -6   3   4 150.239 4.20540   1
   5  -3   6 39.2536 2.58012  -2
  -5   3   4 39.2536 2.58012   1
   4  -3   6 28.6601 2.12754  -2
  -4   3   4 28.6601 2.12754   1
   3  -3   5 125.975 3.10207  -2
  -3   3   4 125.975 3.10207   1
   2  -3   5 36.2467 1.53487  -2
  -2   3   4 36.2467 1.53487   1
   1  -3   4 3.73402 1.30050  -2
  -1   3   4 3.73402 1.30050   1
   0  -3   4 391.452 5.00313  -2
   0   3   4 391.452 5.00313   1
  -1  -3   3 630.899 19.8175  -2
   1   3   4 630.899 19.8175   1
  -2  -3   3 1531.43 17.5701  -2
   2   3   4 1531.43 17.5701   1
  -3  -3   2 8.11824 1.38695  -2
   3   3   4 8.11824 1.38695   1
  -4  -3   2 387.599 7.11020  -2
   4   3   4 387.599 7.11020   1
  -5  -3   1 107.526 3.53326  -2
   5   3   4 107.526 3.53326   1
  -6  -3   1 166.955 3.13332  -2
   6   3   4 166.955 3.13332   1
   7   3   0 126.959 4.46957  -2
   7   3   4 126.959 4.46957   1
   8   3   0 258.880 4.15605  -2
   8   3   4 258.880 4.15605   1
   9   3   1 127.023 6.48459  -2
   9   3   4 127.023 6.48459   1
  10   3   1 24.0079 5.06868  -2
  10   3   4 24.0079 5.06868   1
  11   3   2 9.69233 5.45866  -2
  11   3   4 9.69233 5.45866   1
   7  -4   7 44.7713 3.95029  -2
  -7   4   4 44.7713 3.95029   1
   6  -4   7 135.669 4.38616  -2
  -6   4   4 135.669 4.38616   1
   5  -4   6 32.4963 2.59030  -2
  -5   4   4 32.4963 2.59030   1
   4  -4   6 26.2332 2.37815  -2
  -4   4   4 26.2332 2.37815   1
   3  -4   5 117.729 3.18138  -2
  -3   4   4 117.729 3.18138   1
   2  -4   5 54.0318 3.09128  -2
  -2   4   4 54.0318 3.09128   1
   1  -4   4 8.78092 1.00474  -2
  -1   4   4 8.78092 1.00474   1
   0  -4   4 453.272 15.7134  -2
   0   4   4 453.272 15.7134   1
  -1  -4   3 77.2136 2.27078  -2
   1   4   4 77.2136 2.27078   1
  -2  -4   3 331.214 11.7686  -2
   2   4   4 331.214 11.7686   1
  -3  -4   2 86.2586 1.75423  -2
   3   4   4 86.2586 1.75423   1
  -4  -4   2 1.57402 1.14444  -2
   4   4   4 1.57402 1.14444   1
  -5  -4   1 408.266 5.43120  -2
   5   4   4 408.266 5.43120   1
  -6  -4   1 102.911 3.80238  -2
   6   4   4 102.911 3.80238   1
   7   4   0 41.9380 1.59447  -2
   7   4   4 41.9380 1.59447   1
   8   4   0 289.770 7.63302  -2
   8   4   4 289.770 7.63302   1
   9   4   1 31.0989 4.48046  -2
   9   4   4 31.0989 4.48046   1
  10   4   1 19.1744 4.80048  -2
  10   4   4 19.1744 4.80048   1
  11   4   2 68.0412 6.22839  -2
  11   4   4 68.0412 6.22839   1
   7  -5   7 44.8247 3.94031  -2
  -7   5   4 44.8247 3.94031   1
   6  -5   7 20.6383 6.35622  -2
  -6   5   4 20.6383 6.35622   1
   5  -5   6 17.7790 2.52552  -2
  -5   5   4 17.7790 2.52552   1
   4  -5   6 55.4180 5.87418  -2
  -4   5   4 55.4180 5.87418   1
   3  -5   5 22.6416 2.06336  -2
  -3   5   4 22.6416 2.06336   1
  -2   5   4 84.0287 3.19544   1
   1  -5   4 40.2598 2.36743  -2
  -1   5   4 40.2598 2.36743   1
   0  -5   4 1684.61 51.3878  -2
   0   5   4 1684.61 51.3878   1
  -1  -5   3 1524.00 24.1023  -2
   1   5   4 1524.00 24.1023   1
  -2  -5   3 420.745 14.9785  -2
   2   5   4 420.745 14.9785   1
  -3  -5   2 7.91121 0.74039  -2
   3   5   4 7.91121 0.74039   1
  -4  -5   2 16.3050 2.21441  -2
   4   5   4 16.3050 2.21441   1
  -5  -5   1 744.814 7.09794  -2
   5   5   4 744.814 7.09794   1
  -6  -5   1 182.569 3.85400  -2
   6   5   4 182.569 3.85400   1
   7   5   0 130.483 3.39282  -2
   7   5   4 130.483 3.39282   1
   8   5   4 82.0604 2.04375   1
   9   5   1 2.48942 3.72558  -2
   9   5   4 2.48942 3.72558   1
  10   5   4 23.9739 3.24298   1
  11   5   2 45.8485 5.34643  -2
  11   5   4 45.8485 5.34643   1
   6  -6   7 45.8117 7.36284  -2
  -6   6   4 45.8117 7.36284   1
   5  -6   6 36.8915 2.65492  -2
  -5   6   4 36.8915 2.65492   1
  -4   6   4 73.0139 2.86264   1
   3  -6   5 63.8748 2.60548  -2
  -3   6   4 63.8748 2.60548   1
  -2   6   4 9.18182 1.63433   1
   1  -6   4 181.525 4.84042  -2
  -1   6   4 181.525 4.84042   1
   0   6   4 115.534 3.51096   1
  -1  -6   3 241.303 7.66565  -2
   1   6   4 241.303 7.66565   1
   2   6   4 27.5305 1.41155   1
  -3  -6   2 139.941 2.46306  -2
   3   6   4 139.941 2.46306   1
  -4  -6   2 10.5557 2.28088  -2
   4   6   4 10.5557 2.28088   1
  -5  -6   1 408.164 4.70108  -2
   5   6   4 408.164 4.70108   1
   6   6   4 43.3931 1.41458   1
   7   6   0 137.608 5.16622  -2
   7   6   4 137.608 5.16622   1
   8   6   4 30.2084 2.96037   1
   9   6   1 31.6814 3.81393  -2
   9   6   4 31.6814 3.81393   1
  10   6   4 39.1446 3.94936   1
  11   6   2 49.7254 5.14666  -2
  11   6   4 49.7254 5.14666   1
  -6   7   4 -1.1244 1.78815   1
   5  -7   6 29.5919 2.79148  -2
  -5   7   4 29.5919 2.79148   1
  -4   7   4 15.1428 1.74683   1
   3  -7   5 130.830 4.81000  -2
  -3   7   4 130.830 4.81000   1
  -2   7   4 6.42245 1.72811   1
   1  -7   4 572.365 11.3000  -2
  -1   7   4 572.365 11.3000   1
   0   7   4 41.1767 2.49738   1
  -1  -7   3 136.371 3.95080  -2
   1   7   4 136.371 3.95080   1
   2   7   4 280.991 8.69632   1
   6   7   4 11.3214 1.75993   1
   7   7   0 12.7578 2.35152  -2
   7   7   4 12.7578 2.35152   1
   8   7   4 5.68123 1.97218   1
   9   7   1 58.5265 4.01496  -2
   9   7   4 58.5265 4.01496   1
  10   7   4 31.1028 3.52979   1
  11   7   2 12.2762 3.75147  -2
  11   7   4 12.2762 3.75147   1
   5  -8   6 25.9887 3.44262  -2
  -5   8   4 25.9887 3.44262   1
   4  -8   5 61.2104 7.79083  -2
  -4   8   4 61.2104 7.79083   1
   3  -8   5 113.848 3.74847  -2
  -3   8   4 113.848 3.74847   1
  -2   8   4 113.399 4.63336   1
   1  -8   4 277.406 7.04654  -2
  -1   8   4 277.406 7.04654   1
   0   8   4 4.13196 1.49680   1
  -1  -8   3 47.8829 4.15136  -2
   1   8   4 47.8829 4.15136   1
   2   8   4 76.7630 4.25027   1
   8   8   4 43.0960 3.45358   1
   9   8   1 147.285 6.14342  -2
   9   8   4 147.285 6.14342   1
  10   8   4 18.9052 2.96074   1
  11   8   2 94.9282 6.15137  -2
  11   8   4 94.9282 6.15137   1
   4  -9   5 26.6735 7.68011  -2
  -4   9   4 26.6735 7.68011   1
   3  -9   5 6.18954 3.20722  -2
  -3   9   4 6.18954 3.20722   1
   2  -9   4 34.5082 4.48817  -2
  -2   9   4 34.5082 4.48817   1
   1  -9   4 2.63182 3.25661  -2
  -1   9   4 2.63182 3.25661   1
   0  -9   3 35.3496 3.95842  -2
   0   9   4 35.3496 3.95842   1
  -1  -9   3 167.731 7.75547  -2
   1   9   4 167.731 7.75547   1
   2   9   4 62.1804 4.46686   1
  10   9   4 20.4045 3.05729   1
   1 -10   4 31.9530 5.76570  -2
  -1  10   4 31.9530 5.76570   1
   0 -10   3 28.9756 5.79360  -2
   0  10   4 28.9756 5.79360   1
  -1 -10   3 205.306 9.37506  -2
   1  10   4 205.306 9.37506   1
   0 -11   3 48.9557 6.83203  -2
   0  11   4 48.9557 6.83203   1
  -1 -11   3 25.8698 6.15960  -2
   1  11   4 25.8698 6.15960   1
   1  12   4 0.35282 2.76400   1
  -2 -12   2 93.8638 7.20899  -2
   2  12   4 93.8638 7.20899   1
   3  12   4 14.3359 3.54331   1
  -2 -13   2 51.3757 6.19592  -2
   2  13   4 51.3757 6.19592   1
   3  13   4 4.62686 3.01393   1
   6  12   9 20.5420 5.81112  -2
  -6 -12   5 20.5420 5.81112   1
   5  12   8 34.1648 7.16717  -2
  -5 -12   5 34.1648 7.16717   1
   4  12   8 63.5341 6.02504  -2
  -4 -12   5 63.5341 6.02504   1
   3  12   7 89.8831 7.78556  -2
  -3 -12   5 89.8831 7.78556   1
   2  12   7 205.181 9.11686  -2
  -2 -12   5 205.181 9.11686   1
   1  12   6 32.8639 6.47178  -2
  -1 -12   5 32.8639 6.47178   1
   7  11   9 57.8955 7.25194  -2
  -7 -11   5 57.8955 7.25194   1
   6  11   9 20.2419 6.14493  -2
  -6 -11   5 20.2419 6.14493   1
   5  11   8 26.8843 6.35995  -2
  -5 -11   5 26.8843 6.35995   1
   4  11   8 91.8580 6.98071  -2
  -4 -11   5 91.8580 6.98071   1
   3  11   7 44.7760 6.05752  -2
  -3 -11   5 44.7760 6.05752   1
   2  11   7 31.0100 5.22498  -2
  -2 -11   5 31.0100 5.22498   1
   1  11   6 2.46074 5.25504  -2
  -1 -11   5 2.46074 5.25504   1
   0  11   6 12.3053 4.40795  -2
   0 -11   5 12.3053 4.40795   1
  -1  11   5 53.7837 6.43096  -2
   1 -11   5 53.7837 6.43096   1
   8  10  10 96.6503 8.51033  -2
  -8 -10   5 96.6503 8.51033   1
   7  10   9 18.9636 6.63291  -2
  -7 -10   5 18.9636 6.63291   1
   6  10   9 108.077 7.57514  -2
  -6 -10   5 108.077 7.57514   1
   5  10   8 31.9886 5.91890  -2
  -5 -10   5 31.9886 5.91890   1
   4  10   8 8.74835 5.23082  -2
  -4 -10   5 8.74835 5.23082   1
   3  10   7 111.992 6.84079  -2
  -3 -10   5 111.992 6.84079   1
   2  10   7 95.2766 6.38662  -2
  -2 -10   5 95.2766 6.38662   1
   1  10   6 78.4563 5.76879  -2
  -1 -10   5 78.4563 5.76879   1
   0  10   6 82.3813 6.05013  -2
   0 -10   5 82.3813 6.05013   1
  -1  10   5 2.14742 2.34044  -2
   1 -10   5 2.14742 2.34044   1
  -2  10   5 73.1904 6.23576  -2
   2 -10   5 73.1904 6.23576   1
  -3  10   4 124.534 3.87084  -2
   3 -10   5 124.534 3.87084   1
   9   9  10 46.5379 4.05543  -2
  -9  -9   5 46.5379 4.05543   1
   8   9  10 88.5663 7.77854  -2
  -8  -9   5 88.5663 7.77854   1
   7   9   9 110.322 7.27675  -2
  -7  -9   5 110.322 7.27675   1
   6   9   9 65.0456 6.64801  -2
  -6  -9   5 65.0456 6.64801   1
   5   9   8 140.008 7.30696  -2
  -5  -9   5 140.008 7.30696   1
   4   9   8 33.3877 5.57563  -2
  -4  -9   5 33.3877 5.57563   1
   3   9   7 26.6131 4.42096  -2
  -3  -9   5 26.6131 4.42096   1
   2   9   7 17.4437 4.51759  -2
  -2  -9   5 17.4437 4.51759   1
   1   9   6 34.7251 2.43443  -2
  -1  -9   5 34.7251 2.43443   1
   0   9   6 136.596 7.00458  -2
   0  -9   5 136.596 7.00458   1
  -1   9   5 8.46174 1.84350  -2
   1  -9   5 8.46174 1.84350   1
  -2   9   5 26.7838 5.12056  -2
   2  -9   5 26.7838 5.12056   1
  -3   9   4 4.89008 1.96954  -2
   3  -9   5 4.89008 1.96954   1
  -4   9   4 25.2277 5.88238  -2
   4  -9   5 25.2277 5.88238   1
   9   8  10 70.6930 4.15237  -2
  -9  -8   5 70.6930 4.15237   1
   8   8  10 99.1807 8.27650  -2
  -8  -8   5 99.1807 8.27650   1
   7   8   9 5.81444 1.91036  -2
  -7  -8   5 5.81444 1.91036   1
  -6  -8   5 19.8929 1.53037   1
   5   8   8 72.4831 5.24101  -2
  -5  -8   5 72.4831 5.24101   1
  -4  -8   5 2.46837 2.02655   1
   3   8   7 190.545 7.30764  -2
  -3  -8   5 190.545 7.30764   1
  -2  -8   5 36.4682 1.87386   1
   1   8   6 64.4679 2.43822  -2
  -1  -8   5 64.4679 2.43822   1
   0  -8   5 34.8475 1.68264   1
  -1   8   5 72.1307 2.26156  -2
   1  -8   5 72.1307 2.26156   1
  -2   8   5 28.1627 4.63784  -2
   2  -8   5 28.1627 4.63784   1
  -3   8   4 101.087 2.91625  -2
   3  -8   5 101.087 2.91625   1
  -4   8   4 81.1968 6.69497  -2
   4  -8   5 81.1968 6.69497   1
  -5   8   3 44.7034 4.85666  -2
   5  -8   5 44.7034 4.85666   1
   9   7  10 131.788 4.94551  -2
  -9  -7   5 131.788 4.94551   1
  -8  -7   5 66.5826 3.61744   1
   7   7   9 3.54059 2.08805  -2
  -7  -7   5 3.54059 2.08805   1
  -6  -7   5 0.25437 0.94823   1
   5   7   8 50.2323 1.95147  -2
  -5  -7   5 50.2323 1.95147   1
  -4  -7   5 267.387 5.47296   1
   3   7   7 6.91862 1.18783  -2
  -3  -7   5 6.91862 1.18783   1
  -2  -7   5 70.9493 1.75322   1
   1   7   6 45.7598 1.41208  -2
  -1  -7   5 45.7598 1.41208   1
   0  -7   5 0.89978 0.62429   1
  -1   7   5 75.4466 1.66434  -2
   1  -7   5 75.4466 1.66434   1
   2  -7   5 0.45974 0.67146   1
  -3   7   4 108.369 2.57495  -2
   3  -7   5 108.369 2.57495   1
   4  -7   5 2.84443 0.95489   1
  -5   7   3 22.3204 4.00462  -2
   5  -7   5 22.3204 4.00462   1
   6  -7   5 54.7734 5.18714   1
   9   6  10 71.7934 3.98941  -2
  -9  -6   5 71.7934 3.98941   1
  -8  -6   5 7.47541 1.86126   1
   7   6   9 17.9275 2.39361  -2
  -7  -6   5 17.9275 2.39361   1
   6   6   8 159.109 6.29639  -2
  -6  -6   5 159.109 6.29639   1
   5   6   8 242.958 4.23055  -2
  -5  -6   5 242.958 4.23055   1
  -4  -6   5 97.7513 2.31116   1
   3   6   7 130.659 2.48032  -2
  -3  -6   5 130.659 2.48032   1
  -2  -6   5 91.9467 1.61365   1
   1   6   6 339.275 4.21272  -2
  -1  -6   5 339.275 4.21272   1
   0  -6   5 42.1812 1.16962   1
  -1   6   5 38.2027 1.17195  -2
   1  -6   5 38.2027 1.17195   1
   2  -6   5 48.5360 1.34764   1
  -3   6   4 76.6696 1.66750  -2
   3  -6   5 76.6696 1.66750   1
   4  -6   5 22.1283 0.90836   1
  -5   6   3 2.55819 1.36315  -2
   5  -6   5 2.55819 1.36315   1
  -6   6   2 11.2554 5.16892  -2
   6  -6   5 11.2554 5.16892   1
  -7   6   2 135.818 6.90078  -2
   7  -6   5 135.818 6.90078   1
   9   5  10 0.45011 3.07661  -2
  -9  -5   5 0.45011 3.07661   1
   8   5   9 10.4758 3.48111  -2
  -8  -5   5 10.4758 3.48111   1
   7   5   9 47.4966 3.20177  -2
  -7  -5   5 47.4966 3.20177   1
   6   5   8 73.7753 4.57226  -2
  -6  -5   5 73.7753 4.57226   1
   5   5   8 614.031 10.6469  -2
  -5  -5   5 614.031 10.6469   1
   4   5   7 29.2414 3.32282  -2
  -4  -5   5 29.2414 3.32282   1
   3   5   7 114.473 2.00254  -2
  -3  -5   5 114.473 2.00254   1
   2   5   6 37.3471 4.74935  -2
  -2  -5   5 37.3471 4.74935   1
   1   5   6 147.869 2.29056  -2
  -1  -5   5 147.869 2.29056   1
   0   5   5 382.455 13.3544  -2
   0  -5   5 382.455 13.3544   1
  -1   5   5 45.4268 1.50665  -2
   1  -5   5 45.4268 1.50665   1
  -2   5   4 115.111 4.88077  -2
   2  -5   5 115.111 4.88077   1
  -3   5   4 17.0819 1.38839  -2
   3  -5   5 17.0819 1.38839   1
  -4   5   3 66.9555 2.86440  -2
   4  -5   5 66.9555 2.86440   1
  -5   5   3 82.5886 3.03350  -2
   5  -5   5 82.5886 3.03350   1
  -6   5   2 92.6390 5.97500  -2
   6  -5   5 92.6390 5.97500   1
  -7   5   2 9.86706 3.88734  -2
   7  -5   5 9.86706 3.88734   1
   9   4  10 31.7064 3.88861  -2
  -9  -4   5 31.7064 3.88861   1
   8   4   9 60.3762 4.16362  -2
  -8  -4   5 60.3762 4.16362   1
   7   4   9 20.1124 3.17619  -2
  -7  -4   5 20.1124 3.17619   1
   6   4   8 115.917 4.11754  -2
  -6  -4   5 115.917 4.11754   1
   5   4   8 65.1210 2.99625  -2
  -5  -4   5 65.1210 2.99625   1
   4   4   7 69.8944 2.79236  -2
  -4  -4   5 69.8944 2.79236   1
   3   4   7 24.8616 1.18904  -2
  -3  -4   5 24.8616 1.18904   1
   2   4   6 31.0436 2.36783  -2
  -2  -4   5 31.0436 2.36783   1
   1   4   6 37.6375 1.07785  -2
  -1  -4   5 37.6375 1.07785   1
   0   4   5 53.0612 1.65636  -2
   0  -4   5 53.0612 1.65636   1
  -1   4   5 122.821 2.87308  -2
   1  -4   5 122.821 2.87308   1
  -2   4   4 52.1723 2.49837  -2
   2  -4   5 52.1723 2.49837   1
  -3   4   4 98.3360 2.24124  -2
   3  -4   5 98.3360 2.24124   1
  -4   4   3 167.714 3.30778  -2
   4  -4   5 167.714 3.30778   1
  -5   4   3 214.824 3.98849  -2
   5  -4   5 214.824 3.98849   1
  -6   4   2 142.273 4.08606  -2
   6  -4   5 142.273 4.08606   1
  -7   4   2 24.8260 4.55260  -2
   7  -4   5 24.8260 4.55260   1
  -8   4   1 24.9040 5.31727  -2
   8  -4   5 24.9040 5.31727   1
   9   3  10 45.0188 4.51433  -2
  -9  -3   5 45.0188 4.51433   1
   8   3   9 195.650 5.89527  -2
  -8  -3   5 195.650 5.89527   1
   7   3   9 16.7190 3.32217  -2
  -7  -3   5 16.7190 3.32217   1
   6   3   8 206.732 5.36812  -2
  -6  -3   5 206.732 5.36812   1
   5   3   8 83.2598 5.28661  -2
  -5  -3   5 83.2598 5.28661   1
   4   3   7 27.8032 2.20856  -2
  -4  -3   5 27.8032 2.20856   1
   3   3   7 477.135 7.34384  -2
  -3  -3   5 477.135 7.34384   1
   2   3   6 82.1925 1.66005  -2
  -2  -3   5 82.1925 1.66005   1
   1   3   6 166.023 2.48826  -2
  -1  -3   5 166.023 2.48826   1
   0   3   5 493.865 5.37679  -2
   0  -3   5 493.865 5.37679   1
  -1   3   5 378.165 6.04027  -2
   1  -3   5 378.165 6.04027   1
  -2   3   4 40.6081 1.25571  -2
   2  -3   5 40.6081 1.25571   1
  -3   3   4 106.566 3.15842  -2
   3  -3   5 106.566 3.15842   1
  -4   3   3 383.898 4.72764  -2
   4  -3   5 383.898 4.72764   1
  -5   3   3 232.648 4.04769  -2
   5  -3   5 232.648 4.04769   1
  -6   3   2 106.911 3.15747  -2
   6  -3   5 106.911 3.15747   1
  -7   3   2 32.3562 2.82871  -2
   7  -3   5 32.3562 2.82871   1
  -8   3   1 58.4172 3.69014  -2
   8  -3   5 58.4172 3.69014   1
  -9   3   1 -2.7192 5.34515  -2
   9  -3   5 -2.7192 5.34515   1
   9   2  10 2.92498 6.42651  -2
  -9  -2   5 2.92498 6.42651   1
   8   2   9 161.002 5.42536  -2
  -8  -2   5 161.002 5.42536   1
   7   2   9 36.8907 5.85338  -2
  -7  -2   5 36.8907 5.85338   1
   6   2   8 44.7877 3.04600  -2
  -6  -2   5 44.7877 3.04600   1
   5   2   8 118.610 6.20480  -2
  -5  -2   5 118.610 6.20480   1
   4   2   7 29.5602 2.09215  -2
  -4  -2   5 29.5602 2.09215   1
   3   2   7 343.843 6.71846  -2
  -3  -2   5 343.843 6.71846   1
   2   2   6 12.6940 0.87069  -2
  -2  -2   5 12.6940 0.87069   1
   1   2   6 329.797 11.0907  -2
  -1  -2   5 329.797 11.0907   1
   0   2   5 38.8026 0.74839  -2
   0  -2   5 38.8026 0.74839   1
  -1   2   5 124.056 5.15555  -2
   1  -2   5 124.056 5.15555   1
  -2   2   4 239.525 2.55082  -2
   2  -2   5 239.525 2.55082   1
   3  -2   5 663.578 7.02991   1
  -4   2   3 174.178 2.20824  -2
   4  -2   5 174.178 2.20824   1
  -5   2   3 19.5659 4.50475  -2
   5  -2   5 19.5659 4.50475   1
  -6   2   2 -0.4024 1.33520  -2
   6  -2   5 -0.4024 1.33520   1
  -7   2   2 94.9755 8.24470  -2
   7  -2   5 94.9755 8.24470   1
  -8   2   1 168.178 2.50842  -2
   8  -2   5 168.178 2.50842   1
  -9   2   1 -3.3802 5.37758  -2
   9  -2   5 -3.3802 5.37758   1
   9   1  10 35.6940 7.50822  -2
  -9  -1   5 35.6940 7.50822   1
   8   1   9 23.7285 2.95434  -2
  -8  -1   5 23.7285 2.95434   1
  -7  -1   5 20.6283 2.13208   1
   6   1   8 21.3718 2.18802  -2
  -6  -1   5 21.3718 2.18802   1
   5   1   8 242.376 8.88418  -2
  -5  -1   5 242.376 8.88418   1
   4   1   7 440.953 6.62059  -2
  -4  -1   5 440.953 6.62059   1
  -3  -1   5 84.5808 1.23312   1
   2   1   6 2.69295 0.61559  -2
  -2  -1   5 2.69295 0.61559   1
   1   1   6 126.239 4.28991  -2
  -1  -1   5 126.239 4.28991   1
   0   1   5 590.957 5.61579  -2
   0  -1   5 590.957 5.61579   1
   1  -1   5 108.664 3.16033   1
  -2   1   4 63.1242 1.96299  -2
   2  -1   5 63.1242 1.96299   1
   3  -1   5 701.534 7.25373   1
  -4   1   3 228.362 2.53687  -2
   4  -1   5 228.362 2.53687   1
   5  -1   5 16.6449 0.87372   1
  -6   1   2 1.46787 1.09485  -2
   6  -1   5 1.46787 1.09485   1
   7  -1   5 4.73010 0.83044   1
  -8   1   1 86.3723 2.02990  -2
   8  -1   5 86.3723 2.02990   1
   9  -1   5 0.78114 1.40542   1
 -10   1   0 30.0412 3.15698  -2
  10  -1   5 30.0412 3.15698   1
  -9   0   5 99.9636 5.99045   1
   8   0   9 17.0015 2.47523  -2
  -8   0   5 17.0015 2.47523   1
  -7   0   5 -0.3518 1.34142   1
   6   0   8 28.9723 2.31757  -2
  -6   0   5 28.9723 2.31757   1
  -5   0   5 48.0751 2.05057   1
   4   0   7 413.747 6.32984  -2
  -4   0   5 413.747 6.32984   1
  -3   0   5 4.54757 0.42398   1
   2   0   6 209.666 1.95214  -2
  -2   0   5 209.666 1.95214   1
  -1   0   5 30.1851 0.67180   1
   0   0   5 4.13150 0.28775  -2
   0   0   5 4.13150 0.28775   1
   1   0   5 38.7115 1.83444   1
  -2   0   4 216.318 5.14021  -2
   2   0   5 216.318 5.14021   1
   3   0   5 12.9155 1.47609   1
  -4   0   3 155.959 2.28749  -2
   4   0   5 155.959 2.28749   1
   5   0   5 41.6617 0.95223   1
  -6   0   2 20.9439 1.08836  -2
   6   0   5 20.9439 1.08836   1
   7   0   5 15.5491 1.27231   1
  -8   0   1 3.75173 0.63647  -2
   8   0   5 3.75173 0.63647   1
   9   0   5 7.08523 0.73686   1
  10   0   0 4.58665 1.68687  -2
  10   0   5 4.58665 1.68687   1
   8  -1   9 108.209 4.56126  -2
  -8   1   5 108.209 4.56126   1
  -7   1   5 36.4880 2.71752   1
   6  -1   8 43.0359 3.01385  -2
  -6   1   5 43.0359 3.01385   1
  -5   1   5 48.2616 2.06971   1
   4  -1   7 119.547 2.38636  -2
  -4   1   5 119.547 2.38636   1
  -3   1   5 224.046 2.46264   1
   2  -1   6 178.723 1.78301  -2
  -2   1   5 178.723 1.78301   1
  -1   1   5 484.675 4.37378   1
   0  -1   5 583.168 4.94927  -2
   0   1   5 583.168 4.94927   1
   1   1   5 55.7641 1.39186   1
  -2  -1   4 427.396 8.92026  -2
   2   1   5 427.396 8.92026   1
   3   1   5 179.710 4.81145   1
  -4  -1   3 204.984 2.45007  -2
   4   1   5 204.984 2.45007   1
   5   1   5 267.914 3.23372   1
  -6  -1   2 219.150 3.55148  -2
   6   1   5 219.150 3.55148   1
  -7  -1   1 120.561 7.88493  -2
   7   1   5 120.561 7.88493   1
  -8  -1   1 51.5882 1.45934  -2
   8   1   5 51.5882 1.45934   1
   9   1   5 4.06138 0.66511   1
  10   1   0 44.9571 1.66970  -2
  10   1   5 44.9571 1.66970   1
   8  -2   9 81.5798 5.80379  -2
  -8   2   5 81.5798 5.80379   1
   7  -2   8 103.723 4.95300  -2
  -7   2   5 103.723 4.95300   1
   6  -2   8 4.10500 2.60384  -2
  -6   2   5 4.10500 2.60384   1
   5  -2   7 104.176 6.31455  -2
  -5   2   5 104.176 6.31455   1
   4  -2   7 67.7506 2.03227  -2
  -4   2   5 67.7506 2.03227   1
  -3   2   5 29.4319 1.20300   1
   2  -2   6 123.974 1.62045  -2
  -2   2   5 123.974 1.62045   1
   1  -2   5 99.4642 5.51454  -2
  -1   2   5 99.4642 5.51454   1
   0  -2   5 32.7054 0.89850  -2
   0   2   5 32.7054 0.89850   1
  -1  -2   4 215.251 7.53596  -2
   1   2   5 215.251 7.53596   1
  -2  -2   4 536.460 5.81853  -2
   2   2   5 536.460 5.81853   1
  -3  -2   3 1.56779 2.76529  -2
   3   2   5 1.56779 2.76529   1
  -4  -2   3 77.5471 1.40884  -2
   4   2   5 77.5471 1.40884   1
  -5  -2   2 -2.1119 4.22237  -2
   5   2   5 -2.1119 4.22237   1
  -6  -2   2 13.0451 1.47665  -2
   6   2   5 13.0451 1.47665   1
  -7  -2   1 20.5239 6.18398  -2
   7   2   5 20.5239 6.18398   1
  -8  -2   1 36.3675 1.26566  -2
   8   2   5 36.3675 1.26566   1
   9   2   5 32.6752 1.32740   1
  10   2   0 42.4211 1.77855  -2
  10   2   5 42.4211 1.77855   1
   8  -3   9 32.4995 5.18998  -2
  -8   3   5 32.4995 5.18998   1
   7  -3   8 34.4997 3.95970  -2
  -7   3   5 34.4997 3.95970   1
   6  -3   8 81.9065 4.04299  -2
  -6   3   5 81.9065 4.04299   1
   5  -3   7 8.40456 1.92509  -2
  -5   3   5 8.40456 1.92509   1
   4  -3   7 92.6104 2.43678  -2
  -4   3   5 92.6104 2.43678   1
   3  -3   6 122.386 3.16175  -2
  -3   3   5 122.386 3.16175   1
   2  -3   6 434.997 6.31401  -2
  -2   3   5 434.997 6.31401   1
   1  -3   5 514.378 7.09666  -2
  -1   3   5 514.378 7.09666   1
   0  -3   5 413.834 4.78322  -2
   0   3   5 413.834 4.78322   1
  -1  -3   4 269.493 6.84561  -2
   1   3   5 269.493 6.84561   1
  -2  -3   4 150.264 1.87980  -2
   2   3   5 150.264 1.87980   1
   3   3   5 107.242 1.96001   1
  -4  -3   3 996.361 16.6475  -2
   4   3   5 996.361 16.6475   1
  -5  -3   2 116.068 3.22644  -2
   5   3   5 116.068 3.22644   1
  -6  -3   2 164.755 3.72526  -2
   6   3   5 164.755 3.72526   1
  -7  -3   1 13.5432 4.12065  -2
   7   3   5 13.5432 4.12065   1
  -8  -3   1 119.421 2.61342  -2
   8   3   5 119.421 2.61342   1
   9   3   0 205.598 4.62589  -2
   9   3   5 205.598 4.62589   1
  10   3   0 10.0418 2.12022  -2
  10   3   5 10.0418 2.12022   1
  11   3   1 27.2864 5.50950  -2
  11   3   5 27.2864 5.50950   1
   7  -4   8 30.2872 5.08626  -2
  -7   4   5 30.2872 5.08626   1
   6  -4   8 5.96269 3.47340  -2
  -6   4   5 5.96269 3.47340   1
   5  -4   7 -0.0033 2.84801  -2
  -5   4   5 -0.0033 2.84801   1
   4  -4   7 27.2230 3.09299  -2
  -4   4   5 27.2230 3.09299   1
   3  -4   6 161.134 3.77805  -2
  -3   4   5 161.134 3.77805   1
   2  -4   6 15.1373 1.73390  -2
  -2   4   5 15.1373 1.73390   1
   1  -4   5 154.864 2.40724  -2
  -1   4   5 154.864 2.40724   1
   0  -4   5 44.2823 4.65748  -2
   0   4   5 44.2823 4.65748   1
  -1  -4   4 308.399 3.77548  -2
   1   4   5 308.399 3.77548   1
  -2  -4   4 114.724 3.00760  -2
   2   4   5 114.724 3.00760   1
  -3  -4   3 57.2931 1.44885  -2
   3   4   5 57.2931 1.44885   1
  -4  -4   3 347.176 6.67393  -2
   4   4   5 347.176 6.67393   1
  -5  -4   2 126.202 2.44807  -2
   5   4   5 126.202 2.44807   1
  -6  -4   2 286.300 5.46104  -2
   6   4   5 286.300 5.46104   1
  -7  -4   1 42.0260 1.75138  -2
   7   4   5 42.0260 1.75138   1
  -8  -4   1 55.9717 7.31386  -2
   8   4   5 55.9717 7.31386   1
   9   4   0 97.4197 2.51019  -2
   9   4   5 97.4197 2.51019   1
  10   4   0 18.4894 4.64399  -2
  10   4   5 18.4894 4.64399   1
  11   4   1 49.4200 2.33352  -2
  11   4   5 49.4200 2.33352   1
   7  -5   8 3.91196 4.33558  -2
  -7   5   5 3.91196 4.33558   1
   6  -5   8 33.0150 6.64486  -2
  -6   5   5 33.0150 6.64486   1
   5  -5   7 49.5974 3.45083  -2
  -5   5   5 49.5974 3.45083   1
   4  -5   7 41.3136 5.69389  -2
  -4   5   5 41.3136 5.69389   1
   3  -5   6 188.306 4.13742  -2
  -3   5   5 188.306 4.13742   1
  -2   5   5 51.5094 2.77731   1
   1  -5   5 39.5933 2.59402  -2
  -1   5   5 39.5933 2.59402   1
   0  -5   5 383.838 14.4472  -2
   0   5   5 383.838 14.4472   1
  -1  -5   4 145.074 2.67180  -2
   1   5   5 145.074 2.67180   1
  -2  -5   4 167.853 7.96438  -2
   2   5   5 167.853 7.96438   1
  -3  -5   3 403.197 4.03329  -2
   3   5   5 403.197 4.03329   1
  -4  -5   3 75.1159 2.93429  -2
   4   5   5 75.1159 2.93429   1
  -5  -5   2 17.1236 0.98476  -2
   5   5   5 17.1236 0.98476   1
  -6  -5   2 62.8673 3.33121  -2
   6   5   5 62.8673 3.33121   1
  -7  -5   1 30.1623 1.32354  -2
   7   5   5 30.1623 1.32354   1
   8   5   5 205.208 3.36918   1
   9   5   0 68.6272 2.19737  -2
   9   5   5 68.6272 2.19737   1
  10   5   5 4.96294 0.93928   1
  11   5   1 33.7491 2.02884  -2
  11   5   5 33.7491 2.02884   1
  -6   6   5 77.6784 5.20346   1
   5  -6   7 45.9826 3.31522  -2
  -5   6   5 45.9826 3.31522   1
  -4   6   5 185.792 5.25440   1
   3  -6   6 99.5026 3.74550  -2
  -3   6   5 99.5026 3.74550   1
  -2   6   5 5.94168 1.53743   1
   1  -6   5 40.4954 3.93465  -2
  -1   6   5 40.4954 3.93465   1
   0   6   5 163.331 4.53218   1
  -1  -6   4 428.928 11.9993  -2
   1   6   5 428.928 11.9993   1
  -2  -6   4 8.50657 5.10435  -2
   2   6   5 8.50657 5.10435   1
  -3  -6   3 371.903 5.16757  -2
   3   6   5 371.903 5.16757   1
  -4  -6   3 37.7875 2.66521  -2
   4   6   5 37.7875 2.66521   1
  -5  -6   2 132.174 2.09014  -2
   5   6   5 132.174 2.09014   1
   6   6   5 97.8869 1.74259   1
  -7  -6   1 55.0906 1.73245  -2
   7   6   5 55.0906 1.73245   1
   8   6   5 1.47165 0.76804   1
   9   6   0 10.2134 1.46521  -2
   9   6   5 10.2134 1.46521   1
  10   6   5 19.5850 1.35119   1
  11   6   1 147.027 7.12847  -2
  11   6   5 147.027 7.12847   1
   5  -7   7 11.4279 2.22011  -2
  -5   7   5 11.4279 2.22011   1
  -4   7   5 -0.3743 1.49485   1
   3  -7   6 77.9131 3.53787  -2
  -3   7   5 77.9131 3.53787   1
  -2   7   5 17.9302 3.06556   1
   1  -7   5 74.8787 4.89615  -2
  -1   7   5 74.8787 4.89615   1
   0   7   5 18.5970 2.66163   1
  -1  -7   4 58.3183 3.73443  -2
   1   7   5 58.3183 3.73443   1
   4   7   5 6.64225 1.31019   1
  -5  -7   2 132.594 2.91085  -2
   5   7   5 132.594 2.91085   1
   6   7   5 4.26566 0.76078   1
  -7  -7   1 74.8996 1.91708  -2
   7   7   5 74.8996 1.91708   1
   8   7   5 76.9010 2.68425   1
   9   7   0 30.8755 3.46039  -2
   9   7   5 30.8755 3.46039   1
  10   7   5 29.9975 3.42003   1
  11   7   1 12.3516 3.71114  -2
  11   7   5 12.3516 3.71114   1
  -4   8   5 19.8688 2.35055   1
   3  -8   6 100.185 4.35671  -2
  -3   8   5 100.185 4.35671   1
  -2   8   5 24.4417 3.66629   1
   1  -8   5 89.5631 6.07531  -2
  -1   8   5 89.5631 6.07531   1
   0   8   5 116.108 5.91135   1
  -1  -8   4 31.7773 4.00384  -2
   1   8   5 31.7773 4.00384   1
   2   8   5 9.22109 2.18570   1
   8   8   5 12.2339 2.17319   1
   9   8   0 146.022 6.14265  -2
   9   8   5 146.022 6.14265   1
  10   8   5 0.97611 1.99087   1
  11   8   1 52.7107 5.15320  -2
  11   8   5 52.7107 5.15320   1
  -4   9   5 -3.0567 1.98822   1
   3  -9   6 2.41341 3.24631  -2
  -3   9   5 2.41341 3.24631   1
   2  -9   5 31.5721 6.44334  -2
  -2   9   5 31.5721 6.44334   1
   1  -9   5 6.65480 4.89752  -2
  -1   9   5 6.65480 4.89752   1
   0  -9   4 20.1411 5.63339  -2
   0   9   5 20.1411 5.63339   1
  -1  -9   4 40.4125 4.92560  -2
   1   9   5 40.4125 4.92560   1
   2   9   5 14.5292 2.72566   1
  -3  10   5 45.1211 4.67036   1
   2 -10   5 67.4963 7.34994  -2
  -2  10   5 67.4963 7.34994   1
   1 -10   5 4.23713 5.87420  -2
  -1  10   5 4.23713 5.87420   1
   0 -10   4 87.1849 7.21359  -2
   0  10   5 87.1849 7.21359   1
  -1 -10   4 359.949 12.8745  -2
   1  10   5 359.949 12.8745   1
   1 -11   5 71.0084 7.99894  -2
  -1  11   5 71.0084 7.99894   1
   0 -11   4 8.61769 5.33989  -2
   0  11   5 8.61769 5.33989   1
  -1 -11   4 11.5622 6.13231  -2
   1  11   5 11.5622 6.13231   1
  -2 -11   3 38.3142 5.72771  -2
   2  11   5 38.3142 5.72771   1
   0 -12   4 174.898 9.43683  -2
   0  12   5 174.898 9.43683   1
  -1 -12   4 37.0618 7.30061  -2
   1  12   5 37.0618 7.30061   1
  -2 -12   3 6.52194 5.18105  -2
   2  12   5 6.52194 5.18105   1
   3  12   5 14.6864 3.44204   1
  -2 -13   3 104.274 7.75912  -2
   2  13   5 104.274 7.75912   1
   3  13   5 47.4456 5.75687   1
   4  12   9 7.48704 5.13884  -2
  -4 -12   6 7.48704 5.13884   1
   3  12   8 45.2740 7.36688  -2
  -3 -12   6 45.2740 7.36688   1
   2  12   8 54.7333 5.64889  -2
  -2 -12   6 54.7333 5.64889   1
   6  11  10 41.3757 6.72106  -2
  -6 -11   6 41.3757 6.72106   1
   5  11   9 3.09156 6.11448  -2
  -5 -11   6 3.09156 6.11448   1
   4  11   9 22.6236 5.57493  -2
  -4 -11   6 22.6236 5.57493   1
   3  11   8 13.2627 5.58311  -2
  -3 -11   6 13.2627 5.58311   1
   2  11   8 162.985 7.91271  -2
  -2 -11   6 162.985 7.91271   1
   1  11   7 26.0924 5.82195  -2
  -1 -11   6 26.0924 5.82195   1
   0  11   7 9.79035 2.17432  -2
   0 -11   6 9.79035 2.17432   1
  -1  11   6 46.0236 6.10719  -2
   1 -11   6 46.0236 6.10719   1
   7  10  10 12.0057 6.35673  -2
  -7 -10   6 12.0057 6.35673   1
   6  10  10 38.3328 6.72413  -2
  -6 -10   6 38.3328 6.72413   1
   5  10   9 46.3953 6.39587  -2
  -5 -10   6 46.3953 6.39587   1
   4  10   9 13.6344 5.22720  -2
  -4 -10   6 13.6344 5.22720   1
   3  10   8 10.1571 4.84162  -2
  -3 -10   6 10.1571 4.84162   1
   2  10   8 46.5188 5.28858  -2
  -2 -10   6 46.5188 5.28858   1
   1  10   7 50.2196 2.76711  -2
  -1 -10   6 50.2196 2.76711   1
   0  10   7 8.23841 3.52624  -2
   0 -10   6 8.23841 3.52624   1
  -1  10   6 77.2308 2.82038  -2
   1 -10   6 77.2308 2.82038   1
  -2  10   6 51.4822 5.65362  -2
   2 -10   6 51.4822 5.65362   1
   8   9  11 1.45946 6.15013  -2
  -8  -9   6 1.45946 6.15013   1
   7   9  10 34.8717 6.19275  -2
  -7  -9   6 34.8717 6.19275   1
   6   9  10 29.1615 6.69387  -2
  -6  -9   6 29.1615 6.69387   1
   5   9   9 215.360 9.24451  -2
  -5  -9   6 215.360 9.24451   1
   4   9   9 15.3319 5.28777  -2
  -4  -9   6 15.3319 5.28777   1
   3   9   8 58.3485 5.09343  -2
  -3  -9   6 58.3485 5.09343   1
   2   9   8 9.68007 4.38105  -2
  -2  -9   6 9.68007 4.38105   1
   1   9   7 36.7262 2.32769  -2
  -1  -9   6 36.7262 2.32769   1
   0   9   7 149.094 5.45712  -2
   0  -9   6 149.094 5.45712   1
  -1   9   6 14.6719 1.63466  -2
   1  -9   6 14.6719 1.63466   1
  -2   9   6 24.0260 5.00324  -2
   2  -9   6 24.0260 5.00324   1
  -3   9   5 0.97046 4.47647  -2
   3  -9   6 0.97046 4.47647   1
  -4   9   5 7.67939 5.44537  -2
   4  -9   6 7.67939 5.44537   1
   8   8  11 53.7558 7.52588  -2
  -8  -8   6 53.7558 7.52588   1
   7   8  10 38.1431 2.49243  -2
  -7  -8   6 38.1431 2.49243   1
   6   8  10 11.4372 5.74516  -2
  -6  -8   6 11.4372 5.74516   1
   5   8   9 149.545 7.29511  -2
  -5  -8   6 149.545 7.29511   1
  -4  -8   6 -1.4119 1.94404   1
   3   8   8 39.0950 4.15673  -2
  -3  -8   6 39.0950 4.15673   1
  -2  -8   6 38.9042 1.92349   1
   1   8   7 29.6402 1.73158  -2
  -1  -8   6 29.6402 1.73158   1
   0  -8   6 19.6922 1.15133   1
  -1   8   6 44.0905 1.65499  -2
   1  -8   6 44.0905 1.65499   1
  -2   8   6 1.58181 5.49695  -2
   2  -8   6 1.58181 5.49695   1
  -3   8   5 96.2388 4.48127  -2
   3  -8   6 96.2388 4.48127   1
   4  -8   6 20.4371 3.16494   1
  -5   8   4 27.5104 4.64221  -2
   5  -8   6 27.5104 4.64221   1
   9   7  11 49.2308 2.86606  -2
  -9  -7   6 49.2308 2.86606   1
  -8  -7   6 10.4738 1.59732   1
   7   7  10 21.6488 2.11346  -2
  -7  -7   6 21.6488 2.11346   1
  -6  -7   6 23.2731 1.62516   1
   5   7   9 9.34027 1.86990  -2
  -5  -7   6 9.34027 1.86990   1
  -4  -7   6 20.1859 1.74854   1
   3   7   8 8.95779 2.65426  -2
  -3  -7   6 8.95779 2.65426   1
  -2  -7   6 104.261 2.12337   1
   1   7   7 90.8968 1.90111  -2
  -1  -7   6 90.8968 1.90111   1
   0  -7   6 6.27018 0.67670   1
  -1   7   6 36.4236 1.50970  -2
   1  -7   6 36.4236 1.50970   1
   2  -7   6 12.9195 1.15205   1
  -3   7   5 89.7212 2.46380  -2
   3  -7   6 89.7212 2.46380   1
   4  -7   6 3.76725 1.72736   1
  -5   7   4 24.9636 3.08862  -2
   5  -7   6 24.9636 3.08862   1
   6  -7   6 19.7442 3.19297   1
   9   6  11 109.209 3.70259  -2
  -9  -6   6 109.209 3.70259   1
   8   6  10 83.2493 6.22705  -2
  -8  -6   6 83.2493 6.22705   1
   7   6  10 25.9654 2.13597  -2
  -7  -6   6 25.9654 2.13597   1
  -6  -6   6 31.2530 1.79996   1
   5   6   9 164.118 3.40512  -2
  -5  -6   6 164.118 3.40512   1
  -4  -6   6 23.0726 1.72110   1
   3   6   8 164.548 2.89999  -2
  -3  -6   6 164.548 2.89999   1
  -2  -6   6 3.01082 0.62564   1
   1   6   7 32.9162 1.48091  -2
  -1  -6   6 32.9162 1.48091   1
   0  -6   6 82.3267 1.99486   1
  -1   6   6 28.6995 1.34048  -2
   1  -6   6 28.6995 1.34048   1
   2  -6   6 145.120 3.15868   1
  -3   6   5 107.130 2.33269  -2
   3  -6   6 107.130 2.33269   1
   4  -6   6 1.15382 1.06260   1
  -5   6   4 35.6158 3.04320  -2
   5  -6   6 35.6158 3.04320   1
   6  -6   6 20.5814 3.00194   1
   9   5  11 36.2474 4.01055  -2
  -9  -5   6 36.2474 4.01055   1
   8   5  10 53.1477 4.24955  -2
  -8  -5   6 53.1477 4.24955   1
   7   5  10 8.26904 2.20145  -2
  -7  -5   6 8.26904 2.20145   1
   6   5   9 50.2078 3.54525  -2
  -6  -5   6 50.2078 3.54525   1
   5   5   9 156.315 3.40602  -2
  -5  -5   6 156.315 3.40602   1
   4   5   8 89.9825 4.34076  -2
  -4  -5   6 89.9825 4.34076   1
   3   5   8 105.993 2.29825  -2
  -3  -5   6 105.993 2.29825   1
   2   5   7 155.580 7.68515  -2
  -2  -5   6 155.580 7.68515   1
   1   5   7 177.668 2.63128  -2
  -1  -5   6 177.668 2.63128   1
   0   5   6 172.820 7.44901  -2
   0  -5   6 172.820 7.44901   1
  -1   5   6 10.3219 1.16481  -2
   1  -5   6 10.3219 1.16481   1
  -2   5   5 340.317 9.54193  -2
   2  -5   6 340.317 9.54193   1
  -3   5   5 226.770 3.45906  -2
   3  -5   6 226.770 3.45906   1
  -4   5   4 52.8615 2.62201  -2
   4  -5   6 52.8615 2.62201   1
  -5   5   4 16.2584 2.01469  -2
   5  -5   6 16.2584 2.01469   1
  -6   5   3 4.76606 3.61168  -2
   6  -5   6 4.76606 3.61168   1
  -7   5   3 24.8773 4.33267  -2
   7  -5   6 24.8773 4.33267   1
   9   4  11 118.377 5.32070  -2
  -9  -4   6 118.377 5.32070   1
   8   4  10 44.3063 4.16073  -2
  -8  -4   6 44.3063 4.16073   1
   7   4  10 4.28603 3.09032  -2
  -7  -4   6 4.28603 3.09032   1
   6   4   9 11.8460 2.95961  -2
  -6  -4   6 11.8460 2.95961   1
   5   4   9 93.3728 2.81442  -2
  -5  -4   6 93.3728 2.81442   1
   4   4   8 164.928 4.30992  -2
  -4  -4   6 164.928 4.30992   1
   3   4   8 17.7925 1.19876  -2
  -3  -4   6 17.7925 1.19876   1
   2   4   7 3.83030 2.17345  -2
  -2  -4   6 3.83030 2.17345   1
   1   4   7 70.1062 1.55572  -2
  -1  -4   6 70.1062 1.55572   1
   0   4   6 94.2957 1.99398  -2
   0  -4   6 94.2957 1.99398   1
  -1   4   6 570.939 5.45465  -2
   1  -4   6 570.939 5.45465   1
  -2   4   5 16.6192 1.69612  -2
   2  -4   6 16.6192 1.69612   1
  -3   4   5 118.721 2.61425  -2
   3  -4   6 118.721 2.61425   1
  -4   4   4 22.2993 1.76222  -2
   4  -4   6 22.2993 1.76222   1
  -5   4   4 28.5092 1.92091  -2
   5  -4   6 28.5092 1.92091   1
  -6   4   3 191.014 4.37558  -2
   6  -4   6 191.014 4.37558   1
  -7   4   3 57.1793 4.00266  -2
   7  -4   6 57.1793 4.00266   1
  -8   4   2 18.2139 5.31179  -2
   8  -4   6 18.2139 5.31179   1
   9   3  11 1.28686 4.12923  -2
  -9  -3   6 1.28686 4.12923   1
   8   3  10 46.5662 4.06966  -2
  -8  -3   6 46.5662 4.06966   1
   7   3  10 2.02163 3.16741  -2
  -7  -3   6 2.02163 3.16741   1
   6   3   9 120.767 4.32959  -2
  -6  -3   6 120.767 4.32959   1
   5   3   9 187.510 3.85203  -2
  -5  -3   6 187.510 3.85203   1
   4   3   8 69.2374 2.26599  -2
  -4  -3   6 69.2374 2.26599   1
   3   3   8 8.32002 2.38059  -2
  -3  -3   6 8.32002 2.38059   1
   2   3   7 106.804 1.79163  -2
  -2  -3   6 106.804 1.79163   1
   1   3   7 532.828 5.93295  -2
  -1  -3   6 532.828 5.93295   1
   0   3   6 353.140 3.36950  -2
   0  -3   6 353.140 3.36950   1
  -1   3   6 374.324 7.01593  -2
   1  -3   6 374.324 7.01593   1
  -2   3   5 426.147 4.35227  -2
   2  -3   6 426.147 4.35227   1
  -3   3   5 95.4353 3.47165  -2
   3  -3   6 95.4353 3.47165   1
  -4   3   4 34.7398 1.67053  -2
   4  -3   6 34.7398 1.67053   1
  -5   3   4 47.8090 2.15116  -2
   5  -3   6 47.8090 2.15116   1
  -6   3   3 93.4592 2.38550  -2
   6  -3   6 93.4592 2.38550   1
  -7   3   3 105.263 3.63797  -2
   7  -3   6 105.263 3.63797   1
  -8   3   2 61.0374 3.29027  -2
   8  -3   6 61.0374 3.29027   1
   9   2  11 -1.4214 6.71059  -2
  -9  -2   6 -1.4214 6.71059   1
   8   2  10 62.2492 4.05953  -2
  -8  -2   6 62.2492 4.05953   1
   7   2  10 104.784 7.54710  -2
  -7  -2   6 104.784 7.54710   1
   6   2   9 61.7067 3.32130  -2
  -6  -2   6 61.7067 3.32130   1
   5   2   9 254.189 9.37857  -2
  -5  -2   6 254.189 9.37857   1
   4   2   8 39.4772 1.85876  -2
  -4  -2   6 39.4772 1.85876   1
   3   2   8 127.675 3.75614  -2
  -3  -2   6 127.675 3.75614   1
   2   2   7 57.9940 1.29409  -2
  -2  -2   6 57.9940 1.29409   1
   1   2   7 67.8690 4.11966  -2
  -1  -2   6 67.8690 4.11966   1
   0   2   6 236.275 2.44225  -2
   0  -2   6 236.275 2.44225   1
  -1   2   6 18.5922 3.67884  -2
   1  -2   6 18.5922 3.67884   1
  -2   2   5 100.573 1.32941  -2
   2  -2   6 100.573 1.32941   1
   3  -2   6 181.768 2.50669   1
  -4   2   4 42.6858 1.23464  -2
   4  -2   6 42.6858 1.23464   1
   5  -2   6 75.0134 1.56623   1
  -6   2   3 47.2599 1.71317  -2
   6  -2   6 47.2599 1.71317   1
  -7   2   3 49.8820 3.63972  -2
   7  -2   6 49.8820 3.63972   1
  -8   2   2 122.903 3.80400  -2
   8  -2   6 122.903 3.80400   1
  -9   2   2 23.6542 5.08453  -2
   9  -2   6 23.6542 5.08453   1
  -9  -1   6 39.0294 2.54253   1
   8   1  10 3.09168 2.59293  -2
  -8  -1   6 3.09168 2.59293   1
   7   1  10 202.333 9.47522  -2
  -7  -1   6 202.333 9.47522   1
   6   1   9 51.8361 2.86770  -2
  -6  -1   6 51.8361 2.86770   1
   5   1   9 180.733 7.97160  -2
  -5  -1   6 180.733 7.97160   1
   4   1   8 178.666 3.36359  -2
  -4  -1   6 178.666 3.36359   1
  -3  -1   6 49.4289 1.09389   1
   2   1   7 562.325 4.73301  -2
  -2  -1   6 562.325 4.73301   1
  -1  -1   6 277.576 2.51470   1
   0   1   6 75.1366 1.07786  -2
   0  -1   6 75.1366 1.07786   1
   1  -1   6 3.09215 0.96381   1
  -2   1   5 160.519 3.44203  -2
   2  -1   6 160.519 3.44203   1
   3  -1   6 245.794 6.02603   1
  -4   1   4 90.2258 1.43445  -2
   4  -1   6 90.2258 1.43445   1
   5  -1   6 0.91127 0.44462   1
  -6   1   3 61.8620 1.63554  -2
   6  -1   6 61.8620 1.63554   1
  -7   1   2 34.4276 3.83467  -2
   7  -1   6 34.4276 3.83467   1
  -8   1   2 3.77256 1.93070  -2
   8  -1   6 3.77256 1.93070   1
   9  -1   6 0.39301 1.41279   1
   8   0  10 52.3263 2.72342  -2
  -8   0   6 52.3263 2.72342   1
  -7   0   6 0.53190 1.12415   1
   6   0   9 54.0010 2.25272  -2
  -6   0   6 54.0010 2.25272   1
  -5   0   6 118.365 2.89307   1
   4   0   8 129.288 2.74379  -2
  -4   0   6 129.288 2.74379   1
  -3   0   6 22.6737 0.85620   1
   2   0   7 150.538 1.67333  -2
  -2   0   6 150.538 1.67333   1
  -1   0   6 230.411 1.99665   1
   0   0   6 387.827 3.52459  -2
   0   0   6 387.827 3.52459   1
   1   0   6 91.7458 2.98993   1
  -2   0   5 197.999 5.01405  -2
   2   0   6 197.999 5.01405   1
   3   0   6 24.7585 1.35019   1
  -4   0   4 78.3532 1.36167  -2
   4   0   6 78.3532 1.36167   1
   5   0   6 -0.0086 0.35520   1
  -6   0   3 114.277 2.25691  -2
   6   0   6 114.277 2.25691   1
   7   0   6 77.7776 2.10179   1
  -8   0   2 126.277 2.91104  -2
   8   0   6 126.277 2.91104   1
   9   0   6 18.5802 3.06004   1
 -10   0   1 70.7944 5.30209  -2
  10   0   6 70.7944 5.30209   1
   8  -1  10 85.3204 3.30799  -2
  -8   1   6 85.3204 3.30799   1
  -7   1   6 0.10810 1.16808   1
   6  -1   9 59.4860 2.53426  -2
  -6   1   6 59.4860 2.53426   1
  -5   1   6 22.3996 1.50116   1
   4  -1   8 17.7890 1.59011  -2
  -4   1   6 17.7890 1.59011   1
  -3   1   6 1.08512 0.46708   1
   2  -1   7 140.603 1.66826  -2
  -2   1   6 140.603 1.66826   1
  -1   1   6 234.913 2.20244   1
   0  -1   6 66.2054 1.04472  -2
   0   1   6 66.2054 1.04472   1
   1   1   6 67.5378 0.93904   1
  -2  -1   5 2.49016 1.49447  -2
   2   1   6 2.49016 1.49447   1
   3   1   6 40.7622 1.56575   1
  -4  -1   4 345.664 4.33864  -2
   4   1   6 345.664 4.33864   1
   5   1   6 0.57728 0.40957   1
  -6  -1   3 379.303 5.27249  -2
   6   1   6 379.303 5.27249   1
  -7  -1   2 10.3868 4.87499  -2
   7   1   6 10.3868 4.87499   1
  -8  -1   2 95.0965 2.93136  -2
   8   1   6 95.0965 2.93136   1
  -9  -1   1 115.957 8.92002  -2
   9   1   6 115.957 8.92002   1
 -10  -1   1 39.9108 4.85635  -2
  10   1   6 39.9108 4.85635   1
   8  -2  10 41.6459 4.06135  -2
  -8   2   6 41.6459 4.06135   1
   7  -2   9 64.2164 4.58794  -2
  -7   2   6 64.2164 4.58794   1
   6  -2   9 11.7266 2.20591  -2
  -6   2   6 11.7266 2.20591   1
  -5   2   6 54.7920 2.10778   1
   4  -2   8 191.053 3.77450  -2
  -4   2   6 191.053 3.77450   1
   3  -2   7 3.26438 3.35920  -2
  -3   2   6 3.26438 3.35920   1
   2  -2   7 223.008 2.65624  -2
  -2   2   6 223.008 2.65624   1
  -1   2   6 20.2798 0.73525   1
   0  -2   6 273.185 2.64359  -2
   0   2   6 273.185 2.64359   1
  -1  -2   5 321.311 10.4816  -2
   1   2   6 321.311 10.4816   1
  -2  -2   5 11.5016 0.55536  -2
   2   2   6 11.5016 0.55536   1
   3   2   6 2.62897 0.27321   1
  -4  -2   4 117.449 1.89737  -2
   4   2   6 117.449 1.89737   1
   5   2   6 6.86672 0.53450   1
  -6  -2   3 132.095 2.82238  -2
   6   2   6 132.095 2.82238   1
  -7  -2   2 15.9079 2.18520  -2
   7   2   6 15.9079 2.18520   1
   7   2   7 15.9079 2.18520   1
  -8  -2   2 8.45085 1.95172  -2
   8   2   6 8.45085 1.95172   1
  -9  -2   1 16.6315 6.82432  -2
   9   2   6 16.6315 6.82432   1
 -10  -2   1 20.0084 4.71269  -2
  10   2   6 20.0084 4.71269   1
   7  -3   9 38.4074 4.22399  -2
  -7   3   6 38.4074 4.22399   1
   6  -3   9 16.1340 3.41391  -2
  -6   3   6 16.1340 3.41391   1
   5  -3   8 17.0186 2.27265  -2
  -5   3   6 17.0186 2.27265   1
   4  -3   8 45.8180 2.32442  -2
  -4   3   6 45.8180 2.32442   1
   3  -3   7 2.56365 2.31626  -2
  -3   3   6 2.56365 2.31626   1
   2  -3   7 666.552 10.8245  -2
  -2   3   6 666.552 10.8245   1
   1  -3   6 386.341 6.22452  -2
  -1   3   6 386.341 6.22452   1
   0  -3   6 285.638 3.62608  -2
   0   3   6 285.638 3.62608   1
  -1  -3   5 138.119 4.27779  -2
   1   3   6 138.119 4.27779   1
  -2  -3   5 86.1633 1.31042  -2
   2   3   6 86.1633 1.31042   1
  -3  -3   4 830.662 25.1798  -2
   3   3   6 830.662 25.1798   1
  -4  -3   4 257.821 9.03238  -2
   4   3   6 257.821 9.03238   1
  -5  -3   3 70.5012 2.68773  -2
   5   3   6 70.5012 2.68773   1
  -6  -3   3 84.3730 2.35523  -2
   6   3   6 84.3730 2.35523   1
  -7  -3   2 71.5732 3.12426  -2
   7   3   6 71.5732 3.12426   1
  -8  -3   2 74.0321 2.85393  -2
   8   3   6 74.0321 2.85393   1
 -10  -3   1 15.7785 4.79351  -2
  10   3   6 15.7785 4.79351   1
  11   3   0 80.2677 6.68409  -2
  11   3   6 80.2677 6.68409   1
   7  -4   9 50.9186 4.41235  -2
  -7   4   6 50.9186 4.41235   1
   6  -4   9 48.8671 4.21240  -2
  -6   4   6 48.8671 4.21240   1
   5  -4   8 72.5013 3.95932  -2
  -5   4   6 72.5013 3.95932   1
   4  -4   8 50.7610 3.65225  -2
  -4   4   6 50.7610 3.65225   1
   3  -4   7 97.7491 3.73204  -2
  -3   4   6 97.7491 3.73204   1
   2  -4   7 42.8152 2.46673  -2
  -2   4   6 42.8152 2.46673   1
   1  -4   6 696.623 8.33944  -2
  -1   4   6 696.623 8.33944   1
   0  -4   6 102.705 2.97742  -2
   0   4   6 102.705 2.97742   1
  -1  -4   5 41.7266 1.56989  -2
   1   4   6 41.7266 1.56989   1
  -2  -4   5 35.8877 1.28506  -2
   2   4   6 35.8877 1.28506   1
  -3  -4   4 10.5362 0.92544  -2
   3   4   6 10.5362 0.92544   1
   4   4   6 328.994 4.06180   1
  -5  -4   3 39.3229 1.59047  -2
   5   4   6 39.3229 1.59047   1
   6   4   6 18.7901 1.62113   1
  -7  -4   2 45.3526 2.15043  -2
   7   4   6 45.3526 2.15043   1
  -8  -4   2 7.11100 2.62115  -2
   8   4   6 7.11100 2.62115   1
  -9  -4   1 60.6618 2.22137  -2
   9   4   6 60.6618 2.22137   1
 -10  -4   1 69.2086 5.77752  -2
  10   4   6 69.2086 5.77752   1
  11   4   0 12.0576 5.21691  -2
  11   4   6 12.0576 5.21691   1
   6  -5   9 45.2584 7.43103  -2
  -6   5   6 45.2584 7.43103   1
   5  -5   8 71.6868 3.99477  -2
  -5   5   6 71.6868 3.99477   1
   4  -5   8 115.997 7.65516  -2
  -4   5   6 115.997 7.65516   1
   3  -5   7 256.861 6.07541  -2
  -3   5   6 256.861 6.07541   1
  -2   5   6 70.2980 4.43229   1
   1  -5   6 5.05141 3.19966  -2
  -1   5   6 5.05141 3.19966   1
   0  -5   6 178.679 8.86257  -2
   0   5   6 178.679 8.86257   1
  -1  -5   5 152.145 2.14701  -2
   1   5   6 152.145 2.14701   1
  -2  -5   5 46.1744 2.42677  -2
   2   5   6 46.1744 2.42677   1
  -3  -5   4 250.225 3.07310  -2
   3   5   6 250.225 3.07310   1
   4   5   6 48.0242 0.95565   1
  -5  -5   3 10.5305 0.86683  -2
   5   5   6 10.5305 0.86683   1
  -6  -5   3 130.618 4.52827  -2
   6   5   6 130.618 4.52827   1
  -7  -5   2 256.115 3.13529  -2
   7   5   6 256.115 3.13529   1
  -8  -5   2 75.4490 7.79595  -2
   8   5   6 75.4490 7.79595   1
  -9  -5   1 118.789 2.47675  -2
   9   5   6 118.789 2.47675   1
  10   5   6 34.3820 1.32502   1
  11   5   0 32.7647 2.10875  -2
  11   5   6 32.7647 2.10875   1
  -6   6   6 14.4979 2.35722   1
   5  -6   8 62.1796 3.80604  -2
  -5   6   6 62.1796 3.80604   1
  -4   6   6 154.270 4.84220   1
   3  -6   7 14.6886 2.59531  -2
  -3   6   6 14.6886 2.59531   1
  -2   6   6 100.508 5.42901   1
   1  -6   6 23.2550 3.60326  -2
  -1   6   6 23.2550 3.60326   1
   0   6   6 11.5916 2.15163   1
  -1  -6   5 412.324 7.42446  -2
   1   6   6 412.324 7.42446   1
   2   6   6 70.8004 1.40888   1
  -3  -6   4 290.729 3.60491  -2
   3   6   6 290.729 3.60491   1
  -4  -6   4 32.4408 2.52855  -2
   4   6   6 32.4408 2.52855   1
  -5  -6   3 188.830 2.38347  -2
   5   6   6 188.830 2.38347   1
   6   6   6 146.758 2.08743   1
  -7  -6   2 195.404 2.80847  -2
   7   6   6 195.404 2.80847   1
   8   6   6 42.5553 1.44281   1
  -9  -6   1 56.9717 1.85503  -2
   9   6   6 56.9717 1.85503   1
  10   6   6 11.7513 1.01139   1
  11   6   0 25.9164 1.55463  -2
  11   6   6 25.9164 1.55463   1
   5  -7   8 73.6476 3.89687  -2
  -5   7   6 73.6476 3.89687   1
  -4   7   6 47.7954 3.27374   1
   3  -7   7 34.9833 2.67057  -2
  -3   7   6 34.9833 2.67057   1
  -2   7   6 27.3786 3.53762   1
   1  -7   6 44.7202 4.22726  -2
  -1   7   6 44.7202 4.22726   1
   0   7   6 110.547 5.46138   1
  -1  -7   5 36.7606 3.36839  -2
   1   7   6 36.7606 3.36839   1
   2   7   6 24.7397 2.87630   1
  -3  -7   4 131.939 4.13271  -2
   3   7   6 131.939 4.13271   1
   4   7   6 183.341 3.38716   1
  -5  -7   3 214.598 3.14828  -2
   5   7   6 214.598 3.14828   1
   6   7   6 120.596 2.04450   1
  -7  -7   2 288.094 4.22809  -2
   7   7   6 288.094 4.22809   1
   8   7   6 33.2215 1.43847   1
  -9  -7   1 12.4608 1.13435  -2
   9   7   6 12.4608 1.13435   1
  10   7   6 2.26090 0.82171   1
  11   7   0 84.4933 2.26128  -2
  11   7   6 84.4933 2.26128   1
   4  -8   7 28.6498 7.07416  -2
  -4   8   6 28.6498 7.07416   1
   3  -8   7 12.1644 2.90788  -2
  -3   8   6 12.1644 2.90788   1
  -2   8   6 0.50774 2.33043   1
   1  -8   6 53.4765 5.12959  -2
  -1   8   6 53.4765 5.12959   1
   0   8   6 223.604 8.60053   1
  -1  -8   5 55.2024 4.68000  -2
   1   8   6 55.2024 4.68000   1
   2   8   6 80.3693 4.59757   1
   6   8   6 1.67809 0.82015   1
  -7  -8   2 105.493 2.81384  -2
   7   8   6 105.493 2.81384   1
   8   8   6 54.0527 2.04132   1
  -9  -8   1 100.558 2.56743  -2
   9   8   6 100.558 2.56743   1
  10   8   6 -0.3950 0.79589   1
  11   8   0 32.6006 1.97749  -2
  11   8   6 32.6006 1.97749   1
   3  -9   7 11.0929 3.56513  -2
  -3   9   6 11.0929 3.56513   1
   2  -9   6 28.3503 6.70784  -2
  -2   9   6 28.3503 6.70784   1
   1  -9   6 10.4192 5.11852  -2
  -1   9   6 10.4192 5.11852   1
   0   9   6 6.11396 2.59227   1
  -1  -9   5 34.6838 5.09809  -2
   1   9   6 34.6838 5.09809   1
   2   9   6 24.4251 3.15987   1
   2 -10   6 43.2755 7.14469  -2
  -2  10   6 43.2755 7.14469   1
   1 -10   6 80.7682 7.69623  -2
  -1  10   6 80.7682 7.69623   1
   0 -10   5 83.3516 6.98046  -2
   0  10   6 83.3516 6.98046   1
  -1 -10   5 59.6668 6.43008  -2
   1  10   6 59.6668 6.43008   1
  -2 -10   4 29.1221 5.71390  -2
   2  10   6 29.1221 5.71390   1
   1 -11   6 49.1134 7.66564  -2
  -1  11   6 49.1134 7.66564   1
   0 -11   5 3.60711 5.17785  -2
   0  11   6 3.60711 5.17785   1
  -1 -11   5 6.35935 5.87942  -2
   1  11   6 6.35935 5.87942   1
  -2 -11   4 221.663 10.1499  -2
   2  11   6 221.663 10.1499   1
  -1 -12   5 38.8740 7.39312  -2
   1  12   6 38.8740 7.39312   1
  -2 -12   4 91.5279 7.32699  -2
   2  12   6 91.5279 7.32699   1
   3  12   6 77.2997 6.03532   1
   3  13   6 1.87626 2.86372   1
   5  11  10 21.9293 6.82646  -2
  -5 -11   7 21.9293 6.82646   1
   4  11  10 26.0057 5.84057  -2
  -4 -11   7 26.0057 5.84057   1
   3  11   9 86.0774 7.39388  -2
  -3 -11   7 86.0774 7.39388   1
   2  11   9 183.372 8.33581  -2
  -2 -11   7 183.372 8.33581   1
   1  11   8 55.2541 6.46414  -2
  -1 -11   7 55.2541 6.46414   1
   0  11   8 24.9107 4.63460  -2
   0 -11   7 24.9107 4.63460   1
   7  10  11 76.0557 7.94434  -2
  -7 -10   7 76.0557 7.94434   1
   6  10  11 50.3823 7.13267  -2
  -6 -10   7 50.3823 7.13267   1
   5  10  10 38.5863 6.32108  -2
  -5 -10   7 38.5863 6.32108   1
   4  10  10 8.21370 5.30580  -2
  -4 -10   7 8.21370 5.30580   1
   3  10   9 40.8713 5.45843  -2
  -3 -10   7 40.8713 5.45843   1
   2  10   9 19.8145 4.99004  -2
  -2 -10   7 19.8145 4.99004   1
   1  10   8 161.111 7.51677  -2
  -1 -10   7 161.111 7.51677   1
   0  10   8 13.7053 4.66105  -2
   0 -10   7 13.7053 4.66105   1
  -1  10   7 63.2897 5.69501  -2
   1 -10   7 63.2897 5.69501   1
  -2  10   7 104.615 6.64189  -2
   2 -10   7 104.615 6.64189   1
   7   9  11 127.215 8.42742  -2
  -7  -9   7 127.215 8.42742   1
   6   9  11 136.505 9.03318  -2
  -6  -9   7 136.505 9.03318   1
   5   9  10 182.651 8.90338  -2
  -5  -9   7 182.651 8.90338   1
   4   9  10 34.5412 5.76985  -2
  -4  -9   7 34.5412 5.76985   1
   3   9   9 159.200 7.43124  -2
  -3  -9   7 159.200 7.43124   1
   2   9   9 70.0065 5.81226  -2
  -2  -9   7 70.0065 5.81226   1
   1   9   8 12.8112 3.79521  -2
  -1  -9   7 12.8112 3.79521   1
   0   9   8 22.6797 3.77456  -2
   0  -9   7 22.6797 3.77456   1
  -1   9   7 -0.1895 2.86699  -2
   1  -9   7 -0.1895 2.86699   1
  -2   9   7 85.3188 4.42274  -2
   2  -9   7 85.3188 4.42274   1
  -3   9   6 13.3590 4.38814  -2
   3  -9   7 13.3590 4.38814   1
   8   8  12 17.1503 7.00940  -2
  -8  -8   7 17.1503 7.00940   1
   7   8  11 153.673 5.18900  -2
  -7  -8   7 153.673 5.18900   1
   6   8  11 61.5258 6.81196  -2
  -6  -8   7 61.5258 6.81196   1
   5   8  10 98.2027 6.37714  -2
  -5  -8   7 98.2027 6.37714   1
   4   8  10 82.6770 6.34481  -2
  -4  -8   7 82.6770 6.34481   1
   3   8   9 19.1263 3.75448  -2
  -3  -8   7 19.1263 3.75448   1
  -2  -8   7 21.1587 2.15910   1
   1   8   8 8.17217 2.58582  -2
  -1  -8   7 8.17217 2.58582   1
   0   8   8 28.6872 4.48540  -2
   0  -8   7 28.6872 4.48540   1
  -1   8   7 121.857 3.46297  -2
   1  -8   7 121.857 3.46297   1
   2  -8   7 5.89114 1.29539   1
  -3   8   6 6.19832 2.93954  -2
   3  -8   7 6.19832 2.93954   1
  -4   8   6 15.8697 5.16621  -2
   4  -8   7 15.8697 5.16621   1
  -8  -7   7 7.75251 1.55632   1
   7   7  11 86.1206 3.00205  -2
  -7  -7   7 86.1206 3.00205   1
  -6  -7   7 77.9519 3.31642   1
   5   7  10 1.57454 1.86792  -2
  -5  -7   7 1.57454 1.86792   1
  -4  -7   7 61.4183 2.70127   1
   3   7   9 102.834 5.06008  -2
  -3  -7   7 102.834 5.06008   1
  -2  -7   7 69.2849 2.30298   1
   1   7   8 29.7808 1.51646  -2
  -1  -7   7 29.7808 1.51646   1
   0  -7   7 1.07915 0.75356   1
  -1   7   7 137.563 2.56972  -2
   1  -7   7 137.563 2.56972   1
   2  -7   7 60.7258 1.97245   1
  -3   7   6 32.0705 1.62088  -2
   3  -7   7 32.0705 1.62088   1
  -4   7   6 44.1614 6.19395  -2
   4  -7   7 44.1614 6.19395   1
  -5   7   5 16.8932 3.54324  -2
   5  -7   7 16.8932 3.54324   1
   8   6  11 71.2358 6.15277  -2
  -8  -6   7 71.2358 6.15277   1
   7   6  11 154.300 3.81412  -2
  -7  -6   7 154.300 3.81412   1
  -6  -6   7 76.2180 2.60571   1
   5   6  10 22.2151 2.36480  -2
  -5  -6   7 22.2151 2.36480   1
  -4  -6   7 12.5586 1.45705   1
   3   6   9 72.7122 2.00241  -2
  -3  -6   7 72.7122 2.00241   1
  -2  -6   7 12.4074 0.86025   1
   1   6   8 35.1195 1.29849  -2
  -1  -6   7 35.1195 1.29849   1
   0  -6   7 -0.3493 0.65300   1
  -1   6   7 10.7568 1.15255  -2
   1  -6   7 10.7568 1.15255   1
   2  -6   7 30.8417 1.43396   1
  -3   6   6 15.5545 1.36107  -2
   3  -6   7 15.5545 1.36107   1
  -4   6   5 163.846 8.60013  -2
   4  -6   7 163.846 8.60013   1
  -5   6   5 45.9379 2.26241  -2
   5  -6   7 45.9379 2.26241   1
   6  -6   7 4.24174 2.62207   1
  -9  -5   7 0.52810 1.47847   1
   8   5  11 16.1109 3.98897  -2
  -8  -5   7 16.1109 3.98897   1
   7   5  11 25.8237 2.42842  -2
  -7  -5   7 25.8237 2.42842   1
   6   5  10 9.79155 3.09537  -2
  -6  -5   7 9.79155 3.09537   1
   5   5  10 10.6417 1.83963  -2
  -5  -5   7 10.6417 1.83963   1
   4   5   9 84.9806 5.36873  -2
  -4  -5   7 84.9806 5.36873   1
   3   5   9 74.5090 2.05396  -2
  -3  -5   7 74.5090 2.05396   1
  -2  -5   7 137.880 2.29216   1
   1   5   8 56.5615 1.52783  -2
  -1  -5   7 56.5615 1.52783   1
   0   5   7 64.5991 5.41932  -2
   0  -5   7 64.5991 5.41932   1
  -1   5   7 113.550 1.87474  -2
   1  -5   7 113.550 1.87474   1
  -2   5   6 291.421 5.46492  -2
   2  -5   7 291.421 5.46492   1
  -3   5   6 277.679 4.26943  -2
   3  -5   7 277.679 4.26943   1
  -4   5   5 15.9974 4.64690  -2
   4  -5   7 15.9974 4.64690   1
  -5   5   5 37.1309 2.03123  -2
   5  -5   7 37.1309 2.03123   1
  -6   5   4 10.5285 3.33397  -2
   6  -5   7 10.5285 3.33397   1
  -7   5   4 38.2810 4.39412  -2
   7  -5   7 38.2810 4.39412   1
  -9  -4   7 114.063 3.79090   1
   8   4  11 47.9679 3.35947  -2
  -8  -4   7 47.9679 3.35947   1
   7   4  11 23.7340 2.67712  -2
  -7  -4   7 23.7340 2.67712   1
   6   4  10 36.5063 3.32510  -2
  -6  -4   7 36.5063 3.32510   1
   5   4  10 112.108 3.11824  -2
  -5  -4   7 112.108 3.11824   1
   4   4   9 314.312 6.51343  -2
  -4  -4   7 314.312 6.51343   1
   3   4   9 26.0310 1.52111  -2
  -3  -4   7 26.0310 1.52111   1
   2   4   8 79.0606 3.27728  -2
  -2  -4   7 79.0606 3.27728   1
   1   4   8 143.588 2.18167  -2
  -1  -4   7 143.588 2.18167   1
   0   4   7 91.3167 1.97752  -2
   0  -4   7 91.3167 1.97752   1
  -1   4   7 487.680 5.04779  -2
   1  -4   7 487.680 5.04779   1
  -2   4   6 51.6030 2.00499  -2
   2  -4   7 51.6030 2.00499   1
  -3   4   6 106.753 2.74710  -2
   3  -4   7 106.753 2.74710   1
  -4   4   5 28.5498 2.07434  -2
   4  -4   7 28.5498 2.07434   1
  -5   4   5 1.40628 1.74876  -2
   5  -4   7 1.40628 1.74876   1
  -6   4   4 115.235 3.32879  -2
   6  -4   7 115.235 3.32879   1
  -7   4   4 52.6547 4.72909  -2
   7  -4   7 52.6547 4.72909   1
  -8   4   3 40.9802 5.53449  -2
   8  -4   7 40.9802 5.53449   1
  -9  -3   7 83.6333 3.95888   1
   8   3  11 18.4603 2.93473  -2
  -8  -3   7 18.4603 2.93473   1
   7   3  11 4.57932 2.50440  -2
  -7  -3   7 4.57932 2.50440   1
   6   3  10 70.9862 2.91382  -2
  -6  -3   7 70.9862 2.91382   1
   5   3  10 23.7528 2.20334  -2
  -5  -3   7 23.7528 2.20334   1
   4   3   9 206.849 3.90761  -2
  -4  -3   7 206.849 3.90761   1
   3   3   9 122.735 3.11689  -2
  -3  -3   7 122.735 3.11689   1
   2   3   8 1.95220 0.98492  -2
  -2  -3   7 1.95220 0.98492   1
   1   3   8 289.942 3.38482  -2
  -1  -3   7 289.942 3.38482   1
   0   3   7 48.1994 1.09056  -2
   0  -3   7 48.1994 1.09056   1
  -1   3   7 744.786 9.74184  -2
   1  -3   7 744.786 9.74184   1
  -2   3   6 724.887 7.01623  -2
   2  -3   7 724.887 7.01623   1
  -3   3   6 -1.1780 1.50466  -2
   3  -3   7 -1.1780 1.50466   1
  -4   3   5 67.2591 3.14155  -2
   4  -3   7 67.2591 3.14155   1
  -5   3   5 9.59375 1.83449  -2
   5  -3   7 9.59375 1.83449   1
  -6   3   4 166.350 3.61130  -2
   6  -3   7 166.350 3.61130   1
  -7   3   4 60.1679 2.79875  -2
   7  -3   7 60.1679 2.79875   1
  -8   3   3 13.3507 4.30003  -2
   8  -3   7 13.3507 4.30003   1
   8   2  11 -0.0405 2.51160  -2
  -8  -2   7 -0.0405 2.51160   1
   7   2  11 111.771 7.89077  -2
  -7  -2   7 111.771 7.89077   1
   6   2  10 134.761 3.54204  -2
  -6  -2   7 134.761 3.54204   1
   5   2  10 362.333 11.7317  -2
  -5  -2   7 362.333 11.7317   1
   4   2   9 9.02471 1.29146  -2
  -4  -2   7 9.02471 1.29146   1
   3   2   9 76.1960 3.17153  -2
  -3  -2   7 76.1960 3.17153   1
   2   2   8 185.928 2.26348  -2
  -2  -2   7 185.928 2.26348   1
   1   2   8 41.7321 3.60988  -2
  -1  -2   7 41.7321 3.60988   1
   0   2   7 104.362 1.47414  -2
   0  -2   7 104.362 1.47414   1
  -1   2   7 130.867 6.10331  -2
   1  -2   7 130.867 6.10331   1
  -2   2   6 234.895 6.02977  -2
   2  -2   7 234.895 6.02977   1
   3  -2   7 0.47293 0.34857   1
  -4   2   5 57.8150 1.33556  -2
   4  -2   7 57.8150 1.33556   1
   5  -2   7 92.2707 2.00334   1
  -6   2   4 29.8821 1.56926  -2
   6  -2   7 29.8821 1.56926   1
  -7   2   4 87.2983 4.71344  -2
   7  -2   7 87.2983 4.71344   1
  -8   2   3 4.53820 1.97690  -2
   8  -2   7 4.53820 1.97690   1
  -9   2   3 13.7051 4.44554  -2
   9  -2   7 13.7051 4.44554   1
   8   1  11 -5.4285 2.09245  -2
  -8  -1   7 -5.4285 2.09245   1
  -7  -1   7 58.5574 2.62068   1
   6   1  10 45.9062 2.31962  -2
  -6  -1   7 45.9062 2.31962   1
   5   1  10 14.7509 4.92938  -2
  -5  -1   7 14.7509 4.92938   1
   4   1   9 63.0712 2.10110  -2
  -4  -1   7 63.0712 2.10110   1
   3   1   9 10.2787 4.64861  -2
  -3  -1   7 10.2787 4.64861   1
   2   1   8 538.818 5.08394  -2
  -2  -1   7 538.818 5.08394   1
  -1  -1   7 20.5693 0.62071   1
   0   1   7 123.119 1.58159  -2
   0  -1   7 123.119 1.58159   1
   1  -1   7 71.2191 2.80875   1
  -2   1   6 169.948 3.73827  -2
   2  -1   7 169.948 3.73827   1
  -4   1   5 134.158 2.32227  -2
   4  -1   7 134.158 2.32227   1
   5  -1   7 73.6537 1.59542   1
  -6   1   4 49.5401 1.66057  -2
   6  -1   7 49.5401 1.66057   1
   7  -1   7 23.9402 1.60658   1
  -8   1   3 125.335 2.91348  -2
   8  -1   7 125.335 2.91348   1
   9  -1   7 7.96513 2.61665   1
   8   0  11 36.1930 2.44326  -2
  -8   0   7 36.1930 2.44326   1
  -7   0   7 45.7291 2.39283   1
   6   0  10 92.2549 2.86709  -2
  -6   0   7 92.2549 2.86709   1
  -5   0   7 117.594 2.94219   1
   4   0   9 51.5439 1.92704  -2
  -4   0   7 51.5439 1.92704   1
  -3   0   7 11.3311 0.68752   1
   2   0   8 225.449 2.29608  -2
  -2   0   7 225.449 2.29608   1
  -1   0   7 440.353 3.95740   1
   0   0   7 311.599 3.26852  -2
   0   0   7 311.599 3.26852   1
   1   0   7 4.41307 0.83010   1
  -2   0   6 124.559 3.89123  -2
   2   0   7 124.559 3.89123   1
   3   0   7 1.21522 1.06584   1
  -4   0   5 433.372 10.2829  -2
   4   0   7 433.372 10.2829   1
   5   0   7 0.47721 0.42703   1
  -6   0   4 46.9347 1.83458  -2
   6   0   7 46.9347 1.83458   1
   7   0   7 2.97052 0.98808   1
  -8   0   3 60.8254 2.33268  -2
   8   0   7 60.8254 2.33268   1
   9   0   7 79.3846 6.24050   1
 -10   0   2 35.0732 4.58415  -2
  10   0   7 35.0732 4.58415   1
   8  -1  11 39.6745 2.73685  -2
  -8   1   7 39.6745 2.73685   1
  -7   1   7 3.15862 1.26526   1
   6  -1  10 9.92970 1.94889  -2
  -6   1   7 9.92970 1.94889   1
  -5   1   7 13.7678 1.32723   1
   4  -1   9 21.0977 1.70502  -2
  -4   1   7 21.0977 1.70502   1
  -3   1   7 19.8322 1.04037   1
   2  -1   8 5.37224 0.77523  -2
  -2   1   7 5.37224 0.77523   1
  -1   1   7 1.58507 0.35404   1
   0  -1   7 112.011 1.49053  -2
   0   1   7 112.011 1.49053   1
   1   1   7 386.715 4.14112   1
  -2  -1   6 493.095 10.6380  -2
   2   1   7 493.095 10.6380   1
   3   1   7 160.784 4.62347   1
  -4  -1   5 355.826 5.13096  -2
   4   1   7 355.826 5.13096   1
   5   1   7 127.463 2.07678   1
  -6  -1   4 173.139 3.68677  -2
   6   1   7 173.139 3.68677   1
   7   1   7 151.941 3.12490   1
  -8  -1   3 46.9958 2.06619  -2
   8   1   7 46.9958 2.06619   1
  -9  -1   2 129.817 8.37276  -2
   9   1   7 129.817 8.37276   1
 -10  -1   2 154.468 7.24174  -2
  10   1   7 154.468 7.24174   1
   7  -2  10 19.3025 4.20096  -2
  -7   2   7 19.3025 4.20096   1
   6  -2  10 61.8077 2.85956  -2
  -6   2   7 61.8077 2.85956   1
   5  -2   9 100.915 6.93177  -2
  -5   2   7 100.915 6.93177   1
   4  -2   9 99.9889 2.87327  -2
  -4   2   7 99.9889 2.87327   1
  -3   2   7 72.9522 2.09015   1
   2  -2   8 905.495 8.31895  -2
  -2   2   7 905.495 8.31895   1
   1  -2   7 166.101 7.48533  -2
  -1   2   7 166.101 7.48533   1
   0  -2   7 124.111 1.49776  -2
   0   2   7 124.111 1.49776   1
  -1  -2   6 61.8899 3.38808  -2
   1   2   7 61.8899 3.38808   1
  -2  -2   6 50.8805 0.91841  -2
   2   2   7 50.8805 0.91841   1
   3   2   7 149.351 2.59014   1
  -4  -2   5 34.1843 1.03541  -2
   4   2   7 34.1843 1.03541   1
  -5  -2   4 41.3687 2.13662  -2
   5   2   7 41.3687 2.13662   1
  -6  -2   4 20.5845 1.70257  -2
   6   2   7 20.5845 1.70257   1
  -7  -2   3 60.0449 2.81720  -2
   7   2   7 60.0449 2.81720   1
  -7  -2   2 15.9079 2.18520  -2
   7   2   6 15.9079 2.18520   1
   7   2   7 15.9079 2.18520   1
  -8  -2   3 10.7171 1.75281  -2
   8   2   7 10.7171 1.75281   1
  -9  -2   2 4.06220 5.29192  -2
   9   2   7 4.06220 5.29192   1
 -10  -2   2 8.08482 4.51242  -2
  10   2   7 8.08482 4.51242   1
   7  -3  10 33.4244 4.20617  -2
  -7   3   7 33.4244 4.20617   1
   6  -3  10 35.4263 3.80051  -2
  -6   3   7 35.4263 3.80051   1
   5  -3   9 50.6395 2.75539  -2
  -5   3   7 50.6395 2.75539   1
   4  -3   9 97.2918 3.09206  -2
  -4   3   7 97.2918 3.09206   1
   3  -3   8 52.1187 3.09883  -2
  -3   3   7 52.1187 3.09883   1
   2  -3   8 173.702 3.29079  -2
  -2   3   7 173.702 3.29079   1
   1  -3   7 600.374 8.22749  -2
  -1   3   7 600.374 8.22749   1
   0  -3   7 62.5279 1.34398  -2
   0   3   7 62.5279 1.34398   1
  -1  -3   6 428.581 6.82971  -2
   1   3   7 428.581 6.82971   1
  -2  -3   6 128.517 1.68161  -2
   2   3   7 128.517 1.68161   1
  -3  -3   5 381.377 5.74050  -2
   3   3   7 381.377 5.74050   1
  -4  -3   5 26.5209 1.17604  -2
   4   3   7 26.5209 1.17604   1
   5   3   7 15.8881 1.10548   1
  -6  -3   4 765.823 11.6462  -2
   6   3   7 765.823 11.6462   1
  -7  -3   3 448.183 8.64511  -2
   7   3   7 448.183 8.64511   1
  -8  -3   3 87.0389 2.87903  -2
   8   3   7 87.0389 2.87903   1
  -9  -3   2 71.4362 5.42085  -2
   9   3   7 71.4362 5.42085   1
 -10  -3   2 41.2717 5.39530  -2
  10   3   7 41.2717 5.39530   1
   6  -4  10 160.037 5.91710  -2
  -6   4   7 160.037 5.91710   1
   5  -4   9 109.427 4.75563  -2
  -5   4   7 109.427 4.75563   1
   4  -4   9 18.9390 3.20616  -2
  -4   4   7 18.9390 3.20616   1
   3  -4   8 95.6385 3.87663  -2
  -3   4   7 95.6385 3.87663   1
   2  -4   8 196.742 4.66523  -2
  -2   4   7 196.742 4.66523   1
   1  -4   7 612.929 7.59726  -2
  -1   4   7 612.929 7.59726   1
   0  -4   7 124.010 2.58777  -2
   0   4   7 124.010 2.58777   1
  -1  -4   6 66.5304 1.61762  -2
   1   4   7 66.5304 1.61762   1
  -2  -4   6 6.38870 2.58288  -2
   2   4   7 6.38870 2.58288   1
  -3  -4   5 31.9282 1.27638  -2
   3   4   7 31.9282 1.27638   1
  -4  -4   5 66.2996 2.47953  -2
   4   4   7 66.2996 2.47953   1
  -5  -4   4 46.6443 1.65718  -2
   5   4   7 46.6443 1.65718   1
  -6  -4   4 99.6471 6.00405  -2
   6   4   7 99.6471 6.00405   1
  -7  -4   3 6.29621 1.57646  -2
   7   4   7 6.29621 1.57646   1
  -8  -4   3 0.47886 2.11907  -2
   8   4   7 0.47886 2.11907   1
  -9  -4   2 23.7137 3.60251  -2
   9   4   7 23.7137 3.60251   1
 -10  -4   2 13.2238 3.77789  -2
  10   4   7 13.2238 3.77789   1
 -11  -4   1 36.2378 5.67980  -2
  11   4   7 36.2378 5.67980   1
   6  -5  10 145.014 9.46537  -2
  -6   5   7 145.014 9.46537   1
   5  -5   9 83.2588 4.25743  -2
  -5   5   7 83.2588 4.25743   1
   4  -5   9 57.2074 6.34565  -2
  -4   5   7 57.2074 6.34565   1
   3  -5   8 34.9974 3.00192  -2
  -3   5   7 34.9974 3.00192   1
   2  -5   8 39.1000 4.65832  -2
  -2   5   7 39.1000 4.65832   1
   1  -5   7 118.743 5.75923  -2
  -1   5   7 118.743 5.75923   1
   0  -5   7 95.8252 6.55668  -2
   0   5   7 95.8252 6.55668   1
  -1  -5   6 142.744 2.11118  -2
   1   5   7 142.744 2.11118   1
  -2  -5   6 141.488 7.51839  -2
   2   5   7 141.488 7.51839   1
  -3  -5   5 138.876 1.95655  -2
   3   5   7 138.876 1.95655   1
   4   5   7 1.75784 0.62838   1
  -5  -5   4 1054.13 13.8965  -2
   5   5   7 1054.13 13.8965   1
   6   5   7 232.096 5.38316   1
  -7  -5   3 233.449 4.32720  -2
   7   5   7 233.449 4.32720   1
  -8  -5   3 66.6512 4.10900  -2
   8   5   7 66.6512 4.10900   1
  -9  -5   2 24.3450 5.37021  -2
   9   5   7 24.3450 5.37021   1
  10   5   7 175.048 7.15373   1
 -11  -5   1 14.6248 4.61878  -2
  11   5   7 14.6248 4.61878   1
   5  -6   9 53.5453 3.78454  -2
  -5   6   7 53.5453 3.78454   1
  -4   6   7 22.9611 2.36173   1
   3  -6   8 199.336 5.58837  -2
  -3   6   7 199.336 5.58837   1
  -2   6   7 229.772 8.66500   1
   1  -6   7 17.2636 3.43035  -2
  -1   6   7 17.2636 3.43035   1
   0   6   7 0.46964 1.48787   1
  -1  -6   6 35.8183 1.81595  -2
   1   6   7 35.8183 1.81595   1
  -2  -6   6 219.675 10.3242  -2
   2   6   7 219.675 10.3242   1
  -3  -6   5 157.316 2.29702  -2
   3   6   7 157.316 2.29702   1
   4   6   7 9.86156 0.63844   1
  -5  -6   4 257.643 2.89330  -2
   5   6   7 257.643 2.89330   1
   6   6   7 6.38718 0.52813   1
  -7  -6   3 49.3232 1.18586  -2
   7   6   7 49.3232 1.18586   1
   8   6   7 38.0125 2.10467   1
  -9  -6   2 0.85051 3.20842  -2
   9   6   7 0.85051 3.20842   1
  10   6   7 28.3159 3.45328   1
 -11  -6   1 17.4547 4.31549  -2
  11   6   7 17.4547 4.31549   1
  -4   7   7 66.6847 3.74244   1
   3  -7   8 29.6454 2.70012  -2
  -3   7   7 29.6454 2.70012   1
  -2   7   7 15.1208 3.02100   1
   1  -7   7 117.161 5.96343  -2
  -1   7   7 117.161 5.96343   1
   0   7   7 24.1208 3.04363   1
  -1  -7   6 72.2994 4.24596  -2
   1   7   7 72.2994 4.24596   1
   2   7   7 47.7280 2.04516   1
  -3  -7   5 6.12049 0.95806  -2
   3   7   7 6.12049 0.95806   1
   4   7   7 75.4066 1.61843   1
  -5  -7   4 46.2917 1.29306  -2
   5   7   7 46.2917 1.29306   1
  -6  -7   3 200.148 11.2276  -2
   6   7   7 200.148 11.2276   1
  -7  -7   3 198.215 3.11916  -2
   7   7   7 198.215 3.11916   1
   8   7   7 8.21833 0.79979   1
  -9  -7   2 31.0916 1.26763  -2
   9   7   7 31.0916 1.26763   1
  10   7   7 16.6469 2.91244   1
   4  -8   8 100.819 8.92879  -2
  -4   8   7 100.819 8.92879   1
   3  -8   8 52.7386 3.72798  -2
  -3   8   7 52.7386 3.72798   1
  -2   8   7 17.8625 3.39984   1
   1  -8   7 122.472 6.98106  -2
  -1   8   7 122.472 6.98106   1
   0   8   7 84.0594 5.44995   1
  -1  -8   6 30.6061 4.08500  -2
   1   8   7 30.6061 4.08500   1
   2   8   7 190.719 7.37698   1
  -4  -8   4 518.421 11.8406  -2
   4   8   7 518.421 11.8406   1
  -5  -8   4 70.3896 2.24248  -2
   5   8   7 70.3896 2.24248   1
   6   8   7 0.37523 0.73153   1
  -7  -8   3 122.696 2.91051  -2
   7   8   7 122.696 2.91051   1
   8   8   7 51.4461 1.85162   1
  -9  -8   2 47.0181 1.91595  -2
   9   8   7 47.0181 1.91595   1
  10   8   7 35.3237 1.45187   1
   3  -9   8 5.10919 3.56531  -2
  -3   9   7 5.10919 3.56531   1
   2  -9   7 54.7555 7.16497  -2
  -2   9   7 54.7555 7.16497   1
   1  -9   7 5.91541 5.17455  -2
  -1   9   7 5.91541 5.17455   1
   0   9   7 9.58366 2.81967   1
  -1  -9   6 34.2023 4.85577  -2
   1   9   7 34.2023 4.85577   1
   2   9   7 20.9289 3.05510   1
   6   9   7 58.1556 2.10670   1
  -7  -9   3 29.4537 2.15964  -2
   7   9   7 29.4537 2.15964   1
   8   9   7 4.04934 1.00554   1
  -9  -9   2 25.1629 2.01143  -2
   9   9   7 25.1629 2.01143   1
  10   9   7 43.2907 1.87624   1
   2 -10   7 91.9480 8.25109  -2
  -2  10   7 91.9480 8.25109   1
   1 -10   7 84.5010 7.70346  -2
  -1  10   7 84.5010 7.70346   1
   0 -10   6 10.5331 5.78825  -2
   0  10   7 10.5331 5.78825   1
  -1 -10   6 59.5549 6.61697  -2
   1  10   7 59.5549 6.61697   1
  -2 -10   5 93.3836 6.93241  -2
   2  10   7 93.3836 6.93241   1
  -3 -10   5 120.140 7.24463  -2
   3  10   7 120.140 7.24463   1
  10  10   7 2.61556 1.01937   1
   0 -11   6 4.69785 5.94279  -2
   0  11   7 4.69785 5.94279   1
  -1 -11   6 18.7003 5.69989  -2
   1  11   7 18.7003 5.69989   1
  -2 -11   5 27.7258 5.83786  -2
   2  11   7 27.7258 5.83786   1
  -3 -11   5 54.0191 6.58869  -2
   3  11   7 54.0191 6.58869   1
   1  12   7 -0.5815 2.70654   1
  -2 -12   5 194.136 9.80494  -2
   2  12   7 194.136 9.80494   1
   3  12   7 115.176 7.27440   1
   3  11  10 49.9604 6.54647  -2
  -3 -11   8 49.9604 6.54647   1
  -2 -11   8 27.9313 3.70118   1
   5  10  11 109.036 8.07646  -2
  -5 -10   8 109.036 8.07646   1
   4  10  11 17.4357 5.36949  -2
  -4 -10   8 17.4357 5.36949   1
   3  10  10 41.1671 5.75272  -2
  -3 -10   8 41.1671 5.75272   1
   2  10  10 56.3484 5.69983  -2
  -2 -10   8 56.3484 5.69983   1
   1  10   9 226.892 8.92582  -2
  -1 -10   8 226.892 8.92582   1
   0  10   9 38.7247 4.75463  -2
   0 -10   8 38.7247 4.75463   1
  -1  10   8 24.9526 4.66866  -2
   1 -10   8 24.9526 4.66866   1
   6   9  12 43.6471 7.29479  -2
  -6  -9   8 43.6471 7.29479   1
   5   9  11 38.4408 5.82589  -2
  -5  -9   8 38.4408 5.82589   1
   4   9  11 36.0467 6.29057  -2
  -4  -9   8 36.0467 6.29057   1
   3   9  10 92.4394 5.98300  -2
  -3  -9   8 92.4394 5.98300   1
   2   9  10 29.6764 5.17942  -2
  -2  -9   8 29.6764 5.17942   1
   1   9   9 1.95667 2.56352  -2
  -1  -9   8 1.95667 2.56352   1
   0   9   9 41.8737 4.92358  -2
   0  -9   8 41.8737 4.92358   1
  -1   9   8 24.9243 3.21466  -2
   1  -9   8 24.9243 3.21466   1
  -2   9   8 75.3261 5.69779  -2
   2  -9   8 75.3261 5.69779   1
  -3   9   7 -1.1504 4.01641  -2
   3  -9   8 -1.1504 4.01641   1
   7   8  12 51.1543 3.75931  -2
  -7  -8   8 51.1543 3.75931   1
   6   8  12 21.5978 6.58436  -2
  -6  -8   8 21.5978 6.58436   1
   5   8  11 23.2287 5.07457  -2
  -5  -8   8 23.2287 5.07457   1
   4   8  11 36.1326 5.79061  -2
  -4  -8   8 36.1326 5.79061   1
   3   8  10 83.5403 5.40734  -2
  -3  -8   8 83.5403 5.40734   1
  -2  -8   8 11.9316 1.80683   1
   1   8   9 40.1843 2.69614  -2
  -1  -8   8 40.1843 2.69614   1
   0   8   9 20.9942 5.03054  -2
   0  -8   8 20.9942 5.03054   1
  -1   8   8 9.84182 1.57668  -2
   1  -8   8 9.84182 1.57668   1
  -2   8   8 3.99598 5.97635  -2
   2  -8   8 3.99598 5.97635   1
  -3   8   7 46.6499 4.20674  -2
   3  -8   8 46.6499 4.20674   1
  -8  -7   8 -1.0223 1.31675   1
   7   7  12 26.7151 3.00469  -2
  -7  -7   8 26.7151 3.00469   1
  -6  -7   8 3.56397 1.57079   1
   5   7  11 2.96944 1.98075  -2
  -5  -7   8 2.96944 1.98075   1
  -4  -7   8 77.1639 3.14484   1
   3   7  10 44.4334 2.10845  -2
  -3  -7   8 44.4334 2.10845   1
  -2  -7   8 48.5992 2.05413   1
   1   7   9 88.2876 2.10138  -2
  -1  -7   8 88.2876 2.10138   1
   0  -7   8 23.7303 1.38288   1
  -1   7   8 213.329 3.34898  -2
   1  -7   8 213.329 3.34898   1
   2  -7   8 24.6620 1.30659   1
  -3   7   7 36.3369 1.74239  -2
   3  -7   8 36.3369 1.74239   1
   4  -7   8 44.7863 2.57140   1
   8   6  12 30.4870 4.54524  -2
  -8  -6   8 30.4870 4.54524   1
   7   6  12 190.499 4.37581  -2
  -7  -6   8 190.499 4.37581   1
  -6  -6   8 51.9670 2.93602   1
   5   6  11 4.89935 2.28848  -2
  -5  -6   8 4.89935 2.28848   1
  -4  -6   8 14.0387 1.63883   1
   3   6  10 101.354 2.41695  -2
  -3  -6   8 101.354 2.41695   1
  -2  -6   8 128.644 2.33642   1
   1   6   9 115.249 2.01754  -2
  -1  -6   8 115.249 2.01754   1
   0  -6   8 2.09091 0.70309   1
  -1   6   8 37.4083 1.71661  -2
   1  -6   8 37.4083 1.71661   1
   2  -6   8 53.5130 1.91969   1
  -3   6   7 169.498 3.96703  -2
   3  -6   8 169.498 3.96703   1
   4  -6   8 29.7171 2.08894   1
  -5   6   6 60.1238 4.16686  -2
   5  -6   8 60.1238 4.16686   1
   8   5  12 -2.6826 3.80781  -2
  -8  -5   8 -2.6826 3.80781   1
   7   5  12 9.55384 2.40623  -2
  -7  -5   8 9.55384 2.40623   1
   6   5  11 0.43049 3.03335  -2
  -6  -5   8 0.43049 3.03335   1
   5   5  11 30.8985 2.79620  -2
  -5  -5   8 30.8985 2.79620   1
   4   5  10 0.23449 4.31734  -2
  -4  -5   8 0.23449 4.31734   1
   3   5  10 68.9356 2.09705  -2
  -3  -5   8 68.9356 2.09705   1
   2   5   9 158.748 6.42247  -2
  -2  -5   8 158.748 6.42247   1
   1   5   9 170.022 2.49522  -2
  -1  -5   8 170.022 2.49522   1
   0   5   8 176.318 3.95281  -2
   0  -5   8 176.318 3.95281   1
  -1   5   8 72.2016 1.77858  -2
   1  -5   8 72.2016 1.77858   1
  -2   5   7 43.6276 2.77768  -2
   2  -5   8 43.6276 2.77768   1
  -3   5   7 35.1852 2.73358  -2
   3  -5   8 35.1852 2.73358   1
   4  -5   8 130.538 3.26023   1
  -5   5   6 82.5767 4.23095  -2
   5  -5   8 82.5767 4.23095   1
  -6   5   5 34.2921 4.37001  -2
   6  -5   8 34.2921 4.37001   1
   8   4  12 89.0106 3.84387  -2
  -8  -4   8 89.0106 3.84387   1
   7   4  12 75.4912 3.31426  -2
  -7  -4   8 75.4912 3.31426   1
   6   4  11 28.7813 2.71055  -2
  -6  -4   8 28.7813 2.71055   1
   5   4  11 18.9776 2.14113  -2
  -5  -4   8 18.9776 2.14113   1
   4   4  10 350.990 7.05738  -2
  -4  -4   8 350.990 7.05738   1
   3   4  10 367.523 5.22664  -2
  -3  -4   8 367.523 5.22664   1
   2   4   9 229.356 4.41744  -2
  -2  -4   8 229.356 4.41744   1
   1   4   9 148.786 2.26472  -2
  -1  -4   8 148.786 2.26472   1
   0   4   8 69.9199 2.22284  -2
   0  -4   8 69.9199 2.22284   1
  -1   4   8 61.4199 1.34897  -2
   1  -4   8 61.4199 1.34897   1
  -2   4   7 157.274 3.11021  -2
   2  -4   8 157.274 3.11021   1
  -3   4   7 120.184 3.95986  -2
   3  -4   8 120.184 3.95986   1
  -4   4   6 47.8585 3.11959  -2
   4  -4   8 47.8585 3.11959   1
  -5   4   6 59.1468 3.63812  -2
   5  -4   8 59.1468 3.63812   1
  -6   4   5 3.83376 3.15828  -2
   6  -4   8 3.83376 3.15828   1
  -7   4   5 26.4616 3.97635  -2
   7  -4   8 26.4616 3.97635   1
   8   3  12 31.1617 3.07886  -2
  -8  -3   8 31.1617 3.07886   1
   7   3  12 34.9780 2.97533  -2
  -7  -3   8 34.9780 2.97533   1
   6   3  11 67.2686 3.02769  -2
  -6  -3   8 67.2686 3.02769   1
   5   3  11 4.27730 2.18997  -2
  -5  -3   8 4.27730 2.18997   1
   4   3  10 211.868 4.11192  -2
  -4  -3   8 211.868 4.11192   1
   3   3  10 170.889 3.15856  -2
  -3  -3   8 170.889 3.15856   1
   2   3   9 88.2268 1.82483  -2
  -2  -3   8 88.2268 1.82483   1
   1   3   9 19.2211 1.35656  -2
  -1  -3   8 19.2211 1.35656   1
   0   3   8 18.5614 0.93115  -2
   0  -3   8 18.5614 0.93115   1
  -1   3   8 647.957 8.62575  -2
   1  -3   8 647.957 8.62575   1
  -2   3   7 212.603 2.80803  -2
   2  -3   8 212.603 2.80803   1
  -3   3   7 57.8893 2.42313  -2
   3  -3   8 57.8893 2.42313   1
  -4   3   6 44.8836 2.46721  -2
   4  -3   8 44.8836 2.46721   1
  -5   3   6 16.4690 2.70503  -2
   5  -3   8 16.4690 2.70503   1
  -6   3   5 97.9344 4.25787  -2
   6  -3   8 97.9344 4.25787   1
  -7   3   5 39.0202 3.94460  -2
   7  -3   8 39.0202 3.94460   1
   8   2  12 28.9059 2.87793  -2
  -8  -2   8 28.9059 2.87793   1
   7   2  12 88.5717 4.62343  -2
  -7  -2   8 88.5717 4.62343   1
   6   2  11 115.708 3.46543  -2
  -6  -2   8 115.708 3.46543   1
   5   2  11 49.3062 5.67415  -2
  -5  -2   8 49.3062 5.67415   1
   4   2  10 159.449 3.45293  -2
  -4  -2   8 159.449 3.45293   1
   3   2  10 392.946 7.01755  -2
  -3  -2   8 392.946 7.01755   1
   2   2   9 105.968 1.70736  -2
  -2  -2   8 105.968 1.70736   1
   1   2   9 115.042 5.35059  -2
  -1  -2   8 115.042 5.35059   1
   0   2   8 113.177 1.62440  -2
   0  -2   8 113.177 1.62440   1
  -1   2   8 432.410 12.4748  -2
   1  -2   8 432.410 12.4748   1
  -2   2   7 859.260 17.4028  -2
   2  -2   8 859.260 17.4028   1
   3  -2   8 8.36016 1.49809   1
  -4   2   6 155.937 2.81586  -2
   4  -2   8 155.937 2.81586   1
   5  -2   8 15.5470 1.63118   1
  -6   2   5 12.7783 2.43199  -2
   6  -2   8 12.7783 2.43199   1
   7  -2   8 31.3579 2.00991   1
  -8   2   4 166.527 5.92414  -2
   8  -2   8 166.527 5.92414   1
   8   1  12 10.3727 2.40420  -2
  -8  -1   8 10.3727 2.40420   1
   7   1  12 48.1073 7.22249  -2
  -7  -1   8 48.1073 7.22249   1
   6   1  11 18.8733 2.15181  -2
  -6  -1   8 18.8733 2.15181   1
   5   1  11 145.376 7.70239  -2
  -5  -1   8 145.376 7.70239   1
   4   1  10 7.34728 1.25801  -2
  -4  -1   8 7.34728 1.25801   1
   3   1  10 69.5808 6.30127  -2
  -3  -1   8 69.5808 6.30127   1
   2   1   9 92.1339 1.56222  -2
  -2  -1   8 92.1339 1.56222   1
  -1  -1   8 16.4605 0.61706   1
   0   1   8 437.017 4.46767  -2
   0  -1   8 437.017 4.46767   1
   1  -1   8 90.8904 3.40930   1
  -2   1   7 6.79638 2.00588  -2
   2  -1   8 6.79638 2.00588   1
   3  -1   8 9.14839 1.54042   1
  -4   1   6 18.6704 0.78223  -2
   4  -1   8 18.6704 0.78223   1
   5  -1   8 63.0162 1.45319   1
  -6   1   5 47.3576 2.51745  -2
   6  -1   8 47.3576 2.51745   1
   7  -1   8 3.81935 1.09152   1
  -8   1   4 310.667 6.30611  -2
   8  -1   8 310.667 6.30611   1
   9  -1   8 66.8973 5.14309   1
  -7   0   8 56.6688 2.69761   1
   6   0  11 94.1813 3.03373  -2
  -6   0   8 94.1813 3.03373   1
  -5   0   8 3.51109 1.07649   1
   4   0  10 265.572 4.57293  -2
  -4   0   8 265.572 4.57293   1
  -3   0   8 112.603 1.79203   1
   2   0   9 179.995 1.99632  -2
  -2   0   8 179.995 1.99632   1
  -1   0   8 45.7756 1.04787   1
   0   0   8 698.276 6.15041  -2
   0   0   8 698.276 6.15041   1
   1   0   8 290.466 7.08583   1
  -2   0   7 195.772 5.45437  -2
   2   0   8 195.772 5.45437   1
   3   0   8 16.9931 1.80564   1
   5   0   8 34.9043 1.02993   1
  -6   0   5 30.6183 1.56728  -2
   6   0   8 30.6183 1.56728   1
   7   0   8 7.24086 1.17383   1
  -8   0   4 25.9124 2.06095  -2
   8   0   8 25.9124 2.06095   1
   9   0   8 71.9922 3.21541   1
  -7   1   8 0.18119 1.24330   1
   6  -1  11 88.3015 3.15401  -2
  -6   1   8 88.3015 3.15401   1
   5  -1  10 10.8932 5.31988  -2
  -5   1   8 10.8932 5.31988   1
   4  -1  10 2.43537 1.61666  -2
  -4   1   8 2.43537 1.61666   1
  -3   1   8 13.6112 0.93595   1
   2  -1   9 87.4403 1.47975  -2
  -2   1   8 87.4403 1.47975   1
  -1   1   8 76.2689 1.15903   1
   0  -1   8 393.444 4.01580  -2
   0   1   8 393.444 4.01580   1
   1   1   8 37.1778 0.77668   1
  -2  -1   7 455.882 10.2455  -2
   2   1   8 455.882 10.2455   1
   3   1   8 71.3197 3.02717   1
   5   1   8 242.930 3.34202   1
  -6  -1   5 25.7253 1.61335  -2
   6   1   8 25.7253 1.61335   1
   7   1   8 53.4725 2.17739   1
  -8  -1   4 72.5092 2.98367  -2
   8   1   8 72.5092 2.98367   1
   9   1   8 44.8749 4.52295   1
 -10  -1   3 165.561 7.66508  -2
  10   1   8 165.561 7.66508   1
   7  -2  11 108.374 5.44000  -2
  -7   2   8 108.374 5.44000   1
   6  -2  11 186.354 4.49232  -2
  -6   2   8 186.354 4.49232   1
   5  -2  10 13.2828 3.39887  -2
  -5   2   8 13.2828 3.39887   1
   4  -2  10 183.576 3.95775  -2
  -4   2   8 183.576 3.95775   1
   3  -2   9 262.565 9.09031  -2
  -3   2   8 262.565 9.09031   1
   2  -2   9 291.243 3.35307  -2
  -2   2   8 291.243 3.35307   1
   1  -2   8 429.719 10.7425  -2
  -1   2   8 429.719 10.7425   1
   0  -2   8 130.082 2.12909  -2
   0   2   8 130.082 2.12909   1
  -1  -2   7 30.6902 2.76751  -2
   1   2   8 30.6902 2.76751   1
  -2  -2   7 220.918 2.63089  -2
   2   2   8 220.918 2.63089   1
  -3  -2   6 140.099 3.16490  -2
   3   2   8 140.099 3.16490   1
  -4  -2   6 51.7085 1.21717  -2
   4   2   8 51.7085 1.21717   1
  -5  -2   5 136.055 3.66632  -2
   5   2   8 136.055 3.66632   1
  -6  -2   5 37.4569 1.88483  -2
   6   2   8 37.4569 1.88483   1
  -7  -2   4 141.500 4.73131  -2
   7   2   8 141.500 4.73131   1
  -8  -2   4 67.6714 2.90128  -2
   8   2   8 67.6714 2.90128   1
  -9  -2   3 16.9414 3.76394  -2
   9   2   8 16.9414 3.76394   1
 -10  -2   3 46.0776 5.43029  -2
  10   2   8 46.0776 5.43029   1
   6  -3  11 111.273 4.99269  -2
  -6   3   8 111.273 4.99269   1
   5  -3  10 7.55936 3.25389  -2
  -5   3   8 7.55936 3.25389   1
   4  -3  10 90.3661 3.14530  -2
  -4   3   8 90.3661 3.14530   1
   3  -3   9 16.8826 2.12507  -2
  -3   3   8 16.8826 2.12507   1
   2  -3   9 102.910 2.30006  -2
  -2   3   8 102.910 2.30006   1
   1  -3   8 525.058 6.66903  -2
  -1   3   8 525.058 6.66903   1
   0  -3   8 15.7075 0.97392  -2
   0   3   8 15.7075 0.97392   1
  -1  -3   7 224.096 3.49156  -2
   1   3   8 224.096 3.49156   1
  -2  -3   7 5.19724 0.79748  -2
   2   3   8 5.19724 0.79748   1
  -3  -3   6 10.6594 1.37583  -2
   3   3   8 10.6594 1.37583   1
  -4  -3   6 70.6183 1.71923  -2
   4   3   8 70.6183 1.71923   1
  -5  -3   5 64.6091 2.51216  -2
   5   3   8 64.6091 2.51216   1
  -6  -3   5 184.984 3.95713  -2
   6   3   8 184.984 3.95713   1
  -7  -3   4 113.668 3.35598  -2
   7   3   8 113.668 3.35598   1
  -8  -3   4 206.433 4.85978  -2
   8   3   8 206.433 4.85978   1
  -9  -3   3 60.3252 2.77750  -2
   9   3   8 60.3252 2.77750   1
 -10  -3   3 55.1677 5.95341  -2
  10   3   8 55.1677 5.95341   1
   6  -4  11 41.0491 4.34935  -2
  -6   4   8 41.0491 4.34935   1
   5  -4  10 39.2353 3.72516  -2
  -5   4   8 39.2353 3.72516   1
   4  -4  10 72.9795 4.24921  -2
  -4   4   8 72.9795 4.24921   1
   3  -4   9 41.0068 3.20281  -2
  -3   4   8 41.0068 3.20281   1
   2  -4   9 121.492 3.89597  -2
  -2   4   8 121.492 3.89597   1
   1  -4   8 55.2262 2.37030  -2
  -1   4   8 55.2262 2.37030   1
   0  -4   8 82.4393 2.03724  -2
   0   4   8 82.4393 2.03724   1
  -1  -4   7 174.488 2.71118  -2
   1   4   8 174.488 2.71118   1
  -2  -4   7 88.4780 3.74561  -2
   2   4   8 88.4780 3.74561   1
  -3  -4   6 16.9803 1.02891  -2
   3   4   8 16.9803 1.02891   1
   4   4   8 3.64720 0.85321   1
  -5  -4   5 19.2183 3.42534  -2
   5   4   8 19.2183 3.42534   1
  -6  -4   5 152.337 4.65769  -2
   6   4   8 152.337 4.65769   1
  -7  -4   4 45.3393 2.16726  -2
   7   4   8 45.3393 2.16726   1
  -8  -4   4 1.99994 2.31363  -2
   8   4   8 1.99994 2.31363   1
  -9  -4   3 44.8653 2.62033  -2
   9   4   8 44.8653 2.62033   1
 -10  -4   3 3.48341 4.51360  -2
  10   4   8 3.48341 4.51360   1
   5  -5  10 67.3781 4.32459  -2
  -5   5   8 67.3781 4.32459   1
   4  -5  10 27.7073 3.90702  -2
  -4   5   8 27.7073 3.90702   1
   3  -5   9 73.9548 3.79652  -2
  -3   5   8 73.9548 3.79652   1
   2  -5   9 77.8354 5.85544  -2
  -2   5   8 77.8354 5.85544   1
   1  -5   8 71.7653 4.82185  -2
  -1   5   8 71.7653 4.82185   1
   0  -5   8 176.956 9.08315  -2
   0   5   8 176.956 9.08315   1
  -1  -5   7 56.4112 1.42595  -2
   1   5   8 56.4112 1.42595   1
  -2  -5   7 101.370 6.36952  -2
   2   5   8 101.370 6.36952   1
  -3  -5   6 102.242 2.29587  -2
   3   5   8 102.242 2.29587   1
   4   5   8 42.7499 1.84706   1
  -5  -5   5 567.729 9.01484  -2
   5   5   8 567.729 9.01484   1
  -6  -5   5 24.2118 4.93162  -2
   6   5   8 24.2118 4.93162   1
  -7  -5   4 119.415 2.99531  -2
   7   5   8 119.415 2.99531   1
  -8  -5   4 16.8254 2.72877  -2
   8   5   8 16.8254 2.72877   1
  -9  -5   3 56.9882 2.60306  -2
   9   5   8 56.9882 2.60306   1
  10   5   8 74.1411 5.09798   1
   5  -6  10 3.61305 3.18243  -2
  -5   6   8 3.61305 3.18243   1
  -4   6   8 6.01915 1.85806   1
   3  -6   9 40.3798 3.22062  -2
  -3   6   8 40.3798 3.22062   1
  -2   6   8 31.6865 3.98523   1
   1  -6   8 48.2459 4.30580  -2
  -1   6   8 48.2459 4.30580   1
   0   6   8 53.5229 2.26013   1
  -1  -6   7 46.6948 1.96919  -2
   1   6   8 46.6948 1.96919   1
   2   6   8 41.6051 1.18112   1
  -3  -6   6 166.141 2.17174  -2
   3   6   8 166.141 2.17174   1
   4   6   8 25.8913 1.62813   1
  -5  -6   5 287.418 5.36729  -2
   5   6   8 287.418 5.36729   1
   6   6   8 166.660 3.35283   1
  -7  -6   4 25.1819 1.82251  -2
   7   6   8 25.1819 1.82251   1
   8   6   8 5.16981 1.03735   1
  -9  -6   3 12.7327 2.63629  -2
   9   6   8 12.7327 2.63629   1
  10   6   8 16.9758 2.87529   1
  -4   7   8 8.20347 2.06669   1
   3  -7   9 171.135 5.35805  -2
  -3   7   8 171.135 5.35805   1
  -2   7   8 65.8088 5.13417   1
   1  -7   8 184.193 7.82226  -2
  -1   7   8 184.193 7.82226   1
   0   7   8 5.24774 2.11813   1
  -1  -7   7 23.1589 2.97915  -2
   1   7   8 23.1589 2.97915   1
   2   7   8 14.8721 1.36713   1
  -3  -7   6 8.87606 0.83381  -2
   3   7   8 8.87606 0.83381   1
   4   7   8 9.42274 0.70697   1
  -5  -7   5 41.8214 1.16096  -2
   5   7   8 41.8214 1.16096   1
  -6  -7   4 41.1972 7.79582  -2
   6   7   8 41.1972 7.79582   1
  -7  -7   4 75.9999 2.65189  -2
   7   7   8 75.9999 2.65189   1
   8   7   8 -0.9694 1.45428   1
  -9  -7   3 9.26935 2.68314  -2
   9   7   8 9.26935 2.68314   1
  10   7   8 6.48103 2.36049   1
   3  -8   9 9.02507 3.23355  -2
  -3   8   8 9.02507 3.23355   1
  -2   8   8 14.2009 3.27485   1
   1  -8   8 4.70423 4.43128  -2
  -1   8   8 4.70423 4.43128   1
   0   8   8 -0.5491 2.07328   1
  -1  -8   7 1.64070 3.24737  -2
   1   8   8 1.64070 3.24737   1
   2   8   8 244.701 8.72451   1
  -3  -8   6 38.9962 2.17492  -2
   3   8   8 38.9962 2.17492   1
   4   8   8 63.3925 1.76933   1
  -5  -8   5 78.6626 2.16672  -2
   5   8   8 78.6626 2.16672   1
   6   8   8 15.9600 1.05652   1
  -7  -8   4 79.1221 1.98535  -2
   7   8   8 79.1221 1.98535   1
  10   8   8 42.0773 4.06158   1
   2  -9   8 66.0622 7.52891  -2
  -2   9   8 66.0622 7.52891   1
   1  -9   8 29.0715 5.52441  -2
  -1   9   8 29.0715 5.52441   1
   0  -9   7 15.4638 5.73655  -2
   0   9   8 15.4638 5.73655   1
  -1  -9   7 13.9511 4.44706  -2
   1   9   8 13.9511 4.44706   1
   2   9   8 -0.2557 1.93101   1
  -3  -9   6 50.2997 5.03825  -2
   3   9   8 50.2997 5.03825   1
   4   9   8 0.21625 0.75698   1
  -5  -9   5 110.069 2.99728  -2
   5   9   8 110.069 2.99728   1
   6   9   8 31.2300 1.59047   1
  -7  -9   4 89.0569 2.53404  -2
   7   9   8 89.0569 2.53404   1
   8   9   8 10.5802 1.02207   1
  -9  -9   3 2.94322 1.18154  -2
   9   9   8 2.94322 1.18154   1
   1 -10   8 33.9961 6.65429  -2
  -1  10   8 33.9961 6.65429   1
   0 -10   7 8.77959 5.83576  -2
   0  10   8 8.77959 5.83576   1
  -1 -10   7 195.529 9.35935  -2
   1  10   8 195.529 9.35935   1
  -2 -10   6 65.1553 6.63270  -2
   2  10   8 65.1553 6.63270   1
  -3 -10   6 15.0977 5.05225  -2
   3  10   8 15.0977 5.05225   1
   6  10   8 145.360 3.38559   1
  -7 -10   4 64.7794 2.63580  -2
   7  10   8 64.7794 2.63580   1
  -8 -10   3 27.8225 3.31492  -2
   8  10   8 27.8225 3.31492   1
  -9 -10   3 16.6264 1.78969  -2
   9  10   8 16.6264 1.78969   1
   0 -11   7 20.1807 6.28911  -2
   0  11   8 20.1807 6.28911   1
  -1 -11   7 51.5459 7.01638  -2
   1  11   8 51.5459 7.01638   1
  -2 -11   6 127.119 8.06259  -2
   2  11   8 127.119 8.06259   1
  -3 -11   6 14.7307 6.12756  -2
   3  11   8 14.7307 6.12756   1
  -2 -12   6 66.7717 6.87317  -2
   2  12   8 66.7717 6.87317   1
   3  12   8 46.0833 5.61872   1
  -4 -12   5 40.4286 5.88054  -2
   4  12   8 40.4286 5.88054   1
   5  12   8 6.49906 2.79271   1
  -4 -10   9 8.19967 2.70962   1
   3  10  11 48.5666 5.88997  -2
  -3 -10   9 48.5666 5.88997   1
   2  10  11 37.2029 5.35835  -2
  -2 -10   9 37.2029 5.35835   1
   1  10  10 16.0693 4.75547  -2
  -1 -10   9 16.0693 4.75547   1
   5   9  12 25.2573 5.68935  -2
  -5  -9   9 25.2573 5.68935   1
   4   9  12 19.1115 5.79031  -2
  -4  -9   9 19.1115 5.79031   1
   3   9  11 118.570 6.60449  -2
  -3  -9   9 118.570 6.60449   1
   2   9  11 19.4462 4.86833  -2
  -2  -9   9 19.4462 4.86833   1
   1   9  10 175.911 5.68004  -2
  -1  -9   9 175.911 5.68004   1
   0   9  10 183.814 7.57926  -2
   0  -9   9 183.814 7.57926   1
  -1   9   9 3.69208 3.50665  -2
   1  -9   9 3.69208 3.50665   1
   6   8  13 19.7091 6.88709  -2
  -6  -8   9 19.7091 6.88709   1
   5   8  12 20.0685 4.79573  -2
  -5  -8   9 20.0685 4.79573   1
   4   8  12 19.7903 5.78955  -2
  -4  -8   9 19.7903 5.78955   1
   3   8  11 84.5537 5.48541  -2
  -3  -8   9 84.5537 5.48541   1
  -2  -8   9 7.44749 1.43654   1
   1   8  10 36.1601 1.85674  -2
  -1  -8   9 36.1601 1.85674   1
   0   8  10 42.7438 5.11021  -2
   0  -8   9 42.7438 5.11021   1
  -1   8   9 44.4225 2.01205  -2
   1  -8   9 44.4225 2.01205   1
   2  -8   9 2.75943 1.54551   1
  -3   8   8 6.72470 2.80230  -2
   3  -8   9 6.72470 2.80230   1
   7   7  13 13.0783 2.95174  -2
  -7  -7   9 13.0783 2.95174   1
  -6  -7   9 6.78990 1.84086   1
   5   7  12 6.63421 2.22595  -2
  -5  -7   9 6.63421 2.22595   1
  -4  -7   9 101.614 3.68007   1
   3   7  11 62.3046 2.47709  -2
  -3  -7   9 62.3046 2.47709   1
  -2  -7   9 40.4957 1.66052   1
   1   7  10 86.6374 2.08996  -2
  -1  -7   9 86.6374 2.08996   1
   0  -7   9 10.6270 1.03521   1
  -1   7   9 78.3823 2.38227  -2
   1  -7   9 78.3823 2.38227   1
   2  -7   9 5.56894 1.61466   1
  -3   7   8 198.458 5.03733  -2
   3  -7   9 198.458 5.03733   1
   4  -7   9 47.9687 3.52944   1
   5  -7   9 7.90232 2.09724   1
   7   6  13 48.7923 3.53471  -2
  -7  -6   9 48.7923 3.53471   1
  -6  -6   9 24.8219 2.31615   1
   5   6  12 30.0006 2.83779  -2
  -5  -6   9 30.0006 2.83779   1
  -4  -6   9 72.8665 3.07493   1
   3   6  11 131.112 3.43308  -2
  -3  -6   9 131.112 3.43308   1
  -2  -6   9 7.61036 0.80118   1
   1   6  10 26.8676 1.23668  -2
  -1  -6   9 26.8676 1.23668   1
   0  -6   9 36.3727 1.71243   1
  -1   6   9 23.1442 1.51516  -2
   1  -6   9 23.1442 1.51516   1
   2  -6   9 27.8732 2.28113   1
  -3   6   8 48.0395 3.09716  -2
   3  -6   9 48.0395 3.09716   1
   4  -6   9 8.56155 1.76852   1
  -5   6   7 46.1811 3.79630  -2
   5  -6   9 46.1811 3.79630   1
   7   5  13 52.0690 3.08527  -2
  -7  -5   9 52.0690 3.08527   1
   6   5  12 8.97430 5.34574  -2
  -6  -5   9 8.97430 5.34574   1
   5   5  12 32.7282 3.14012  -2
  -5  -5   9 32.7282 3.14012   1
   4   5  11 53.1378 5.31648  -2
  -4  -5   9 53.1378 5.31648   1
   3   5  11 101.129 2.34082  -2
  -3  -5   9 101.129 2.34082   1
   2   5  10 23.2087 3.96515  -2
  -2  -5   9 23.2087 3.96515   1
   1   5  10 89.8393 1.82972  -2
  -1  -5   9 89.8393 1.82972   1
   0   5   9 167.057 4.75170  -2
   0  -5   9 167.057 4.75170   1
  -1   5   9 73.4018 2.17573  -2
   1  -5   9 73.4018 2.17573   1
  -2   5   8 96.3793 6.60198  -2
   2  -5   9 96.3793 6.60198   1
  -3   5   8 92.0393 3.83139  -2
   3  -5   9 92.0393 3.83139   1
   4  -5   9 60.1097 3.01118   1
  -5   5   7 92.2835 4.41680  -2
   5  -5   9 92.2835 4.41680   1
  -6   5   6 36.9320 4.20996  -2
   6  -5   9 36.9320 4.20996   1
   7   4  13 163.911 4.50105  -2
  -7  -4   9 163.911 4.50105   1
   6   4  12 39.5364 2.92434  -2
  -6  -4   9 39.5364 2.92434   1
   5   4  12 45.6400 3.32172  -2
  -5  -4   9 45.6400 3.32172   1
   4   4  11 114.519 4.18274  -2
  -4  -4   9 114.519 4.18274   1
   3   4  11 104.868 2.24819  -2
  -3  -4   9 104.868 2.24819   1
   2   4  10 61.5394 1.78211  -2
  -2  -4   9 61.5394 1.78211   1
   1   4  10 68.8480 1.73802  -2
  -1  -4   9 68.8480 1.73802   1
   0   4   9 231.154 4.19677  -2
   0  -4   9 231.154 4.19677   1
  -1   4   9 10.9892 1.47814  -2
   1  -4   9 10.9892 1.47814   1
  -2   4   8 154.048 2.49265  -2
   2  -4   9 154.048 2.49265   1
  -3   4   8 31.1989 2.31837  -2
   3  -4   9 31.1989 2.31837   1
  -4   4   7 31.3763 2.72953  -2
   4  -4   9 31.3763 2.72953   1
  -5   4   7 106.483 4.37599  -2
   5  -4   9 106.483 4.37599   1
  -6   4   6 33.3177 3.71329  -2
   6  -4   9 33.3177 3.71329   1
  -7   4   6 52.5101 4.34364  -2
   7  -4   9 52.5101 4.34364   1
   7   3  13 38.5643 3.14908  -2
  -7  -3   9 38.5643 3.14908   1
   6   3  12 5.80373 2.42433  -2
  -6  -3   9 5.80373 2.42433   1
   5   3  12 5.60814 2.26053  -2
  -5  -3   9 5.60814 2.26053   1
   4   3  11 14.5685 2.09027  -2
  -4  -3   9 14.5685 2.09027   1
   3   3  11 43.2349 1.77698  -2
  -3  -3   9 43.2349 1.77698   1
   2   3  10 52.1852 1.60030  -2
  -2  -3   9 52.1852 1.60030   1
   1   3  10 91.8240 1.75358  -2
  -1  -3   9 91.8240 1.75358   1
   0   3   9 59.8995 1.33768  -2
   0  -3   9 59.8995 1.33768   1
  -1   3   9 56.7015 2.88196  -2
   1  -3   9 56.7015 2.88196   1
  -2   3   8 83.3655 2.16316  -2
   2  -3   9 83.3655 2.16316   1
  -3   3   8 24.2484 1.93419  -2
   3  -3   9 24.2484 1.93419   1
  -4   3   7 125.641 2.71519  -2
   4  -3   9 125.641 2.71519   1
  -5   3   7 49.5320 3.14544  -2
   5  -3   9 49.5320 3.14544   1
  -6   3   6 18.1225 2.89389  -2
   6  -3   9 18.1225 2.89389   1
  -7   3   6 30.9946 3.73365  -2
   7  -3   9 30.9946 3.73365   1
  -8   3   5 33.3229 3.69685  -2
   8  -3   9 33.3229 3.69685   1
   7   2  13 17.4704 3.89898  -2
  -7  -2   9 17.4704 3.89898   1
   6   2  12 41.0982 2.71165  -2
  -6  -2   9 41.0982 2.71165   1
   5   2  12 36.4637 5.65674  -2
  -5  -2   9 36.4637 5.65674   1
   4   2  11 120.862 3.17886  -2
  -4  -2   9 120.862 3.17886   1
   3   2  11 252.911 5.02523  -2
  -3  -2   9 252.911 5.02523   1
   2   2  10 90.7925 1.85432  -2
  -2  -2   9 90.7925 1.85432   1
   1   2  10 152.061 3.38661  -2
  -1  -2   9 152.061 3.38661   1
   0   2   9 72.5277 1.32189  -2
   0  -2   9 72.5277 1.32189   1
   1  -2   9 0.69841 0.36746   1
  -2   2   8 246.596 6.76862  -2
   2  -2   9 246.596 6.76862   1
  -3   2   8 118.815 2.82065  -2
   3  -2   9 118.815 2.82065   1
  -4   2   7 124.599 2.36709  -2
   4  -2   9 124.599 2.36709   1
   5  -2   9 3.80900 0.94469   1
  -6   2   6 11.6797 2.29939  -2
   6  -2   9 11.6797 2.29939   1
   7  -2   9 35.7615 2.66641   1
  -8   2   5 59.5732 3.78277  -2
   8  -2   9 59.5732 3.78277   1
   7   1  13 32.9076 6.97231  -2
  -7  -1   9 32.9076 6.97231   1
   6   1  12 15.1385 2.17046  -2
  -6  -1   9 15.1385 2.17046   1
   5   1  12 21.7390 5.60760  -2
  -5  -1   9 21.7390 5.60760   1
   4   1  11 62.5087 2.45987  -2
  -4  -1   9 62.5087 2.45987   1
  -3  -1   9 66.5898 1.68235   1
   2   1  10 48.8171 1.28192  -2
  -2  -1   9 48.8171 1.28192   1
   1   1  10 84.9614 4.46496  -2
  -1  -1   9 84.9614 4.46496   1
   0   1   9 97.4929 1.58202  -2
   0  -1   9 97.4929 1.58202   1
   1  -1   9 4.68966 0.54514   1
  -2   1   8 70.1401 3.48380  -2
   2  -1   9 70.1401 3.48380   1
   3  -1   9 31.9892 2.62863   1
   5  -1   9 47.8516 1.33535   1
  -6   1   6 64.4697 2.74049  -2
   6  -1   9 64.4697 2.74049   1
   7  -1   9 41.0183 2.12050   1
  -8   1   5 123.612 4.60678  -2
   8  -1   9 123.612 4.60678   1
   9  -1   9 26.0397 2.18642   1
   7   0  12 21.0009 6.81551  -2
  -7   0   9 21.0009 6.81551   1
   6   0  12 76.9086 2.95153  -2
  -6   0   9 76.9086 2.95153   1
  -5   0   9 78.2923 2.67610   1
   4   0  11 145.324 2.68916  -2
  -4   0   9 145.324 2.68916   1
  -3   0   9 30.3853 1.06589   1
   2   0  10 8.19085 0.80373  -2
  -2   0   9 8.19085 0.80373   1
  -1   0   9 0.87777 0.46117   1
   0   0   9 39.5877 0.92313  -2
   0   0   9 39.5877 0.92313   1
   1   0   9 67.7549 1.23790   1
  -2   0   8 176.785 5.39335  -2
   2   0   9 176.785 5.39335   1
   3   0   9 29.4952 2.47639   1
   5   0   9 6.46479 0.55150   1
  -6   0   6 61.8446 2.03351  -2
   6   0   9 61.8446 2.03351   1
   7   0   9 0.79779 0.92333   1
  -8   0   5 16.8935 1.93267  -2
   8   0   9 16.8935 1.93267   1
   9   0   9 9.74277 1.58554   1
  -7   1   9 3.77152 1.46563   1
   6  -1  12 32.5825 2.54670  -2
  -6   1   9 32.5825 2.54670   1
   5  -1  11 20.9416 5.53184  -2
  -5   1   9 20.9416 5.53184   1
   4  -1  11 68.0439 2.58516  -2
  -4   1   9 68.0439 2.58516   1
  -3   1   9 15.5483 1.02325   1
   2  -1  10 85.5461 1.58099  -2
  -2   1   9 85.5461 1.58099   1
  -1   1   9 1.80703 0.51229   1
   0  -1   9 78.3238 1.48705  -2
   0   1   9 78.3238 1.48705   1
   1   1   9 2.51550 0.35959   1
  -2  -1   8 73.2999 3.48756  -2
   2   1   9 73.2999 3.48756   1
   3   1   9 8.47925 1.61561   1
   5   1   9 201.682 3.18209   1
  -6  -1   6 46.9882 1.52550  -2
   6   1   9 46.9882 1.52550   1
   7   1   9 59.5847 2.25502   1
  -8  -1   5 32.8081 2.39027  -2
   8   1   9 32.8081 2.39027   1
  -9  -1   4 30.8104 4.14070  -2
   9   1   9 30.8104 4.14070   1
   6  -2  12 88.2558 3.49030  -2
  -6   2   9 88.2558 3.49030   1
   5  -2  11 6.36856 3.25171  -2
  -5   2   9 6.36856 3.25171   1
   4  -2  11 60.4834 2.72288  -2
  -4   2   9 60.4834 2.72288   1
   3  -2  10 154.291 6.97507  -2
  -3   2   9 154.291 6.97507   1
   2  -2  10 133.807 2.11256  -2
  -2   2   9 133.807 2.11256   1
   1  -2   9 49.4344 2.69806  -2
  -1   2   9 49.4344 2.69806   1
   0  -2   9 86.5995 1.76958  -2
   0   2   9 86.5995 1.76958   1
   1   2   9 141.066 2.01372   1
  -2  -2   8 104.747 1.79747  -2
   2   2   9 104.747 1.79747   1
  -3  -2   7 69.7948 2.00099  -2
   3   2   9 69.7948 2.00099   1
  -4  -2   7 9.58452 0.69128  -2
   4   2   9 9.58452 0.69128   1
  -5  -2   6 299.649 6.62255  -2
   5   2   9 299.649 6.62255   1
  -6  -2   6 68.1374 1.88460  -2
   6   2   9 68.1374 1.88460   1
  -7  -2   5 27.3383 2.73458  -2
   7   2   9 27.3383 2.73458   1
  -8  -2   5 124.582 3.72003  -2
   8   2   9 124.582 3.72003   1
  -9  -2   4 0.51146 3.58796  -2
   9   2   9 0.51146 3.58796   1
 -10  -2   4 37.3457 5.38966  -2
  10   2   9 37.3457 5.38966   1
   6  -3  12 29.3958 4.12279  -2
  -6   3   9 29.3958 4.12279   1
   5  -3  11 35.7571 3.93628  -2
  -5   3   9 35.7571 3.93628   1
   4  -3  11 1.64329 2.27385  -2
  -4   3   9 1.64329 2.27385   1
   3  -3  10 126.505 3.46762  -2
  -3   3   9 126.505 3.46762   1
   2  -3  10 42.9289 1.83506  -2
  -2   3   9 42.9289 1.83506   1
   1  -3   9 56.9646 2.03956  -2
  -1   3   9 56.9646 2.03956   1
   0  -3   9 56.5242 1.69728  -2
   0   3   9 56.5242 1.69728   1
  -1  -3   8 14.6974 1.29648  -2
   1   3   9 14.6974 1.29648   1
  -2  -3   8 83.9383 1.58869  -2
   2   3   9 83.9383 1.58869   1
  -3  -3   7 119.409 2.75956  -2
   3   3   9 119.409 2.75956   1
  -4  -3   7 203.087 3.44153  -2
   4   3   9 203.087 3.44153   1
  -5  -3   6 140.442 3.80604  -2
   5   3   9 140.442 3.80604   1
  -6  -3   6 93.1096 3.25295  -2
   6   3   9 93.1096 3.25295   1
  -7  -3   5 20.0633 2.19077  -2
   7   3   9 20.0633 2.19077   1
  -8  -3   5 205.186 4.86686  -2
   8   3   9 205.186 4.86686   1
  -9  -3   4 52.1375 3.27326  -2
   9   3   9 52.1375 3.27326   1
 -10  -3   4 27.7314 5.54416  -2
  10   3   9 27.7314 5.54416   1
   5  -4  11 0.77532 3.49011  -2
  -5   4   9 0.77532 3.49011   1
   4  -4  11 106.822 4.88288  -2
  -4   4   9 106.822 4.88288   1
   3  -4  10 98.8213 4.28253  -2
  -3   4   9 98.8213 4.28253   1
   2  -4  10 63.7960 2.73865  -2
  -2   4   9 63.7960 2.73865   1
   1  -4   9 6.86977 1.53722  -2
  -1   4   9 6.86977 1.53722   1
   0  -4   9 181.435 3.05921  -2
   0   4   9 181.435 3.05921   1
  -1  -4   8 183.877 3.04983  -2
   1   4   9 183.877 3.04983   1
  -2  -4   8 141.961 6.21776  -2
   2   4   9 141.961 6.21776   1
  -3  -4   7 32.5948 1.32458  -2
   3   4   9 32.5948 1.32458   1
  -4  -4   7 310.320 5.15019  -2
   4   4   9 310.320 5.15019   1
  -5  -4   6 92.1605 3.36597  -2
   5   4   9 92.1605 3.36597   1
  -6  -4   6 14.4440 2.26452  -2
   6   4   9 14.4440 2.26452   1
  -7  -4   5 16.6991 2.08604  -2
   7   4   9 16.6991 2.08604   1
  -8  -4   5 66.0600 3.10002  -2
   8   4   9 66.0600 3.10002   1
  -9  -4   4 37.8200 2.89566  -2
   9   4   9 37.8200 2.89566   1
 -10  -4   4 8.67119 4.70932  -2
  10   4   9 8.67119 4.70932   1
   5  -5  11 4.75255 3.50739  -2
  -5   5   9 4.75255 3.50739   1
   4  -5  11 194.230 6.43786  -2
  -4   5   9 194.230 6.43786   1
   3  -5  10 19.7266 3.13216  -2
  -3   5   9 19.7266 3.13216   1
   2  -5  10 66.6616 5.76887  -2
  -2   5   9 66.6616 5.76887   1
   1  -5   9 70.9277 2.89797  -2
  -1   5   9 70.9277 2.89797   1
   0  -5   9 130.798 8.04522  -2
   0   5   9 130.798 8.04522   1
  -1  -5   8 187.124 2.54145  -2
   1   5   9 187.124 2.54145   1
   2   5   9 26.0396 1.21574   1
  -3  -5   7 59.9868 1.86503  -2
   3   5   9 59.9868 1.86503   1
   4   5   9 88.5272 1.94487   1
  -5  -5   6 152.014 3.78809  -2
   5   5   9 152.014 3.78809   1
   6   5   9 0.95009 0.81565   1
  -7  -5   5 47.3587 2.39932  -2
   7   5   9 47.3587 2.39932   1
  -8  -5   5 8.14498 2.99972  -2
   8   5   9 8.14498 2.99972   1
  -9  -5   4 17.2873 2.49643  -2
   9   5   9 17.2873 2.49643   1
  10   5   9 57.8506 4.90726   1
   4  -6  11 45.7574 7.36466  -2
  -4   6   9 45.7574 7.36466   1
   3  -6  10 56.4953 3.62131  -2
  -3   6   9 56.4953 3.62131   1
  -2   6   9 132.622 6.73873   1
   1  -6   9 24.5736 3.82974  -2
  -1   6   9 24.5736 3.82974   1
   0   6   9 108.996 3.11485   1
  -1  -6   8 124.343 2.95049  -2
   1   6   9 124.343 2.95049   1
   2   6   9 9.47847 0.57645   1
  -3  -6   7 61.8370 1.97084  -2
   3   6   9 61.8370 1.97084   1
   4   6   9 82.9303 2.09131   1
  -5  -6   6 211.755 4.89683  -2
   5   6   9 211.755 4.89683   1
   6   6   9 46.2955 1.81132   1
  -7  -6   5 22.5297 1.82627  -2
   7   6   9 22.5297 1.82627   1
   8   6   9 14.4626 1.36770   1
  -9  -6   4 35.7120 2.28555  -2
   9   6   9 35.7120 2.28555   1
  10   6   9 55.6752 4.71254   1
   3  -7  10 31.9632 2.82652  -2
  -3   7   9 31.9632 2.82652   1
  -2   7   9 137.205 7.10130   1
   1  -7   9 63.2973 5.00748  -2
  -1   7   9 63.2973 5.00748   1
   0   7   9 57.6706 4.42215   1
  -1  -7   8 97.6189 2.98039  -2
   1   7   9 97.6189 2.98039   1
   2   7   9 17.0180 1.42668   1
  -3  -7   7 100.315 1.70370  -2
   3   7   9 100.315 1.70370   1
   4   7   9 28.9945 1.59000   1
  -5  -7   6 2.13907 1.68482  -2
   5   7   9 2.13907 1.68482   1
   6   7   9 22.7827 1.90728   1
  -7  -7   5 2.73291 1.64188  -2
   7   7   9 2.73291 1.64188   1
  -8  -7   4 13.5212 6.85465  -2
   8   7   9 13.5212 6.85465   1
  -9  -7   4 68.5127 4.59922  -2
   9   7   9 68.5127 4.59922   1
  10   7   9 13.9849 2.87907   1
   3  -8  10 74.8735 5.65558  -2
  -3   8   9 74.8735 5.65558   1
   2  -8   9 7.45803 6.24158  -2
  -2   8   9 7.45803 6.24158   1
   1  -8   9 51.9008 5.46521  -2
  -1   8   9 51.9008 5.46521   1
   0   8   9 20.2374 3.27811   1
  -1  -8   8 44.5774 4.62860  -2
   1   8   9 44.5774 4.62860   1
   2   8   9 127.115 3.48927   1
  -3  -8   7 15.5284 1.32330  -2
   3   8   9 15.5284 1.32330   1
   4   8   9 209.238 3.34483   1
  -5  -8   6 135.835 3.26255  -2
   5   8   9 135.835 3.26255   1
  -6  -8   5 -0.3116 8.36916  -2
   6   8   9 -0.3116 8.36916   1
  -7  -8   5 -0.4202 5.76785  -2
   7   8   9 -0.4202 5.76785   1
   8   8   9 -0.8474 3.09436   1
   1  -9   9 6.13201 5.24262  -2
  -1   9   9 6.13201 5.24262   1
   0  -9   8 52.8722 6.68942  -2
   0   9   9 52.8722 6.68942   1
  -1  -9   8 7.57493 4.73376  -2
   1   9   9 7.57493 4.73376   1
   2   9   9 11.6776 2.76596   1
  -3  -9   7 157.070 4.29145  -2
   3   9   9 157.070 4.29145   1
   4   9   9 16.2399 1.16531   1
  -5  -9   6 187.709 3.71999  -2
   5   9   9 187.709 3.71999   1
   6   9   9 29.7094 1.31655   1
   0 -10   8 48.9603 6.74706  -2
   0  10   9 48.9603 6.74706   1
  -1 -10   8 285.067 11.7804  -2
   1  10   9 285.067 11.7804   1
  -2 -10   7 22.8831 5.34900  -2
   2  10   9 22.8831 5.34900   1
  -3 -10   7 44.1257 5.85601  -2
   3  10   9 44.1257 5.85601   1
  -4 -10   6 12.3847 4.82678  -2
   4  10   9 12.3847 4.82678   1
  -5 -10   6 44.7319 2.41445  -2
   5  10   9 44.7319 2.41445   1
   6  10   9 82.1531 2.35766   1
  -7 -10   5 16.9380 1.63191  -2
   7  10   9 16.9380 1.63191   1
   1  11   9 89.3976 6.77870   1
  -2 -11   7 149.743 8.42909  -2
   2  11   9 149.743 8.42909   1
  -3 -11   7 80.7644 7.14738  -2
   3  11   9 80.7644 7.14738   1
  -4 -11   6 16.6951 5.09006  -2
   4  11   9 16.6951 5.09006   1
  -5 -11   6 1.55601 5.39456  -2
   5  11   9 1.55601 5.39456   1
  -7 -11   5 63.8064 3.81787  -2
   7  11   9 63.8064 3.81787   1
  -8 -11   4 26.1799 2.00414  -2
   8  11   9 26.1799 2.00414   1
  -4 -12   6 21.9838 5.43214  -2
   4  12   9 21.9838 5.43214   1
   5  12   9 17.2651 3.52693   1
  -4  -9  10 8.89176 2.69196   1
   3   9  12 20.2114 4.64249  -2
  -3  -9  10 20.2114 4.64249   1
   2   9  12 35.4425 5.32209  -2
  -2  -9  10 35.4425 5.32209   1
   1   9  11 45.8877 4.59804  -2
  -1  -9  10 45.8877 4.59804   1
   5   8  13 130.275 7.54515  -2
  -5  -8  10 130.275 7.54515   1
   4   8  13 49.7602 6.45958  -2
  -4  -8  10 49.7602 6.45958   1
   3   8  12 22.9438 3.07684  -2
  -3  -8  10 22.9438 3.07684   1
   2   8  12 19.6892 4.75824  -2
  -2  -8  10 19.6892 4.75824   1
   1   8  11 122.554 3.26110  -2
  -1  -8  10 122.554 3.26110   1
   0  -8  10 89.1573 4.23193   1
  -1   8  10 16.1611 2.85774  -2
   1  -8  10 16.1611 2.85774   1
   2  -8  10 6.44793 1.80639   1
  -3   8   9 67.1913 4.07956  -2
   3  -8  10 67.1913 4.07956   1
  -6  -7  10 5.08258 1.91240   1
   5   7  13 46.9398 3.20369  -2
  -5  -7  10 46.9398 3.20369   1
  -4  -7  10 8.43802 1.47691   1
   3   7  12 59.6539 2.79510  -2
  -3  -7  10 59.6539 2.79510   1
  -2  -7  10 9.72937 1.00323   1
   1   7  11 9.68473 1.38458  -2
  -1  -7  10 9.68473 1.38458   1
   0  -7  10 0.82826 1.18998   1
  -1   7  10 24.2178 2.11555  -2
   1  -7  10 24.2178 2.11555   1
   2  -7  10 19.0258 1.88743   1
  -3   7   9 33.4993 2.88851  -2
   3  -7  10 33.4993 2.88851   1
   4  -7  10 1.43023 1.63960   1
   6   6  13 31.7761 6.52947  -2
  -6  -6  10 31.7761 6.52947   1
   5   6  13 57.2350 3.48501  -2
  -5  -6  10 57.2350 3.48501   1
  -4  -6  10 43.7408 2.14617   1
   3   6  12 100.360 2.77876  -2
  -3  -6  10 100.360 2.77876   1
  -2  -6  10 64.1136 1.54655   1
   1   6  11 77.2712 2.07218  -2
  -1  -6  10 77.2712 2.07218   1
   0  -6  10 19.3039 1.71206   1
  -1   6  10 10.8633 1.96770  -2
   1  -6  10 10.8633 1.96770   1
   2  -6  10 37.8158 2.57435   1
  -3   6   9 48.8217 3.14565  -2
   3  -6  10 48.8217 3.14565   1
   4  -6  10 1.77739 1.41449   1
  -5   6   8 3.51832 2.90630  -2
   5  -6  10 3.51832 2.90630   1
  -7  -5  10 11.5280 2.09301   1
   6   5  13 44.8782 6.39195  -2
  -6  -5  10 44.8782 6.39195   1
   5   5  13 8.60560 2.96271  -2
  -5  -5  10 8.60560 2.96271   1
   4   5  12 24.5397 4.86361  -2
  -4  -5  10 24.5397 4.86361   1
   3   5  12 25.5335 1.57229  -2
  -3  -5  10 25.5335 1.57229   1
   2   5  11 17.6704 4.07469  -2
  -2  -5  10 17.6704 4.07469   1
   1   5  11 7.45531 1.40202  -2
  -1  -5  10 7.45531 1.40202   1
   0   5  10 136.614 7.80400  -2
   0  -5  10 136.614 7.80400   1
  -1   5  10 18.9679 1.71905  -2
   1  -5  10 18.9679 1.71905   1
  -2   5   9 54.0074 6.28728  -2
   2  -5  10 54.0074 6.28728   1
  -3   5   9 27.9325 2.69817  -2
   3  -5  10 27.9325 2.69817   1
   4  -5  10 15.9134 1.78528   1
  -5   5   8 60.4922 3.80146  -2
   5  -5  10 60.4922 3.80146   1
  -6   5   7 104.777 5.26547  -2
   6  -5  10 104.777 5.26547   1
   7   4  14 58.1108 3.47628  -2
  -7  -4  10 58.1108 3.47628   1
   6   4  13 44.2057 4.23464  -2
  -6  -4  10 44.2057 4.23464   1
   5   4  13 90.2522 4.11234  -2
  -5  -4  10 90.2522 4.11234   1
   4   4  12 71.1188 3.77785  -2
  -4  -4  10 71.1188 3.77785   1
   3   4  12 13.1187 1.57541  -2
  -3  -4  10 13.1187 1.57541   1
   2   4  11 3.78288 1.39919  -2
  -2  -4  10 3.78288 1.39919   1
   1   4  11 84.7923 2.16267  -2
  -1  -4  10 84.7923 2.16267   1
   0   4  10 267.189 6.10600  -2
   0  -4  10 267.189 6.10600   1
  -1   4  10 151.722 3.13880  -2
   1  -4  10 151.722 3.13880   1
  -2   4   9 46.7602 2.11138  -2
   2  -4  10 46.7602 2.11138   1
  -3   4   9 78.8532 3.12169  -2
   3  -4  10 78.8532 3.12169   1
  -4   4   8 64.8421 3.26161  -2
   4  -4  10 64.8421 3.26161   1
  -5   4   8 44.6027 3.23041  -2
   5  -4  10 44.6027 3.23041   1
  -6   4   7 122.452 5.07739  -2
   6  -4  10 122.452 5.07739   1
   7   3  14 72.8258 5.91976  -2
  -7  -3  10 72.8258 5.91976   1
   6   3  13 4.41134 2.59005  -2
  -6  -3  10 4.41134 2.59005   1
   5   3  13 71.2739 4.01366  -2
  -5  -3  10 71.2739 4.01366   1
   4   3  12 59.5461 3.49042  -2
  -4  -3  10 59.5461 3.49042   1
   3   3  12 46.4891 1.89604  -2
  -3  -3  10 46.4891 1.89604   1
   2   3  11 93.3365 2.00760  -2
  -2  -3  10 93.3365 2.00760   1
   1   3  11 52.3932 1.87652  -2
  -1  -3  10 52.3932 1.87652   1
   0   3  10 128.127 2.78082  -2
   0  -3  10 128.127 2.78082   1
  -1   3  10 33.1119 1.30556  -2
   1  -3  10 33.1119 1.30556   1
  -2   3   9 41.8770 1.25954  -2
   2  -3  10 41.8770 1.25954   1
  -3   3   9 72.5886 2.53720  -2
   3  -3  10 72.5886 2.53720   1
  -4   3   8 105.087 2.43483  -2
   4  -3  10 105.087 2.43483   1
  -5   3   8 8.04730 2.44523  -2
   5  -3  10 8.04730 2.44523   1
  -6   3   7 32.3666 3.03152  -2
   6  -3  10 32.3666 3.03152   1
  -7   3   7 36.1699 3.70981  -2
   7  -3  10 36.1699 3.70981   1
  -7  -2  10 -0.4390 1.33074   1
   6   2  13 3.79199 2.38080  -2
  -6  -2  10 3.79199 2.38080   1
   5   2  13 57.5638 3.20253  -2
  -5  -2  10 57.5638 3.20253   1
   4   2  12 54.9219 2.55703  -2
  -4  -2  10 54.9219 2.55703   1
   3   2  12 73.7971 5.11091  -2
  -3  -2  10 73.7971 5.11091   1
   2   2  11 291.599 3.70788  -2
  -2  -2  10 291.599 3.70788   1
   1   2  11 220.275 4.25046  -2
  -1  -2  10 220.275 4.25046   1
   0   2  10 379.872 4.61513  -2
   0  -2  10 379.872 4.61513   1
   1  -2  10 71.8277 1.44595   1
  -2   2   9 109.847 2.30931  -2
   2  -2  10 109.847 2.30931   1
   3  -2  10 63.9219 3.47162   1
  -4   2   8 194.642 3.24086  -2
   4  -2  10 194.642 3.24086   1
   5  -2  10 14.8864 1.49163   1
  -6   2   7 49.1441 2.82231  -2
   6  -2  10 49.1441 2.82231   1
   7  -2  10 1.59808 1.22580   1
  -8   2   6 35.4130 3.28371  -2
   8  -2  10 35.4130 3.28371   1
  -7  -1  10 34.7216 2.33409   1
   6   1  13 24.3659 2.36335  -2
  -6  -1  10 24.3659 2.36335   1
   5   1  13 20.9183 5.98483  -2
  -5  -1  10 20.9183 5.98483   1
   4   1  12 8.02034 1.89828  -2
  -4  -1  10 8.02034 1.89828   1
   3   1  12 155.433 8.60703  -2
  -3  -1  10 155.433 8.60703   1
   2   1  11 37.9168 1.52786  -2
  -2  -1  10 37.9168 1.52786   1
  -1  -1  10 25.8667 1.16838   1
   0   1  10 266.691 3.80037  -2
   0  -1  10 266.691 3.80037   1
   1  -1  10 199.541 2.63379   1
  -2   1   9 105.010 4.30432  -2
   2  -1  10 105.010 4.30432   1
   3  -1  10 55.6933 3.27610   1
   5  -1  10 1.46640 0.50462   1
  -6   1   7 4.10413 1.59854  -2
   6  -1  10 4.10413 1.59854   1
   7  -1  10 134.839 4.29822   1
  -8   1   6 97.3673 4.02331  -2
   8  -1  10 97.3673 4.02331   1
   6   0  13 61.2358 2.79759  -2
  -6   0  10 61.2358 2.79759   1
  -5   0  10 38.9478 2.33261   1
   4   0  12 40.8447 1.58266  -2
  -4   0  10 40.8447 1.58266   1
  -3   0  10 5.70018 1.05688   1
   2   0  11 94.8031 1.82973  -2
  -2   0  10 94.8031 1.82973   1
  -1   0  10 188.765 2.54379   1
   0   0  10 297.477 3.64620  -2
   0   0  10 297.477 3.64620   1
   1   0  10 196.090 2.83268   1
  -2   0   9 8.74342 2.17724  -2
   2   0  10 8.74342 2.17724   1
   3   0  10 263.056 7.19826   1
  -4   0   8 306.345 8.25464  -2
   4   0  10 306.345 8.25464   1
  -6   0   7 81.7099 1.91886  -2
   6   0  10 81.7099 1.91886   1
   7   0  10 12.9631 1.52154   1
  -8   0   6 66.0691 2.70224  -2
   8   0  10 66.0691 2.70224   1
   9   0  10 16.3334 1.76847   1
   6  -1  13 23.8379 2.59478  -2
  -6   1  10 23.8379 2.59478   1
   5  -1  12 10.4328 5.49521  -2
  -5   1  10 10.4328 5.49521   1
   4  -1  12 204.422 4.30694  -2
  -4   1  10 204.422 4.30694   1
  -3   1  10 17.9253 1.09699   1
   2  -1  11 40.8424 1.55649  -2
  -2   1  10 40.8424 1.55649   1
   1  -1  10 219.844 6.63115  -2
  -1   1  10 219.844 6.63115   1
   0  -1  10 263.726 4.05166  -2
   0   1  10 263.726 4.05166   1
   1   1  10 119.531 2.03708   1
  -2  -1   9 41.2086 1.29265  -2
   2   1  10 41.2086 1.29265   1
   3   1  10 49.4441 3.03644   1
  -6  -1   7 51.0819 1.56447  -2
   6   1  10 51.0819 1.56447   1
  -7  -1   6 204.703 5.82986  -2
   7   1  10 204.703 5.82986   1
  -8  -1   6 1.14478 2.31605  -2
   8   1  10 1.14478 2.31605   1
  -9  -1   5 34.2321 4.14686  -2
   9   1  10 34.2321 4.14686   1
   6  -2  13 29.8683 2.89228  -2
  -6   2  10 29.8683 2.89228   1
   5  -2  12 58.6819 4.29609  -2
  -5   2  10 58.6819 4.29609   1
   4  -2  12 19.1931 2.30731  -2
  -4   2  10 19.1931 2.30731   1
   3  -2  11 47.7845 3.48689  -2
  -3   2  10 47.7845 3.48689   1
   2  -2  11 61.1843 1.69402  -2
  -2   2  10 61.1843 1.69402   1
   1  -2  10 83.6122 2.62276  -2
  -1   2  10 83.6122 2.62276   1
   0  -2  10 457.185 5.46371  -2
   0   2  10 457.185 5.46371   1
   1   2  10 21.2625 0.85750   1
  -2  -2   9 104.398 2.48573  -2
   2   2  10 104.398 2.48573   1
   3   2  10 39.5786 0.94314   1
  -4  -2   8 162.589 3.69153  -2
   4   2  10 162.589 3.69153   1
   5   2  10 275.084 4.23084   1
  -6  -2   7 104.015 2.32014  -2
   6   2  10 104.015 2.32014   1
  -7  -2   6 135.597 4.60088  -2
   7   2  10 135.597 4.60088   1
  -8  -2   6 47.1495 3.22714  -2
   8   2  10 47.1495 3.22714   1
  -9  -2   5 -0.2604 2.89392  -2
   9   2  10 -0.2604 2.89392   1
   5  -3  12 104.847 5.10373  -2
  -5   3  10 104.847 5.10373   1
   4  -3  12 9.48857 2.51290  -2
  -4   3  10 9.48857 2.51290   1
   3  -3  11 7.37516 2.31982  -2
  -3   3  10 7.37516 2.31982   1
   2  -3  11 125.587 2.63668  -2
  -2   3  10 125.587 2.63668   1
   1  -3  10 42.6444 1.96416  -2
  -1   3  10 42.6444 1.96416   1
   0  -3  10 148.506 2.63810  -2
   0   3  10 148.506 2.63810   1
  -1  -3   9 80.3385 2.01036  -2
   1   3  10 80.3385 2.01036   1
  -2  -3   9 43.8504 1.97149  -2
   2   3  10 43.8504 1.97149   1
  -3  -3   8 139.621 3.11399  -2
   3   3  10 139.621 3.11399   1
  -4  -3   8 165.885 4.23441  -2
   4   3  10 165.885 4.23441   1
  -5  -3   7 22.6740 1.36172  -2
   5   3  10 22.6740 1.36172   1
  -6  -3   7 71.9298 2.90878  -2
   6   3  10 71.9298 2.90878   1
  -7  -3   6 4.88403 2.34482  -2
   7   3  10 4.88403 2.34482   1
  -8  -3   6 43.8131 3.22813  -2
   8   3  10 43.8131 3.22813   1
  -9  -3   5 46.5835 3.24743  -2
   9   3  10 46.5835 3.24743   1
   5  -4  12 83.9874 4.78197  -2
  -5   4  10 83.9874 4.78197   1
   4  -4  12 46.5152 4.18956  -2
  -4   4  10 46.5152 4.18956   1
   3  -4  11 81.0215 4.17638  -2
  -3   4  10 81.0215 4.17638   1
   2  -4  11 52.3213 2.20643  -2
  -2   4  10 52.3213 2.20643   1
   1  -4  10 190.304 3.31214  -2
  -1   4  10 190.304 3.31214   1
   0  -4  10 212.310 4.05787  -2
   0   4  10 212.310 4.05787   1
  -1  -4   9 57.8880 1.75592  -2
   1   4  10 57.8880 1.75592   1
  -2  -4   9 58.5407 1.77531  -2
   2   4  10 58.5407 1.77531   1
  -3  -4   8 431.106 5.95411  -2
   3   4  10 431.106 5.95411   1
  -4  -4   8 417.919 9.32180  -2
   4   4  10 417.919 9.32180   1
  -5  -4   7 96.9750 3.49416  -2
   5   4  10 96.9750 3.49416   1
  -6  -4   7 37.0399 2.64357  -2
   6   4  10 37.0399 2.64357   1
  -7  -4   6 0.65735 2.26414  -2
   7   4  10 0.65735 2.26414   1
  -8  -4   6 46.2479 3.50906  -2
   8   4  10 46.2479 3.50906   1
  -9  -4   5 41.7909 3.03575  -2
   9   4  10 41.7909 3.03575   1
  10   4  10 4.35430 1.45025   1
   4  -5  12 154.059 6.06509  -2
  -4   5  10 154.059 6.06509   1
   3  -5  11 198.839 5.89845  -2
  -3   5  10 198.839 5.89845   1
   2  -5  11 137.373 5.10660  -2
  -2   5  10 137.373 5.10660   1
   1  -5  10 26.0090 2.38048  -2
  -1   5  10 26.0090 2.38048   1
   0  -5  10 152.524 8.74539  -2
   0   5  10 152.524 8.74539   1
  -1  -5   9 88.7232 2.14436  -2
   1   5  10 88.7232 2.14436   1
   2   5  10 19.3234 1.16445   1
  -3  -5   8 60.2174 1.87605  -2
   3   5  10 60.2174 1.87605   1
   4   5  10 3.94494 0.79700   1
  -5  -5   7 12.4100 2.08211  -2
   5   5  10 12.4100 2.08211   1
   6   5  10 -0.1444 0.90613   1
  -7  -5   6 11.2013 2.45248  -2
   7   5  10 11.2013 2.45248   1
  -8  -5   6 62.0285 3.92585  -2
   8   5  10 62.0285 3.92585   1
  -9  -5   5 3.24996 2.22161  -2
   9   5  10 3.24996 2.22161   1
  10   5  10 9.51101 1.62178   1
  -4   6  10 1.72580 2.43633   1
   3  -6  11 22.3761 3.24323  -2
  -3   6  10 22.3761 3.24323   1
  -2   6  10 0.47221 1.53126   1
   1  -6  10 6.62307 3.71636  -2
  -1   6  10 6.62307 3.71636   1
   0   6  10 19.8799 1.55898   1
  -1  -6   9 28.9412 1.62823  -2
   1   6  10 28.9412 1.62823   1
   2   6  10 116.855 2.44935   1
  -3  -6   8 100.890 2.67867  -2
   3   6  10 100.890 2.67867   1
   4   6  10 21.2712 1.41348   1
  -5  -6   7 26.5128 1.61634  -2
   5   6  10 26.5128 1.61634   1
   6   6  10 0.19441 1.00111   1
  -7  -6   6 34.1861 2.89060  -2
   7   6  10 34.1861 2.89060   1
   8   6  10 44.0653 2.33814   1
  -9  -6   5 71.3840 3.17693  -2
   9   6  10 71.3840 3.17693   1
  10   6  10 -0.6551 2.27064   1
   3  -7  11 109.416 4.61351  -2
  -3   7  10 109.416 4.61351   1
  -2   7  10 25.1877 2.62386   1
   1  -7  10 33.6229 4.22701  -2
  -1   7  10 33.6229 4.22701   1
   0   7  10 62.7642 2.57655   1
  -1  -7   9 101.725 2.93183  -2
   1   7  10 101.725 2.93183   1
   2   7  10 13.7955 0.92701   1
  -3  -7   8 36.9676 1.93906  -2
   3   7  10 36.9676 1.93906   1
   4   7  10 5.71088 1.00721   1
  -5  -7   7 4.15984 1.29695  -2
   5   7  10 4.15984 1.29695   1
   6   7  10 21.4311 1.80351   1
  -7  -7   6 8.58040 4.09511  -2
   7   7  10 8.58040 4.09511   1
   8   7  10 7.47225 1.21885   1
  -9  -7   5 103.599 5.52034  -2
   9   7  10 103.599 5.52034   1
   2  -8  10 19.3972 6.70361  -2
  -2   8  10 19.3972 6.70361   1
   1  -8  10 22.4894 5.01974  -2
  -1   8  10 22.4894 5.01974   1
   0   8  10 6.26545 2.55054   1
  -1  -8   9 32.3131 2.33464  -2
   1   8  10 32.3131 2.33464   1
   2   8  10 19.7184 1.59920   1
  -3  -8   8 70.8581 1.78087  -2
   3   8  10 70.8581 1.78087   1
  -4  -8   7 95.7019 8.47145  -2
   4   8  10 95.7019 8.47145   1
  -5  -8   7 92.7215 5.19056  -2
   5   8  10 92.7215 5.19056   1
  -6  -8   6 -0.0902 7.49609  -2
   6   8  10 -0.0902 7.49609   1
  -7  -8   6 15.1743 5.42595  -2
   7   8  10 15.1743 5.42595   1
   8   8  10 76.5235 5.97452   1
   1  -9  10 52.9762 6.53969  -2
  -1   9  10 52.9762 6.53969   1
   0  -9   9 206.477 9.92412  -2
   0   9  10 206.477 9.92412   1
  -1  -9   9 150.134 7.93435  -2
   1   9  10 150.134 7.93435   1
  -2  -9   8 17.6095 5.30404  -2
   2   9  10 17.6095 5.30404   1
  -3  -9   8 96.0843 2.44317  -2
   3   9  10 96.0843 2.44317   1
   4   9  10 23.2159 1.20428   1
  -5  -9   7 169.779 7.47087  -2
   5   9  10 169.779 7.47087   1
   6   9  10 1.21888 1.85082   1
  -7  -9   6 7.83417 6.88305  -2
   7   9  10 7.83417 6.88305   1
  -1 -10   9 11.6270 5.67612  -2
   1  10  10 11.6270 5.67612   1
  -2 -10   8 42.6321 6.28230  -2
   2  10  10 42.6321 6.28230   1
  -3 -10   8 29.9354 5.28454  -2
   3  10  10 29.9354 5.28454   1
  -4 -10   7 2.88013 2.41558  -2
   4  10  10 2.88013 2.41558   1
  -5 -10   7 31.6835 1.71005  -2
   5  10  10 31.6835 1.71005   1
  -3 -11   8 52.1179 6.38986  -2
   3  11  10 52.1179 6.38986   1
  -4 -11   7 43.6610 5.95040  -2
   4  11  10 43.6610 5.95040   1
  -5 -11   7 19.6592 2.02587  -2
   5  11  10 19.6592 2.02587   1
  -6 -11   6 41.3495 2.14296  -2
   6  11  10 41.3495 2.14296   1
  -4  -8  11 7.03523 2.62650   1
   3   8  13 35.4388 4.38119  -2
  -3  -8  11 35.4388 4.38119   1
   1   8  12 85.0957 4.45874  -2
  -1  -8  11 85.0957 4.45874   1
   0  -8  11 31.0308 3.17798   1
  -1   8  11 8.21185 2.72774  -2
   1  -8  11 8.21185 2.72774   1
   5   7  14 161.239 5.16443  -2
  -5  -7  11 161.239 5.16443   1
  -4  -7  11 22.3090 2.24315   1
   3   7  13 8.24570 3.17536  -2
  -3  -7  11 8.24570 3.17536   1
  -2  -7  11 11.3442 1.49026   1
   1   7  12 13.5771 2.05695  -2
  -1  -7  11 13.5771 2.05695   1
   0  -7  11 29.2907 2.76086   1
  -1   7  11 72.2426 3.62761  -2
   1  -7  11 72.2426 3.62761   1
   2  -7  11 3.34754 1.53705   1
  -3   7  10 106.528 4.40501  -2
   3  -7  11 106.528 4.40501   1
   5   6  14 58.5844 3.67850  -2
  -5  -6  11 58.5844 3.67850   1
  -4  -6  11 34.3671 1.94355   1
   3   6  13 11.7421 1.55028  -2
  -3  -6  11 11.7421 1.55028   1
  -2  -6  11 124.565 2.69185   1
   1   6  12 130.448 3.25036  -2
  -1  -6  11 130.448 3.25036   1
   0  -6  11 3.88621 1.25102   1
  -1   6  11 18.5638 2.13831  -2
   1  -6  11 18.5638 2.13831   1
   2  -6  11 25.7951 2.39724   1
  -3   6  10 21.2369 2.65573  -2
   3  -6  11 21.2369 2.65573   1
   4  -6  11 43.1280 2.96874   1
   6   5  14 114.680 8.02181  -2
  -6  -5  11 114.680 8.02181   1
   5   5  14 108.146 4.54393  -2
  -5  -5  11 108.146 4.54393   1
   4   5  13 8.25559 4.74651  -2
  -4  -5  11 8.25559 4.74651   1
   3   5  13 9.03564 1.49093  -2
  -3  -5  11 9.03564 1.49093   1
   2   5  12 38.7285 3.60941  -2
  -2  -5  11 38.7285 3.60941   1
   1   5  12 158.406 3.55704  -2
  -1  -5  11 158.406 3.55704   1
   0   5  11 64.3867 3.86063  -2
   0  -5  11 64.3867 3.86063   1
  -1   5  11 95.1707 2.68886  -2
   1  -5  11 95.1707 2.68886   1
   2  -5  11 145.643 4.42920   1
  -3   5  10 199.673 5.72029  -2
   3  -5  11 199.673 5.72029   1
   4  -5  11 34.8643 2.46610   1
  -5   5   9 9.48062 2.81884  -2
   5  -5  11 9.48062 2.81884   1
   6   4  14 68.8082 4.68114  -2
  -6  -4  11 68.8082 4.68114   1
   5   4  14 169.887 5.49427  -2
  -5  -4  11 169.887 5.49427   1
   4   4  13 6.10676 3.15858  -2
  -4  -4  11 6.10676 3.15858   1
   3   4  13 23.7692 1.71859  -2
  -3  -4  11 23.7692 1.71859   1
   2   4  12 60.6487 2.08404  -2
  -2  -4  11 60.6487 2.08404   1
   1   4  12 122.238 3.14803  -2
  -1  -4  11 122.238 3.14803   1
   0   4  11 54.2338 3.53218  -2
   0  -4  11 54.2338 3.53218   1
  -1   4  11 24.5754 1.92766  -2
   1  -4  11 24.5754 1.92766   1
  -2   4  10 47.1408 2.19810  -2
   2  -4  11 47.1408 2.19810   1
  -3   4  10 83.7686 3.25238  -2
   3  -4  11 83.7686 3.25238   1
  -4   4   9 83.5102 3.59740  -2
   4  -4  11 83.5102 3.59740   1
  -5   4   9 9.58557 2.63761  -2
   5  -4  11 9.58557 2.63761   1
  -6   4   8 35.0104 3.43700  -2
   6  -4  11 35.0104 3.43700   1
   6   3  14 30.3851 3.83158  -2
  -6  -3  11 30.3851 3.83158   1
   5   3  14 140.367 5.15864  -2
  -5  -3  11 140.367 5.15864   1
   4   3  13 126.200 3.99323  -2
  -4  -3  11 126.200 3.99323   1
   3   3  13 35.3132 2.01425  -2
  -3  -3  11 35.3132 2.01425   1
   2   3  12 337.687 4.22555  -2
  -2  -3  11 337.687 4.22555   1
   1   3  12 12.8750 1.97082  -2
  -1  -3  11 12.8750 1.97082   1
   0   3  11 104.489 2.66763  -2
   0  -3  11 104.489 2.66763   1
  -1   3  11 205.106 4.19117  -2
   1  -3  11 205.106 4.19117   1
  -2   3  10 107.247 2.04177  -2
   2  -3  11 107.247 2.04177   1
   3  -3  11 1.75038 0.79764   1
  -4   3   9 2.99928 1.31511  -2
   4  -3  11 2.99928 1.31511   1
  -5   3   9 22.2400 2.60667  -2
   5  -3  11 22.2400 2.60667   1
  -6   3   8 113.848 4.31730  -2
   6  -3  11 113.848 4.31730   1
   7  -3  11 32.0440 2.72250   1
   6   2  14 95.6468 3.63366  -2
  -6  -2  11 95.6468 3.63366   1
   5   2  14 13.0023 3.57454  -2
  -5  -2  11 13.0023 3.57454   1
   4   2  13 73.3336 3.61261  -2
  -4  -2  11 73.3336 3.61261   1
   3   2  13 22.0789 2.10198  -2
  -3  -2  11 22.0789 2.10198   1
   2   2  12 349.411 4.31324  -2
  -2  -2  11 349.411 4.31324   1
   1   2  12 114.230 3.11131  -2
  -1  -2  11 114.230 3.11131   1
   0   2  11 46.6954 2.03887  -2
   0  -2  11 46.6954 2.03887   1
  -1   2  11 38.1045 2.28983  -2
   1  -2  11 38.1045 2.28983   1
  -2   2  10 66.0664 1.81136  -2
   2  -2  11 66.0664 1.81136   1
   3  -2  11 51.8858 3.52471   1
  -4   2   9 49.6233 1.34788  -2
   4  -2  11 49.6233 1.34788   1
   5  -2  11 0.71503 0.57990   1
  -6   2   8 219.899 5.82883  -2
   6  -2  11 219.899 5.82883   1
   7  -2  11 96.7514 3.72066   1
   6   1  14 106.072 3.69173  -2
  -6  -1  11 106.072 3.69173   1
   5   1  14 88.2274 7.25264  -2
  -5  -1  11 88.2274 7.25264   1
   4   1  13 12.9218 1.99612  -2
  -4  -1  11 12.9218 1.99612   1
   3   1  13 12.8821 5.23810  -2
  -3  -1  11 12.8821 5.23810   1
   2   1  12 11.9396 1.34887  -2
  -2  -1  11 11.9396 1.34887   1
   1   1  12 62.9058 3.59612  -2
  -1  -1  11 62.9058 3.59612   1
   0   1  11 35.4278 1.83716  -2
   0  -1  11 35.4278 1.83716   1
   1  -1  11 0.86266 0.44559   1
  -2   1  10 36.9987 3.34423  -2
   2  -1  11 36.9987 3.34423   1
   3  -1  11 -0.3460 1.46504   1
  -6   1   8 67.0534 2.66706  -2
   6  -1  11 67.0534 2.66706   1
   7  -1  11 35.5203 2.34229   1
  -8   1   7 34.0633 2.71801  -2
   8  -1  11 34.0633 2.71801   1
   6   0  14 11.0165 2.02696  -2
  -6   0  11 11.0165 2.02696   1
  -5   0  11 4.19073 1.33130   1
   4   0  13 69.1771 2.59773  -2
  -4   0  11 69.1771 2.59773   1
  -3   0  11 20.5701 1.52870   1
   2   0  12 92.0956 1.99489  -2
  -2   0  11 92.0956 1.99489   1
  -1   0  11 73.7720 2.02546   1
   0   0  11 -0.3644 0.83104  -2
   0   0  11 -0.3644 0.83104   1
   1   0  11 0.52499 0.45070   1
  -2   0  10 92.7345 4.19303  -2
   2   0  11 92.7345 4.19303   1
   3   0  11 226.092 6.77231   1
  -4   0   9 158.653 5.66368  -2
   4   0  11 158.653 5.66368   1
  -6   0   8 94.6968 2.04117  -2
   6   0  11 94.6968 2.04117   1
   7   0  11 1.35324 1.06122   1
  -8   0   7 38.9540 2.72969  -2
   8   0  11 38.9540 2.72969   1
   5  -1  13 35.4400 6.07138  -2
  -5   1  11 35.4400 6.07138   1
   4  -1  13 130.620 2.75527  -2
  -4   1  11 130.620 2.75527   1
  -3   1  11 -0.4852 0.95858   1
   2  -1  12 60.6228 1.84186  -2
  -2   1  11 60.6228 1.84186   1
   1  -1  11 38.3490 4.46724  -2
  -1   1  11 38.3490 4.46724   1
   0  -1  11 34.7933 1.51278  -2
   0   1  11 34.7933 1.51278   1
   1   1  11 30.9959 1.11781   1
  -2  -1  10 30.8258 1.00229  -2
   2   1  11 30.8258 1.00229   1
   3   1  11 42.7233 3.12568   1
  -6  -1   8 21.1855 1.17635  -2
   6   1  11 21.1855 1.17635   1
  -7  -1   7 132.759 4.47347  -2
   7   1  11 132.759 4.47347   1
  -8  -1   7 0.53846 2.17212  -2
   8   1  11 0.53846 2.17212   1
   5  -2  13 91.9242 3.82788  -2
  -5   2  11 91.9242 3.82788   1
   4  -2  13 53.0225 2.18038  -2
  -4   2  11 53.0225 2.18038   1
   3  -2  12 63.6245 4.00523  -2
  -3   2  11 63.6245 4.00523   1
   2  -2  12 60.7316 2.33649  -2
  -2   2  11 60.7316 2.33649   1
   1  -2  11 33.4142 1.70596  -2
  -1   2  11 33.4142 1.70596   1
   0  -2  11 57.2713 1.64807  -2
   0   2  11 57.2713 1.64807   1
   1   2  11 7.72952 0.98271   1
  -2  -2  10 347.597 4.70173  -2
   2   2  11 347.597 4.70173   1
  -3  -2   9 217.866 5.02459  -2
   3   2  11 217.866 5.02459   1
  -4  -2   9 97.6853 2.60266  -2
   4   2  11 97.6853 2.60266   1
  -5  -2   8 39.1540 1.95910  -2
   5   2  11 39.1540 1.95910   1
  -6  -2   8 89.5576 2.06678  -2
   6   2  11 89.5576 2.06678   1
  -7  -2   7 129.770 4.37938  -2
   7   2  11 129.770 4.37938   1
  -8  -2   7 2.39281 2.47052  -2
   8   2  11 2.39281 2.47052   1
  -9  -2   6 7.62628 3.61449  -2
   9   2  11 7.62628 3.61449   1
   5  -3  13 118.927 5.55772  -2
  -5   3  11 118.927 5.55772   1
   4  -3  13 2.10543 2.53896  -2
  -4   3  11 2.10543 2.53896   1
   3  -3  12 36.9957 2.83580  -2
  -3   3  11 36.9957 2.83580   1
   2  -3  12 18.8710 1.56153  -2
  -2   3  11 18.8710 1.56153   1
   1  -3  11 178.429 3.06567  -2
  -1   3  11 178.429 3.06567   1
   0  -3  11 105.723 2.29914  -2
   0   3  11 105.723 2.29914   1
  -1  -3  10 41.0140 1.79680  -2
   1   3  11 41.0140 1.79680   1
  -2  -3  10 115.206 3.01799  -2
   2   3  11 115.206 3.01799   1
  -3  -3   9 49.9224 2.07284  -2
   3   3  11 49.9224 2.07284   1
  -4  -3   9 12.2543 1.16624  -2
   4   3  11 12.2543 1.16624   1
  -5  -3   8 5.34282 1.17576  -2
   5   3  11 5.34282 1.17576   1
  -6  -3   8 76.3691 2.93864  -2
   6   3  11 76.3691 2.93864   1
  -7  -3   7 4.30055 2.26661  -2
   7   3  11 4.30055 2.26661   1
  -8  -3   7 25.9697 2.94431  -2
   8   3  11 25.9697 2.94431   1
  -9  -3   6 -1.3939 3.15639  -2
   9   3  11 -1.3939 3.15639   1
   4  -4  13 37.3951 4.21650  -2
  -4   4  11 37.3951 4.21650   1
   3  -4  12 25.2076 3.46980  -2
  -3   4  11 25.2076 3.46980   1
   2  -4  12 68.3881 2.28525  -2
  -2   4  11 68.3881 2.28525   1
   1  -4  11 26.9733 1.52223  -2
  -1   4  11 26.9733 1.52223   1
   0  -4  11 45.9419 2.01244  -2
   0   4  11 45.9419 2.01244   1
  -1  -4  10 62.0095 1.84695  -2
   1   4  11 62.0095 1.84695   1
  -2  -4  10 1.10438 1.43750  -2
   2   4  11 1.10438 1.43750   1
  -3  -4   9 120.474 3.19107  -2
   3   4  11 120.474 3.19107   1
  -4  -4   9 123.811 3.92692  -2
   4   4  11 123.811 3.92692   1
  -5  -4   8 14.9751 2.02930  -2
   5   4  11 14.9751 2.02930   1
  -6  -4   8 29.3205 2.59063  -2
   6   4  11 29.3205 2.59063   1
  -7  -4   7 18.0910 2.51556  -2
   7   4  11 18.0910 2.51556   1
  -8  -4   7 48.0457 3.41031  -2
   8   4  11 48.0457 3.41031   1
  -9  -4   6 106.028 4.79238  -2
   9   4  11 106.028 4.79238   1
   3  -5  12 20.9805 3.46379  -2
  -3   5  11 20.9805 3.46379   1
   2  -5  12 81.9972 4.55182  -2
  -2   5  11 81.9972 4.55182   1
   1  -5  11 124.271 3.50947  -2
  -1   5  11 124.271 3.50947   1
   0  -5  11 80.2233 4.03393  -2
   0   5  11 80.2233 4.03393   1
  -1  -5  10 5.40928 1.46877  -2
   1   5  11 5.40928 1.46877   1
   2   5  11 10.1468 0.99055   1
  -3  -5   9 108.912 4.36871  -2
   3   5  11 108.912 4.36871   1
   4   5  11 59.8360 2.15973   1
  -5  -5   8 34.2353 2.59621  -2
   5   5  11 34.2353 2.59621   1
   6   5  11 0.50022 0.97003   1
  -7  -5   7 23.8118 2.72808  -2
   7   5  11 23.8118 2.72808   1
  -8  -5   7 11.3338 3.20009  -2
   8   5  11 11.3338 3.20009   1
  -9  -5   6 39.2210 3.45568  -2
   9   5  11 39.2210 3.45568   1
   3  -6  12 29.6426 3.43779  -2
  -3   6  11 29.6426 3.43779   1
  -2   6  11 2.45324 1.67179   1
   1  -6  11 19.0417 2.18591  -2
  -1   6  11 19.0417 2.18591   1
   0   6  11 0.81930 0.90300   1
  -1  -6  10 48.5055 3.09335  -2
   1   6  11 48.5055 3.09335   1
   2   6  11 24.9787 1.47588   1
  -3  -6   9 118.297 3.89294  -2
   3   6  11 118.297 3.89294   1
   4   6  11 4.73777 0.97980   1
  -5  -6   8 9.37478 2.12817  -2
   5   6  11 9.37478 2.12817   1
   6   6  11 20.1554 1.92293   1
  -7  -6   7 156.098 5.24735  -2
   7   6  11 156.098 5.24735   1
   8   6  11 83.0898 3.77758   1
  -9  -6   6 91.3285 4.48134  -2
   9   6  11 91.3285 4.48134   1
  -2   7  11 30.2031 2.86976   1
   1  -7  11 75.7632 5.56451  -2
  -1   7  11 75.7632 5.56451   1
   0   7  11 97.7306 2.90954   1
  -1  -7  10 8.25357 1.32857  -2
   1   7  11 8.25357 1.32857   1
   2   7  11 24.5845 2.98594   1
  -3  -7   9 73.9171 2.54254  -2
   3   7  11 73.9171 2.54254   1
   4   7  11 1.42869 0.92426   1
  -5  -7   8 0.06033 1.37920  -2
   5   7  11 0.06033 1.37920   1
   6   7  11 1.11320 0.91216   1
  -7  -7   7 67.5636 3.46986  -2
   7   7  11 67.5636 3.46986   1
   8   7  11 52.9296 3.30754   1
  -9  -7   6 39.1636 2.54740  -2
   9   7  11 39.1636 2.54740   1
   1  -8  11 13.9258 4.68038  -2
  -1   8  11 13.9258 4.68038   1
   0   8  11 2.46930 1.24880   1
  -1  -8  10 99.8349 3.16183  -2
   1   8  11 99.8349 3.16183   1
   2   8  11 14.1726 0.93562   1
  -3  -8   9 71.3610 4.05000  -2
   3   8  11 71.3610 4.05000   1
  -4  -8   8 37.7105 7.54729  -2
   4   8  11 37.7105 7.54729   1
  -5  -8   8 15.1508 2.71134  -2
   5   8  11 15.1508 2.71134   1
  -6  -8   7 -4.6551 6.15371  -2
   6   8  11 -4.6551 6.15371   1
  -7  -8   7 180.811 6.18594  -2
   7   8  11 180.811 6.18594   1
   0  -9  10 83.6505 7.68611  -2
   0   9  11 83.6505 7.68611   1
  -1  -9  10 42.8631 2.76192  -2
   1   9  11 42.8631 2.76192   1
  -2  -9   9 19.5113 5.73201  -2
   2   9  11 19.5113 5.73201   1
  -3  -9   9 95.8607 2.79184  -2
   3   9  11 95.8607 2.79184   1
   4   9  11 25.4015 3.29428   1
  -5  -9   8 49.4966 4.93572  -2
   5   9  11 49.4966 4.93572   1
   6   9  11 33.6199 3.69945   1
  -2 -10   9 31.2972 5.84347  -2
   2  10  11 31.2972 5.84347   1
  -3 -10   9 56.2265 2.16842  -2
   3  10  11 56.2265 2.16842   1
  -4 -10   8 11.3895 5.06174  -2
   4  10  11 11.3895 5.06174   1
  -5 -10   8 113.957 6.99456  -2
   5  10  11 113.957 6.99456   1
  -6 -10   7 44.8156 5.22671  -2
   6  10  11 44.8156 5.22671   1
   3   7  14 35.7615 3.77961  -2
  -3  -7  12 35.7615 3.77961   1
  -2  -7  12 3.54433 1.75959   1
   1   7  13 54.7636 3.54318  -2
  -1  -7  12 54.7636 3.54318   1
   0  -7  12 22.1344 2.39961   1
  -1   7  12 14.0816 1.99411  -2
   1  -7  12 14.0816 1.99411   1
   4   6  14 95.1206 7.15452  -2
  -4  -6  12 95.1206 7.15452   1
   3   6  14 25.9168 2.61906  -2
  -3  -6  12 25.9168 2.61906   1
  -2  -6  12 85.3623 3.11492   1
   1   6  13 117.918 3.62900  -2
  -1  -6  12 117.918 3.62900   1
   0  -6  12 24.3331 2.57476   1
  -1   6  12 93.4077 3.95121  -2
   1  -6  12 93.4077 3.95121   1
   2  -6  12 28.3161 2.51508   1
  -3   6  11 21.1338 2.69616  -2
   3  -6  12 21.1338 2.69616   1
  -5  -5  12 10.4629 2.68443   1
   4   5  14 93.6209 6.43132  -2
  -4  -5  12 93.6209 6.43132   1
   3   5  14 28.1198 3.04629  -2
  -3  -5  12 28.1198 3.04629   1
   2   5  13 75.3955 7.12927  -2
  -2  -5  12 75.3955 7.12927   1
   1   5  13 145.270 3.56835  -2
  -1  -5  12 145.270 3.56835   1
   0   5  12 12.1056 3.35200  -2
   0  -5  12 12.1056 3.35200   1
  -1   5  12 98.6847 3.08062  -2
   1  -5  12 98.6847 3.08062   1
   2  -5  12 6.90227 1.37130   1
  -3   5  11 13.9661 2.36442  -2
   3  -5  12 13.9661 2.36442   1
   4  -5  12 58.9411 2.94975   1
   5   4  15 22.3356 3.47947  -2
  -5  -4  12 22.3356 3.47947   1
   4   4  14 -6.4659 4.35515  -2
  -4  -4  12 -6.4659 4.35515   1
   3   4  14 98.0640 3.44854  -2
  -3  -4  12 98.0640 3.44854   1
   2   4  13 149.599 3.84681  -2
  -2  -4  12 149.599 3.84681   1
   1   4  13 11.7856 2.02721  -2
  -1  -4  12 11.7856 2.02721   1
   0   4  12 9.04806 1.96490  -2
   0  -4  12 9.04806 1.96490   1
  -1   4  12 5.32584 1.86037  -2
   1  -4  12 5.32584 1.86037   1
  -2   4  11 64.5411 2.58827  -2
   2  -4  12 64.5411 2.58827   1
  -3   4  11 33.3985 2.47405  -2
   3  -4  12 33.3985 2.47405   1
  -4   4  10 39.1366 2.83940  -2
   4  -4  12 39.1366 2.83940   1
  -5   4  10 96.0379 3.97942  -2
   5  -4  12 96.0379 3.97942   1
   5   3  15 38.4935 4.00828  -2
  -5  -3  12 38.4935 4.00828   1
   4   3  14 72.0251 3.37380  -2
  -4  -3  12 72.0251 3.37380   1
   3   3  14 32.1322 2.34874  -2
  -3  -3  12 32.1322 2.34874   1
   2   3  13 151.177 3.12182  -2
  -2  -3  12 151.177 3.12182   1
   1   3  13 7.67984 2.14129  -2
  -1  -3  12 7.67984 2.14129   1
   0   3  12 11.4271 1.97569  -2
   0  -3  12 11.4271 1.97569   1
  -1   3  12 38.5868 2.27285  -2
   1  -3  12 38.5868 2.27285   1
  -2   3  11 19.9106 1.24922  -2
   2  -3  12 19.9106 1.24922   1
  -3   3  11 28.1133 2.06036  -2
   3  -3  12 28.1133 2.06036   1
  -4   3  10 10.1629 1.32939  -2
   4  -3  12 10.1629 1.32939   1
  -5   3  10 82.6000 3.41054  -2
   5  -3  12 82.6000 3.41054   1
  -6   3   9 29.3590 2.83492  -2
   6  -3  12 29.3590 2.83492   1
   5   2  15 -0.4761 3.42276  -2
  -5  -2  12 -0.4761 3.42276   1
   4   2  14 98.6276 3.60436  -2
  -4  -2  12 98.6276 3.60436   1
   3   2  14 18.2914 2.35272  -2
  -3  -2  12 18.2914 2.35272   1
   2   2  13 66.3576 2.13055  -2
  -2  -2  12 66.3576 2.13055   1
   1   2  13 10.1108 2.44104  -2
  -1  -2  12 10.1108 2.44104   1
   0   2  12 1.57322 1.63171  -2
   0  -2  12 1.57322 1.63171   1
  -1   2  12 102.960 3.53318  -2
   1  -2  12 102.960 3.53318   1
  -2   2  11 63.5839 1.49477  -2
   2  -2  12 63.5839 1.49477   1
   3  -2  12 8.08716 2.09617   1
  -4   2  10 18.9556 1.45198  -2
   4  -2  12 18.9556 1.45198   1
   5  -2  12 35.3269 1.28255   1
  -6   2   9 107.448 3.73344  -2
   6  -2  12 107.448 3.73344   1
   7  -2  12 40.9040 2.56102   1
  -5  -1  12 41.9138 2.38963   1
   4   1  14 0.93438 2.53548  -2
  -4  -1  12 0.93438 2.53548   1
   3   1  14 2.27710 4.72707  -2
  -3  -1  12 2.27710 4.72707   1
   2   1  13 29.9364 1.71111  -2
  -2  -1  12 29.9364 1.71111   1
   1   1  13 115.499 4.88519  -2
  -1  -1  12 115.499 4.88519   1
   0   1  12 28.5807 1.86284  -2
   0  -1  12 28.5807 1.86284   1
   1  -1  12 26.4396 1.10586   1
  -2   1  11 54.6319 1.25577  -2
   2  -1  12 54.6319 1.25577   1
   3  -1  12 19.4254 2.55261   1
  -6   1   9 22.5751 1.81867  -2
   6  -1  12 22.5751 1.81867   1
   7  -1  12 1.09023 1.05411   1
  -5   0  12 9.46118 1.55626   1
   4   0  14 41.3006 2.37417  -2
  -4   0  12 41.3006 2.37417   1
  -3   0  12 1.75543 1.28521   1
   2   0  13 12.7296 1.19131  -2
  -2   0  12 12.7296 1.19131   1
  -1   0  12 3.17253 0.85165   1
   0   0  12 87.5977 2.67977  -2
   0   0  12 87.5977 2.67977   1
   1   0  12 16.1050 0.98122   1
  -2   0  11 76.4076 1.50115  -2
   2   0  12 76.4076 1.50115   1
   3   0  12 72.7610 4.14047   1
  -4   0  10 30.3660 3.22263  -2
   4   0  12 30.3660 3.22263   1
  -6   0   9 91.3595 1.95921  -2
   6   0  12 91.3595 1.95921   1
   7   0  12 1.10454 1.02038   1
   4  -1  14 37.9549 2.54240  -2
  -4   1  12 37.9549 2.54240   1
   3  -1  13 4.30089 4.49176  -2
  -3   1  12 4.30089 4.49176   1
   2  -1  13 114.004 2.57752  -2
  -2   1  12 114.004 2.57752   1
  -1   1  12 49.3158 1.88741   1
   0  -1  12 21.1054 1.94878  -2
   0   1  12 21.1054 1.94878   1
   1   1  12 17.2119 1.38392   1
  -2  -1  11 10.7945 0.91036  -2
   2   1  12 10.7945 0.91036   1
   3   1  12 76.8297 4.04176   1
  -6  -1   9 16.6017 1.07582  -2
   6   1  12 16.6017 1.07582   1
  -8  -1   8 3.98706 2.20903  -2
   8   1  12 3.98706 2.20903   1
   4  -2  14 22.4743 2.60201  -2
  -4   2  12 22.4743 2.60201   1
   3  -2  13 30.5450 3.62778  -2
  -3   2  12 30.5450 3.62778   1
   2  -2  13 7.82003 1.81786  -2
  -2   2  12 7.82003 1.81786   1
   1  -2  12 86.6796 2.31443  -2
  -1   2  12 86.6796 2.31443   1
   0  -2  12 0.55651 1.75503  -2
   0   2  12 0.55651 1.75503   1
   1   2  12 8.70577 1.12468   1
  -2  -2  11 382.150 6.56641  -2
   2   2  12 382.150 6.56641   1
  -3  -2  10 73.1258 2.67883  -2
   3   2  12 73.1258 2.67883   1
  -4  -2  10 41.2806 1.64139  -2
   4   2  12 41.2806 1.64139   1
  -5  -2   9 30.4064 1.88751  -2
   5   2  12 30.4064 1.88751   1
  -6  -2   9 48.5933 1.54071  -2
   6   2  12 48.5933 1.54071   1
  -7  -2   8 108.442 3.78438  -2
   7   2  12 108.442 3.78438   1
  -8  -2   8 26.1790 2.69181  -2
   8   2  12 26.1790 2.69181   1
   4  -3  14 21.7532 2.49700  -2
  -4   3  12 21.7532 2.49700   1
   3  -3  13 98.4309 2.62422  -2
  -3   3  12 98.4309 2.62422   1
   2  -3  13 60.6540 2.90035  -2
  -2   3  12 60.6540 2.90035   1
   1  -3  12 31.8034 1.90340  -2
  -1   3  12 31.8034 1.90340   1
   0  -3  12 9.66613 1.46679  -2
   0   3  12 9.66613 1.46679   1
  -1  -3  11 16.4308 2.16677  -2
   1   3  12 16.4308 2.16677   1
  -2  -3  11 407.158 7.09059  -2
   2   3  12 407.158 7.09059   1
  -3  -3  10 46.0268 4.04181  -2
   3   3  12 46.0268 4.04181   1
  -4  -3  10 52.8511 1.69889  -2
   4   3  12 52.8511 1.69889   1
  -5  -3   9 2.91035 1.86962  -2
   5   3  12 2.91035 1.86962   1
  -6  -3   9 2.67974 1.77822  -2
   6   3  12 2.67974 1.77822   1
  -7  -3   8 33.8030 2.75394  -2
   7   3  12 33.8030 2.75394   1
  -8  -3   8 28.4411 2.95081  -2
   8   3  12 28.4411 2.95081   1
   3  -4  13 3.99460 2.09464  -2
  -3   4  12 3.99460 2.09464   1
   2  -4  13 10.8473 2.61947  -2
  -2   4  12 10.8473 2.61947   1
   1  -4  12 1.83534 1.90808  -2
  -1   4  12 1.83534 1.90808   1
   0  -4  12 8.38381 1.70267  -2
   0   4  12 8.38381 1.70267   1
  -1  -4  11 110.407 2.79911  -2
   1   4  12 110.407 2.79911   1
  -2  -4  11 47.4528 2.69829  -2
   2   4  12 47.4528 2.69829   1
  -3  -4  10 19.4196 3.61959  -2
   3   4  12 19.4196 3.61959   1
  -4  -4  10 65.1346 3.05144  -2
   4   4  12 65.1346 3.05144   1
  -5  -4   9 41.5282 2.52318  -2
   5   4  12 41.5282 2.52318   1
  -6  -4   9 45.4858 2.82752  -2
   6   4  12 45.4858 2.82752   1
  -7  -4   8 65.0201 3.41124  -2
   7   4  12 65.0201 3.41124   1
  -8  -4   8 84.1729 4.05062  -2
   8   4  12 84.1729 4.05062   1
   3  -5  13 2.78456 3.33245  -2
  -3   5  12 2.78456 3.33245   1
   2  -5  13 50.8417 4.22258  -2
  -2   5  12 50.8417 4.22258   1
   1  -5  12 123.381 4.58246  -2
  -1   5  12 123.381 4.58246   1
   0  -5  12 5.50030 3.14140  -2
   0   5  12 5.50030 3.14140   1
  -1  -5  11 149.979 3.06714  -2
   1   5  12 149.979 3.06714   1
  -2  -5  11 38.7055 2.91765  -2
   2   5  12 38.7055 2.91765   1
  -3  -5  10 24.8089 2.73861  -2
   3   5  12 24.8089 2.73861   1
   4   5  12 29.8462 1.77617   1
  -5  -5   9 21.8209 2.44354  -2
   5   5  12 21.8209 2.44354   1
  -6  -5   9 3.20084 2.54286  -2
   6   5  12 3.20084 2.54286   1
  -7  -5   8 15.7279 2.60409  -2
   7   5  12 15.7279 2.60409   1
   8   5  12 1.71482 1.28679   1
  -2   6  12 0.47226 1.05919   1
   1  -6  12 80.3467 2.78801  -2
  -1   6  12 80.3467 2.78801   1
   0   6  12 7.34627 2.27375   1
  -1  -6  11 91.1405 3.91431  -2
   1   6  12 91.1405 3.91431   1
   2   6  12 4.48785 0.91160   1
  -3  -6  10 107.902 3.24213  -2
   3   6  12 107.902 3.24213   1
   4   6  12 3.55303 1.31597   1
  -5  -6   9 36.1596 2.82265  -2
   5   6  12 36.1596 2.82265   1
   6   6  12 18.6955 1.92590   1
  -7  -6   8 147.491 5.11514  -2
   7   6  12 147.491 5.11514   1
   8   6  12 -0.2450 1.25695   1
   1  -7  12 15.5767 1.98209  -2
  -1   7  12 15.5767 1.98209   1
   0   7  12 9.73935 2.64948   1
  -1  -7  11 9.84516 3.19431  -2
   1   7  12 9.84516 3.19431   1
   2   7  12 44.9539 3.89638   1
  -3  -7  10 76.5119 2.59067  -2
   3   7  12 76.5119 2.59067   1
   4   7  12 2.59858 1.08252   1
  -5  -7   9 4.43349 2.08305  -2
   5   7  12 4.43349 2.08305   1
   6   7  12 19.3737 2.10433   1
  -7  -7   8 38.0405 2.85570  -2
   7   7  12 38.0405 2.85570   1
   8   7  12 10.1232 1.86625   1
   0   8  12 6.13410 1.23901   1
  -1  -8  11 82.0644 5.92115  -2
   1   8  12 82.0644 5.92115   1
   2   8  12 26.1663 3.20879   1
  -3  -8  10 25.5742 4.03483  -2
   3   8  12 25.5742 4.03483   1
   4   8  12 9.33060 2.31764   1
  -5  -8   9 21.6773 3.00118  -2
   5   8  12 21.6773 3.00118   1
   6   8  12 13.5191 2.01430   1
  -7  -8   8 54.3035 3.59202  -2
   7   8  12 54.3035 3.59202   1
   8   8  12 -2.0904 1.25311   1
  -2  -9  10 43.1686 5.91567  -2
   2   9  12 43.1686 5.91567   1
  -3  -9  10 24.2581 4.79383  -2
   3   9  12 24.2581 4.79383   1
  -4  -9   9 6.69890 4.50935  -2
   4   9  12 6.69890 4.50935   1
  -5  -9   9 29.0577 4.33867  -2
   5   9  12 29.0577 4.33867   1
   6   9  12 48.0515 4.02746   1
  -2  -6  13 13.0044 1.66455   1
   1   6  14 17.8201 3.10320  -2
  -1  -6  13 17.8201 3.10320   1
   0  -6  13 16.4158 2.14805   1
  -1   6  13 74.0783 3.69501  -2
   1  -6  13 74.0783 3.69501   1
   3   5  15 56.7614 5.42673  -2
  -3  -5  13 56.7614 5.42673   1
  -2  -5  13 21.1315 1.84598   1
   1   5  14 157.302 4.35263  -2
  -1  -5  13 157.302 4.35263   1
   0   5  13 8.13805 4.45503  -2
   0  -5  13 8.13805 4.45503   1
  -1   5  13 53.5567 2.64797  -2
   1  -5  13 53.5567 2.64797   1
  -2   5  12 40.9276 3.17637  -2
   2  -5  13 40.9276 3.17637   1
  -3   5  12 1.16479 2.16076  -2
   3  -5  13 1.16479 2.16076   1
   3   4  15 64.1297 5.77769  -2
  -3  -4  13 64.1297 5.77769   1
   2   4  14 46.5269 3.15157  -2
  -2  -4  13 46.5269 3.15157   1
   1   4  14 16.9976 2.61705  -2
  -1  -4  13 16.9976 2.61705   1
   0   4  13 33.8434 2.59247  -2
   0  -4  13 33.8434 2.59247   1
  -1   4  13 14.0974 2.15326  -2
   1  -4  13 14.0974 2.15326   1
  -2   4  12 12.5121 2.10356  -2
   2  -4  13 12.5121 2.10356   1
  -3   4  12 5.36037 2.08982  -2
   3  -4  13 5.36037 2.08982   1
  -4   4  11 38.2332 2.75383  -2
   4  -4  13 38.2332 2.75383   1
   4   3  15 51.2929 3.79950  -2
  -4  -3  13 51.2929 3.79950   1
   3   3  15 145.789 7.34970  -2
  -3  -3  13 145.789 7.34970   1
   2   3  14 123.616 4.07276  -2
  -2  -3  13 123.616 4.07276   1
   1   3  14 38.8608 2.96535  -2
  -1  -3  13 38.8608 2.96535   1
   0   3  13 30.9562 2.41634  -2
   0  -3  13 30.9562 2.41634   1
  -1   3  13 42.5090 2.51227  -2
   1  -3  13 42.5090 2.51227   1
  -2   3  12 60.5943 2.30656  -2
   2  -3  13 60.5943 2.30656   1
  -3   3  12 75.1874 2.82160  -2
   3  -3  13 75.1874 2.82160   1
  -4   3  11 7.06499 1.88937  -2
   4  -3  13 7.06499 1.88937   1
  -5   3  11 92.6752 3.56342  -2
   5  -3  13 92.6752 3.56342   1
   4   2  15 38.6028 3.40683  -2
  -4  -2  13 38.6028 3.40683   1
   3   2  15 9.02812 3.14504  -2
  -3  -2  13 9.02812 3.14504   1
   2   2  14 29.1587 2.64538  -2
  -2  -2  13 29.1587 2.64538   1
   1   2  14 34.7263 3.00344  -2
  -1  -2  13 34.7263 3.00344   1
   0   2  13 16.0875 1.98238  -2
   0  -2  13 16.0875 1.98238   1
  -1   2  13 89.5848 3.10969  -2
   1  -2  13 89.5848 3.10969   1
  -2   2  12 13.5223 1.07402  -2
   2  -2  13 13.5223 1.07402   1
   3  -2  13 6.45163 2.16136   1
  -6   2  10 35.0130 2.45076  -2
   6  -2  13 35.0130 2.45076   1
   4   1  15 59.1976 3.55017  -2
  -4  -1  13 59.1976 3.55017   1
  -3  -1  13 112.859 3.92089   1
   2   1  14 64.6259 3.06292  -2
  -2  -1  13 64.6259 3.06292   1
   1   1  14 128.704 5.47704  -2
  -1  -1  13 128.704 5.47704   1
   0   1  13 74.1114 2.71370  -2
   0  -1  13 74.1114 2.71370   1
   1  -1  13 59.7353 2.07206   1
  -2   1  12 129.087 2.22965  -2
   2  -1  13 129.087 2.22965   1
   3  -1  13 -0.8320 1.74725   1
  -6   1  10 20.5548 1.77506  -2
   6  -1  13 20.5548 1.77506   1
   4   0  15 3.72764 2.36544  -2
  -4   0  13 3.72764 2.36544   1
  -3   0  13 6.02608 1.53016   1
   2   0  14 27.7572 1.80913  -2
  -2   0  13 27.7572 1.80913   1
  -1   0  13 18.3020 1.63609   1
   0   0  13 100.077 3.02941  -2
   0   0  13 100.077 3.02941   1
   1   0  13 33.6358 3.24444   1
  -2   0  12 10.2717 0.80819  -2
   2   0  13 10.2717 0.80819   1
   3   0  13 2.44765 1.81584   1
  -4   0  11 61.1428 4.13498  -2
   4   0  13 61.1428 4.13498   1
   3  -1  14 4.61508 4.75570  -2
  -3   1  13 4.61508 4.75570   1
   2  -1  14 133.713 3.67789  -2
  -2   1  13 133.713 3.67789   1
  -1   1  13 6.60076 1.36861   1
   0  -1  13 100.618 3.21272  -2
   0   1  13 100.618 3.21272   1
   1   1  13 112.446 3.03357   1
  -2  -1  12 23.8309 1.67299  -2
   2   1  13 23.8309 1.67299   1
   3   1  13 0.47712 0.58094   1
   7   1  13 20.0895 1.80143   1
   3  -2  14 47.4945 3.24304  -2
  -3   2  13 47.4945 3.24304   1
   2  -2  14 22.3281 2.72394  -2
  -2   2  13 22.3281 2.72394   1
   1  -2  13 96.1457 3.10791  -2
  -1   2  13 96.1457 3.10791   1
   0  -2  13 15.2487 2.25434  -2
   0   2  13 15.2487 2.25434   1
  -1  -2  12 10.1892 2.30322  -2
   1   2  13 10.1892 2.30322   1
  -2  -2  12 70.1558 2.52246  -2
   2   2  13 70.1558 2.52246   1
  -3  -2  11 26.4302 1.94533  -2
   3   2  13 26.4302 1.94533   1
  -4  -2  11 74.5224 2.39848  -2
   4   2  13 74.5224 2.39848   1
  -6  -2  10 2.99733 1.02599  -2
   6   2  13 2.99733 1.02599   1
  -7  -2   9 22.2637 2.17373  -2
   7   2  13 22.2637 2.17373   1
   3  -3  14 151.670 4.41449  -2
  -3   3  13 151.670 4.41449   1
   2  -3  14 21.1916 2.49749  -2
  -2   3  13 21.1916 2.49749   1
   1  -3  13 45.5546 2.74341  -2
  -1   3  13 45.5546 2.74341   1
   0  -3  13 22.2564 2.56361  -2
   0   3  13 22.2564 2.56361   1
  -1  -3  12 5.60906 2.28334  -2
   1   3  13 5.60906 2.28334   1
  -2  -3  12 167.146 4.09802  -2
   2   3  13 167.146 4.09802   1
  -3  -3  11 40.8095 2.26815  -2
   3   3  13 40.8095 2.26815   1
  -4  -3  11 115.914 3.62705  -2
   4   3  13 115.914 3.62705   1
  -5  -3  10 58.7502 2.71072  -2
   5   3  13 58.7502 2.71072   1
  -6  -3  10 3.41698 1.77557  -2
   6   3  13 3.41698 1.77557   1
  -7  -3   9 40.1084 2.70960  -2
   7   3  13 40.1084 2.70960   1
   8   3  13 43.6603 2.55432   1
   2  -4  14 86.6976 3.61507  -2
  -2   4  13 86.6976 3.61507   1
   1  -4  13 17.6841 2.34942  -2
  -1   4  13 17.6841 2.34942   1
   0  -4  13 24.2544 2.01462  -2
   0   4  13 24.2544 2.01462   1
  -1  -4  12 19.7174 2.49378  -2
   1   4  13 19.7174 2.49378   1
  -2  -4  12 124.391 3.74116  -2
   2   4  13 124.391 3.74116   1
  -3  -4  11 22.1026 2.17757  -2
   3   4  13 22.1026 2.17757   1
  -5  -4  10 67.3653 3.06589  -2
   5   4  13 67.3653 3.06589   1
  -6  -4  10 55.3290 2.97814  -2
   6   4  13 55.3290 2.97814   1
  -7  -4   9 140.518 4.72970  -2
   7   4  13 140.518 4.72970   1
   8   4  13 66.2065 3.19247   1
   1  -5  13 47.4393 3.55375  -2
  -1   5  13 47.4393 3.55375   1
   0  -5  13 11.6814 2.97625  -2
   0   5  13 11.6814 2.97625   1
  -1  -5  12 139.869 3.36544  -2
   1   5  13 139.869 3.36544   1
  -2  -5  12 82.6781 4.66550  -2
   2   5  13 82.6781 4.66550   1
  -3  -5  11 9.64307 2.55454  -2
   3   5  13 9.64307 2.55454   1
   4   5  13 8.62155 1.25146   1
  -5  -5  10 11.0194 2.34259  -2
   5   5  13 11.0194 2.34259   1
  -6  -5  10 43.3777 3.09750  -2
   6   5  13 43.3777 3.09750   1
  -7  -5   9 74.5334 3.67475  -2
   7   5  13 74.5334 3.67475   1
   8   5  13 2.01428 1.29067   1
   1  -6  13 67.0968 3.85516  -2
  -1   6  13 67.0968 3.85516   1
   0   6  13 -0.5898 1.86810   1
  -1  -6  12 99.6356 5.23554  -2
   1   6  13 99.6356 5.23554   1
   2   6  13 0.74564 0.92254   1
  -3  -6  11 13.0961 2.78256  -2
   3   6  13 13.0961 2.78256   1
   4   6  13 -0.3222 1.22081   1
  -5  -6  10 66.5111 3.49707  -2
   5   6  13 66.5111 3.49707   1
  -6  -6  10 27.0241 3.28901  -2
   6   6  13 27.0241 3.28901   1
  -7  -6   9 34.4103 2.88178  -2
   7   6  13 34.4103 2.88178   1
   0   7  13 0.20936 1.98668   1
  -1  -7  12 71.7721 4.81640  -2
   1   7  13 71.7721 4.81640   1
   2   7  13 49.4571 3.91887   1
  -3  -7  11 9.40242 2.67697  -2
   3   7  13 9.40242 2.67697   1
   4   7  13 16.7044 2.18045   1
  -5  -7  10 44.7722 3.09042  -2
   5   7  13 44.7722 3.09042   1
   6   7  13 147.311 5.21254   1
  -7  -7   9 14.0254 2.33672  -2
   7   7  13 14.0254 2.33672   1
   2   8  13 0.45065 1.81891   1
  -3  -8  11 35.9464 4.23835  -2
   3   8  13 35.9464 4.23835   1
   6   8  13 2.02329 1.46009   1
   2   4  15 11.4408 3.64410  -2
  -2  -4  14 11.4408 3.64410   1
   1   4  15 68.4527 3.36197  -2
  -1  -4  14 68.4527 3.36197   1
   0   4  14 134.274 4.06740  -2
   0  -4  14 134.274 4.06740   1
  -1   4  14 11.9495 2.62411  -2
   1  -4  14 11.9495 2.62411   1
  -2   4  13 71.2209 2.91510  -2
   2  -4  14 71.2209 2.91510   1
   2   3  15 26.6412 2.94110  -2
  -2  -3  14 26.6412 2.94110   1
   1   3  15 7.01684 2.74767  -2
  -1  -3  14 7.01684 2.74767   1
   0   3  14 164.464 4.33642  -2
   0  -3  14 164.464 4.33642   1
  -1   3  14 74.5117 3.13483  -2
   1  -3  14 74.5117 3.13483   1
  -2   3  13 14.7940 1.90146  -2
   2  -3  14 14.7940 1.90146   1
  -3   3  13 109.944 3.53999  -2
   3  -3  14 109.944 3.53999   1
  -4   3  12 15.8937 2.05347  -2
   4  -3  14 15.8937 2.05347   1
   2   2  15 31.1141 2.89120  -2
  -2  -2  14 31.1141 2.89120   1
   1   2  15 78.2759 3.80071  -2
  -1  -2  14 78.2759 3.80071   1
   0   2  14 10.4194 2.10792  -2
   0  -2  14 10.4194 2.10792   1
  -1   2  14 18.3670 2.44914  -2
   1  -2  14 18.3670 2.44914   1
  -2   2  13 16.4335 1.73208  -2
   2  -2  14 16.4335 1.73208   1
  -3   2  13 44.1664 2.18744  -2
   3  -2  14 44.1664 2.18744   1
   2   1  15 7.10436 2.37877  -2
  -2  -1  14 7.10436 2.37877   1
  -1  -1  14 39.6605 3.82474   1
   0   1  14 78.0523 2.97123  -2
   0  -1  14 78.0523 2.97123   1
   1  -1  14 7.77012 1.11428   1
  -2   1  13 127.939 3.08947  -2
   2  -1  14 127.939 3.08947   1
   3  -1  14 -0.4582 1.94110   1
   2   0  15 18.3703 2.07079  -2
  -2   0  14 18.3703 2.07079   1
  -1   0  14 5.19195 1.31291   1
   0   0  14 14.3035 1.57649  -2
   0   0  14 14.3035 1.57649   1
   1   0  14 0.13543 0.93424   1
  -2   0  13 21.7666 1.55753  -2
   2   0  14 21.7666 1.55753   1
   3   0  14 18.4648 2.77627   1
  -4   0  12 46.2319 3.98961  -2
   4   0  14 46.2319 3.98961   1
   2  -1  15 -0.9868 3.44123  -2
  -2   1  14 -0.9868 3.44123   1
   1  -1  14 4.79931 3.93477  -2
  -1   1  14 4.79931 3.93477   1
   0  -1  14 92.7977 3.28087  -2
   0   1  14 92.7977 3.28087   1
   1   1  14 139.114 3.60667   1
  -2  -1  13 53.8288 2.24328  -2
   2   1  14 53.8288 2.24328   1
   3   1  14 0.86087 0.74031   1
   2  -2  15 10.9097 2.66239  -2
  -2   2  14 10.9097 2.66239   1
   1  -2  14 16.6279 3.15883  -2
  -1   2  14 16.6279 3.15883   1
   0  -2  14 11.9695 2.46059  -2
   0   2  14 11.9695 2.46059   1
  -1  -2  13 32.0465 2.66255  -2
   1   2  14 32.0465 2.66255   1
  -2  -2  13 24.3397 2.17917  -2
   2   2  14 24.3397 2.17917   1
  -3  -2  12 5.47555 4.22830  -2
   3   2  14 5.47555 4.22830   1
  -4  -2  12 110.353 2.33793  -2
   4   2  14 110.353 2.33793   1
  -6  -2  11 78.6784 2.62921  -2
   6   2  14 78.6784 2.62921   1
   1  -3  14 80.5570 5.71486  -2
  -1   3  14 80.5570 5.71486   1
   0  -3  14 144.621 4.41907  -2
   0   3  14 144.621 4.41907   1
  -1  -3  13 43.9603 2.86234  -2
   1   3  14 43.9603 2.86234   1
  -2  -3  13 121.901 3.68861  -2
   2   3  14 121.901 3.68861   1
  -3  -3  12 21.6740 2.26158  -2
   3   3  14 21.6740 2.26158   1
  -4  -3  12 91.9560 3.42211  -2
   4   3  14 91.9560 3.42211   1
   5   3  14 23.3017 1.71489   1
  -6  -3  11 17.9997 1.98876  -2
   6   3  14 17.9997 1.98876   1
  -7  -3  10 25.0985 2.39022  -2
   7   3  14 25.0985 2.39022   1
   1  -4  14 8.71770 2.39674  -2
  -1   4  14 8.71770 2.39674   1
   0  -4  14 104.226 6.13777  -2
   0   4  14 104.226 6.13777   1
  -1  -4  13 24.5352 2.77718  -2
   1   4  14 24.5352 2.77718   1
  -2  -4  13 35.8238 2.85357  -2
   2   4  14 35.8238 2.85357   1
  -3  -4  12 100.447 3.42552  -2
   3   4  14 100.447 3.42552   1
  -4  -4  12 2.67692 2.44035  -2
   4   4  14 2.67692 2.44035   1
  -5  -4  11 131.980 4.37807  -2
   5   4  14 131.980 4.37807   1
  -6  -4  11 52.0423 2.85547  -2
   6   4  14 52.0423 2.85547   1
  -7  -4  10 54.5787 3.09490  -2
   7   4  14 54.5787 3.09490   1
   0   5  14 67.8146 2.65772   1
  -1  -5  13 167.313 4.67732  -2
   1   5  14 167.313 4.67732   1
  -2  -5  13 45.5029 3.20721  -2
   2   5  14 45.5029 3.20721   1
  -3  -5  12 26.7116 3.19815  -2
   3   5  14 26.7116 3.19815   1
   4   5  14 88.1901 2.94413   1
  -5  -5  11 120.745 4.50153  -2
   5   5  14 120.745 4.50153   1
  -6  -5  11 112.928 4.44704  -2
   6   5  14 112.928 4.44704   1
   2   6  14 16.7961 2.34832   1
  -3  -6  12 20.4824 3.17260  -2
   3   6  14 20.4824 3.17260   1
   4   6  14 29.3957 2.83326   1
   6   6  14 39.7289 2.76744   1
   4   7  14 31.0483 3.07625   1
  -5  -7  11 174.156 5.93910  -2
   5   7  14 174.156 5.93910   1
   0   2  15 30.1630 2.55160  -2
   0  -2  15 30.1630 2.55160   1
   1  -2  15 23.3579 1.81847   1
  -2   2  14 14.9915 1.81612  -2
   2  -2  15 14.9915 1.81612   1
   0   1  15 75.9541 3.04776  -2
   0  -1  15 75.9541 3.04776   1
   1  -1  15 -1.0403 0.99855   1
  -2   1  14 3.50891 1.51680  -2
   2  -1  15 3.50891 1.51680   1
   3  -1  15 45.9155 4.42263   1
   0   0  15 30.3560 2.17234  -2
   0   0  15 30.3560 2.17234   1
   1   0  15 0.23873 1.01575   1
  -2   0  14 13.9443 1.32196  -2
   2   0  15 13.9443 1.32196   1
   3   0  15 66.6600 4.85411   1
  -4   0  13 0.17654 3.21539  -2
   4   0  15 0.17654 3.21539   1
   0  -1  15 77.2885 3.29275  -2
   0   1  15 77.2885 3.29275   1
  -1  -1  14 66.6991 4.04181  -2
   1   1  15 66.6991 4.04181   1
  -2  -1  14 7.42102 1.81576  -2
   2   1  15 7.42102 1.81576   1
   3   1  15 94.5792 2.64762   1
   0  -2  15 31.7252 2.92379  -2
   0   2  15 31.7252 2.92379   1
  -1  -2  14 87.6886 3.73922  -2
   1   2  15 87.6886 3.73922   1
  -2  -2  14 36.3224 2.45889  -2
   2   2  15 36.3224 2.45889   1
  -3  -2  13 7.33118 1.94089  -2
   3   2  15 7.33118 1.94089   1
  -4  -2  13 34.9830 2.17825  -2
   4   2  15 34.9830 2.17825   1
  -1  -3  14 6.94181 2.72105  -2
   1   3  15 6.94181 2.72105   1
  -2  -3  14 22.2904 2.61222  -2
   2   3  15 22.2904 2.61222   1
  -3  -3  13 116.028 3.55328  -2
   3   3  15 116.028 3.55328   1
  -4  -3  13 57.3538 3.09301  -2
   4   3  15 57.3538 3.09301   1
   5   3  15 6.55203 1.17952   1
  -1  -4  14 51.9501 3.15649  -2
   1   4  15 51.9501 3.15649   1
  -2  -4  14 4.97093 2.67401  -2
   2   4  15 4.97093 2.67401   1
  -3  -4  13 50.8079 3.53028  -2
   3   4  15 50.8079 3.53028   1
  -4  -4  13 3.88988 2.61723  -2
   4   4  15 3.88988 2.61723   1
  -3  -5  13 76.9660 4.24172  -2
   3   5  15 76.9660 4.24172   1
   4   5  15 94.6741 3.21799   1
   0   0   0    0.00    0.00   0
;
_shelx_hkl_checksum              93902
loop_
_space_group_symop_operation_xyz
'x, y, z'
'-x, -y, -z'
loop_
_atom_site_label
_atom_site_type_symbol
_atom_site_fract_x
_atom_site_fract_y
_atom_site_fract_z
_atom_site_U_iso_or_equiv
_atom_site_adp_type
_atom_site_occupancy
_atom_site_site_symmetry_order
_atom_site_calc_flag
_atom_site_refinement_flags_posn
_atom_site_refinement_flags_adp
Mn1 Mn 0.60365(6) 0.76281(6) 0.65631(4) 0.00761(12) Uani 1 1 d . .
P1 P 0.21887(10) 1.05551(9) 0.58066(6) 0.00690(16) Uani 1 1 d . .
P2 P 0.35075(10) 0.77766(10) 0.44832(7) 0.00764(16) Uani 1 1 d . .
O1 O 0.3862(3) 0.9942(3) 0.6440(2) 0.0096(4) Uani 1 1 d . .
O2 O 0.0450(3) 1.1141(3) 0.68309(19) 0.0101(4) Uani 1 1 d . .
H2O H -0.0438 1.1731 0.6504 0.015 Uiso 1 1 calc R U
O3 O 0.2159(3) 1.1696(3) 0.47830(19) 0.0113(5) Uani 1 1 d . .
O4 O 0.1993(3) 0.9165(3) 0.5273(2) 0.0112(5) Uani 1 1 d . .
O5 O 0.4933(3) 0.6890(3) 0.5268(2) 0.0112(4) Uani 1 1 d . .
O6 O 0.4365(3) 0.8457(3) 0.32885(19) 0.0119(5) Uani 1 1 d . .
H6O H 0.4982 0.8890 0.3491 0.018 Uiso 1 1 calc R U
O7 O 0.2403(3) 0.7025(3) 0.4081(2) 0.0112(4) Uani 1 1 d . .
O1W O 0.8084(3) 0.5356(3) 0.6744(2) 0.0118(4) Uani 1 1 d D .
H1WA H 0.917(3) 0.523(6) 0.659(4) 0.018 Uiso 1 1 d D U
H1WB H 0.778(6) 0.477(4) 0.645(4) 0.018 Uiso 1 1 d D U
O2W O 0.1579(4) 0.5177(3) 0.6164(2) 0.0156(5) Uani 1 1 d D .
H2WA H 0.189(7) 0.581(5) 0.571(4) 0.023 Uiso 1 1 d D U
H2WB H 0.262(4) 0.459(5) 0.587(4) 0.023 Uiso 1 1 d D U
N1 N 0.4364(4) 0.7028(3) 0.8267(2) 0.0114(5) Uani 1 1 d . .
N2 N 0.6819(4) 0.8244(3) 0.8222(2) 0.0099(5) Uani 1 1 d . .
C1 C 0.3183(5) 0.6388(4) 0.8217(3) 0.0156(7) Uani 1 1 d . .
H1A H 0.3024 0.6199 0.7424 0.019 Uiso 1 1 calc R U
C2 C 0.2179(5) 0.5985(4) 0.9277(3) 0.0171(7) Uani 1 1 d . .
H2A H 0.1364 0.5522 0.9210 0.021 Uiso 1 1 calc R U
C3 C 0.2404(5) 0.6280(5) 1.0430(3) 0.0185(7) Uani 1 1 d . .
H3A H 0.1722 0.6039 1.1170 0.022 Uiso 1 1 calc R U
C4 C 0.3646(5) 0.6936(4) 1.0492(3) 0.0154(7) Uani 1 1 d . .
H4A H 0.3824 0.7140 1.1274 0.018 Uiso 1 1 calc R U
C5 C 0.4624(4) 0.7287(4) 0.9383(3) 0.0114(6) Uani 1 1 d . .
C6 C 0.6006(5) 0.7926(4) 0.9361(3) 0.0119(6) Uani 1 1 d . .
C7 C 0.6501(5) 0.8192(4) 1.0444(3) 0.0173(7) Uani 1 1 d . .
H7A H 0.5955 0.7940 1.1238 0.021 Uiso 1 1 calc R U
C8 C 0.7783(5) 0.8821(5) 1.0350(3) 0.0190(7) Uani 1 1 d . .
H8A H 0.8110 0.9025 1.1076 0.023 Uiso 1 1 calc R U
C9 C 0.8593(5) 0.9152(4) 0.9172(3) 0.0161(7) Uani 1 1 d . .
H9A H 0.9473 0.9591 0.9082 0.019 Uiso 1 1 calc R U
C10 C 0.8084(5) 0.8826(4) 0.8138(3) 0.0134(6) Uani 1 1 d . .
H10A H 0.8660 0.9026 0.7336 0.016 Uiso 1 1 calc R U
loop_
_atom_site_aniso_label
_atom_site_aniso_U_11
_atom_site_aniso_U_22
_atom_site_aniso_U_33
_atom_site_aniso_U_23
_atom_site_aniso_U_13
_atom_site_aniso_U_12
Mn1 0.0100(2) 0.0076(2) 0.00642(18) 0.00104(16) -0.00237(16) -0.00436(17)
P1 0.0069(3) 0.0069(4) 0.0072(3) -0.0004(2) -0.0009(2) -0.0030(3)
P2 0.0086(3) 0.0074(4) 0.0080(3) -0.0009(2) -0.0021(2) -0.0037(3)
O1 0.0096(9) 0.0085(11) 0.0110(9) 0.0012(8) -0.0035(7) -0.0032(8)
O2 0.0105(9) 0.0110(12) 0.0078(9) 0.0002(7) 0.0006(7) -0.0043(9)
O3 0.0106(10) 0.0120(12) 0.0104(9) 0.0036(8) -0.0017(8) -0.0044(9)
O4 0.0091(10) 0.0092(12) 0.0146(10) -0.0049(8) -0.0009(8) -0.0021(9)
O5 0.0102(10) 0.0095(12) 0.0135(9) 0.0005(8) -0.0054(8) -0.0019(9)
O6 0.0152(10) 0.0149(12) 0.0083(9) 0.0001(8) -0.0007(8) -0.0093(9)
O7 0.0107(10) 0.0084(12) 0.0167(10) -0.0018(8) -0.0048(8) -0.0046(9)
O1W 0.0143(10) 0.0111(12) 0.0121(10) -0.0005(8) -0.0028(8) -0.0068(9)
O2W 0.0126(11) 0.0149(13) 0.0163(10) -0.0021(9) 0.0029(8) -0.0044(10)
N1 0.0138(12) 0.0103(14) 0.0095(10) 0.0013(9) -0.0016(9) -0.0046(11)
N2 0.0123(12) 0.0078(13) 0.0097(10) -0.0007(9) -0.0030(9) -0.0033(11)
C1 0.0185(15) 0.0125(17) 0.0145(14) 0.0028(11) -0.0030(12) -0.0054(14)
C2 0.0140(15) 0.0129(18) 0.0240(16) 0.0064(13) -0.0031(12) -0.0066(14)
C3 0.0156(16) 0.018(2) 0.0184(15) 0.0070(13) 0.0004(12) -0.0059(15)
C4 0.0149(15) 0.0171(18) 0.0084(12) 0.0013(11) 0.0004(10) -0.0017(14)
C5 0.0133(14) 0.0113(16) 0.0088(12) 0.0021(10) -0.0016(10) -0.0045(12)
C6 0.0154(14) 0.0087(16) 0.0093(11) -0.0011(10) -0.0006(10) -0.0028(13)
C7 0.0239(17) 0.0161(18) 0.0088(13) -0.0015(11) -0.0021(11) -0.0046(15)
C8 0.0230(18) 0.0177(19) 0.0159(14) -0.0035(12) -0.0066(13) -0.0050(15)
C9 0.0200(16) 0.0156(18) 0.0159(14) -0.0018(12) -0.0073(12) -0.0078(14)
C10 0.0167(15) 0.0097(16) 0.0137(13) -0.0002(11) -0.0046(11) -0.0040(13)
loop_
_atom_type_symbol
_atom_type_description
_atom_type_scat_dispersion_real
_atom_type_scat_dispersion_imag
_atom_type_scat_source
C C 0.0033 0.0016 'International Tables Vol C Tables 4.2.6.8 and 6.1.1.4'
H H 0.0000 0.0000 'International Tables Vol C Tables 4.2.6.8 and 6.1.1.4'
N N 0.0061 0.0033 'International Tables Vol C Tables 4.2.6.8 and 6.1.1.4'
O O 0.0106 0.0060 'International Tables Vol C Tables 4.2.6.8 and 6.1.1.4'
P P 0.1023 0.0942 'International Tables Vol C Tables 4.2.6.8 and 6.1.1.4'
Mn Mn 0.3368 0.7283 'International Tables Vol C Tables 4.2.6.8 and 6.1.1.4'
loop_
_geom_angle_atom_site_label_1
_geom_angle_atom_site_label_2
_geom_angle_atom_site_label_3
_geom_angle
_geom_angle_site_symmetry_1
_geom_angle_site_symmetry_3
O3 Mn1 O5 95.82(9) 2_676 .
O3 Mn1 O1W 93.32(9) 2_676 .
O5 Mn1 O1W 90.29(9) . .
O3 Mn1 N2 95.93(10) 2_676 .
O5 Mn1 N2 168.24(10) . .
O1W Mn1 N2 88.67(9) . .
O3 Mn1 N1 168.82(10) 2_676 .
O5 Mn1 N1 95.33(10) . .
O1W Mn1 N1 85.89(10) . .
N2 Mn1 N1 72.91(10) . .
O3 Mn1 O1 88.84(9) 2_676 .
O5 Mn1 O1 89.80(9) . .
O1W Mn1 O1 177.81(9) . .
N2 Mn1 O1 90.79(9) . .
N1 Mn1 O1 91.92(9) . .
O3 Mn1 Mn1 55.13(6) 2_676 2_676
O5 Mn1 Mn1 77.38(7) . 2_676
O1W Mn1 Mn1 143.78(6) . 2_676
N2 Mn1 Mn1 109.90(8) . 2_676
N1 Mn1 Mn1 128.64(7) . 2_676
O1 Mn1 Mn1 38.30(6) . 2_676
O3 P1 O1 117.03(14) . .
O3 P1 O2 111.27(13) . .
O1 P1 O2 108.17(12) . .
O3 P1 O4 108.95(13) . .
O1 P1 O4 107.46(13) . .
O2 P1 O4 102.99(13) . .
O5 P2 O7 118.32(15) . .
O5 P2 O6 110.98(14) . .
O7 P2 O6 107.77(13) . .
O5 P2 O4 108.41(12) . .
O7 P2 O4 103.99(13) . .
O6 P2 O4 106.58(14) . .
P1 O1 Mn1 132.07(14) . .
P1 O2 H2O 109.5 . .
P1 O3 Mn1 140.50(14) . 2_676
P1 O4 P2 130.28(16) . .
P2 O5 Mn1 129.83(15) . .
P2 O6 H6O 109.5 . .
Mn1 O1W H1WA 118(4) . .
Mn1 O1W H1WB 109(3) . .
H1WA O1W H1WB 118(5) . .
H2WA O2W H2WB 84(5) . .
C1 N1 C5 119.4(3) . .
C1 N1 Mn1 123.1(2) . .
C5 N1 Mn1 117.5(2) . .
C10 N2 C6 119.4(3) . .
C10 N2 Mn1 123.6(2) . .
C6 N2 Mn1 116.9(2) . .
N1 C1 C2 123.0(3) . .
N1 C1 H1A 118.5 . .
C2 C1 H1A 118.5 . .
C3 C2 C1 118.1(4) . .
C3 C2 H2A 120.9 . .
C1 C2 H2A 120.9 . .
C2 C3 C4 119.3(3) . .
C2 C3 H3A 120.3 . .
C4 C3 H3A 120.3 . .
C3 C4 C5 119.0(3) . .
C3 C4 H4A 120.5 . .
C5 C4 H4A 120.5 . .
N1 C5 C4 121.2(3) . .
N1 C5 C6 116.1(3) . .
C4 C5 C6 122.7(3) . .
N2 C6 C7 120.5(3) . .
N2 C6 C5 116.5(3) . .
C7 C6 C5 123.0(3) . .
C8 C7 C6 119.7(3) . .
C8 C7 H7A 120.2 . .
C6 C7 H7A 120.2 . .
C7 C8 C9 119.1(3) . .
C7 C8 H8A 120.5 . .
C9 C8 H8A 120.5 . .
C10 C9 C8 118.5(3) . .
C10 C9 H9A 120.7 . .
C8 C9 H9A 120.7 . .
N2 C10 C9 122.8(3) . .
N2 C10 H10A 118.6 . .
C9 C10 H10A 118.6 . .
loop_
_geom_bond_atom_site_label_1
_geom_bond_atom_site_label_2
_geom_bond_distance
_geom_bond_site_symmetry_2
Mn1 O3 2.109(2) 2_676
Mn1 O5 2.133(2) .
Mn1 O1W 2.198(3) .
Mn1 N2 2.247(3) .
Mn1 N1 2.250(3) .
Mn1 O1 2.258(2) .
Mn1 Mn1 5.3708(14) 2_676
P1 O3 1.494(2) .
P1 O1 1.518(2) .
P1 O2 1.561(2) .
P1 O4 1.608(3) .
P2 O5 1.503(2) .
P2 O7 1.505(3) .
P2 O6 1.569(2) .
P2 O4 1.613(2) .
O2 H2O 0.8400 .
O3 Mn1 2.108(2) 2_676
O6 H6O 0.8400 .
O1W H1WA 0.822(19) .
O1W H1WB 0.820(19) .
O2W H2WA 0.835(19) .
O2W H2WB 0.831(19) .
N1 C1 1.342(5) .
N1 C5 1.347(4) .
N2 C10 1.336(5) .
N2 C6 1.358(4) .
C1 C2 1.396(5) .
C1 H1A 0.9500 .
C2 C3 1.387(5) .
C2 H2A 0.9500 .
C3 C4 1.402(5) .
C3 H3A 0.9500 .
C4 C5 1.403(4) .
C4 H4A 0.9500 .
C5 C6 1.473(5) .
C6 C7 1.404(4) .
C7 C8 1.380(6) .
C7 H7A 0.9500 .
C8 C9 1.396(5) .
C8 H8A 0.9500 .
C9 C10 1.384(4) .
C9 H9A 0.9500 .
C10 H10A 0.9500 .
loop_
_geom_hbond_atom_site_label_D
_geom_hbond_atom_site_label_H
_geom_hbond_atom_site_label_A
_geom_hbond_distance_DH
_geom_hbond_distance_HA
_geom_hbond_distance_DA
_geom_hbond_angle_DHA
_geom_hbond_site_symmetry_A
O1W H1WA O2W 0.822(19) 1.89(2) 2.703(4) 173(5) 1_655
O1W H1WB O7 0.820(19) 1.97(2) 2.773(4) 165(5) 2_666
O2W H2WA O7 0.835(19) 2.11(3) 2.900(4) 158(5) .
O2W H2WB O5 0.831(19) 2.17(2) 2.982(3) 167(5) 2_666
O2 H2O O7 0.84 1.77 2.604(3) 176.0 2_576
O6 H6O O1 0.84 1.75 2.572(4) 165.2 2_676
