#------------------------------------------------------------------------------
#$Date: 2015-07-08 23:11:43 +0300 (Wed, 08 Jul 2015) $
#$Revision: 141323 $
#$URL: svn://www.crystallography.net/cod/cif/4/34/34/4343428.cif $
#------------------------------------------------------------------------------
#
# This file is available in the Crystallography Open Database (COD),
# http://www.crystallography.net/
#
# All data on this site have been placed in the public domain by the
# contributors.
#
data_4343428
loop_
_publ_author_name
'Greenfield, Tiffany J.'
'Hoffman, Amanda E.'
'Marino, Nadia'
'Goos, Alan G.'
'Lloret, Francesc'
'Julve, Miguel'
'Doyle, Robert P.'
_publ_section_title
;
 Ferromagnetic Coupling in &quot;Double-Bridged&quot;
 Dihydrogenpyrophosphate Complexes of Cobalt(II) and Nickel(II).
;
_journal_issue                   13
_journal_name_full               'Inorganic chemistry'
_journal_page_first              6537
_journal_page_last               6546
_journal_paper_doi               10.1021/acs.inorgchem.5b00866
_journal_volume                  54
_journal_year                    2015
_chemical_formula_moiety         'C20 H24 Co2 N4 O16 P4, 2(H2 O)'
_chemical_formula_sum            'C20 H28 Co2 N4 O18 P4'
_chemical_formula_weight         854.20
_chemical_name_systematic
;
 ?
;
_space_group_crystal_system      triclinic
_space_group_IT_number           2
_space_group_name_Hall           '-P 1'
_space_group_name_H-M_alt        'P -1'
_symmetry_space_group_name_Hall  '-P 1'
_symmetry_space_group_name_H-M   'P -1'
_atom_sites_solution_hydrogens   mixed
_atom_sites_solution_primary     direct
_atom_sites_solution_secondary   difmap
_audit_creation_method           SHELXL-2013
_cell_angle_alpha                83.373(3)
_cell_angle_beta                 79.281(3)
_cell_angle_gamma                67.531(2)
_cell_formula_units_Z            1
_cell_length_a                   8.0269(11)
_cell_length_b                   9.6018(13)
_cell_length_c                   10.8292(15)
_cell_measurement_reflns_used    5868
_cell_measurement_temperature    90(2)
_cell_measurement_theta_max      30.18
_cell_measurement_theta_min      2.78
_cell_volume                     756.91(18)
_computing_cell_refinement       'Bruker SAINT'
_computing_data_collection       'Bruker APEX2'
_computing_data_reduction        'Bruker SAINT'
_computing_molecular_graphics    'Bruker SHELXTL'
_computing_publication_material  'Bruker SHELXTL'
_computing_structure_refinement  'SHELXL-2013 (Sheldrick, 2013)'
_computing_structure_solution    'SHELXS-97 (Sheldrick, 2008)'
_diffrn_ambient_temperature      90(2)
_diffrn_measured_fraction_theta_full 0.997
_diffrn_measured_fraction_theta_max 0.996
_diffrn_measurement_device_type  'CCD area detector'
_diffrn_measurement_method       '\f and \w scans'
_diffrn_radiation_source         'fine-focus sealed tube'
_diffrn_radiation_type           MoK\a
_diffrn_radiation_wavelength     0.71073
_diffrn_reflns_av_R_equivalents  0.0576
_diffrn_reflns_av_unetI/netI     0.0561
_diffrn_reflns_laue_measured_fraction_full 0.997
_diffrn_reflns_laue_measured_fraction_max 0.996
_diffrn_reflns_limit_h_max       8
_diffrn_reflns_limit_h_min       -11
_diffrn_reflns_limit_k_max       13
_diffrn_reflns_limit_k_min       -13
_diffrn_reflns_limit_l_max       12
_diffrn_reflns_limit_l_min       -15
_diffrn_reflns_number            25510
_diffrn_reflns_point_group_measured_fraction_full 0.997
_diffrn_reflns_point_group_measured_fraction_max 0.996
_diffrn_reflns_theta_full        25.242
_diffrn_reflns_theta_max         29.986
_diffrn_reflns_theta_min         2.779
_exptl_absorpt_coefficient_mu    1.397
_exptl_absorpt_correction_T_max  0.7791
_exptl_absorpt_correction_T_min  0.7151
_exptl_absorpt_correction_type   multi-scan
_exptl_absorpt_process_details   'SADABS (Sheldrick, 2013)'
_exptl_crystal_colour            pink
_exptl_crystal_density_diffrn    1.874
_exptl_crystal_description       block
_exptl_crystal_F_000             434
_exptl_crystal_size_max          0.260
_exptl_crystal_size_mid          0.210
_exptl_crystal_size_min          0.190
_refine_diff_density_max         0.526
_refine_diff_density_min         -0.411
_refine_diff_density_rms         0.103
_refine_ls_extinction_method     none
_refine_ls_goodness_of_fit_ref   0.978
_refine_ls_hydrogen_treatment    mixed
_refine_ls_matrix_type           full
_refine_ls_number_parameters     231
_refine_ls_number_reflns         4390
_refine_ls_number_restraints     4
_refine_ls_restrained_S_all      0.977
_refine_ls_R_factor_all          0.0625
_refine_ls_R_factor_gt           0.0369
_refine_ls_shift/su_max          0.001
_refine_ls_shift/su_mean         0.000
_refine_ls_structure_factor_coef Fsqd
_refine_ls_weighting_details
'w=1/[\s^2^(Fo^2^)+(0.0421P)^2^] where P=(Fo^2^+2Fc^2^)/3'
_refine_ls_weighting_scheme      calc
_refine_ls_wR_factor_gt          0.0758
_refine_ls_wR_factor_ref         0.0828
_reflns_Friedel_coverage         0.000
_reflns_number_gt                3291
_reflns_number_total             4390
_reflns_threshold_expression     'I > 2\s(I)'
_cod_data_source_file            ic5b00866_si_002.cif
_cod_data_source_block           1
_cod_depositor_comments
'Adding full bibliography for 4343428--4343430.cif.'
_cod_database_code               4343428
_shelx_space_group_comment
;
The symmetry employed for this shelxl refinement is uniquely defined
by the following loop, which should always be used as a source of
symmetry information in preference to the above space-group names.
They are only intended as comments.
;
_shelx_estimated_absorpt_t_min   0.713
_shelx_estimated_absorpt_t_max   0.777
_shelxl_version_number           2013-4
_shelx_res_file
;
TITL Cobipychainp1bar in P-1
CELL 0.71073 8.0269 9.6018 10.8292 83.373 79.281 67.531
ZERR 1.00 0.0011 0.0013 0.0015 0.003 0.003 0.002
LATT 1
SFAC C  H  N  O  P  Co
UNIT 20  28  4  18  4  2
size 0.19 0.21 0.26
L.S. 20
BOND $H
FMAP 2
PLAN 10

ACTA

HTAB

Dfix 0.82 O1w H1wa O1w H1wb O2w H2wa O2w H2wb

EQIV $1 x+1, y, z
EQIV $2 -x+1, -y+1, -z+1
EQIV $3 -x, -y+2, -z+1
EQIV $4 -x+1, -y+2, -z+1

HTAB O1W O2W_$1
HTAB O1W O7_$2
HTAB O2W O7
HTAB O2W O5_$2
HTAB O2 O7_$3
HTAB O6 O1_$4

bind co1 co1_$4

TEMP -183.000
WGHT    0.042100
FVAR       0.29367
CO1   6    0.592131    0.765075    0.662925    11.00000    0.01075    0.00978 =
         0.00730    0.00084   -0.00120   -0.00410
P1    5    0.227176    1.060221    0.578914    11.00000    0.00934    0.00941 =
         0.00833   -0.00054    0.00011   -0.00314
P2    5    0.348059    0.775869    0.452241    11.00000    0.01095    0.00969 =
         0.00914   -0.00078   -0.00168   -0.00418
O1    4    0.390379    0.993641    0.647519    11.00000    0.01211    0.01078 =
         0.01107    0.00071   -0.00160   -0.00502
O2    4    0.052101    1.119282    0.678846    11.00000    0.01074    0.01572 =
         0.00898   -0.00008    0.00001   -0.00354
AFIX 147
H2O   2   -0.034680    1.179213    0.643419    11.00000   -1.50000
AFIX   0
O3    4    0.231480    1.178235    0.477380    11.00000    0.01197    0.01654 =
         0.01135    0.00334   -0.00008   -0.00438
O4    4    0.202263    0.924490    0.520638    11.00000    0.01125    0.01343 =
         0.01788   -0.00547   -0.00337   -0.00276
O5    4    0.483815    0.690274    0.537576    11.00000    0.01618    0.01042 =
         0.01466   -0.00023   -0.00576   -0.00468
O6    4    0.437893    0.834388    0.327519    11.00000    0.01958    0.01740 =
         0.01027    0.00021   -0.00230   -0.01218
AFIX 147
H6O   2    0.493085    0.886881    0.344371    11.00000   -1.50000
AFIX   0
O7    4    0.233258    0.699000    0.417637    11.00000    0.01310    0.01142 =
         0.01516   -0.00134   -0.00268   -0.00557
O1W   4    0.788462    0.544780    0.680825    11.00000    0.01389    0.01131 =
         0.01426   -0.00195   -0.00172   -0.00586
H1WA  2    0.897231    0.529803    0.653751    11.00000   -1.50000
H1WB  2    0.760408    0.478061    0.657654    11.00000   -1.50000
O2W   4    0.145586    0.501920    0.617989    11.00000    0.01604    0.02201 =
         0.01672   -0.00102    0.00147   -0.00486
H2WA  2    0.163964    0.562082    0.562785    11.00000   -1.50000
H2WB  2    0.222548    0.421029    0.594753    11.00000   -1.50000
N1    3    0.432152    0.702706    0.820552    11.00000    0.01309    0.01268 =
         0.01008    0.00004   -0.00140   -0.00450
N2    3    0.678014    0.824444    0.815651    11.00000    0.01260    0.00876 =
         0.01111   -0.00053   -0.00087   -0.00289
C1    1    0.313926    0.636240    0.815345    11.00000    0.01592    0.01475 =
         0.01712    0.00123   -0.00436   -0.00586
AFIX  43
H1A   2    0.297295    0.616960    0.735297    11.00000   -1.20000
AFIX   0
C2    1    0.215158    0.594640    0.922240    11.00000    0.01544    0.01716 =
         0.02229    0.00684   -0.00467   -0.00790
AFIX  43
H2A   2    0.133978    0.546196    0.915692    11.00000   -1.20000
AFIX   0
C3    1    0.237266    0.625156    1.038782    11.00000    0.01538    0.01882 =
         0.01511    0.00352    0.00221   -0.00492
AFIX  43
H3A   2    0.168952    0.600052    1.113366    11.00000   -1.20000
AFIX   0
C4    1    0.359916    0.692629    1.045610    11.00000    0.01778    0.01522 =
         0.01025    0.00021    0.00002   -0.00409
AFIX  43
H4A   2    0.376885    0.714129    1.124806    11.00000   -1.20000
AFIX   0
C5    1    0.457981    0.728490    0.934719    11.00000    0.01179    0.01087 =
         0.01065    0.00127   -0.00197   -0.00086
C6    1    0.599316    0.793919    0.931591    11.00000    0.01309    0.00859 =
         0.01073    0.00023   -0.00146   -0.00009
C7    1    0.651216    0.819483    1.039947    11.00000    0.01849    0.01754 =
         0.01093   -0.00256   -0.00172   -0.00560
AFIX  43
H7A   2    0.596841    0.794183    1.120593    11.00000   -1.20000
AFIX   0
C8    1    0.783208    0.882307    1.028961    11.00000    0.01914    0.01875 =
         0.01436   -0.00314   -0.00600   -0.00465
AFIX  43
H8A   2    0.818818    0.902320    1.101845    11.00000   -1.20000
AFIX   0
C9    1    0.862315    0.915411    0.909753    11.00000    0.01494    0.01479 =
         0.01892   -0.00109   -0.00490   -0.00589
AFIX  43
H9A   2    0.952175    0.959324    0.899657    11.00000   -1.20000
AFIX   0
C10   1    0.807995    0.883314    0.805601    11.00000    0.01343    0.01179 =
         0.01308    0.00206   -0.00387   -0.00330
AFIX  43
H10A  2    0.864597    0.903614    0.724083    11.00000   -1.20000
AFIX   0
HKLF 4 1 1 0 0 0 1 0 0 0 1

REM  Cobipychainp1bar in P-1
REM R1 =  0.0369 for    3291 Fo > 4sig(Fo)  and  0.0625 for all    4390 data
REM    231 parameters refined using      4 restraints

END

WGHT      0.0421      0.0000

REM Instructions for potential hydrogen bonds
HTAB O2 O7_$3
HTAB O6 O1_$4
HTAB O1W O2W_$1
HTAB O1W O7_$2
HTAB O2W O7
HTAB O2W O5_$2
HTAB C1 O5
HTAB C1 O2W
EQIV $5 x, y, z+1
HTAB C7 O6_$5

REM Highest difference peak  0.526,  deepest hole -0.411,  1-sigma level  0.103
Q1    1   0.5314  0.7676  0.9400  11.00000  0.05    0.53
Q2    1   0.4147  0.7333  0.4981  11.00000  0.05    0.51
Q3    1   0.6169  0.7983  0.9826  11.00000  0.05    0.48
Q4    1   0.2903  0.6709  1.0413  11.00000  0.05    0.46
Q5    1   0.3313  1.0197  0.5970  11.00000  0.05    0.45
Q6    1   0.5646  0.8002  0.5996  11.00000  0.05    0.43
Q7    1   0.7754  0.8022  0.8021  11.00000  0.05    0.43
Q8    1   0.3319  0.6136  0.7593  11.00000  0.05    0.42
Q9    1   0.4923  0.8136  0.6248  11.00000  0.05    0.41
Q10   1   0.2696  0.3813  0.4715  11.00000  0.05    0.40
;
_shelx_res_checksum              57864
_shelx_hkl_file
;
   0   0  -2  337.20    3.79
   0   0  -2  326.49    3.68
   0   0  -2  337.20    3.79
   0   0  -2  326.49    3.68
   0   0  -3  236.62    4.26
   0   0  -3  234.52    4.01
   0   0  -3  236.62    4.26
   0   0  -3  234.52    4.01
   0   0  -4  112.25    3.86
   0   0  -4  110.41    3.92
   0   0  -4  112.25    3.86
   0   0  -4  110.41    3.92
   0   0  -5   19.29    2.55
   0   0  -5   13.07    2.40
   0   0  -5   19.29    2.55
   0   0  -5   13.07    2.40
   0   0  -6  195.57    5.53
   0   0  -6  199.19    5.24
   0   0  -6  195.57    5.53
   0   0  -6  199.19    5.24
   0   0   6  195.63    5.22
   0   0   6  195.63    5.22
   0   0  -7   87.40    4.71
   0   0  -7   85.03    4.68
   0   0  -7   87.40    4.71
   0   0  -7   85.03    4.68
   0   0   7   96.20    4.89
   0   0   7   96.20    4.89
   0   0  -8  336.45    8.47
   0   0  -8  382.86    7.98
   0   0  -8  371.82    8.13
   0   0  -8  336.45    8.47
   0   0  -8  382.86    7.98
   0   0  -8  371.82    8.13
   0   0  -9   92.96    6.53
   0   0  -9   95.32    4.59
   0   0  -9  100.39    5.48
   0   0  -9   93.32    5.64
   0   0  -9   92.96    6.53
   0   0  -9   95.32    4.59
   0   0  -9  100.39    5.48
   0   0  -9   93.32    5.64
   0   0 -10   57.46    6.24
   0   0 -10   61.93    4.35
   0   0 -10   58.39    5.25
   0   0 -10   55.33    5.50
   0   0 -10   57.46    6.24
   0   0 -10   61.93    4.35
   0   0 -10   58.39    5.25
   0   0 -10   55.33    5.50
   0   0 -11   -3.81    3.53
   0   0 -11    1.39    2.51
   0   0 -11   -0.53    3.55
   0   0 -11   -0.82    3.86
   0   0 -11   -3.81    3.53
   0   0 -11    1.39    2.51
   0   0 -11   -0.53    3.55
   0   0 -11   -0.82    3.86
   0   0 -12   43.45    5.29
   0   0 -12   32.57    3.34
   0   0 -12   49.45    5.97
   0   0 -12   38.08    5.22
   0   0 -12   43.45    5.29
   0   0 -12   32.57    3.34
   0   0 -12   49.45    5.97
   0   0 -12   38.08    5.22
   0   0 -13   25.18    4.84
   0   0 -13   37.16    5.00
   0   0 -13   33.16    5.34
   0   0 -13   25.18    4.84
   0   0 -13   37.16    5.00
   0   0 -13   33.16    5.34
   0   0 -14   25.08    4.83
   0   0 -14   21.38    5.55
   0   0 -14   25.08    4.83
   0   0 -14   21.38    5.55
   0   1 -14    8.10    4.50
   0   1 -14   18.16    4.51
   0   1 -14   20.65    5.25
   0   1 -14    8.10    4.50
   0   1 -14   18.16    4.51
   0   1 -14   20.65    5.25
   0   1 -13    2.38    4.47
   0   1 -13    0.70    4.05
   0   1 -13   -1.60    4.40
   0   1 -13    2.38    4.47
   0   1 -13    0.70    4.05
   0   1 -13   -1.60    4.40
   0   1 -12   11.42    4.61
   0   1 -12   12.77    4.08
   0   1 -12    9.71    4.36
   0   1 -12   11.42    4.61
   0   1 -12   12.77    4.08
   0   1 -12    9.71    4.36
   0   1 -11   23.49    4.82
   0   1 -11   27.63    2.85
   0   1 -11   29.90    4.39
   0   1 -11   27.30    4.53
   0   1 -11   23.49    4.82
   0   1 -11   27.63    2.85
   0   1 -11   29.90    4.39
   0   1 -11   27.30    4.53
   0   1 -10   46.69    5.28
   0   1 -10   54.31    3.96
   0   1 -10   54.81    5.61
   0   1 -10   56.15    5.54
   0   1 -10   46.69    5.28
   0   1 -10   54.31    3.96
   0   1 -10   54.81    5.61
   0   1 -10   56.15    5.54
   0   1  -9   13.50    3.98
   0   1  -9   13.12    2.69
   0   1  -9   15.98    3.61
   0   1  -9   14.39    3.74
   0   1  -9   13.50    3.98
   0   1  -9   13.12    2.69
   0   1  -9   15.98    3.61
   0   1  -9   14.39    3.74
   0   1  -8  246.06    5.40
   0   1  -8  255.25    6.69
   0   1  -8  241.49    7.16
   0   1  -8  246.06    5.40
   0   1  -8  255.25    6.69
   0   1  -8  241.49    7.16
   0  -1   7   51.16    4.40
   0  -1   7   51.16    4.40
   0   1  -7   48.16    3.66
   0   1  -7   52.46    4.68
   0   1  -7   43.21    4.28
   0   1  -7   48.16    3.66
   0   1  -7   52.46    4.68
   0   1  -7   43.21    4.28
   0   1  -6   38.10    3.25
   0   1  -6   43.01    3.78
   0   1  -6   41.62    4.11
   0   1  -6   38.10    3.25
   0   1  -6   43.01    3.78
   0   1  -6   41.62    4.11
   0   1  -5  263.56    4.62
   0   1  -5  260.60    5.34
   0   1  -5  259.68    5.32
   0   1  -5  263.56    4.62
   0   1  -5  260.60    5.34
   0   1  -5  259.68    5.32
   0   1  -4   26.26    2.83
   0   1  -4   29.44    3.24
   0   1  -4   23.66    2.49
   0   1  -4   26.26    2.83
   0   1  -4   29.44    3.24
   0   1  -4   23.66    2.49
   0   1  -3   82.68    3.11
   0   1  -3   85.17    3.42
   0   1  -3   98.79    3.61
   0   1  -3   82.68    3.11
   0   1  -3   85.17    3.42
   0   1  -3   98.79    3.61
   0   1  -2  143.97    3.05
   0   1  -2  146.60    3.40
   0   1  -2  144.72    3.15
   0   1  -2  143.97    3.05
   0   1  -2  146.60    3.40
   0   1  -2  144.72    3.15
   0  -1  -2   10.07    1.87
   0  -1  -2    9.86    1.82
   0  -1  -2   10.07    1.87
   0  -1  -2    9.86    1.82
   0  -1  -3   42.31    3.49
   0  -1  -3   36.44    3.14
   0  -1  -3   42.31    3.49
   0  -1  -3   36.44    3.14
   0  -1  -4    6.16    2.20
   0  -1  -4    7.89    2.19
   0  -1  -4    6.16    2.20
   0  -1  -4    7.89    2.19
   0  -1  -5  159.44    4.82
   0  -1  -5  158.70    4.67
   0  -1  -5  159.44    4.82
   0  -1  -5  158.70    4.67
   0   1   5  162.41    4.74
   0   1   5  162.41    4.74
   0  -1  -6    1.69    2.43
   0  -1  -6    0.24    2.31
   0  -1  -6    1.69    2.43
   0  -1  -6    0.24    2.31
   0   1   6   -1.40    2.36
   0   1   6   -1.40    2.36
   0  -1  -7   42.24    3.59
   0  -1  -7   49.14    4.39
   0  -1  -7   48.35    4.75
   0  -1  -7   42.24    3.59
   0  -1  -7   49.14    4.39
   0  -1  -7   48.35    4.75
   0   1   7   51.45    4.53
   0   1   7   51.45    4.53
   0  -1  -8  115.36    5.89
   0  -1  -8  120.94    6.02
   0  -1  -8  116.31    5.58
   0  -1  -8  115.36    5.89
   0  -1  -8  120.94    6.02
   0  -1  -8  116.31    5.58
   0  -1  -9   31.45    3.91
   0  -1  -9   28.97    3.99
   0  -1  -9   29.27    4.09
   0  -1  -9   31.45    3.91
   0  -1  -9   28.97    3.99
   0  -1  -9   29.27    4.09
   0  -1 -10   40.70    4.41
   0  -1 -10   46.87    5.24
   0  -1 -10   35.10    4.56
   0  -1 -10   40.70    4.41
   0  -1 -10   46.87    5.24
   0  -1 -10   35.10    4.56
   0  -1 -11    2.87    3.08
   0  -1 -11    7.83    2.88
   0  -1 -11    7.42    3.84
   0  -1 -11    5.60    3.90
   0  -1 -11    2.87    3.08
   0  -1 -11    7.83    2.88
   0  -1 -11    7.42    3.84
   0  -1 -11    5.60    3.90
   0  -1 -12   12.71    3.53
   0  -1 -12   15.23    2.89
   0  -1 -12   16.29    4.34
   0  -1 -12   14.82    4.79
   0  -1 -12   12.71    3.53
   0  -1 -12   15.23    2.89
   0  -1 -12   16.29    4.34
   0  -1 -12   14.82    4.79
   0  -1 -13  102.78    6.92
   0  -1 -13   97.69    7.25
   0  -1 -13  102.78    6.92
   0  -1 -13   97.69    7.25
   0  -1 -14   76.57    7.11
   0  -1 -14   67.80    6.98
   0  -1 -14   76.57    7.11
   0  -1 -14   67.80    6.98
   0   2 -14    6.73    5.20
   0   2 -14   -2.80    3.99
   0   2 -14    1.07    4.66
   0   2 -14    6.73    5.20
   0   2 -14   -2.80    3.99
   0   2 -14    1.07    4.66
   0   2 -13   -0.91    4.69
   0   2 -13    3.51    3.99
   0   2 -13   -1.81    4.19
   0   2 -13   -0.91    4.69
   0   2 -13    3.51    3.99
   0   2 -13   -1.81    4.19
   0   2 -12   -0.79    4.45
   0   2 -12    1.89    3.94
   0   2 -12    3.78    4.11
   0   2 -12   -0.79    4.45
   0   2 -12    1.89    3.94
   0   2 -12    3.78    4.11
   0   2 -11   -1.66    4.18
   0   2 -11    0.20    2.06
   0   2 -11    3.57    3.64
   0   2 -11   -3.23    3.58
   0   2 -11   -1.66    4.18
   0   2 -11    0.20    2.06
   0   2 -11    3.57    3.64
   0   2 -11   -3.23    3.58
   0   2 -10   21.67    4.82
   0   2 -10   29.60    3.55
   0   2 -10   31.63    4.29
   0   2 -10   26.73    4.48
   0   2 -10   21.67    4.82
   0   2 -10   29.60    3.55
   0   2 -10   31.63    4.29
   0   2 -10   26.73    4.48
   0   2  -9   13.15    4.13
   0   2  -9   10.60    2.54
   0   2  -9   14.17    3.58
   0   2  -9   15.31    3.74
   0   2  -9   13.15    4.13
   0   2  -9   10.60    2.54
   0   2  -9   14.17    3.58
   0   2  -9   15.31    3.74
   0   2  -8   48.69    4.88
   0   2  -8   48.29    3.98
   0   2  -8   52.03    5.24
   0   2  -8   57.53    5.01
   0   2  -8   48.69    4.88
   0   2  -8   48.29    3.98
   0   2  -8   52.03    5.24
   0   2  -8   57.53    5.01
   0   2  -7    1.70    2.17
   0   2  -7    1.77    2.62
   0   2  -7    3.84    2.76
   0   2  -7    1.70    2.17
   0   2  -7    1.77    2.62
   0   2  -7    3.84    2.76
   0  -2   6   47.54    4.03
   0  -2   6   47.54    4.03
   0   2  -6   45.72    3.25
   0   2  -6   49.51    4.44
   0   2  -6   49.35    4.02
   0   2  -6   45.72    3.25
   0   2  -6   49.51    4.44
   0   2  -6   49.35    4.02
   0   2  -5   29.27    3.01
   0   2  -5   31.83    3.00
   0   2  -5   28.60    2.86
   0   2  -5   29.27    3.01
   0   2  -5   31.83    3.00
   0   2  -5   28.60    2.86
   0   2  -4   43.60    3.29
   0   2  -4   46.38    3.75
   0   2  -4   45.39    3.55
   0   2  -4   43.60    3.29
   0   2  -4   46.38    3.75
   0   2  -4   45.39    3.55
   0   2  -3    2.05    1.82
   0   2  -3   -1.26    1.97
   0   2  -3    1.46    1.98
   0   2  -3    2.05    1.82
   0   2  -3   -1.26    1.97
   0   2  -3    1.46    1.98
   0   2  -2   16.86    2.14
   0   2  -2   18.56    2.34
   0   2  -2   23.06    2.33
   0   2  -2   16.86    2.14
   0   2  -2   18.56    2.34
   0   2  -2   23.06    2.33
   0   2  -1   39.95    2.79
   0   2  -1   38.43    3.00
   0   2  -1   47.35    3.50
   0   2  -1   39.95    2.79
   0   2  -1   38.43    3.00
   0   2  -1   47.35    3.50
   0   2   0  481.71    5.19
   0   2   0  497.54    5.29
   0   2   0  481.71    5.19
   0   2   0  497.54    5.29
   0  -2  -1   50.10    3.32
   0  -2  -1   50.10    3.32
   0   2   1   48.53    1.70
   0   2   1   53.21    3.49
   0   2   1   62.68    3.42
   0   2   1   58.97    3.31
   0   2   1   48.53    1.70
   0   2   1   53.21    3.49
   0   2   1   62.68    3.42
   0   2   1   58.97    3.31
   0  -2  -2  186.23    4.32
   0  -2  -2  177.26    4.37
   0  -2  -2  186.23    4.32
   0  -2  -2  177.26    4.37
   0   2   2  185.95    4.54
   0   2   2  192.22    4.36
   0   2   2  185.95    4.54
   0   2   2  192.22    4.36
   0  -2  -3    6.41    1.20
   0  -2  -3    5.43    2.27
   0  -2  -3    6.01    2.23
   0  -2  -3    6.41    1.20
   0  -2  -3    5.43    2.27
   0  -2  -3    6.01    2.23
   0   2   3    5.82    2.17
   0   2   3    5.95    2.10
   0   2   3    5.82    2.17
   0   2   3    5.95    2.10
   0  -2  -4    2.39    1.48
   0  -2  -4    2.48    2.16
   0  -2  -4   -1.30    2.29
   0  -2  -4    2.39    1.48
   0  -2  -4    2.48    2.16
   0  -2  -4   -1.30    2.29
   0   2   4    1.16    2.21
   0   2   4    1.95    2.04
   0   2   4    1.16    2.21
   0   2   4    1.95    2.04
   0  -2  -5   18.91    2.06
   0  -2  -5   16.28    2.65
   0  -2  -5   16.66    2.83
   0  -2  -5   18.91    2.06
   0  -2  -5   16.28    2.65
   0  -2  -5   16.66    2.83
   0   2   5   20.24    2.82
   0   2   5   20.24    2.82
   0  -2  -6  186.94    4.93
   0  -2  -6  188.16    6.02
   0  -2  -6  203.39    5.77
   0  -2  -6  186.94    4.93
   0  -2  -6  188.16    6.02
   0  -2  -6  203.39    5.77
   0   2   6  194.39    5.72
   0   2   6  194.39    5.72
   0  -2  -7   58.02    4.61
   0  -2  -7   70.60    5.35
   0  -2  -7   68.11    4.82
   0  -2  -7   58.02    4.61
   0  -2  -7   70.60    5.35
   0  -2  -7   68.11    4.82
   0   2   7   71.61    5.00
   0   2   7   71.61    5.00
   0  -2  -8  143.98    5.92
   0  -2  -8  143.77    6.15
   0  -2  -8  145.26    6.51
   0  -2  -8  143.98    5.92
   0  -2  -8  143.77    6.15
   0  -2  -8  145.26    6.51
   0  -2  -9   79.66    5.26
   0  -2  -9  111.89    6.07
   0  -2  -9  107.34    6.09
   0  -2  -9   79.66    5.26
   0  -2  -9  111.89    6.07
   0  -2  -9  107.34    6.09
   0  -2 -10    4.35    2.43
   0  -2 -10  237.04    8.11
   0  -2 -10  213.96    8.14
   0  -2 -10    4.35    2.43
   0  -2 -10  237.04    8.11
   0  -2 -10  213.96    8.14
   0  -2 -11   21.71    4.44
   0  -2 -11   20.56    4.52
   0  -2 -11   21.71    4.44
   0  -2 -11   20.56    4.52
   0  -2 -12    0.51    3.80
   0  -2 -12    0.37    4.11
   0  -2 -12    0.51    3.80
   0  -2 -12    0.37    4.11
   0  -2 -13    1.45    2.37
   0  -2 -13    0.46    4.11
   0  -2 -13   -0.05    4.39
   0  -2 -13    1.45    2.37
   0  -2 -13    0.46    4.11
   0  -2 -13   -0.05    4.39
   0  -2 -14   42.93    5.55
   0  -2 -14   43.12    6.25
   0  -2 -14   42.93    5.55
   0  -2 -14   43.12    6.25
   0   3 -14  105.78    9.23
   0   3 -14   69.30    6.50
   0   3 -14  114.38    8.47
   0   3 -14  105.78    9.23
   0   3 -14   69.30    6.50
   0   3 -14  114.38    8.47
   0   3 -13   46.24    6.82
   0   3 -13   48.56    5.42
   0   3 -13   48.21    6.22
   0   3 -13   46.24    6.82
   0   3 -13   48.56    5.42
   0   3 -13   48.21    6.22
   0   3 -12    3.53    4.76
   0   3 -12   -0.07    3.72
   0   3 -12    1.77    4.18
   0   3 -12    3.53    4.76
   0   3 -12   -0.07    3.72
   0   3 -12    1.77    4.18
   0   3 -11   63.83    6.71
   0   3 -11   39.72    3.04
   0   3 -11   73.56    6.28
   0   3 -11   62.93    6.70
   0   3 -11   63.83    6.71
   0   3 -11   39.72    3.04
   0   3 -11   73.56    6.28
   0   3 -11   62.93    6.70
   0   3 -10   60.17    7.26
   0   3 -10   60.74    3.89
   0   3 -10   67.07    6.04
   0   3 -10   65.24    6.41
   0   3 -10   60.17    7.26
   0   3 -10   60.74    3.89
   0   3 -10   67.07    6.04
   0   3 -10   65.24    6.41
   0   3  -9    7.19    4.11
   0   3  -9    5.84    2.55
   0   3  -9    6.54    3.52
   0   3  -9    5.93    3.80
   0   3  -9    7.19    4.11
   0   3  -9    5.84    2.55
   0   3  -9    6.54    3.52
   0   3  -9    5.93    3.80
   0   3  -8    0.41    3.66
   0   3  -8    3.31    2.48
   0   3  -8    3.47    3.24
   0   3  -8    1.26    3.40
   0   3  -8    0.41    3.66
   0   3  -8    3.31    2.48
   0   3  -8    3.47    3.24
   0   3  -8    1.26    3.40
   0   3  -7    0.35    2.30
   0   3  -7   -0.70    2.78
   0   3  -7    0.86    3.15
   0   3  -7    0.35    2.30
   0   3  -7   -0.70    2.78
   0   3  -7    0.86    3.15
   0  -3   6  226.23    6.64
   0  -3   6  226.23    6.64
   0   3  -6  229.35    5.33
   0   3  -6  233.42    6.19
   0   3  -6  228.64    6.24
   0   3  -6  229.35    5.33
   0   3  -6  233.42    6.19
   0   3  -6  228.64    6.24
   0  -3   5  295.07    6.52
   0  -3   5  295.07    6.52
   0   3  -5  276.17    5.29
   0   3  -5  289.59    6.27
   0   3  -5  287.82    6.26
   0   3  -5  276.17    5.29
   0   3  -5  289.59    6.27
   0   3  -5  287.82    6.26
   0  -3   4  120.12    4.68
   0  -3   4  120.12    4.68
   0   3  -4  111.95    4.09
   0   3  -4  121.98    4.71
   0   3  -4  113.71    5.02
   0   3  -4  111.95    4.09
   0   3  -4  121.98    4.71
   0   3  -4  113.71    5.02
   0  -3   3   84.84    4.31
   0  -3   3   84.84    4.31
   0   3  -3   82.15    3.98
   0   3  -3   83.22    4.37
   0   3  -3   82.15    3.98
   0   3  -3   83.22    4.37
   0  -3   2  285.50    5.41
   0  -3   2  285.50    5.41
   0   3  -2  275.25    3.94
   0   3  -2  273.92    4.98
   0   3  -2  276.41    5.39
   0   3  -2  275.25    3.94
   0   3  -2  273.92    4.98
   0   3  -2  276.41    5.39
   0  -3   1   22.60    2.55
   0  -3   1   17.11    2.31
   0  -3   1   22.60    2.55
   0  -3   1   17.11    2.31
   0   3  -1   21.26    2.10
   0   3  -1   18.22    2.11
   0   3  -1   20.07    2.38
   0   3  -1   20.71    2.58
   0   3  -1   21.26    2.10
   0   3  -1   18.22    2.11
   0   3  -1   20.07    2.38
   0   3  -1   20.71    2.58
   0  -3   0   98.47    3.96
   0  -3   0   98.47    3.96
   0   3   0  100.08    4.09
   0   3   0  104.37    4.08
   0   3   0  100.08    4.09
   0   3   0  104.37    4.08
   0  -3  -1  143.19    4.42
   0  -3  -1  143.19    4.42
   0   3   1  137.76    2.81
   0   3   1  147.92    4.61
   0   3   1  156.83    4.51
   0   3   1  150.33    4.42
   0   3   1  137.76    2.81
   0   3   1  147.92    4.61
   0   3   1  156.83    4.51
   0   3   1  150.33    4.42
   0  -3  -2   30.03    3.66
   0  -3  -2   30.03    3.66
   0   3   2   34.32    3.91
   0   3   2   37.60    3.59
   0   3   2   34.32    3.91
   0   3   2   37.60    3.59
   0  -3  -3   68.99    4.10
   0  -3  -3   62.54    4.16
   0  -3  -3   68.99    4.10
   0  -3  -3   62.54    4.16
   0   3   3   62.16    4.29
   0   3   3   72.23    4.04
   0   3   3   62.16    4.29
   0   3   3   72.23    4.04
   0  -3  -4  139.42    5.23
   0  -3  -4  137.18    4.99
   0  -3  -4  139.42    5.23
   0  -3  -4  137.18    4.99
   0   3   4  138.14    5.12
   0   3   4  138.56    4.64
   0   3   4  138.14    5.12
   0   3   4  138.56    4.64
   0  -3  -5   15.83    1.56
   0  -3  -5   10.95    2.83
   0  -3  -5   12.08    2.81
   0  -3  -5   15.83    1.56
   0  -3  -5   10.95    2.83
   0  -3  -5   12.08    2.81
   0   3   5   13.09    2.84
   0   3   5   10.93    2.58
   0   3   5   13.09    2.84
   0   3   5   10.93    2.58
   0  -3  -6    6.33    1.72
   0  -3  -6    7.30    2.97
   0  -3  -6    7.08    2.92
   0  -3  -6    6.33    1.72
   0  -3  -6    7.30    2.97
   0  -3  -6    7.08    2.92
   0   3   6    8.04    2.93
   0   3   6    7.73    2.56
   0   3   6    8.04    2.93
   0   3   6    7.73    2.56
   0  -3  -7   70.93    3.99
   0  -3  -7   78.18    5.42
   0  -3  -7   75.02    5.32
   0  -3  -7   70.93    3.99
   0  -3  -7   78.18    5.42
   0  -3  -7   75.02    5.32
   0   3   7   75.10    5.46
   0   3   7   75.10    5.46
   0  -3  -8    0.46    1.76
   0  -3  -8    1.19    3.22
   0  -3  -8    3.89    3.42
   0  -3  -8    0.46    1.76
   0  -3  -8    1.19    3.22
   0  -3  -8    3.89    3.42
   0  -3  -9   29.39    4.26
   0  -3  -9   24.88    4.27
   0  -3  -9   29.39    4.26
   0  -3  -9   24.88    4.27
   0  -3 -10   80.76    6.63
   0  -3 -10   80.30    6.34
   0  -3 -10   80.76    6.63
   0  -3 -10   80.30    6.34
   0  -3 -11   54.68    6.46
   0  -3 -11   53.00    6.19
   0  -3 -11   54.68    6.46
   0  -3 -11   53.00    6.19
   0  -3 -12   -0.42    3.86
   0  -3 -12    1.59    4.25
   0  -3 -12   -0.42    3.86
   0  -3 -12    1.59    4.25
   0  -3 -13    2.75    4.34
   0  -3 -13   -3.73    4.66
   0  -3 -13    2.75    4.34
   0  -3 -13   -3.73    4.66
   0  -3 -14   12.93    4.84
   0  -3 -14    1.79    4.95
   0  -3 -14   12.93    4.84
   0  -3 -14    1.79    4.95
   0   4 -13    7.48    5.61
   0   4 -13    6.95    5.13
   0   4 -13    7.48    5.61
   0   4 -13    6.95    5.13
   0   4 -12    5.07    5.19
   0   4 -12   13.52    4.98
   0   4 -12    5.07    5.19
   0   4 -12   13.52    4.98
   0   4 -11   35.13    6.09
   0   4 -11   42.18    5.14
   0   4 -11   32.66    5.42
   0   4 -11   35.13    6.09
   0   4 -11   42.18    5.14
   0   4 -11   32.66    5.42
   0   4 -10  177.08    9.17
   0   4 -10  197.90    5.04
   0   4 -10  188.90    7.56
   0   4 -10  183.80    7.91
   0   4 -10  177.08    9.17
   0   4 -10  197.90    5.04
   0   4 -10  188.90    7.56
   0   4 -10  183.80    7.91
   0   4  -9  151.79    8.42
   0   4  -9  169.22    5.05
   0   4  -9  187.03    7.35
   0   4  -9  177.19    7.43
   0   4  -9  151.79    8.42
   0   4  -9  169.22    5.05
   0   4  -9  187.03    7.35
   0   4  -9  177.19    7.43
   0   4  -8   25.66    4.64
   0   4  -8   23.48    3.11
   0   4  -8   22.75    4.00
   0   4  -8   26.69    4.15
   0   4  -8   25.66    4.64
   0   4  -8   23.48    3.11
   0   4  -8   22.75    4.00
   0   4  -8   26.69    4.15
   0   4  -7    3.25    3.63
   0   4  -7    0.21    2.59
   0   4  -7    1.31    3.23
   0   4  -7   -0.39    3.22
   0   4  -7    3.25    3.63
   0   4  -7    0.21    2.59
   0   4  -7    1.31    3.23
   0   4  -7   -0.39    3.22
   0   4  -6   -3.04    2.42
   0   4  -6    0.18    2.97
   0   4  -6   -3.04    2.42
   0   4  -6    0.18    2.97
   0  -4   5   -0.19    2.68
   0  -4   5   -0.19    2.68
   0   4  -5   -1.53    2.28
   0   4  -5    1.82    2.90
   0   4  -5   -1.53    2.28
   0   4  -5    1.82    2.90
   0  -4   4  178.75    5.65
   0  -4   4  178.75    5.65
   0   4  -4  166.11    4.96
   0   4  -4  178.77    5.68
   0   4  -4  166.11    4.96
   0   4  -4  178.77    5.68
   0  -4   3   34.70    4.20
   0  -4   3   33.06    3.49
   0  -4   3   34.70    4.20
   0  -4   3   33.06    3.49
   0   4  -3   36.83    3.90
   0   4  -3   38.11    4.10
   0   4  -3   36.83    3.90
   0   4  -3   38.11    4.10
   0  -4   2   45.31    3.77
   0  -4   2   43.30    3.69
   0  -4   2   45.31    3.77
   0  -4   2   43.30    3.69
   0   4  -2   45.09    3.14
   0   4  -2   42.12    3.74
   0   4  -2   38.28    4.25
   0   4  -2   45.09    3.14
   0   4  -2   42.12    3.74
   0   4  -2   38.28    4.25
   0  -4   1  470.23    7.04
   0  -4   1  458.56    6.90
   0  -4   1  470.23    7.04
   0  -4   1  458.56    6.90
   0   4  -1  467.36    5.78
   0   4  -1  450.55    4.29
   0   4  -1  450.50    6.82
   0   4  -1  478.56    7.40
   0   4  -1  467.36    5.78
   0   4  -1  450.55    4.29
   0   4  -1  450.50    6.82
   0   4  -1  478.56    7.40
   0  -4   0   94.98    4.55
   0  -4   0   94.98    4.55
   0   4   0  107.88    4.10
   0   4   0   98.82    4.70
   0   4   0  103.27    4.40
   0   4   0  107.88    4.10
   0   4   0   98.82    4.70
   0   4   0  103.27    4.40
   0  -4  -1  105.75    4.71
   0  -4  -1  105.75    4.71
   0   4   1  109.70    3.36
   0   4   1  102.67    4.86
   0   4   1  108.57    4.85
   0   4   1  109.70    3.36
   0   4   1  102.67    4.86
   0   4   1  108.57    4.85
   0  -4  -2   69.12    4.47
   0  -4  -2   69.12    4.47
   0   4   2   67.61    4.60
   0   4   2   71.92    4.37
   0   4   2   67.61    4.60
   0   4   2   71.92    4.37
   0  -4  -3  202.79    5.93
   0  -4  -3  202.79    5.93
   0   4   3  197.30    5.53
   0   4   3  210.85    5.45
   0   4   3  197.30    5.53
   0   4   3  210.85    5.45
   0  -4  -4   53.40    4.79
   0  -4  -4   53.79    3.94
   0  -4  -4   53.40    4.79
   0  -4  -4   53.79    3.94
   0   4   4   63.49    4.81
   0   4   4   66.34    4.34
   0   4   4   63.49    4.81
   0   4   4   66.34    4.34
   0  -4  -5   14.82    3.03
   0  -4  -5   14.24    3.19
   0  -4  -5   14.82    3.03
   0  -4  -5   14.24    3.19
   0   4   5   14.23    2.99
   0   4   5   17.13    3.02
   0   4   5   14.23    2.99
   0   4   5   17.13    3.02
   0  -4  -6   47.95    5.19
   0  -4  -6   50.07    5.03
   0  -4  -6   47.95    5.19
   0  -4  -6   50.07    5.03
   0   4   6   47.77    5.29
   0   4   6   50.96    4.40
   0   4   6   47.77    5.29
   0   4   6   50.96    4.40
   0  -4  -7   44.42    5.46
   0  -4  -7   39.88    4.53
   0  -4  -7   44.42    5.46
   0  -4  -7   39.88    4.53
   0   4   7   40.36    4.45
   0   4   7   40.36    4.45
   0  -4  -8    9.82    3.74
   0  -4  -8   11.28    4.10
   0  -4  -8    9.82    3.74
   0  -4  -8   11.28    4.10
   0  -4  -9    2.35    3.65
   0  -4  -9    3.10    3.78
   0  -4  -9    2.35    3.65
   0  -4  -9    3.10    3.78
   0  -4 -10    6.58    3.96
   0  -4 -10    0.72    4.05
   0  -4 -10    6.58    3.96
   0  -4 -10    0.72    4.05
   0  -4 -11   11.65    4.55
   0  -4 -11    3.40    4.41
   0  -4 -11   11.65    4.55
   0  -4 -11    3.40    4.41
   0  -4 -12    4.24    4.47
   0  -4 -12    3.17    4.60
   0  -4 -12    4.24    4.47
   0  -4 -12    3.17    4.60
   0  -4 -13    3.29    4.61
   0  -4 -13    0.83    4.73
   0  -4 -13    3.29    4.61
   0  -4 -13    0.83    4.73
   0  -4 -14   10.68    4.94
   0  -4 -14    9.45    5.27
   0  -4 -14   10.68    4.94
   0  -4 -14    9.45    5.27
   0   5 -13   19.28    6.20
   0   5 -13   14.98    5.64
   0   5 -13   19.28    6.20
   0   5 -13   14.98    5.64
   0   5 -12    7.83    5.50
   0   5 -12    1.40    4.60
   0   5 -12    7.83    5.50
   0   5 -12    1.40    4.60
   0   5 -11    4.42    5.09
   0   5 -11    2.94    4.70
   0   5 -11    4.42    5.09
   0   5 -11    2.94    4.70
   0   5 -10   -1.62    4.51
   0   5 -10    3.38    2.51
   0   5 -10    4.12    4.50
   0   5 -10   -1.62    4.51
   0   5 -10    3.38    2.51
   0   5 -10    4.12    4.50
   0   5  -9   56.54    6.35
   0   5  -9   66.78    4.46
   0   5  -9   70.18    6.78
   0   5  -9   56.54    6.35
   0   5  -9   66.78    4.46
   0   5  -9   70.18    6.78
   0   5  -8   61.64    7.15
   0   5  -8   63.95    4.62
   0   5  -8   63.87    6.05
   0   5  -8   61.64    7.15
   0   5  -8   63.95    4.62
   0   5  -8   63.87    6.05
   0   5  -7    8.96    4.10
   0   5  -7    4.06    2.80
   0   5  -7    2.44    3.57
   0   5  -7    8.96    4.10
   0   5  -7    4.06    2.80
   0   5  -7    2.44    3.57
   0   5  -6   86.73    4.75
   0   5  -6   87.65    6.01
   0   5  -6   86.73    4.75
   0   5  -6   87.65    6.01
   0  -5   5  277.22    7.55
   0  -5   5  277.22    7.55
   0   5  -5  265.25    6.38
   0   5  -5  273.32    7.62
   0   5  -5  265.25    6.38
   0   5  -5  273.32    7.62
   0  -5   4  590.51    9.49
   0  -5   4  590.51    9.49
   0   5  -4  532.04    7.97
   0   5  -4  578.31    9.49
   0   5  -4  532.04    7.97
   0   5  -4  578.31    9.49
   0  -5   3    5.24    2.88
   0  -5   3    4.21    2.56
   0  -5   3    5.24    2.88
   0  -5   3    4.21    2.56
   0   5  -3    5.87    2.59
   0   5  -3    2.47    2.86
   0   5  -3    5.87    2.59
   0   5  -3    2.47    2.86
   0  -5   2   58.91    4.83
   0  -5   2   53.03    4.15
   0  -5   2   58.91    4.83
   0  -5   2   53.03    4.15
   0   5  -2   57.69    3.51
   0   5  -2   47.28    4.49
   0   5  -2   57.80    4.74
   0   5  -2   57.69    3.51
   0   5  -2   47.28    4.49
   0   5  -2   57.80    4.74
   0  -5   1   81.02    5.09
   0  -5   1   75.19    4.48
   0  -5   1   81.02    5.09
   0  -5   1   75.19    4.48
   0   5  -1   76.84    4.56
   0   5  -1   79.77    4.12
   0   5  -1   79.18    2.85
   0   5  -1   81.35    4.63
   0   5  -1   84.57    4.94
   0   5  -1   76.84    4.56
   0   5  -1   79.77    4.12
   0   5  -1   79.18    2.85
   0   5  -1   81.35    4.63
   0   5  -1   84.57    4.94
   0  -5   0    2.27    2.56
   0  -5   0    2.27    2.56
   0   5   0    1.10    1.92
   0   5   0   -2.08    1.84
   0   5   0    1.53    2.50
   0   5   0   -0.19    2.52
   0   5   0    1.10    1.92
   0   5   0   -2.08    1.84
   0   5   0    1.53    2.50
   0   5   0   -0.19    2.52
   0  -5  -1   70.21    4.67
   0  -5  -1   70.21    4.67
   0   5   1   67.31    3.49
   0   5   1   71.42    4.87
   0   5   1   76.63    4.74
   0   5   1   67.31    3.49
   0   5   1   71.42    4.87
   0   5   1   76.63    4.74
   0  -5  -2   10.66    2.75
   0  -5  -2   10.66    2.75
   0   5   2   15.88    1.33
   0   5   2   15.58    3.09
   0   5   2   13.37    2.78
   0   5   2   15.88    1.33
   0   5   2   15.58    3.09
   0   5   2   13.37    2.78
   0  -5  -3   46.26    5.00
   0  -5  -3   39.12    4.10
   0  -5  -3   46.26    5.00
   0  -5  -3   39.12    4.10
   0   5   3   47.62    4.33
   0   5   3   50.51    4.49
   0   5   3   47.62    4.33
   0   5   3   50.51    4.49
   0  -5  -4  682.08   10.63
   0  -5  -4  644.60    9.83
   0  -5  -4  682.08   10.63
   0  -5  -4  644.60    9.83
   0   5   4  677.25   10.29
   0   5   4  699.84   10.01
   0   5   4  677.25   10.29
   0   5   4  699.84   10.01
   0  -5  -5   44.61    4.84
   0  -5  -5   47.17    5.19
   0  -5  -5   44.61    4.84
   0  -5  -5   47.17    5.19
   0   5   5   50.06    4.83
   0   5   5   46.96    4.78
   0   5   5   50.06    4.83
   0   5   5   46.96    4.78
   0  -5  -6   -3.23    3.32
   0  -5  -6    2.42    3.48
   0  -5  -6   -3.23    3.32
   0  -5  -6    2.42    3.48
   0   5   6   -0.83    3.44
   0   5   6   -0.83    3.44
   0  -5  -7  129.28    6.95
   0  -5  -7  126.61    6.80
   0  -5  -7  129.28    6.95
   0  -5  -7  126.61    6.80
   0   5   7  131.38    7.10
   0   5   7  131.38    7.10
   0  -5  -8   37.79    4.81
   0  -5  -8   30.89    4.82
   0  -5  -8   37.79    4.81
   0  -5  -8   30.89    4.82
   0  -5  -9    2.75    3.91
   0  -5  -9   -0.42    4.08
   0  -5  -9    2.75    3.91
   0  -5  -9   -0.42    4.08
   0  -5 -10  132.04    7.48
   0  -5 -10  132.04    7.48
   0  -5 -11   32.14    5.44
   0  -5 -11   32.14    5.44
   0  -5 -12   11.84    4.74
   0  -5 -12    6.89    5.24
   0  -5 -12   11.84    4.74
   0  -5 -12    6.89    5.24
   0  -5 -13   21.22    5.49
   0  -5 -13   15.23    5.45
   0  -5 -13   21.22    5.49
   0  -5 -13   15.23    5.45
   0   6 -12   34.74    6.83
   0   6 -12   46.24    6.67
   0   6 -12   34.74    6.83
   0   6 -12   46.24    6.67
   0   6 -11    0.46    5.08
   0   6 -11    2.00    4.65
   0   6 -11    0.46    5.08
   0   6 -11    2.00    4.65
   0   6 -10   10.71    5.39
   0   6 -10    6.94    2.53
   0   6 -10   13.95    4.88
   0   6 -10   10.71    5.39
   0   6 -10    6.94    2.53
   0   6 -10   13.95    4.88
   0   6  -9   28.61    5.73
   0   6  -9   30.50    3.51
   0   6  -9   27.67    5.42
   0   6  -9   28.61    5.73
   0   6  -9   30.50    3.51
   0   6  -9   27.67    5.42
   0   6  -8   -0.47    4.40
   0   6  -8    3.51    3.05
   0   6  -8    0.11    4.26
   0   6  -8   -0.47    4.40
   0   6  -8    3.51    3.05
   0   6  -8    0.11    4.26
   0   6  -7   -0.28    4.08
   0   6  -7   -0.31    2.98
   0   6  -7   -2.47    3.75
   0   6  -7   -0.28    4.08
   0   6  -7   -0.31    2.98
   0   6  -7   -2.47    3.75
   0   6  -6   30.35    4.93
   0   6  -6   30.36    3.64
   0   6  -6   32.47    4.77
   0   6  -6   30.35    4.93
   0   6  -6   30.36    3.64
   0   6  -6   32.47    4.77
   0   6  -5    9.62    3.87
   0   6  -5   12.12    3.26
   0   6  -5   10.28    3.86
   0   6  -5    9.62    3.87
   0   6  -5   12.12    3.26
   0   6  -5   10.28    3.86
   0  -6   4  180.20    7.19
   0  -6   4  180.20    7.19
   0   6  -4  155.57    7.45
   0   6  -4  175.11    6.28
   0   6  -4  178.38    7.13
   0   6  -4  155.57    7.45
   0   6  -4  175.11    6.28
   0   6  -4  178.38    7.13
   0  -6   3   48.09    4.54
   0  -6   3   48.09    4.54
   0   6  -3   41.10    4.23
   0   6  -3   19.01    2.21
   0   6  -3   46.91    4.49
   0   6  -3   42.54    4.39
   0   6  -3   41.10    4.23
   0   6  -3   19.01    2.21
   0   6  -3   46.91    4.49
   0   6  -3   42.54    4.39
   0  -6   2    6.48    3.36
   0  -6   2    4.56    3.00
   0  -6   2    6.48    3.36
   0  -6   2    4.56    3.00
   0   6  -2    6.90    2.90
   0   6  -2    5.59    2.30
   0   6  -2    3.87    2.89
   0   6  -2    6.17    3.30
   0   6  -2    6.90    2.90
   0   6  -2    5.59    2.30
   0   6  -2    3.87    2.89
   0   6  -2    6.17    3.30
   0  -6   1   29.94    3.74
   0  -6   1   29.94    3.74
   0   6  -1   33.08    3.27
   0   6  -1   28.39    3.12
   0   6  -1   31.29    2.61
   0   6  -1   28.28    3.53
   0   6  -1   26.62    3.63
   0   6  -1   33.08    3.27
   0   6  -1   28.39    3.12
   0   6  -1   31.29    2.61
   0   6  -1   28.28    3.53
   0   6  -1   26.62    3.63
   0  -6   0   46.69    4.86
   0  -6   0   46.69    4.86
   0   6   0   42.39    4.43
   0   6   0   46.32    3.41
   0   6   0   42.08    4.96
   0   6   0   39.52    4.76
   0   6   0   42.39    4.43
   0   6   0   46.32    3.41
   0   6   0   42.08    4.96
   0   6   0   39.52    4.76
   0  -6  -1    1.55    2.75
   0  -6  -1    1.55    2.75
   0   6   1    2.71    1.87
   0   6   1    4.68    3.14
   0   6   1   -0.11    3.12
   0   6   1    2.71    1.87
   0   6   1    4.68    3.14
   0   6   1   -0.11    3.12
   0  -6  -2    1.48    2.78
   0  -6  -2    1.48    2.78
   0   6   2    2.21    2.82
   0   6   2   -1.44    3.04
   0   6   2    2.21    2.82
   0   6   2   -1.44    3.04
   0  -6  -3   -0.37    3.23
   0  -6  -3   -0.37    3.23
   0   6   3   -2.87    2.82
   0   6   3   -1.17    3.07
   0   6   3   -2.87    2.82
   0   6   3   -1.17    3.07
   0  -6  -4   69.43    6.06
   0  -6  -4   72.80    5.87
   0  -6  -4   69.43    6.06
   0  -6  -4   72.80    5.87
   0   6   4   75.04    6.07
   0   6   4   71.98    5.55
   0   6   4   75.04    6.07
   0   6   4   71.98    5.55
   0  -6  -5  176.38    7.59
   0  -6  -5  176.15    7.28
   0  -6  -5  176.38    7.59
   0  -6  -5  176.15    7.28
   0   6   5  179.09    7.56
   0   6   5  172.45    6.84
   0   6   5  179.09    7.56
   0   6   5  172.45    6.84
   0  -6  -6   11.46    4.14
   0  -6  -6   12.87    4.14
   0  -6  -6   11.46    4.14
   0  -6  -6   12.87    4.14
   0   6   6   12.97    3.78
   0   6   6   12.97    3.78
   0  -6  -7   -0.88    3.40
   0  -6  -7    0.70    3.87
   0  -6  -7   -0.88    3.40
   0  -6  -7    0.70    3.87
   0   6   7   -0.25    3.85
   0   6   7   -0.25    3.85
   0  -6  -8   52.41    5.74
   0  -6  -8   49.76    5.67
   0  -6  -8   52.41    5.74
   0  -6  -8   49.76    5.67
   0  -6  -9   81.44    7.04
   0  -6  -9   78.48    6.91
   0  -6  -9   81.44    7.04
   0  -6  -9   78.48    6.91
   0  -6 -10   -0.39    4.30
   0  -6 -10   -0.25    4.37
   0  -6 -10   -0.39    4.30
   0  -6 -10   -0.25    4.37
   0  -6 -11    6.15    4.57
   0  -6 -11    4.38    4.76
   0  -6 -11    6.15    4.57
   0  -6 -11    4.38    4.76
   0  -6 -12   12.57    4.99
   0  -6 -12   13.70    5.61
   0  -6 -12   12.57    4.99
   0  -6 -12   13.70    5.61
   0  -6 -13    3.38    5.06
   0  -6 -13    2.21    5.16
   0  -6 -13    3.38    5.06
   0  -6 -13    2.21    5.16
   0   7 -11   27.88    6.61
   0   7 -11   30.21    6.04
   0   7 -11   27.88    6.61
   0   7 -11   30.21    6.04
   0   7 -10    5.80    5.48
   0   7 -10    5.01    4.88
   0   7 -10    5.80    5.48
   0   7 -10    5.01    4.88
   0   7  -9    5.30    5.04
   0   7  -9   -0.23    3.09
   0   7  -9    1.00    4.57
   0   7  -9    5.30    5.04
   0   7  -9   -0.23    3.09
   0   7  -9    1.00    4.57
   0   7  -8    8.57    5.01
   0   7  -8   13.86    3.55
   0   7  -8   13.80    4.79
   0   7  -8    8.57    5.01
   0   7  -8   13.86    3.55
   0   7  -8   13.80    4.79
   0   7  -7    2.00    4.39
   0   7  -7    1.77    3.42
   0   7  -7    3.11    4.42
   0   7  -7    2.00    4.39
   0   7  -7    1.77    3.42
   0   7  -7    3.11    4.42
   0   7  -6    8.53    4.39
   0   7  -6    6.16    3.55
   0   7  -6    8.71    4.37
   0   7  -6    8.53    4.39
   0   7  -6    6.16    3.55
   0   7  -6    8.71    4.37
   0   7  -5   12.37    4.30
   0   7  -5   14.58    3.62
   0   7  -5   11.15    4.29
   0   7  -5   12.37    4.30
   0   7  -5   14.58    3.62
   0   7  -5   11.15    4.29
   0   7  -4   20.83    4.20
   0   7  -4   18.61    3.80
   0   7  -4   20.32    4.38
   0   7  -4   20.83    4.20
   0   7  -4   18.61    3.80
   0   7  -4   20.32    4.38
   0  -7   3    6.42    3.92
   0  -7   3    6.42    3.92
   0   7  -3    8.47    3.59
   0   7  -3    2.71    3.41
   0   7  -3    2.13    3.73
   0   7  -3    8.47    3.59
   0   7  -3    2.71    3.41
   0   7  -3    2.13    3.73
   0   7  -2    5.01    3.23
   0   7  -2    0.98    3.28
   0   7  -2   -2.25    3.54
   0   7  -2    5.01    3.23
   0   7  -2    0.98    3.28
   0   7  -2   -2.25    3.54
   0  -7   1   16.64    3.78
   0  -7   1   16.64    3.78
   0   7  -1   13.96    3.17
   0   7  -1   11.71    2.56
   0   7  -1   16.12    3.69
   0   7  -1   12.07    3.91
   0   7  -1   13.96    3.17
   0   7  -1   11.71    2.56
   0   7  -1   16.12    3.69
   0   7  -1   12.07    3.91
   0  -7   0   75.98    5.83
   0  -7   0   75.98    5.83
   0   7   0   75.58    5.26
   0   7   0   68.62    5.80
   0   7   0   74.88    5.70
   0   7   0   75.58    5.26
   0   7   0   68.62    5.80
   0   7   0   74.88    5.70
   0  -7  -1  146.08    6.73
   0  -7  -1  146.08    6.73
   0   7   1  152.68    6.95
   0   7   1  145.41    6.64
   0   7   1  140.26    6.75
   0   7   1  152.68    6.95
   0   7   1  145.41    6.64
   0   7   1  140.26    6.75
   0  -7  -2   68.36    5.96
   0  -7  -2   68.36    5.96
   0   7   2   67.14    6.17
   0   7   2   70.06    5.32
   0   7   2   67.14    6.17
   0   7   2   70.06    5.32
   0  -7  -3   13.89    4.10
   0  -7  -3   13.89    4.10
   0   7   3    7.80    3.58
   0   7   3    8.15    3.47
   0   7   3    7.80    3.58
   0   7   3    8.15    3.47
   0  -7  -4   49.86    5.34
   0  -7  -4   59.05    6.10
   0  -7  -4   49.86    5.34
   0  -7  -4   59.05    6.10
   0   7   4   50.80    5.18
   0   7   4   60.13    5.83
   0   7   4   50.80    5.18
   0   7   4   60.13    5.83
   0  -7  -5   16.10    4.45
   0  -7  -5   16.05    4.41
   0  -7  -5   16.10    4.45
   0  -7  -5   16.05    4.41
   0   7   5   19.20    4.44
   0   7   5   19.20    4.44
   0  -7  -6   36.93    5.28
   0  -7  -6   38.88    5.31
   0  -7  -6   36.93    5.28
   0  -7  -6   38.88    5.31
   0   7   6   38.92    5.25
   0   7   6   38.92    5.25
   0  -7  -7    6.73    4.44
   0  -7  -7    3.69    4.42
   0  -7  -7    6.73    4.44
   0  -7  -7    3.69    4.42
   0   7   7    4.30    4.03
   0   7   7    4.30    4.03
   0  -7  -8    2.61    4.34
   0  -7  -8    1.42    4.46
   0  -7  -8    2.61    4.34
   0  -7  -8    1.42    4.46
   0  -7  -9   45.66    5.91
   0  -7  -9   50.51    6.24
   0  -7  -9   45.66    5.91
   0  -7  -9   50.51    6.24
   0  -7 -10   48.31    6.22
   0  -7 -10   48.31    6.22
   0  -7 -11   41.84    6.32
   0  -7 -11   41.84    6.32
   0  -7 -12   -0.60    4.70
   0  -7 -12   -0.42    5.19
   0  -7 -12   -0.60    4.70
   0  -7 -12   -0.42    5.19
   0   8 -11   20.33    6.53
   0   8 -11   15.88    5.84
   0   8 -11   20.33    6.53
   0   8 -11   15.88    5.84
   0   8 -10   61.62    7.74
   0   8 -10   69.24    7.60
   0   8 -10   61.62    7.74
   0   8 -10   69.24    7.60
   0   8  -9   20.97    6.10
   0   8  -9   31.25    3.84
   0   8  -9   27.75    6.08
   0   8  -9   20.97    6.10
   0   8  -9   31.25    3.84
   0   8  -9   27.75    6.08
   0   8  -8   12.86    5.45
   0   8  -8   11.25    3.70
   0   8  -8   13.37    5.42
   0   8  -8   12.86    5.45
   0   8  -8   11.25    3.70
   0   8  -8   13.37    5.42
   0   8  -7   36.84    6.04
   0   8  -7   33.27    4.40
   0   8  -7   32.42    5.57
   0   8  -7   36.84    6.04
   0   8  -7   33.27    4.40
   0   8  -7   32.42    5.57
   0   8  -6   28.16    5.42
   0   8  -6   26.04    4.35
   0   8  -6   26.39    5.25
   0   8  -6   28.16    5.42
   0   8  -6   26.04    4.35
   0   8  -6   26.39    5.25
   0   8  -5   24.64    4.92
   0   8  -5   23.01    4.20
   0   8  -5   25.44    4.99
   0   8  -5   24.64    4.92
   0   8  -5   23.01    4.20
   0   8  -5   25.44    4.99
   0   8  -4  118.55    8.26
   0   8  -4  115.94    6.25
   0   8  -4  115.87    7.27
   0   8  -4  118.55    8.26
   0   8  -4  115.94    6.25
   0   8  -4  115.87    7.27
   0   8  -3  112.45    7.80
   0   8  -3  107.43    6.28
   0   8  -3  110.41    7.33
   0   8  -3  112.45    7.80
   0   8  -3  107.43    6.28
   0   8  -3  110.41    7.33
   0   8  -2    7.82    3.62
   0   8  -2    6.80    3.86
   0   8  -2    8.66    4.18
   0   8  -2    7.82    3.62
   0   8  -2    6.80    3.86
   0   8  -2    8.66    4.18
   0   8  -1    8.40    3.17
   0   8  -1    5.83    3.75
   0   8  -1    6.34    3.99
   0   8  -1    8.40    3.17
   0   8  -1    5.83    3.75
   0   8  -1    6.34    3.99
   0   8   0    5.20    3.74
   0   8   0    4.31    3.77
   0   8   0    5.20    3.74
   0   8   0    4.31    3.77
   0  -8  -1   38.12    4.89
   0  -8  -1   38.12    4.89
   0   8   1   36.19    4.79
   0   8   1   47.68    5.71
   0   8   1   44.02    5.18
   0   8   1   36.19    4.79
   0   8   1   47.68    5.71
   0   8   1   44.02    5.18
   0  -8  -2  134.91    7.34
   0  -8  -2  134.91    7.34
   0   8   2  144.84    7.53
   0   8   2  150.66    7.49
   0   8   2  144.84    7.53
   0   8   2  150.66    7.49
   0  -8  -3   56.86    6.37
   0  -8  -3   56.86    6.37
   0   8   3   59.12    5.85
   0   8   3   59.98    5.63
   0   8   3   59.12    5.85
   0   8   3   59.98    5.63
   0  -8  -4   13.24    4.71
   0  -8  -4   13.49    4.60
   0  -8  -4   13.24    4.71
   0  -8  -4   13.49    4.60
   0   8   4   13.58    4.59
   0   8   4   18.27    4.52
   0   8   4   13.58    4.59
   0   8   4   18.27    4.52
   0  -8  -5   82.37    6.72
   0  -8  -5   77.74    7.12
   0  -8  -5   82.37    6.72
   0  -8  -5   77.74    7.12
   0   8   5   83.07    6.63
   0   8   5   83.07    6.63
   0  -8  -6  101.18    7.79
   0  -8  -6  106.08    7.68
   0  -8  -6  101.18    7.79
   0  -8  -6  106.08    7.68
   0   8   6   98.46    7.82
   0   8   6   98.46    7.82
   0  -8  -7   27.35    5.56
   0  -8  -7   26.47    5.41
   0  -8  -7   27.35    5.56
   0  -8  -7   26.47    5.41
   0   8   7   26.95    5.49
   0   8   7   26.95    5.49
   0  -8  -8    0.42    4.62
   0  -8  -8   -4.68    4.61
   0  -8  -8    0.42    4.62
   0  -8  -8   -4.68    4.61
   0  -8  -9    9.67    5.04
   0  -8  -9    4.57    5.09
   0  -8  -9    9.67    5.04
   0  -8  -9    4.57    5.09
   0  -8 -10   -0.03    4.62
   0  -8 -10    1.92    5.13
   0  -8 -10   -0.03    4.62
   0  -8 -10    1.92    5.13
   0  -8 -11   -1.90    4.77
   0  -8 -11    1.50    5.29
   0  -8 -11   -1.90    4.77
   0  -8 -11    1.50    5.29
   0   9  -9   51.07    7.49
   0   9  -9   37.69    6.50
   0   9  -9   51.07    7.49
   0   9  -9   37.69    6.50
   0   9  -8    0.60    5.22
   0   9  -8   -0.31    3.49
   0   9  -8    0.57    5.01
   0   9  -8    0.60    5.22
   0   9  -8   -0.31    3.49
   0   9  -8    0.57    5.01
   0   9  -7    7.09    5.08
   0   9  -7    1.70    3.78
   0   9  -7    1.19    4.91
   0   9  -7    7.09    5.08
   0   9  -7    1.70    3.78
   0   9  -7    1.19    4.91
   0   9  -6   86.42    9.00
   0   9  -6   88.69    6.19
   0   9  -6   79.54    7.83
   0   9  -6   86.42    9.00
   0   9  -6   88.69    6.19
   0   9  -6   79.54    7.83
   0   9  -5   96.02    8.85
   0   9  -5   84.36    6.34
   0   9  -5   76.64    7.26
   0   9  -5   96.02    8.85
   0   9  -5   84.36    6.34
   0   9  -5   76.64    7.26
   0   9  -4    7.12    4.30
   0   9  -4    4.91    3.97
   0   9  -4    4.08    4.60
   0   9  -4    7.12    4.30
   0   9  -4    4.91    3.97
   0   9  -4    4.08    4.60
   0   9  -3   22.17    4.52
   0   9  -3   23.55    4.62
   0   9  -3   17.97    4.96
   0   9  -3   22.17    4.52
   0   9  -3   23.55    4.62
   0   9  -3   17.97    4.96
   0   9  -2   85.10    6.44
   0   9  -2   82.68    6.89
   0   9  -2   85.10    6.44
   0   9  -2   82.68    6.89
   0   9  -1    0.31    3.83
   0   9  -1    1.69    4.12
   0   9  -1    0.31    3.83
   0   9  -1    1.69    4.12
   0   9   0    1.95    4.07
   0   9   0   14.02    4.60
   0   9   0    1.95    4.07
   0   9   0   14.02    4.60
   0   9   1   38.57    5.28
   0   9   1   45.23    5.74
   0   9   1   43.94    5.71
   0   9   1   38.57    5.28
   0   9   1   45.23    5.74
   0   9   1   43.94    5.71
   0   9   2    5.34    4.44
   0   9   2    4.09    4.39
   0   9   2    5.34    4.44
   0   9   2    4.09    4.39
   0  -9  -3   30.32    5.43
   0  -9  -3   30.32    5.43
   0   9   3   31.20    5.28
   0   9   3   30.26    5.31
   0   9   3   31.20    5.28
   0   9   3   30.26    5.31
   0  -9  -4   12.28    4.72
   0  -9  -4   10.88    4.98
   0  -9  -4   12.28    4.72
   0  -9  -4   10.88    4.98
   0   9   4   13.16    4.94
   0   9   4   13.16    4.94
   0  -9  -5    2.86    4.85
   0  -9  -5   -2.22    4.61
   0  -9  -5    2.86    4.85
   0  -9  -5   -2.22    4.61
   0   9   5    4.28    4.79
   0   9   5    4.28    4.79
   0  -9  -6   13.87    5.30
   0  -9  -6   16.05    5.33
   0  -9  -6   13.87    5.30
   0  -9  -6   16.05    5.33
   0   9   6   16.92    5.35
   0   9   6   16.92    5.35
   0  -9  -7   15.00    5.10
   0  -9  -7   15.57    5.51
   0  -9  -7   15.00    5.10
   0  -9  -7   15.57    5.51
   0   9   7   12.84    5.02
   0   9   7   12.84    5.02
   0  -9  -8    5.27    5.16
   0  -9  -8   14.96    5.60
   0  -9  -8    5.27    5.16
   0  -9  -8   14.96    5.60
   0  -9  -9   79.72    8.05
   0  -9  -9   73.05    8.13
   0  -9  -9   79.72    8.05
   0  -9  -9   73.05    8.13
   0  10  -8    2.13    5.37
   0  10  -8   -2.50    3.68
   0  10  -8    1.90    5.32
   0  10  -8    2.13    5.37
   0  10  -8   -2.50    3.68
   0  10  -8    1.90    5.32
   0  10  -7    2.22    5.11
   0  10  -7    7.87    4.09
   0  10  -7    7.54    5.29
   0  10  -7    2.22    5.11
   0  10  -7    7.87    4.09
   0  10  -7    7.54    5.29
   0  10  -6   -0.32    4.74
   0  10  -6    3.29    4.19
   0  10  -6    3.86    5.15
   0  10  -6   -0.32    4.74
   0  10  -6    3.29    4.19
   0  10  -6    3.86    5.15
   0  10  -5   19.05    5.34
   0  10  -5   16.50    4.55
   0  10  -5   18.51    5.55
   0  10  -5   19.05    5.34
   0  10  -5   16.50    4.55
   0  10  -5   18.51    5.55
   0  10  -4   42.45    5.33
   0  10  -4   36.22    6.08
   0  10  -4   42.45    5.33
   0  10  -4   36.22    6.08
   0  10  -3   10.79    4.58
   0  10  -3   15.86    5.36
   0  10  -3   10.79    4.58
   0  10  -3   15.86    5.36
   0  10  -2    1.84    4.10
   0  10  -2    0.86    4.42
   0  10  -2    1.84    4.10
   0  10  -2    0.86    4.42
   0  10  -1   35.61    5.51
   0  10  -1   36.80    5.67
   0  10  -1   35.61    5.51
   0  10  -1   36.80    5.67
   0  10   0    1.06    4.28
   0  10   0    4.30    4.67
   0  10   0    3.16    4.76
   0  10   0    1.06    4.28
   0  10   0    4.30    4.67
   0  10   0    3.16    4.76
   0  10   1    3.40    4.54
   0  10   1   -1.92    4.49
   0  10   1    2.53    4.67
   0  10   1    3.40    4.54
   0  10   1   -1.92    4.49
   0  10   1    2.53    4.67
   0  10   2   55.41    6.31
   0  10   2   51.19    6.38
   0  10   2   55.41    6.31
   0  10   2   51.19    6.38
   0 -10  -3    1.55    5.11
   0 -10  -3    1.55    5.11
   0  10   3    5.24    4.75
   0  10   3    5.24    4.75
   0 -10  -4   10.08    5.02
   0 -10  -4   10.08    5.02
   0  10   4   11.87    4.75
   0  10   4   11.87    4.75
   0 -10  -5   36.83    6.44
   0 -10  -5   36.83    6.44
   0  10   5   44.75    6.47
   0  10   5   44.75    6.47
   0 -10  -6   32.98    6.39
   0 -10  -6   32.98    6.39
   0  10   6   37.72    6.09
   0  10   6   37.72    6.09
   0 -10  -7    3.65    5.29
   0 -10  -7   -2.75    5.35
   0 -10  -7    3.65    5.29
   0 -10  -7   -2.75    5.35
   0  10   7   -0.75    5.15
   0  10   7   -0.75    5.15
   0 -10  -8   -2.27    5.22
   0 -10  -8    6.33    5.62
   0 -10  -8   -2.27    5.22
   0 -10  -8    6.33    5.62
   0  10   8   -3.94    5.28
   0  10   8   -3.94    5.28
   0 -10  -9    5.07    5.61
   0 -10  -9    8.74    6.02
   0 -10  -9    5.07    5.61
   0 -10  -9    8.74    6.02
   0  11  -6   -0.86    4.32
   0  11  -6    3.47    5.70
   0  11  -6   -0.86    4.32
   0  11  -6    3.47    5.70
   0  11  -5    0.20    4.46
   0  11  -5   -0.70    5.26
   0  11  -5    0.20    4.46
   0  11  -5   -0.70    5.26
   0  11  -4    0.82    4.37
   0  11  -4    4.77    5.30
   0  11  -4    0.82    4.37
   0  11  -4    4.77    5.30
   0  11  -3    4.08    4.57
   0  11  -3    6.22    5.29
   0  11  -3    4.08    4.57
   0  11  -3    6.22    5.29
   0  11  -2   -2.85    4.43
   0  11  -2    4.41    5.07
   0  11  -2   -2.85    4.43
   0  11  -2    4.41    5.07
   0  11  -1   35.32    5.55
   0  11  -1   35.85    6.29
   0  11  -1   35.50    6.43
   0  11  -1   35.32    5.55
   0  11  -1   35.85    6.29
   0  11  -1   35.50    6.43
   0  11   0   21.62    5.57
   0  11   0   21.93    5.81
   0  11   0   26.90    6.05
   0  11   0   21.62    5.57
   0  11   0   21.93    5.81
   0  11   0   26.90    6.05
   0  11   1   42.63    6.12
   0  11   1   44.75    6.74
   0  11   1   42.63    6.12
   0  11   1   44.75    6.74
   0  11   2   10.14    5.10
   0  11   2   10.14    5.10
   0 -11  -3    3.45    5.65
   0 -11  -3    3.45    5.65
   0  11   3    2.66    5.07
   0  11   3    2.66    5.07
   0 -11  -4   32.48    6.24
   0 -11  -4   32.48    6.24
   0  11   4   37.87    6.43
   0  11   4   37.87    6.43
   0 -11  -5   -3.39    5.22
   0 -11  -5   -3.39    5.22
   0  11   5    1.99    5.30
   0  11   5    1.99    5.30
   0 -11  -6   -3.05    5.35
   0 -11  -6   -3.05    5.35
   0  11   6   -1.72    5.36
   0  11   6   -1.72    5.36
   0 -11  -7   -1.70    5.56
   0 -11  -7   -1.70    5.56
   0  11   7    2.02    5.60
   0  11   7    2.02    5.60
   0  12  -3   25.52    5.47
   0  12  -3   35.82    6.79
   0  12  -3   25.52    5.47
   0  12  -3   35.82    6.79
   0  12  -2    2.31    4.85
   0  12  -2    4.74    5.59
   0  12  -2    2.31    4.85
   0  12  -2    4.74    5.59
   0  12  -1    3.69    5.10
   0  12  -1    6.40    5.86
   0  12  -1    9.39    5.89
   0  12  -1    3.69    5.10
   0  12  -1    6.40    5.86
   0  12  -1    9.39    5.89
   0  12   0    1.34    5.16
   0  12   0    1.34    5.16
   0  12   1   -2.71    4.81
   0  12   1   -2.71    4.81
   0 -12  -2   -0.72    5.42
   0 -12  -2   -0.72    5.42
   0  12   2    3.76    5.33
   0  12   2    3.76    5.33
   0 -12  -3    4.45    6.01
   0 -12  -3    4.45    6.01
   0  12   3    2.58    5.70
   0  12   3    2.58    5.70
   0 -12  -4   21.10    6.68
   0 -12  -4   21.10    6.68
   0  12   4   27.24    6.68
   0  12   4   27.24    6.68
  -1  11   6   12.78    5.94
  -1  11   6   12.78    5.94
   1 -11  -6   21.75    6.73
   1 -11  -6   21.75    6.73
  -1  11   5    9.42    5.59
  -1  11   5    9.42    5.59
   1 -11  -5    5.76    6.19
   1 -11  -5    5.76    6.19
  -1  11   4    4.76    5.27
  -1  11   4    4.76    5.27
   1 -11  -4    7.17    6.07
   1 -11  -4    7.17    6.07
  -1  11   3    3.15    5.02
  -1  11   3    3.15    5.02
   1 -11  -3   -3.19    5.54
   1 -11  -3   -3.19    5.54
  -1  11   2    4.28    4.96
  -1  11   2    4.28    4.96
   1 -11  -2    2.54    5.87
   1 -11  -2    2.54    5.87
  -1  11   1    2.91    4.71
  -1  11   1    4.49    5.51
  -1  11   1    2.91    4.71
  -1  11   1    4.49    5.51
  -1  11   0    3.10    4.79
  -1  11   0   -4.84    5.10
  -1  11   0    3.10    4.79
  -1  11   0   -4.84    5.10
  -1  11  -1   -0.11    4.53
  -1  11  -1    5.97    5.47
  -1  11  -1   -0.26    5.16
  -1  11  -1   -0.11    4.53
  -1  11  -1    5.97    5.47
  -1  11  -1   -0.26    5.16
  -1  11  -2    6.46    4.66
  -1  11  -2    8.95    5.57
  -1  11  -2    9.16    5.68
  -1  11  -2    6.46    4.66
  -1  11  -2    8.95    5.57
  -1  11  -2    9.16    5.68
  -1  11  -3   -3.63    4.46
  -1  11  -3    2.98    5.17
  -1  11  -3   -3.63    4.46
  -1  11  -3    2.98    5.17
  -1  11  -4    5.70    4.51
  -1  11  -4    7.46    5.70
  -1  11  -4    5.70    4.51
  -1  11  -4    7.46    5.70
  -1  11  -5   32.97    5.08
  -1  11  -5   24.85    6.37
  -1  11  -5   32.97    5.08
  -1  11  -5   24.85    6.37
  -1  10   8   -4.01    5.49
  -1  10   8   -4.01    5.49
   1 -10  -8    7.80    5.39
   1 -10  -8    7.80    5.39
  -1  10   7   20.63    6.10
  -1  10   7   20.63    6.10
   1 -10  -7   21.56    6.48
   1 -10  -7   21.56    6.48
  -1  10   6   38.39    6.57
  -1  10   6   38.39    6.57
   1 -10  -6   39.14    6.97
   1 -10  -6   39.14    6.97
  -1  10   5    4.39    5.14
  -1  10   5    4.39    5.14
   1 -10  -5   11.15    5.85
   1 -10  -5   11.15    5.85
  -1  10   4   -1.73    4.64
  -1  10   4   -1.73    4.64
   1 -10  -4    3.14    5.48
   1 -10  -4    3.14    5.48
  -1  10   3   84.95    7.50
  -1  10   3   84.95    7.50
   1 -10  -3   80.43    8.40
   1 -10  -3   80.43    8.40
  -1  10   2   70.48    7.66
  -1  10   2   69.80    7.63
  -1  10   2   70.48    7.66
  -1  10   2   69.80    7.63
   1 -10  -2   71.55    8.31
   1 -10  -2   71.55    8.31
  -1  10   1   14.84    4.87
  -1  10   1   13.86    5.35
  -1  10   1   14.84    4.87
  -1  10   1   13.86    5.35
  -1  10   0    2.42    4.51
  -1  10   0   -6.51    4.56
  -1  10   0    1.35    4.87
  -1  10   0    2.42    4.51
  -1  10   0   -6.51    4.56
  -1  10   0    1.35    4.87
  -1  10  -1    0.41    4.26
  -1  10  -1   -0.55    4.79
  -1  10  -1    4.66    4.97
  -1  10  -1    0.41    4.26
  -1  10  -1   -0.55    4.79
  -1  10  -1    4.66    4.97
  -1  10  -2    3.98    4.31
  -1  10  -2    6.67    4.97
  -1  10  -2    3.98    4.31
  -1  10  -2    6.67    4.97
  -1  10  -3   23.14    4.75
  -1  10  -3   22.74    5.65
  -1  10  -3   23.14    4.75
  -1  10  -3   22.74    5.65
  -1  10  -4    3.47    4.20
  -1  10  -4   11.86    5.26
  -1  10  -4    3.47    4.20
  -1  10  -4   11.86    5.26
  -1  10  -5    3.14    4.10
  -1  10  -5    2.81    5.10
  -1  10  -5    3.14    4.10
  -1  10  -5    2.81    5.10
  -1  10  -6   33.52    6.22
  -1  10  -6   39.89    4.67
  -1  10  -6   38.78    6.63
  -1  10  -6   33.52    6.22
  -1  10  -6   39.89    4.67
  -1  10  -6   38.78    6.63
  -1  10  -7   20.72    5.91
  -1  10  -7   12.99    3.38
  -1  10  -7   16.46    6.19
  -1  10  -7   20.72    5.91
  -1  10  -7   12.99    3.38
  -1  10  -7   16.46    6.19
  -1   9   9    6.78    5.82
  -1   9   9    6.78    5.82
   1  -9  -9   14.30    5.87
   1  -9  -9   14.30    5.87
  -1   9   8   17.13    5.89
  -1   9   8   17.13    5.89
   1  -9  -8   12.25    5.91
   1  -9  -8   12.25    5.91
  -1   9   7   14.48    5.52
  -1   9   7   14.48    5.52
   1  -9  -7   11.45    5.64
   1  -9  -7   11.45    5.64
  -1   9   6    1.18    4.97
  -1   9   6    1.18    4.97
   1  -9  -6    3.99    5.19
   1  -9  -6    3.99    5.19
  -1   9   5    1.32    4.76
  -1   9   5    1.32    4.76
   1  -9  -5    0.72    5.06
   1  -9  -5    0.72    5.06
  -1   9   4   10.65    4.88
  -1   9   4   10.65    4.88
   1  -9  -4   11.32    5.36
   1  -9  -4   11.32    5.36
  -1   9   3   32.50    5.57
  -1   9   3   36.35    5.82
  -1   9   3   32.50    5.57
  -1   9   3   36.35    5.82
   1  -9  -3   30.99    5.60
   1  -9  -3   30.99    5.60
  -1   9   2  102.20    7.34
  -1   9   2  103.11    7.61
  -1   9   2  102.20    7.34
  -1   9   2  103.11    7.61
  -1   9   1   96.62    7.07
  -1   9   1  102.10    7.59
  -1   9   1   96.62    7.07
  -1   9   1  102.10    7.59
  -1   9   0    8.54    4.42
  -1   9   0    5.65    4.47
  -1   9   0    6.28    4.57
  -1   9   0    8.54    4.42
  -1   9   0    5.65    4.47
  -1   9   0    6.28    4.57
  -1   9  -1   13.10    4.17
  -1   9  -1   12.17    4.83
  -1   9  -1   13.10    4.17
  -1   9  -1   12.17    4.83
  -1   9  -2   24.24    4.61
  -1   9  -2   23.73    5.11
  -1   9  -2   24.24    4.61
  -1   9  -2   23.73    5.11
  -1   9  -3   17.48    4.36
  -1   9  -3   12.10    4.98
  -1   9  -3   17.48    4.36
  -1   9  -3   12.10    4.98
  -1   9  -4    1.74    4.24
  -1   9  -4    3.26    3.73
  -1   9  -4    1.06    4.83
  -1   9  -4    1.74    4.24
  -1   9  -4    3.26    3.73
  -1   9  -4    1.06    4.83
  -1   9  -5    3.69    4.47
  -1   9  -5    1.04    3.72
  -1   9  -5   -1.50    4.64
  -1   9  -5    3.69    4.47
  -1   9  -5    1.04    3.72
  -1   9  -5   -1.50    4.64
  -1   9  -6    3.10    4.79
  -1   9  -6    1.52    3.54
  -1   9  -6    8.12    4.91
  -1   9  -6    3.10    4.79
  -1   9  -6    1.52    3.54
  -1   9  -6    8.12    4.91
  -1   9  -7    4.74    5.11
  -1   9  -7    4.12    3.32
  -1   9  -7    5.67    4.93
  -1   9  -7    4.74    5.11
  -1   9  -7    4.12    3.32
  -1   9  -7    5.67    4.93
  -1   9  -8   10.51    5.57
  -1   9  -8   -0.40    5.17
  -1   9  -8   10.51    5.57
  -1   9  -8   -0.40    5.17
  -1   9  -9   -4.51    5.20
  -1   9  -9    3.38    5.51
  -1   9  -9   -4.51    5.20
  -1   9  -9    3.38    5.51
   1  -8 -11   -0.07    5.37
   1  -8 -11    5.04    5.68
   1  -8 -11   -0.07    5.37
   1  -8 -11    5.04    5.68
   1  -8 -10    3.80    5.34
   1  -8 -10   -1.27    5.38
   1  -8 -10    3.80    5.34
   1  -8 -10   -1.27    5.38
  -1   8   9   28.71    6.17
  -1   8   9   28.71    6.17
   1  -8  -9   25.03    5.99
   1  -8  -9   23.05    5.91
   1  -8  -9   25.03    5.99
   1  -8  -9   23.05    5.91
  -1   8   8   -1.16    5.02
  -1   8   8   -1.16    5.02
   1  -8  -8   -0.70    4.53
   1  -8  -8    3.11    5.14
   1  -8  -8   -0.70    4.53
   1  -8  -8    3.11    5.14
  -1   8   7   19.99    5.55
  -1   8   7   19.99    5.55
   1  -8  -7   18.75    5.63
   1  -8  -7   15.93    5.43
   1  -8  -7   18.75    5.63
   1  -8  -7   15.93    5.43
  -1   8   6   43.00    6.02
  -1   8   6   43.00    6.02
   1  -8  -6   40.23    6.19
   1  -8  -6   37.33    5.87
   1  -8  -6   40.23    6.19
   1  -8  -6   37.33    5.87
  -1   8   5  104.78    7.75
  -1   8   5  104.78    7.75
   1  -8  -5   92.37    7.25
   1  -8  -5  103.27    7.70
   1  -8  -5   92.37    7.25
   1  -8  -5  103.27    7.70
  -1   8   4    4.01    4.28
  -1   8   4    4.49    4.38
  -1   8   4    4.01    4.28
  -1   8   4    4.49    4.38
   1  -8  -4    4.66    4.65
   1  -8  -4    3.60    4.40
   1  -8  -4    4.66    4.65
   1  -8  -4    3.60    4.40
  -1   8   3   34.69    5.09
  -1   8   3   42.53    5.58
  -1   8   3   34.69    5.09
  -1   8   3   42.53    5.58
   1  -8  -3   37.42    5.66
   1  -8  -3   37.42    5.66
  -1   8   2   25.55    4.71
  -1   8   2   26.44    4.91
  -1   8   2   25.55    4.71
  -1   8   2   26.44    4.91
  -1   8   1   -4.01    3.68
  -1   8   1    2.80    4.04
  -1   8   1   -4.01    3.68
  -1   8   1    2.80    4.04
  -1   8   0    9.75    3.42
  -1   8   0   14.16    4.06
  -1   8   0   12.54    4.39
  -1   8   0   12.13    4.35
  -1   8   0    9.75    3.42
  -1   8   0   14.16    4.06
  -1   8   0   12.54    4.39
  -1   8   0   12.13    4.35
  -1   8  -1   -0.03    3.46
  -1   8  -1    0.80    3.93
  -1   8  -1   -0.03    3.46
  -1   8  -1    0.80    3.93
  -1   8  -2   30.07    4.24
  -1   8  -2   23.82    4.32
  -1   8  -2   29.54    4.92
  -1   8  -2   30.07    4.24
  -1   8  -2   23.82    4.32
  -1   8  -2   29.54    4.92
  -1   8  -3  194.02    8.40
  -1   8  -3  201.16    7.42
  -1   8  -3  209.39    8.57
  -1   8  -3  194.02    8.40
  -1   8  -3  201.16    7.42
  -1   8  -3  209.39    8.57
  -1   8  -4  226.50    9.27
  -1   8  -4  219.48    8.79
  -1   8  -4  226.50    9.27
  -1   8  -4  219.48    8.79
  -1   8  -5    7.53    4.30
  -1   8  -5    7.35    3.59
  -1   8  -5    7.80    4.73
  -1   8  -5    7.53    4.30
  -1   8  -5    7.35    3.59
  -1   8  -5    7.80    4.73
  -1   8  -6   -2.80    4.23
  -1   8  -6   -3.58    3.14
  -1   8  -6   -0.10    4.24
  -1   8  -6   -2.80    4.23
  -1   8  -6   -3.58    3.14
  -1   8  -6   -0.10    4.24
  -1   8  -7   31.39    5.89
  -1   8  -7   29.94    3.62
  -1   8  -7   29.80    5.67
  -1   8  -7   31.39    5.89
  -1   8  -7   29.94    3.62
  -1   8  -7   29.80    5.67
  -1   8  -8    4.81    5.05
  -1   8  -8   -0.52    2.23
  -1   8  -8   -1.87    4.41
  -1   8  -8    4.81    5.05
  -1   8  -8   -0.52    2.23
  -1   8  -8   -1.87    4.41
  -1   8  -9   14.00    5.60
  -1   8  -9    6.38    5.19
  -1   8  -9   14.00    5.60
  -1   8  -9    6.38    5.19
  -1   8 -10   -1.24    5.33
  -1   8 -10   -0.73    5.16
  -1   8 -10   -1.24    5.33
  -1   8 -10   -0.73    5.16
   1  -7 -12   -0.30    5.42
   1  -7 -12    0.49    5.39
   1  -7 -12   -0.30    5.42
   1  -7 -12    0.49    5.39
   1  -7 -11   19.90    5.78
   1  -7 -11   16.62    5.79
   1  -7 -11   19.90    5.78
   1  -7 -11   16.62    5.79
   1  -7 -10   24.38    5.75
   1  -7 -10   17.61    5.67
   1  -7 -10   24.38    5.75
   1  -7 -10   17.61    5.67
  -1   7   9    3.51    5.12
  -1   7   9    3.51    5.12
   1  -7  -9    5.92    4.56
   1  -7  -9    1.63    5.02
   1  -7  -9    5.92    4.56
   1  -7  -9    1.63    5.02
  -1   7   8   15.60    5.31
  -1   7   8   15.60    5.31
   1  -7  -8   18.26    4.97
   1  -7  -8   10.39    5.03
   1  -7  -8   18.26    4.97
   1  -7  -8   10.39    5.03
  -1   7   7   23.98    5.00
  -1   7   7   23.98    5.00
   1  -7  -7   25.92    5.38
   1  -7  -7   28.70    5.45
   1  -7  -7   25.92    5.38
   1  -7  -7   28.70    5.45
  -1   7   6    3.61    4.42
  -1   7   6    3.61    4.42
   1  -7  -6    4.25    4.15
   1  -7  -6    2.12    4.41
   1  -7  -6    4.25    4.15
   1  -7  -6    2.12    4.41
  -1   7   5   19.04    4.74
  -1   7   5   15.77    4.51
  -1   7   5   19.04    4.74
  -1   7   5   15.77    4.51
   1  -7  -5   17.62    4.88
   1  -7  -5   16.56    4.71
   1  -7  -5   17.62    4.88
   1  -7  -5   16.56    4.71
  -1   7   4  149.98    7.70
  -1   7   4  156.95    7.55
  -1   7   4  149.98    7.70
  -1   7   4  156.95    7.55
   1  -7  -4  160.77    7.66
   1  -7  -4  154.27    7.68
   1  -7  -4  160.77    7.66
   1  -7  -4  154.27    7.68
  -1   7   3    2.25    3.87
  -1   7   3    2.51    3.88
  -1   7   3    2.25    3.87
  -1   7   3    2.51    3.88
   1  -7  -3    1.63    4.13
   1  -7  -3    5.43    3.91
   1  -7  -3    1.63    4.13
   1  -7  -3    5.43    3.91
  -1   7   2   36.35    4.60
  -1   7   2   32.28    4.64
  -1   7   2   36.35    4.60
  -1   7   2   32.28    4.64
   1  -7  -2   37.64    4.75
   1  -7  -2   37.64    4.75
  -1   7   1   29.45    3.30
  -1   7   1   55.84    5.79
  -1   7   1   70.10    6.07
  -1   7   1   64.96    5.97
  -1   7   1   29.45    3.30
  -1   7   1   55.84    5.79
  -1   7   1   70.10    6.07
  -1   7   1   64.96    5.97
  -1   7   0    1.49    3.89
  -1   7   0    9.06    3.78
  -1   7   0    8.31    3.76
  -1   7   0    1.49    3.89
  -1   7   0    9.06    3.78
  -1   7   0    8.31    3.76
  -1   7  -1    0.69    2.78
  -1   7  -1    6.38    3.16
  -1   7  -1    2.97    3.43
  -1   7  -1    1.69    3.58
  -1   7  -1    0.69    2.78
  -1   7  -1    6.38    3.16
  -1   7  -1    2.97    3.43
  -1   7  -1    1.69    3.58
  -1   7  -2    0.78    3.10
  -1   7  -2    1.35    2.36
  -1   7  -2   -0.60    3.27
  -1   7  -2   -1.13    3.52
  -1   7  -2    0.78    3.10
  -1   7  -2    1.35    2.36
  -1   7  -2   -0.60    3.27
  -1   7  -2   -1.13    3.52
  -1   7  -3   10.32    3.65
  -1   7  -3   13.12    3.55
  -1   7  -3   11.13    4.03
  -1   7  -3   10.32    3.65
  -1   7  -3   13.12    3.55
  -1   7  -3   11.13    4.03
  -1   7  -4  322.48    9.70
  -1   7  -4  332.24    8.03
  -1   7  -4  333.56    9.30
  -1   7  -4  322.48    9.70
  -1   7  -4  332.24    8.03
  -1   7  -4  333.56    9.30
  -1   7  -5   60.87    5.86
  -1   7  -5   63.39    5.23
  -1   7  -5   62.60    6.14
  -1   7  -5   60.87    5.86
  -1   7  -5   63.39    5.23
  -1   7  -5   62.60    6.14
  -1   7  -6    3.23    4.16
  -1   7  -6    0.01    2.84
  -1   7  -6   -1.47    3.82
  -1   7  -6    3.23    4.16
  -1   7  -6    0.01    2.84
  -1   7  -6   -1.47    3.82
  -1   7  -7   78.00    7.73
  -1   7  -7   94.78    4.86
  -1   7  -7   88.88    7.35
  -1   7  -7   78.00    7.73
  -1   7  -7   94.78    4.86
  -1   7  -7   88.88    7.35
  -1   7  -8  135.23    9.07
  -1   7  -8   70.05    3.76
  -1   7  -8  137.72    7.80
  -1   7  -8  135.23    9.07
  -1   7  -8   70.05    3.76
  -1   7  -8  137.72    7.80
  -1   7  -9   43.73    6.57
  -1   7  -9   42.19    5.77
  -1   7  -9   43.73    6.57
  -1   7  -9   42.19    5.77
  -1   7 -10    3.36    5.27
  -1   7 -10    4.34    4.95
  -1   7 -10    3.36    5.27
  -1   7 -10    4.34    4.95
  -1   7 -11   21.59    6.24
  -1   7 -11   20.11    5.68
  -1   7 -11   21.59    6.24
  -1   7 -11   20.11    5.68
   1  -6 -12   22.29    5.69
   1  -6 -12   18.20    5.82
   1  -6 -12   22.29    5.69
   1  -6 -12   18.20    5.82
   1  -6 -11   22.05    5.51
   1  -6 -11   15.87    5.58
   1  -6 -11   22.05    5.51
   1  -6 -11   15.87    5.58
   1  -6 -10   -1.58    4.45
   1  -6 -10    0.46    4.77
   1  -6 -10   -1.58    4.45
   1  -6 -10    0.46    4.77
   1  -6  -9    3.70    4.51
   1  -6  -9    0.90    4.44
   1  -6  -9    3.70    4.51
   1  -6  -9    0.90    4.44
  -1   6   8   13.20    4.87
  -1   6   8   13.20    4.87
   1  -6  -8    6.16    4.61
   1  -6  -8    8.77    4.59
   1  -6  -8    6.16    4.61
   1  -6  -8    8.77    4.59
  -1   6   7   16.16    4.61
  -1   6   7   16.16    4.61
   1  -6  -7   12.91    4.65
   1  -6  -7    6.58    4.02
   1  -6  -7   12.91    4.65
   1  -6  -7    6.58    4.02
  -1   6   6   -0.40    3.56
  -1   6   6   -0.40    3.56
   1  -6  -6    6.03    4.23
   1  -6  -6   -0.31    3.96
   1  -6  -6    6.03    4.23
   1  -6  -6   -0.31    3.96
  -1   6   5    7.60    3.99
  -1   6   5    6.55    3.82
  -1   6   5    7.60    3.99
  -1   6   5    6.55    3.82
   1  -6  -5    4.16    3.73
   1  -6  -5    5.16    3.95
   1  -6  -5    4.16    3.73
   1  -6  -5    5.16    3.95
  -1   6   4   49.30    6.16
  -1   6   4   49.15    5.63
  -1   6   4   49.30    6.16
  -1   6   4   49.15    5.63
   1  -6  -4   45.73    5.46
   1  -6  -4   62.16    6.00
   1  -6  -4   45.73    5.46
   1  -6  -4   62.16    6.00
  -1   6   3   33.24    4.12
  -1   6   3   32.30    4.50
  -1   6   3   33.24    4.12
  -1   6   3   32.30    4.50
   1  -6  -3   32.87    4.71
   1  -6  -3   33.23    4.42
   1  -6  -3   32.87    4.71
   1  -6  -3   33.23    4.42
  -1   6   2   -1.49    3.21
  -1   6   2   -0.61    3.29
  -1   6   2   -1.49    3.21
  -1   6   2   -0.61    3.29
   1  -6  -2    2.31    3.03
   1  -6  -2    2.31    3.03
  -1   6   1   47.10    3.99
  -1   6   1   49.96    5.27
  -1   6   1   55.72    5.42
  -1   6   1   50.17    5.29
  -1   6   1   47.10    3.99
  -1   6   1   49.96    5.27
  -1   6   1   55.72    5.42
  -1   6   1   50.17    5.29
   1  -6  -1   47.79    5.11
   1  -6  -1   47.79    5.11
  -1   6   0    6.39    2.40
  -1   6   0    8.85    2.60
  -1   6   0    4.59    3.09
  -1   6   0    5.29    3.01
  -1   6   0    6.39    2.40
  -1   6   0    8.85    2.60
  -1   6   0    4.59    3.09
  -1   6   0    5.29    3.01
   1  -6   0    4.92    3.19
   1  -6   0    4.92    3.19
  -1   6  -1   26.92    3.27
  -1   6  -1   31.76    3.78
  -1   6  -1   32.12    3.53
  -1   6  -1   29.43    3.70
  -1   6  -1   32.09    4.12
  -1   6  -1   26.92    3.27
  -1   6  -1   31.76    3.78
  -1   6  -1   32.12    3.53
  -1   6  -1   29.43    3.70
  -1   6  -1   32.09    4.12
  -1   6  -2    1.87    2.88
  -1   6  -2    7.58    3.12
  -1   6  -2   -0.35    1.76
  -1   6  -2    3.35    2.94
  -1   6  -2    2.39    3.30
  -1   6  -2    1.87    2.88
  -1   6  -2    7.58    3.12
  -1   6  -2   -0.35    1.76
  -1   6  -2    3.35    2.94
  -1   6  -2    2.39    3.30
  -1   6  -3   32.06    4.08
  -1   6  -3   28.53    3.23
  -1   6  -3   31.15    3.64
  -1   6  -3   34.88    4.27
  -1   6  -3   32.06    4.08
  -1   6  -3   28.53    3.23
  -1   6  -3   31.15    3.64
  -1   6  -3   34.88    4.27
  -1   6  -4   45.98    4.77
  -1   6  -4   50.69    4.93
  -1   6  -4   47.39    5.53
  -1   6  -4   45.98    4.77
  -1   6  -4   50.69    4.93
  -1   6  -4   47.39    5.53
  -1   6  -5    1.29    3.59
  -1   6  -5   -0.83    2.67
  -1   6  -5    3.64    3.52
  -1   6  -5    1.29    3.59
  -1   6  -5   -0.83    2.67
  -1   6  -5    3.64    3.52
  -1   6  -6   11.64    4.28
  -1   6  -6   13.04    2.96
  -1   6  -6   15.98    4.11
  -1   6  -6   11.64    4.28
  -1   6  -6   13.04    2.96
  -1   6  -6   15.98    4.11
  -1   6  -7    4.03    4.25
  -1   6  -7    3.70    2.51
  -1   6  -7    1.13    3.74
  -1   6  -7    4.03    4.25
  -1   6  -7    3.70    2.51
  -1   6  -7    1.13    3.74
  -1   6  -8   14.08    4.87
  -1   6  -8    9.70    2.18
  -1   6  -8    8.47    4.20
  -1   6  -8   14.08    4.87
  -1   6  -8    9.70    2.18
  -1   6  -8    8.47    4.20
  -1   6  -9   32.21    5.87
  -1   6  -9   29.86    5.26
  -1   6  -9   32.21    5.87
  -1   6  -9   29.86    5.26
  -1   6 -10   10.08    5.21
  -1   6 -10   16.88    4.83
  -1   6 -10   10.08    5.21
  -1   6 -10   16.88    4.83
  -1   6 -11    4.01    5.39
  -1   6 -11    8.42    5.03
  -1   6 -11    4.01    5.39
  -1   6 -11    8.42    5.03
  -1   6 -12   63.59    7.65
  -1   6 -12   63.49    7.53
  -1   6 -12   63.59    7.65
  -1   6 -12   63.49    7.53
   1  -5 -13   -3.55    4.99
   1  -5 -13   -1.78    5.15
   1  -5 -13   -3.55    4.99
   1  -5 -13   -1.78    5.15
   1  -5 -12   12.82    5.15
   1  -5 -12   11.49    5.41
   1  -5 -12   12.82    5.15
   1  -5 -12   11.49    5.41
   1  -5 -11   75.43    7.21
   1  -5 -11   75.43    7.21
   1  -5 -10   24.08    5.29
   1  -5 -10   26.53    5.42
   1  -5 -10   24.08    5.29
   1  -5 -10   26.53    5.42
   1  -5  -9    6.49    4.47
   1  -5  -9    4.88    4.48
   1  -5  -9    6.49    4.47
   1  -5  -9    4.88    4.48
  -1   5   8   49.29    5.71
  -1   5   8   49.29    5.71
   1  -5  -8   49.44    5.86
   1  -5  -8   54.41    6.40
   1  -5  -8   49.44    5.86
   1  -5  -8   54.41    6.40
  -1   5   7  135.38    7.62
  -1   5   7  135.38    7.62
   1  -5  -7  132.83    6.87
   1  -5  -7  134.01    7.29
   1  -5  -7  132.83    6.87
   1  -5  -7  134.01    7.29
  -1   5   6    8.22    3.60
  -1   5   6    3.90    3.55
  -1   5   6    8.22    3.60
  -1   5   6    3.90    3.55
   1  -5  -6    5.20    3.93
   1  -5  -6    5.33    3.88
   1  -5  -6    5.20    3.93
   1  -5  -6    5.33    3.88
  -1   5   5    3.95    3.56
  -1   5   5    4.70    3.51
  -1   5   5    3.95    3.56
  -1   5   5    4.70    3.51
   1  -5  -5    6.23    3.45
   1  -5  -5    5.40    3.71
   1  -5  -5    6.23    3.45
   1  -5  -5    5.40    3.71
  -1   5   4    8.11    3.46
  -1   5   4    6.58    3.35
  -1   5   4    8.11    3.46
  -1   5   4    6.58    3.35
   1  -5  -4    5.72    3.33
   1  -5  -4    8.24    3.19
   1  -5  -4    5.72    3.33
   1  -5  -4    8.24    3.19
  -1   5   3   21.11    3.65
  -1   5   3   26.86    3.87
  -1   5   3   21.11    3.65
  -1   5   3   26.86    3.87
   1  -5  -3   21.20    3.66
   1  -5  -3   25.98    3.82
   1  -5  -3   21.20    3.66
   1  -5  -3   25.98    3.82
  -1   5   2  168.93    6.32
  -1   5   2  176.98    6.20
  -1   5   2  168.93    6.32
  -1   5   2  176.98    6.20
   1  -5  -2  171.30    6.22
   1  -5  -2  171.30    6.22
  -1   5   1  104.19    4.00
  -1   5   1  104.92    5.38
  -1   5   1  112.09    5.51
  -1   5   1  111.72    5.01
  -1   5   1  104.19    4.00
  -1   5   1  104.92    5.38
  -1   5   1  112.09    5.51
  -1   5   1  111.72    5.01
   1  -5  -1  110.17    5.29
   1  -5  -1  110.17    5.29
  -1   5   0   25.32    2.60
  -1   5   0   25.91    2.89
  -1   5   0   20.81    3.08
  -1   5   0   24.36    3.45
  -1   5   0   25.32    2.60
  -1   5   0   25.91    2.89
  -1   5   0   20.81    3.08
  -1   5   0   24.36    3.45
   1  -5   0   22.90    3.18
   1  -5   0   22.90    3.18
  -1   5  -1   29.12    3.02
  -1   5  -1   27.35    3.38
  -1   5  -1   27.72    3.31
  -1   5  -1   28.55    3.31
  -1   5  -1   27.33    3.49
  -1   5  -1   29.12    3.02
  -1   5  -1   27.35    3.38
  -1   5  -1   27.72    3.31
  -1   5  -1   28.55    3.31
  -1   5  -1   27.33    3.49
   1  -5   1   28.71    3.23
   1  -5   1   28.71    3.23
  -1   5  -2   61.70    5.03
  -1   5  -2   62.22    4.60
  -1   5  -2   61.95    3.68
  -1   5  -2   67.75    4.77
  -1   5  -2   56.10    4.90
  -1   5  -2   61.70    5.03
  -1   5  -2   62.22    4.60
  -1   5  -2   61.95    3.68
  -1   5  -2   67.75    4.77
  -1   5  -2   56.10    4.90
   1  -5   2   69.43    5.11
   1  -5   2   61.64    4.13
   1  -5   2   69.43    5.11
   1  -5   2   61.64    4.13
  -1   5  -3    3.03    2.86
  -1   5  -3   -0.09    2.58
  -1   5  -3    0.85    2.51
  -1   5  -3   -1.24    2.84
  -1   5  -3    3.03    2.86
  -1   5  -3   -0.09    2.58
  -1   5  -3    0.85    2.51
  -1   5  -3   -1.24    2.84
   1  -5   3    0.10    2.89
   1  -5   3    0.10    2.89
  -1   5  -4   59.52    6.41
  -1   5  -4   66.08    4.24
  -1   5  -4   68.27    5.19
  -1   5  -4   59.52    6.41
  -1   5  -4   66.08    4.24
  -1   5  -4   68.27    5.19
  -1   5  -5   53.11    6.43
  -1   5  -5   55.61    4.35
  -1   5  -5   67.96    5.32
  -1   5  -5   53.11    6.43
  -1   5  -5   55.61    4.35
  -1   5  -5   67.96    5.32
  -1   5  -6   17.03    4.16
  -1   5  -6   12.76    2.59
  -1   5  -6   16.37    3.91
  -1   5  -6   17.03    4.16
  -1   5  -6   12.76    2.59
  -1   5  -6   16.37    3.91
  -1   5  -7   15.64    4.36
  -1   5  -7   16.47    2.45
  -1   5  -7   17.44    4.15
  -1   5  -7   15.64    4.36
  -1   5  -7   16.47    2.45
  -1   5  -7   17.44    4.15
  -1   5  -8   16.36    4.69
  -1   5  -8   15.94    2.00
  -1   5  -8   12.69    4.20
  -1   5  -8   16.36    4.69
  -1   5  -8   15.94    2.00
  -1   5  -8   12.69    4.20
  -1   5  -9   24.72    5.29
  -1   5  -9   17.26    4.33
  -1   5  -9   24.72    5.29
  -1   5  -9   17.26    4.33
  -1   5 -10    2.72    4.68
  -1   5 -10    1.97    4.04
  -1   5 -10    2.72    4.68
  -1   5 -10    1.97    4.04
  -1   5 -11   -2.72    4.70
  -1   5 -11   -0.09    4.34
  -1   5 -11   -2.72    4.70
  -1   5 -11   -0.09    4.34
  -1   5 -12   19.26    5.96
  -1   5 -12   23.14    5.41
  -1   5 -12   19.26    5.96
  -1   5 -12   23.14    5.41
  -1   5 -13   38.48    6.90
  -1   5 -13   37.97    6.23
  -1   5 -13   38.48    6.90
  -1   5 -13   37.97    6.23
   1  -4 -13   12.49    5.33
   1  -4 -13   13.46    5.54
   1  -4 -13   12.49    5.33
   1  -4 -13   13.46    5.54
   1  -4 -12    2.77    4.49
   1  -4 -12    2.13    4.93
   1  -4 -12    2.77    4.49
   1  -4 -12    2.13    4.93
   1  -4 -11    3.39    4.41
   1  -4 -11    1.09    4.53
   1  -4 -11    3.39    4.41
   1  -4 -11    1.09    4.53
   1  -4 -10   73.40    6.82
   1  -4 -10   73.40    6.82
   1  -4  -9    5.21    4.03
   1  -4  -9    3.97    4.20
   1  -4  -9    5.21    4.03
   1  -4  -9    3.97    4.20
  -1   4   8   -1.71    3.36
  -1   4   8   -1.71    3.36
   1  -4  -8   -1.09    3.78
   1  -4  -8    2.87    3.83
   1  -4  -8   -1.09    3.78
   1  -4  -8    2.87    3.83
  -1   4   7  425.12    9.94
  -1   4   7  425.12    9.94
   1  -4  -7  443.03   10.26
   1  -4  -7  403.42    9.66
   1  -4  -7  443.03   10.26
   1  -4  -7  403.42    9.66
  -1   4   6  583.48   10.62
  -1   4   6  587.41   10.06
  -1   4   6  583.48   10.62
  -1   4   6  587.41   10.06
   1  -4  -6  581.10   10.87
   1  -4  -6  566.30   10.50
   1  -4  -6  581.10   10.87
   1  -4  -6  566.30   10.50
  -1   4   5  165.57    6.71
  -1   4   5  166.56    6.21
  -1   4   5  165.57    6.71
  -1   4   5  166.56    6.21
   1  -4  -5  167.06    6.39
   1  -4  -5  159.32    6.00
   1  -4  -5  167.06    6.39
   1  -4  -5  159.32    6.00
  -1   4   4    8.19    2.85
  -1   4   4    8.67    3.06
  -1   4   4    8.19    2.85
  -1   4   4    8.67    3.06
   1  -4  -4    5.59    2.94
   1  -4  -4    3.88    3.07
   1  -4  -4    5.59    2.94
   1  -4  -4    3.88    3.07
  -1   4   3   18.13    2.92
  -1   4   3   20.21    3.20
  -1   4   3   18.13    2.92
  -1   4   3   20.21    3.20
   1  -4  -3   15.60    3.31
   1  -4  -3   17.71    3.19
   1  -4  -3   15.60    3.31
   1  -4  -3   17.71    3.19
  -1   4   2   29.80    3.27
  -1   4   2   37.97    3.62
  -1   4   2   29.80    3.27
  -1   4   2   37.97    3.62
   1  -4  -2   33.08    4.06
   1  -4  -2   36.80    4.21
   1  -4  -2   33.08    4.06
   1  -4  -2   36.80    4.21
  -1   4   1   92.09    3.60
  -1   4   1   90.25    4.82
  -1   4   1   97.08    4.94
  -1   4   1   84.40    4.70
  -1   4   1   92.09    3.60
  -1   4   1   90.25    4.82
  -1   4   1   97.08    4.94
  -1   4   1   84.40    4.70
   1  -4  -1   92.60    4.70
   1  -4  -1   92.60    4.70
  -1   4   0  544.92    6.58
  -1   4   0  545.51    7.06
  -1   4   0  559.79    7.78
  -1   4   0  558.56    8.12
  -1   4   0  544.92    6.58
  -1   4   0  545.51    7.06
  -1   4   0  559.79    7.78
  -1   4   0  558.56    8.12
   1  -4   0  538.11    7.64
   1  -4   0  538.11    7.64
  -1   4  -1    3.10    1.22
  -1   4  -1    3.13    2.17
  -1   4  -1    2.18    2.73
  -1   4  -1    3.36    2.20
  -1   4  -1    4.54    2.30
  -1   4  -1    2.08    2.60
  -1   4  -1    3.10    1.22
  -1   4  -1    3.13    2.17
  -1   4  -1    2.18    2.73
  -1   4  -1    3.36    2.20
  -1   4  -1    4.54    2.30
  -1   4  -1    2.08    2.60
   1  -4   1    5.37    2.40
   1  -4   1    5.37    2.40
  -1   4  -2   85.50    4.77
  -1   4  -2   88.89    4.43
  -1   4  -2   85.72    3.54
  -1   4  -2   91.67    4.22
  -1   4  -2   90.39    4.52
  -1   4  -2   85.50    4.77
  -1   4  -2   88.89    4.43
  -1   4  -2   85.72    3.54
  -1   4  -2   91.67    4.22
  -1   4  -2   90.39    4.52
   1  -4   2   90.51    4.61
   1  -4   2   90.51    4.61
  -1   4  -3  136.47    6.09
  -1   4  -3  149.01    4.97
  -1   4  -3  145.23    4.40
  -1   4  -3  153.56    5.15
  -1   4  -3  136.47    6.09
  -1   4  -3  149.01    4.97
  -1   4  -3  145.23    4.40
  -1   4  -3  153.56    5.15
   1  -4   3  150.87    5.37
   1  -4   3  150.87    5.37
  -1   4  -4   10.48    3.09
  -1   4  -4    9.03    2.25
  -1   4  -4   10.52    2.96
  -1   4  -4   10.48    3.09
  -1   4  -4    9.03    2.25
  -1   4  -4   10.52    2.96
   1  -4   4   10.63    2.68
   1  -4   4   10.63    2.68
  -1   4  -5   23.03    3.79
  -1   4  -5   17.43    2.41
  -1   4  -5   23.91    3.30
  -1   4  -5   23.03    3.79
  -1   4  -5   17.43    2.41
  -1   4  -5   23.91    3.30
  -1   4  -6   59.09    6.42
  -1   4  -6   65.19    3.54
  -1   4  -6   71.74    5.06
  -1   4  -6   59.09    6.42
  -1   4  -6   65.19    3.54
  -1   4  -6   71.74    5.06
  -1   4  -7    4.11    3.81
  -1   4  -7    6.05    1.94
  -1   4  -7    8.34    3.29
  -1   4  -7    4.11    3.81
  -1   4  -7    6.05    1.94
  -1   4  -7    8.34    3.29
  -1   4  -8   64.78    6.95
  -1   4  -8   70.59    5.95
  -1   4  -8   64.78    6.95
  -1   4  -8   70.59    5.95
  -1   4  -9   16.55    4.68
  -1   4  -9   17.22    4.29
  -1   4  -9   16.55    4.68
  -1   4  -9   17.22    4.29
  -1   4 -10   12.98    4.90
  -1   4 -10    8.30    4.22
  -1   4 -10   12.98    4.90
  -1   4 -10    8.30    4.22
  -1   4 -11    9.45    5.01
  -1   4 -11   16.70    4.71
  -1   4 -11    9.45    5.01
  -1   4 -11   16.70    4.71
  -1   4 -12    8.17    5.21
  -1   4 -12    5.16    4.55
  -1   4 -12    8.17    5.21
  -1   4 -12    5.16    4.55
  -1   4 -13   -2.86    5.11
  -1   4 -13    2.09    4.74
  -1   4 -13   -2.86    5.11
  -1   4 -13    2.09    4.74
   1  -3 -14   49.65    6.56
   1  -3 -14   39.52    6.51
   1  -3 -14   49.65    6.56
   1  -3 -14   39.52    6.51
   1  -3 -13   29.93    5.72
   1  -3 -13   23.53    5.70
   1  -3 -13   29.93    5.72
   1  -3 -13   23.53    5.70
   1  -3 -12    0.63    4.53
   1  -3 -12   -1.35    4.52
   1  -3 -12    0.63    4.53
   1  -3 -12   -1.35    4.52
   1  -3 -11   32.46    5.22
   1  -3 -11   31.14    5.39
   1  -3 -11   32.46    5.22
   1  -3 -11   31.14    5.39
   1  -3 -10    3.42    3.95
   1  -3 -10   10.47    4.45
   1  -3 -10    3.42    3.95
   1  -3 -10   10.47    4.45
   1  -3  -9   56.95    6.28
   1  -3  -9   52.22    6.13
   1  -3  -9   56.95    6.28
   1  -3  -9   52.22    6.13
  -1   3   8   47.12    5.01
  -1   3   8   47.12    5.01
   1  -3  -8   49.14    6.00
   1  -3  -8   44.13    4.92
   1  -3  -8   49.14    6.00
   1  -3  -8   44.13    4.92
  -1   3   7    1.34    3.43
  -1   3   7    1.34    3.43
   1  -3  -7    1.02    3.36
   1  -3  -7    2.09    3.42
   1  -3  -7    1.02    3.36
   1  -3  -7    2.09    3.42
  -1   3   6   70.31    5.62
  -1   3   6   73.64    4.98
  -1   3   6   70.31    5.62
  -1   3   6   73.64    4.98
   1  -3  -6   71.91    5.75
   1  -3  -6   66.75    5.28
   1  -3  -6   71.91    5.75
   1  -3  -6   66.75    5.28
  -1   3   5  245.06    6.87
  -1   3   5  259.49    6.56
  -1   3   5  245.06    6.87
  -1   3   5  259.49    6.56
   1  -3  -5  249.46    7.10
   1  -3  -5  226.39    6.57
   1  -3  -5  249.46    7.10
   1  -3  -5  226.39    6.57
  -1   3   4    5.77    2.78
  -1   3   4   11.72    2.59
  -1   3   4    5.77    2.78
  -1   3   4   11.72    2.59
   1  -3  -4    8.42    2.76
   1  -3  -4    9.40    2.87
   1  -3  -4    8.42    2.76
   1  -3  -4    9.40    2.87
  -1   3   3   -1.20    2.48
  -1   3   3    1.65    2.51
  -1   3   3   -1.20    2.48
  -1   3   3    1.65    2.51
   1  -3  -3   -0.45    2.63
   1  -3  -3    0.55    2.29
   1  -3  -3   -0.45    2.63
   1  -3  -3    0.55    2.29
  -1   3   2   79.35    4.62
  -1   3   2   82.40    4.08
  -1   3   2   79.35    4.62
  -1   3   2   82.40    4.08
   1  -3  -2   74.44    4.30
   1  -3  -2   78.91    4.47
   1  -3  -2   74.44    4.30
   1  -3  -2   78.91    4.47
  -1   3   1  449.47    4.81
  -1   3   1  446.80    6.70
  -1   3   1  455.12    6.82
  -1   3   1  449.47    4.81
  -1   3   1  446.80    6.70
  -1   3   1  455.12    6.82
   1  -3  -1  431.80    6.53
   1  -3  -1  431.80    6.53
  -1   3   0    0.35    1.63
  -1   3   0    1.41    2.17
  -1   3   0    2.12    2.11
  -1   3   0    0.95    2.24
  -1   3   0    0.35    1.63
  -1   3   0    1.41    2.17
  -1   3   0    2.12    2.11
  -1   3   0    0.95    2.24
   1  -3   0   -0.06    2.11
   1  -3   0   -0.06    2.11
  -1   3  -1  273.68    3.51
  -1   3  -1  264.25    5.31
  -1   3  -1  283.19    5.76
  -1   3  -1  277.61    4.88
  -1   3  -1  270.18    4.92
  -1   3  -1  293.26    5.56
  -1   3  -1  273.68    3.51
  -1   3  -1  264.25    5.31
  -1   3  -1  283.19    5.76
  -1   3  -1  277.61    4.88
  -1   3  -1  270.18    4.92
  -1   3  -1  293.26    5.56
   1  -3   1  281.54    5.41
   1  -3   1  281.54    5.41
  -1   3  -2    4.44    1.64
  -1   3  -2    4.43    2.34
  -1   3  -2    2.18    2.44
  -1   3  -2    2.92    2.03
  -1   3  -2    2.58    1.97
  -1   3  -2    5.67    2.40
  -1   3  -2    4.44    1.64
  -1   3  -2    4.43    2.34
  -1   3  -2    2.18    2.44
  -1   3  -2    2.92    2.03
  -1   3  -2    2.58    1.97
  -1   3  -2    5.67    2.40
  -1   3  -3    6.28    2.53
  -1   3  -3    4.60    2.30
  -1   3  -3    5.45    1.88
  -1   3  -3    2.77    2.36
  -1   3  -3    6.28    2.53
  -1   3  -3    4.60    2.30
  -1   3  -3    5.45    1.88
  -1   3  -3    2.77    2.36
  -1   3  -4    8.59    2.78
  -1   3  -4    5.79    1.79
  -1   3  -4    7.46    2.38
  -1   3  -4    8.59    2.78
  -1   3  -4    5.79    1.79
  -1   3  -4    7.46    2.38
  -1   3  -5   29.89    3.71
  -1   3  -5   25.71    2.72
  -1   3  -5   28.90    3.06
  -1   3  -5   29.89    3.71
  -1   3  -5   25.71    2.72
  -1   3  -5   28.90    3.06
  -1   3  -6  113.18    6.70
  -1   3  -6  132.10    3.21
  -1   3  -6  128.60    3.33
  -1   3  -6  131.72    5.28
  -1   3  -6  113.18    6.70
  -1   3  -6  132.10    3.21
  -1   3  -6  128.60    3.33
  -1   3  -6  131.72    5.28
  -1   3  -7  437.95   10.32
  -1   3  -7  448.96    4.39
  -1   3  -7  475.99    8.28
  -1   3  -7  437.95   10.32
  -1   3  -7  448.96    4.39
  -1   3  -7  475.99    8.28
  -1   3  -8  385.52   10.38
  -1   3  -8  415.98    8.62
  -1   3  -8  385.52   10.38
  -1   3  -8  415.98    8.62
  -1   3  -9   -2.55    3.87
  -1   3  -9    0.38    3.42
  -1   3  -9   -2.55    3.87
  -1   3  -9    0.38    3.42
  -1   3 -10    4.81    4.39
  -1   3 -10    1.67    3.68
  -1   3 -10    4.81    4.39
  -1   3 -10    1.67    3.68
  -1   3 -11   64.69    7.28
  -1   3 -11   78.59    6.49
  -1   3 -11   64.69    7.28
  -1   3 -11   78.59    6.49
  -1   3 -12   -0.53    4.59
  -1   3 -12    3.83    4.28
  -1   3 -12   -0.53    4.59
  -1   3 -12    3.83    4.28
  -1   3 -13   14.47    5.70
  -1   3 -13   15.64    4.72
  -1   3 -13   14.47    5.70
  -1   3 -13   15.64    4.72
  -1   3 -14   27.72    6.42
  -1   3 -14   23.56    5.55
  -1   3 -14   27.72    6.42
  -1   3 -14   23.56    5.55
   1  -2 -14    1.75    3.41
   1  -2 -14    0.30    4.45
   1  -2 -14   -1.09    4.93
   1  -2 -14    1.75    3.41
   1  -2 -14    0.30    4.45
   1  -2 -14   -1.09    4.93
   1  -2 -13   42.99    5.90
   1  -2 -13   43.93    6.26
   1  -2 -13   42.99    5.90
   1  -2 -13   43.93    6.26
   1  -2 -12    7.75    4.66
   1  -2 -12    5.35    4.74
   1  -2 -12    7.75    4.66
   1  -2 -12    5.35    4.74
   1  -2 -11    2.79    4.08
   1  -2 -11    1.83    4.20
   1  -2 -11    2.79    4.08
   1  -2 -11    1.83    4.20
   1  -2 -10   14.51    4.32
   1  -2 -10    9.89    4.24
   1  -2 -10   14.51    4.32
   1  -2 -10    9.89    4.24
   1  -2  -9    1.15    3.67
   1  -2  -9    0.86    3.72
   1  -2  -9    1.15    3.67
   1  -2  -9    0.86    3.72
  -1   2   8   63.20    6.09
  -1   2   8   63.20    6.09
   1  -2  -8   70.39    5.97
   1  -2  -8   69.89    5.84
   1  -2  -8   70.39    5.97
   1  -2  -8   69.89    5.84
  -1   2   7  113.40    6.15
  -1   2   7  113.85    5.36
  -1   2   7  113.40    6.15
  -1   2   7  113.85    5.36
   1  -2  -7  118.95    6.22
   1  -2  -7   98.51    5.70
   1  -2  -7  118.95    6.22
   1  -2  -7   98.51    5.70
  -1   2   6   42.04    4.91
  -1   2   6   39.59    4.23
  -1   2   6   42.04    4.91
  -1   2   6   39.59    4.23
   1  -2  -6   46.01    5.06
   1  -2  -6   44.90    4.67
   1  -2  -6   46.01    5.06
   1  -2  -6   44.90    4.67
  -1   2   5   11.58    2.93
  -1   2   5   13.84    2.76
  -1   2   5   11.58    2.93
  -1   2   5   13.84    2.76
   1  -2  -5   11.91    3.02
   1  -2  -5   13.19    2.95
   1  -2  -5   11.91    3.02
   1  -2  -5   13.19    2.95
  -1   2   4   56.93    3.97
  -1   2   4   52.69    4.04
  -1   2   4   56.93    3.97
  -1   2   4   52.69    4.04
   1  -2  -4   56.82    4.74
   1  -2  -4   52.60    4.35
   1  -2  -4   56.82    4.74
   1  -2  -4   52.60    4.35
  -1   2   3  166.13    4.76
  -1   2   3  180.09    5.00
  -1   2   3  166.13    4.76
  -1   2   3  180.09    5.00
   1  -2  -3  177.90    5.08
   1  -2  -3  177.23    4.77
   1  -2  -3  177.90    5.08
   1  -2  -3  177.23    4.77
  -1   2   2  603.09    7.15
  -1   2   2  602.46    6.88
  -1   2   2  603.09    7.15
  -1   2   2  602.46    6.88
   1  -2  -2  593.18    7.22
   1  -2  -2  593.91    7.08
   1  -2  -2  593.18    7.22
   1  -2  -2  593.91    7.08
  -1   2   1   72.64    2.88
  -1   2   1   72.80    3.87
  -1   2   1   74.62    3.75
  -1   2   1   72.64    2.88
  -1   2   1   72.80    3.87
  -1   2   1   74.62    3.75
   1  -2  -1   67.89    3.64
   1  -2  -1   73.93    3.74
   1  -2  -1   67.89    3.64
   1  -2  -1   73.93    3.74
  -1   2   0 3340.07   16.23
  -1   2   0 3356.38   20.04
  -1   2   0 3490.10   13.47
  -1   2   0 3340.07   16.23
  -1   2   0 3356.38   20.04
  -1   2   0 3490.10   13.47
  -1   2  -1  415.49    4.30
  -1   2  -1  402.95    5.76
  -1   2  -1  426.15    5.97
  -1   2  -1  409.14    5.03
  -1   2  -1  422.69    4.86
  -1   2  -1  435.44    5.18
  -1   2  -1  415.49    4.30
  -1   2  -1  402.95    5.76
  -1   2  -1  426.15    5.97
  -1   2  -1  409.14    5.03
  -1   2  -1  422.69    4.86
  -1   2  -1  435.44    5.18
  -1   2  -2   34.65    2.80
  -1   2  -2   36.96    4.12
  -1   2  -2   37.13    3.69
  -1   2  -2   40.06    2.67
  -1   2  -2   40.29    3.12
  -1   2  -2   34.65    2.80
  -1   2  -2   36.96    4.12
  -1   2  -2   37.13    3.69
  -1   2  -2   40.06    2.67
  -1   2  -2   40.29    3.12
  -1   2  -3  501.84    7.73
  -1   2  -3  519.39    4.44
  -1   2  -3  555.83    5.92
  -1   2  -3  501.84    7.73
  -1   2  -3  519.39    4.44
  -1   2  -3  555.83    5.92
  -1   2  -4  323.40    7.05
  -1   2  -4  335.09    3.74
  -1   2  -4  353.54    5.38
  -1   2  -4  323.40    7.05
  -1   2  -4  335.09    3.74
  -1   2  -4  353.54    5.38
  -1   2  -5   80.42    5.47
  -1   2  -5   83.11    2.39
  -1   2  -5   78.09    2.39
  -1   2  -5   85.09    3.82
  -1   2  -5   80.42    5.47
  -1   2  -5   83.11    2.39
  -1   2  -5   78.09    2.39
  -1   2  -5   85.09    3.82
  -1   2  -6    1.81    2.93
  -1   2  -6   -0.76    1.08
  -1   2  -6   -0.17    1.18
  -1   2  -6    1.77    2.11
  -1   2  -6    0.14    2.26
  -1   2  -6    1.81    2.93
  -1   2  -6   -0.76    1.08
  -1   2  -6   -0.17    1.18
  -1   2  -6    1.77    2.11
  -1   2  -6    0.14    2.26
  -1   2  -7    0.00    3.15
  -1   2  -7    0.01    2.40
  -1   2  -7   -0.94    2.54
  -1   2  -7    0.00    3.15
  -1   2  -7    0.01    2.40
  -1   2  -7   -0.94    2.54
  -1   2  -8  356.62    9.81
  -1   2  -8  405.01    7.33
  -1   2  -8  395.08    7.95
  -1   2  -8  356.62    9.81
  -1   2  -8  405.01    7.33
  -1   2  -8  395.08    7.95
  -1   2  -9   24.71    4.58
  -1   2  -9   31.02    3.53
  -1   2  -9   33.05    4.08
  -1   2  -9   24.71    4.58
  -1   2  -9   31.02    3.53
  -1   2  -9   33.05    4.08
  -1   2 -10   16.94    4.65
  -1   2 -10   19.52    3.52
  -1   2 -10   16.52    3.94
  -1   2 -10   16.94    4.65
  -1   2 -10   19.52    3.52
  -1   2 -10   16.52    3.94
  -1   2 -11   13.36    4.79
  -1   2 -11   15.34    3.58
  -1   2 -11   17.89    4.28
  -1   2 -11   13.36    4.79
  -1   2 -11   15.34    3.58
  -1   2 -11   17.89    4.28
  -1   2 -12   55.03    6.36
  -1   2 -12   64.34    5.30
  -1   2 -12   64.23    5.92
  -1   2 -12   55.03    6.36
  -1   2 -12   64.34    5.30
  -1   2 -12   64.23    5.92
  -1   2 -13   23.94    5.71
  -1   2 -13   20.84    3.60
  -1   2 -13   32.95    5.29
  -1   2 -13   23.94    5.71
  -1   2 -13   20.84    3.60
  -1   2 -13   32.95    5.29
  -1   2 -14   27.57    6.11
  -1   2 -14   31.74    5.69
  -1   2 -14   27.57    6.11
  -1   2 -14   31.74    5.69
   1  -1 -14    7.65    3.23
   1  -1 -14    4.07    4.78
   1  -1 -14   -0.27    4.86
   1  -1 -14    7.65    3.23
   1  -1 -14    4.07    4.78
   1  -1 -14   -0.27    4.86
   1  -1 -13   -0.70    3.38
   1  -1 -13    1.23    4.28
   1  -1 -13    0.36    4.89
   1  -1 -13   -0.70    3.38
   1  -1 -13    1.23    4.28
   1  -1 -13    0.36    4.89
   1  -1 -12   32.68    5.35
   1  -1 -12   21.80    5.23
   1  -1 -12   32.68    5.35
   1  -1 -12   21.80    5.23
   1  -1 -11   19.82    3.68
   1  -1 -11   53.11    6.16
   1  -1 -11   47.14    5.59
   1  -1 -11   19.82    3.68
   1  -1 -11   53.11    6.16
   1  -1 -11   47.14    5.59
   1  -1 -10    1.13    2.97
   1  -1 -10    9.57    4.21
   1  -1 -10    4.40    4.00
   1  -1 -10    1.13    2.97
   1  -1 -10    9.57    4.21
   1  -1 -10    4.40    4.00
   1  -1  -9   -1.25    3.36
   1  -1  -9    1.57    3.62
   1  -1  -9   -1.25    3.36
   1  -1  -9    1.57    3.62
  -1   1   8  116.18    6.50
  -1   1   8  116.18    6.50
   1  -1  -8  117.32    6.34
   1  -1  -8  112.07    6.16
   1  -1  -8  117.32    6.34
   1  -1  -8  112.07    6.16
  -1   1   7    2.11    3.01
  -1   1   7    0.46    2.74
  -1   1   7    2.11    3.01
  -1   1   7    0.46    2.74
   1  -1  -7   -0.93    2.95
   1  -1  -7   -0.01    2.92
   1  -1  -7   -0.93    2.95
   1  -1  -7   -0.01    2.92
  -1   1   6  136.10    5.59
  -1   1   6  137.86    5.06
  -1   1   6  136.10    5.59
  -1   1   6  137.86    5.06
   1  -1  -6  146.76    5.75
   1  -1  -6  134.88    5.51
   1  -1  -6  146.76    5.75
   1  -1  -6  134.88    5.51
  -1   1   5  314.89    6.69
  -1   1   5  309.30    6.21
  -1   1   5  314.89    6.69
  -1   1   5  309.30    6.21
   1  -1  -5  307.27    6.83
   1  -1  -5  301.13    6.53
   1  -1  -5  307.27    6.83
   1  -1  -5  301.13    6.53
  -1   1   4   35.41    4.17
  -1   1   4   30.03    3.70
  -1   1   4   35.41    4.17
  -1   1   4   30.03    3.70
   1  -1  -4   30.60    3.75
   1  -1  -4   23.70    3.02
   1  -1  -4   30.60    3.75
   1  -1  -4   23.70    3.02
  -1   1   3   24.19    2.70
  -1   1   3   29.04    3.41
  -1   1   3   24.19    2.70
  -1   1   3   29.04    3.41
   1  -1  -3   23.84    2.61
   1  -1  -3   25.62    3.09
   1  -1  -3   23.84    2.61
   1  -1  -3   25.62    3.09
  -1   1   2    1.84    2.16
  -1   1   2    3.20    2.21
  -1   1   2    1.84    2.16
  -1   1   2    3.20    2.21
   1  -1  -2   -2.53    2.01
   1  -1  -2    2.20    2.16
   1  -1  -2   -2.53    2.01
   1  -1  -2    2.20    2.16
  -1   1   1  325.08    4.33
  -1   1   1  341.86    4.44
  -1   1   1  325.08    4.33
  -1   1   1  341.86    4.44
   1  -1  -1  336.97    4.66
   1  -1  -1  336.97    4.66
  -1   1   0    6.11    1.51
  -1   1   0    6.75    1.60
  -1   1   0    4.98    1.61
  -1   1   0    6.21    1.60
  -1   1   0    6.11    1.51
  -1   1   0    6.75    1.60
  -1   1   0    4.98    1.61
  -1   1   0    6.21    1.60
  -1   1  -1   63.99    3.00
  -1   1  -1   62.90    3.39
  -1   1  -1   59.07    3.60
  -1   1  -1   63.19    3.24
  -1   1  -1   63.60    2.09
  -1   1  -1   64.84    2.53
  -1   1  -1   63.99    3.00
  -1   1  -1   62.90    3.39
  -1   1  -1   59.07    3.60
  -1   1  -1   63.19    3.24
  -1   1  -1   63.60    2.09
  -1   1  -1   64.84    2.53
  -1   1  -2  152.43    3.77
  -1   1  -2  163.25    4.77
  -1   1  -2  155.91    3.04
  -1   1  -2  152.43    3.77
  -1   1  -2  163.25    4.77
  -1   1  -2  155.91    3.04
  -1   1  -3   27.24    2.67
  -1   1  -3   29.05    2.32
  -1   1  -3   27.24    2.67
  -1   1  -3   29.05    2.32
  -1   1  -4    1.13    2.24
  -1   1  -4    0.36    1.62
  -1   1  -4    2.30    1.71
  -1   1  -4    1.13    2.24
  -1   1  -4    0.36    1.62
  -1   1  -4    2.30    1.71
  -1   1  -5   75.46    5.08
  -1   1  -5   73.33    3.46
  -1   1  -5   66.07    3.54
  -1   1  -5   75.46    5.08
  -1   1  -5   73.33    3.46
  -1   1  -5   66.07    3.54
  -1   1  -6    2.28    2.63
  -1   1  -6    3.21    2.02
  -1   1  -6    2.49    2.05
  -1   1  -6    2.28    2.63
  -1   1  -6    3.21    2.02
  -1   1  -6    2.49    2.05
  -1   1  -7   47.71    5.86
  -1   1  -7   50.77    3.77
  -1   1  -7   46.29    4.05
  -1   1  -7   47.71    5.86
  -1   1  -7   50.77    3.77
  -1   1  -7   46.29    4.05
  -1   1  -8   78.62    6.58
  -1   1  -8   83.61    4.43
  -1   1  -8   83.95    5.02
  -1   1  -8   78.62    6.58
  -1   1  -8   83.61    4.43
  -1   1  -8   83.95    5.02
  -1   1  -9   13.01    4.03
  -1   1  -9    7.48    2.76
  -1   1  -9   10.82    3.37
  -1   1  -9   13.01    4.03
  -1   1  -9    7.48    2.76
  -1   1  -9   10.82    3.37
  -1   1 -10   95.80    6.97
  -1   1 -10  113.73    5.54
  -1   1 -10   96.86    6.05
  -1   1 -10   95.80    6.97
  -1   1 -10  113.73    5.54
  -1   1 -10   96.86    6.05
  -1   1 -11   -2.61    3.89
  -1   1 -11    0.25    3.00
  -1   1 -11    0.06    3.62
  -1   1 -11   -2.61    3.89
  -1   1 -11    0.25    3.00
  -1   1 -11    0.06    3.62
  -1   1 -12   29.81    5.39
  -1   1 -12   22.57    3.74
  -1   1 -12   26.79    4.78
  -1   1 -12   29.81    5.39
  -1   1 -12   22.57    3.74
  -1   1 -12   26.79    4.78
  -1   1 -13   52.66    6.43
  -1   1 -13   24.73    3.83
  -1   1 -13   48.10    5.73
  -1   1 -13   52.66    6.43
  -1   1 -13   24.73    3.83
  -1   1 -13   48.10    5.73
  -1   1 -14    2.73    4.68
  -1   1 -14    7.41    4.79
  -1   1 -14    2.73    4.68
  -1   1 -14    7.41    4.79
   1   0 -14    0.56    2.66
   1   0 -14   -3.36    4.35
   1   0 -14    2.23    5.11
   1   0 -14    0.56    2.66
   1   0 -14   -3.36    4.35
   1   0 -14    2.23    5.11
   1   0 -13   13.07    3.62
   1   0 -13   16.16    4.96
   1   0 -13   12.30    5.03
   1   0 -13   13.07    3.62
   1   0 -13   16.16    4.96
   1   0 -13   12.30    5.03
   1   0 -12    2.51    3.64
   1   0 -12    5.85    3.39
   1   0 -12    7.75    4.49
   1   0 -12    4.55    4.53
   1   0 -12    2.51    3.64
   1   0 -12    5.85    3.39
   1   0 -12    7.75    4.49
   1   0 -12    4.55    4.53
   1   0 -11    8.71    4.02
   1   0 -11   11.92    4.22
   1   0 -11   15.50    4.78
   1   0 -11    8.71    4.02
   1   0 -11   11.92    4.22
   1   0 -11   15.50    4.78
   1   0 -10  138.74    7.42
   1   0 -10  127.55    7.14
   1   0 -10  138.74    7.42
   1   0 -10  127.55    7.14
   1   0  -9   21.15    4.05
   1   0  -9   17.19    3.99
   1   0  -9   21.15    4.05
   1   0  -9   17.19    3.99
  -1   0   8    4.14    3.35
  -1   0   8    4.14    3.35
   1   0  -8    2.19    3.20
   1   0  -8    5.53    3.38
   1   0  -8    2.19    3.20
   1   0  -8    5.53    3.38
  -1   0   7  333.36    7.75
  -1   0   7  333.36    7.75
   1   0  -7  318.15    7.67
   1   0  -7  325.91    7.59
   1   0  -7  318.15    7.67
   1   0  -7  325.91    7.59
  -1   0   6  271.40    6.63
  -1   0   6  272.23    6.19
  -1   0   6  271.40    6.63
  -1   0   6  272.23    6.19
   1   0  -6  263.73    6.63
   1   0  -6  262.57    6.48
   1   0  -6  263.73    6.63
   1   0  -6  262.57    6.48
  -1   0   5   -0.91    2.40
  -1   0   5    1.01    2.22
  -1   0   5   -0.91    2.40
  -1   0   5    1.01    2.22
   1   0  -5   -0.63    2.50
   1   0  -5    1.15    2.51
   1   0  -5   -0.63    2.50
   1   0  -5    1.15    2.51
  -1   0   4   69.87    3.70
  -1   0   4   74.55    3.88
  -1   0   4   69.87    3.70
  -1   0   4   74.55    3.88
   1   0  -4   73.26    4.46
   1   0  -4   72.17    4.14
   1   0  -4   73.26    4.46
   1   0  -4   72.17    4.14
  -1   0   3   85.10    4.01
  -1   0   3   92.17    3.82
  -1   0   3   85.10    4.01
  -1   0   3   92.17    3.82
   1   0  -3   83.06    4.21
   1   0  -3   84.26    3.94
   1   0  -3   83.06    4.21
   1   0  -3   84.26    3.94
  -1   0   2   15.46    2.21
  -1   0   2   13.98    2.18
  -1   0   2   15.46    2.21
  -1   0   2   13.98    2.18
   1   0  -2   17.62    2.38
   1   0  -2   13.98    2.27
   1   0  -2   17.62    2.38
   1   0  -2   13.98    2.27
  -1   0   0  782.36    5.16
  -1   0   0  783.15    5.16
  -1   0   0  782.36    5.16
  -1   0   0  783.15    5.16
  -1   0  -1   29.04    2.62
  -1   0  -1   31.49    2.62
  -1   0  -1   34.52    2.77
  -1   0  -1   28.70    2.73
  -1   0  -1   29.04    2.62
  -1   0  -1   31.49    2.62
  -1   0  -1   34.52    2.77
  -1   0  -1   28.70    2.73
  -1   0  -2   12.19    2.17
  -1   0  -2   12.27    1.94
  -1   0  -2   12.19    2.17
  -1   0  -2   12.27    1.94
  -1   0  -3   10.53    2.24
  -1   0  -3   13.10    1.39
  -1   0  -3   12.18    1.31
  -1   0  -3   10.53    2.24
  -1   0  -3   13.10    1.39
  -1   0  -3   12.18    1.31
  -1   0  -4    8.01    2.32
  -1   0  -4    5.95    1.63
  -1   0  -4    6.36    1.59
  -1   0  -4    8.01    2.32
  -1   0  -4    5.95    1.63
  -1   0  -4    6.36    1.59
  -1   0  -5   35.71    4.43
  -1   0  -5   26.92    2.96
  -1   0  -5   29.00    3.07
  -1   0  -5   35.71    4.43
  -1   0  -5   26.92    2.96
  -1   0  -5   29.00    3.07
  -1   0  -6   45.58    4.89
  -1   0  -6   39.15    1.53
  -1   0  -6   42.84    3.35
  -1   0  -6   38.95    3.29
  -1   0  -6   45.58    4.89
  -1   0  -6   39.15    1.53
  -1   0  -6   42.84    3.35
  -1   0  -6   38.95    3.29
  -1   0  -7   17.82    3.24
  -1   0  -7   16.63    1.59
  -1   0  -7   14.47    2.56
  -1   0  -7   14.78    2.68
  -1   0  -7   17.82    3.24
  -1   0  -7   16.63    1.59
  -1   0  -7   14.47    2.56
  -1   0  -7   14.78    2.68
  -1   0  -8  300.17    8.30
  -1   0  -8  337.49    6.58
  -1   0  -8  319.75    6.97
  -1   0  -8  300.17    8.30
  -1   0  -8  337.49    6.58
  -1   0  -8  319.75    6.97
  -1   0  -9   66.53    6.26
  -1   0  -9   72.29    4.60
  -1   0  -9   65.95    5.12
  -1   0  -9   66.53    6.26
  -1   0  -9   72.29    4.60
  -1   0  -9   65.95    5.12
  -1   0 -10   90.63    6.78
  -1   0 -10   96.34    5.36
  -1   0 -10   79.85    5.37
  -1   0 -10   90.63    6.78
  -1   0 -10   96.34    5.36
  -1   0 -10   79.85    5.37
  -1   0 -11    1.52    3.78
  -1   0 -11    1.30    3.03
  -1   0 -11    0.67    3.60
  -1   0 -11    1.52    3.78
  -1   0 -11    1.30    3.03
  -1   0 -11    0.67    3.60
  -1   0 -12    6.81    4.18
  -1   0 -12    2.37    3.39
  -1   0 -12    5.60    4.08
  -1   0 -12    6.81    4.18
  -1   0 -12    2.37    3.39
  -1   0 -12    5.60    4.08
  -1   0 -13    3.39    4.08
  -1   0 -13    4.15    3.46
  -1   0 -13    8.64    4.44
  -1   0 -13    3.39    4.08
  -1   0 -13    4.15    3.46
  -1   0 -13    8.64    4.44
  -1   0 -14   11.82    4.52
  -1   0 -14    9.47    3.40
  -1   0 -14   11.47    4.85
  -1   0 -14   11.82    4.52
  -1   0 -14    9.47    3.40
  -1   0 -14   11.47    4.85
  -1   0 -15    4.96    5.02
  -1   0 -15    4.96    5.02
   1   1 -14   29.40    5.47
   1   1 -14   29.08    5.87
   1   1 -14   29.40    5.47
   1   1 -14   29.08    5.87
   1   1 -13   -1.20    4.00
   1   1 -13    3.55    3.12
   1   1 -13    0.79    4.29
   1   1 -13    1.92    4.57
   1   1 -13   -1.20    4.00
   1   1 -13    3.55    3.12
   1   1 -13    0.79    4.29
   1   1 -13    1.92    4.57
   1   1 -12   29.94    5.37
   1   1 -12   22.50    3.81
   1   1 -12   25.42    4.87
   1   1 -12   24.93    5.19
   1   1 -12   29.94    5.37
   1   1 -12   22.50    3.81
   1   1 -12   25.42    4.87
   1   1 -12   24.93    5.19
   1   1 -11  104.01    7.57
   1   1 -11  100.62    5.60
   1   1 -11  114.60    7.38
   1   1 -11  110.30    7.20
   1   1 -11  104.01    7.57
   1   1 -11  100.62    5.60
   1   1 -11  114.60    7.38
   1   1 -11  110.30    7.20
   1   1 -10   68.98    5.01
   1   1 -10   76.96    6.13
   1   1 -10   66.15    6.23
   1   1 -10   68.98    5.01
   1   1 -10   76.96    6.13
   1   1 -10   66.15    6.23
   1   1  -9    1.08    3.32
   1   1  -9    0.24    3.47
   1   1  -9    1.08    3.32
   1   1  -9    0.24    3.47
   1   1  -8    3.77    3.22
   1   1  -8    0.89    3.22
   1   1  -8    3.77    3.22
   1   1  -8    0.89    3.22
  -1  -1   7    2.03    2.93
  -1  -1   7    2.03    2.93
   1   1  -7    0.35    2.79
   1   1  -7   -0.71    2.82
   1   1  -7    0.35    2.79
   1   1  -7   -0.71    2.82
  -1  -1   6  137.94    5.48
  -1  -1   6  135.00    4.64
  -1  -1   6  137.94    5.48
  -1  -1   6  135.00    4.64
   1   1  -6  131.95    5.38
   1   1  -6  134.68    5.35
   1   1  -6  131.95    5.38
   1   1  -6  134.68    5.35
  -1  -1   5   55.47    4.46
  -1  -1   5   50.26    3.69
  -1  -1   5   55.47    4.46
  -1  -1   5   50.26    3.69
   1   1  -5   44.40    3.81
   1   1  -5   47.72    4.23
   1   1  -5   44.40    3.81
   1   1  -5   47.72    4.23
  -1  -1   4   -1.06    2.20
  -1  -1   4    0.89    2.08
  -1  -1   4   -1.06    2.20
  -1  -1   4    0.89    2.08
   1   1  -4    2.73    2.48
   1   1  -4    2.73    2.48
  -1  -1   3  541.19    6.54
  -1  -1   3  532.99    6.22
  -1  -1   3  541.19    6.54
  -1  -1   3  532.99    6.22
   1   1  -3  531.08    6.74
   1   1  -3  529.60    6.46
   1   1  -3  531.08    6.74
   1   1  -3  529.60    6.46
  -1  -1   2  884.66    7.07
  -1  -1   2  852.42    6.83
  -1  -1   2  884.66    7.07
  -1  -1   2  852.42    6.83
   1   1  -2  876.65    7.15
   1   1  -2  856.78    6.81
   1   1  -2  876.65    7.15
   1   1  -2  856.78    6.81
  -1  -1   0   29.53    1.84
  -1  -1   0   31.78    2.00
  -1  -1   0   29.53    1.84
  -1  -1   0   31.78    2.00
  -1  -1  -1  283.69    3.49
  -1  -1  -1  283.69    3.49
  -1  -1  -2   58.75    3.22
  -1  -1  -2   54.41    3.21
  -1  -1  -2   55.44    2.08
  -1  -1  -2   55.37    1.83
  -1  -1  -2   58.75    3.22
  -1  -1  -2   54.41    3.21
  -1  -1  -2   55.44    2.08
  -1  -1  -2   55.37    1.83
  -1  -1  -3  146.33    4.16
  -1  -1  -3  147.27    3.08
  -1  -1  -3  149.26    2.85
  -1  -1  -3  146.33    4.16
  -1  -1  -3  147.27    3.08
  -1  -1  -3  149.26    2.85
  -1  -1  -4  335.53    5.59
  -1  -1  -4  342.03    4.38
  -1  -1  -4  342.43    4.47
  -1  -1  -4  335.53    5.59
  -1  -1  -4  342.03    4.38
  -1  -1  -4  342.43    4.47
  -1  -1  -5   19.94    2.60
  -1  -1  -5   24.06    2.27
  -1  -1  -5   21.40    2.28
  -1  -1  -5   24.44    2.75
  -1  -1  -5   19.94    2.60
  -1  -1  -5   24.06    2.27
  -1  -1  -5   21.40    2.28
  -1  -1  -5   24.44    2.75
  -1  -1  -6   64.96    4.70
  -1  -1  -6   67.03    2.44
  -1  -1  -6   64.16    3.76
  -1  -1  -6   68.36    3.70
  -1  -1  -6   63.13    4.02
  -1  -1  -6   64.96    4.70
  -1  -1  -6   67.03    2.44
  -1  -1  -6   64.16    3.76
  -1  -1  -6   68.36    3.70
  -1  -1  -6   63.13    4.02
  -1  -1  -7  300.42    7.27
  -1  -1  -7  297.01    3.86
  -1  -1  -7  307.20    6.11
  -1  -1  -7  303.72    6.23
  -1  -1  -7  300.42    7.27
  -1  -1  -7  297.01    3.86
  -1  -1  -7  307.20    6.11
  -1  -1  -7  303.72    6.23
  -1  -1  -8    8.88    3.09
  -1  -1  -8   11.70    1.75
  -1  -1  -8   10.24    2.70
  -1  -1  -8   11.05    3.03
  -1  -1  -8    8.88    3.09
  -1  -1  -8   11.70    1.75
  -1  -1  -8   10.24    2.70
  -1  -1  -8   11.05    3.03
  -1  -1  -9   19.51    3.63
  -1  -1  -9   18.26    1.74
  -1  -1  -9   18.58    3.28
  -1  -1  -9   16.65    3.53
  -1  -1  -9   19.51    3.63
  -1  -1  -9   18.26    1.74
  -1  -1  -9   18.58    3.28
  -1  -1  -9   16.65    3.53
  -1  -1 -10  107.26    6.61
  -1  -1 -10  101.94    5.38
  -1  -1 -10  100.00    5.80
  -1  -1 -10  107.26    6.61
  -1  -1 -10  101.94    5.38
  -1  -1 -10  100.00    5.80
  -1  -1 -11   24.87    4.34
  -1  -1 -11   28.63    3.93
  -1  -1 -11   23.56    4.38
  -1  -1 -11   24.87    4.34
  -1  -1 -11   28.63    3.93
  -1  -1 -11   23.56    4.38
  -1  -1 -12   17.10    3.96
  -1  -1 -12   24.21    3.98
  -1  -1 -12   24.52    4.75
  -1  -1 -12   17.10    3.96
  -1  -1 -12   24.21    3.98
  -1  -1 -12   24.52    4.75
  -1  -1 -13   75.48    5.80
  -1  -1 -13   78.41    6.82
  -1  -1 -13   75.48    5.80
  -1  -1 -13   78.41    6.82
  -1  -1 -14   28.66    4.16
  -1  -1 -14   63.26    6.94
  -1  -1 -14   28.66    4.16
  -1  -1 -14   63.26    6.94
  -1  -1 -15    0.00    4.49
  -1  -1 -15    0.00    4.49
   1   2 -14    6.21    5.08
   1   2 -14    1.51    4.49
   1   2 -14    0.24    4.90
   1   2 -14    6.21    5.08
   1   2 -14    1.51    4.49
   1   2 -14    0.24    4.90
   1   2 -13   12.79    5.36
   1   2 -13   13.47    3.16
   1   2 -13   14.18    4.80
   1   2 -13   14.02    5.13
   1   2 -13   12.79    5.36
   1   2 -13   13.47    3.16
   1   2 -13   14.18    4.80
   1   2 -13   14.02    5.13
   1   2 -12    3.12    4.59
   1   2 -12    1.02    3.09
   1   2 -12   -1.46    3.95
   1   2 -12    3.64    4.51
   1   2 -12    3.12    4.59
   1   2 -12    1.02    3.09
   1   2 -12   -1.46    3.95
   1   2 -12    3.64    4.51
   1   2 -11   48.60    6.03
   1   2 -11   65.72    5.04
   1   2 -11   63.49    6.61
   1   2 -11   57.27    6.38
   1   2 -11   48.60    6.03
   1   2 -11   65.72    5.04
   1   2 -11   63.49    6.61
   1   2 -11   57.27    6.38
   1   2 -10  144.02    6.06
   1   2 -10  145.33    7.11
   1   2 -10  142.89    7.41
   1   2 -10  144.02    6.06
   1   2 -10  145.33    7.11
   1   2 -10  142.89    7.41
   1   2  -9   61.90    4.83
   1   2  -9   65.49    6.28
   1   2  -9   66.51    5.90
   1   2  -9   61.90    4.83
   1   2  -9   65.49    6.28
   1   2  -9   66.51    5.90
   1   2  -8    3.32    2.89
   1   2  -8    4.81    3.30
   1   2  -8    2.54    3.36
   1   2  -8    3.32    2.89
   1   2  -8    4.81    3.30
   1   2  -8    2.54    3.36
  -1  -2   7   59.25    5.31
  -1  -2   7   59.25    5.31
   1   2  -7   69.31    4.58
   1   2  -7   66.84    5.67
   1   2  -7   71.66    5.26
   1   2  -7   69.31    4.58
   1   2  -7   66.84    5.67
   1   2  -7   71.66    5.26
  -1  -2   6   74.91    4.98
  -1  -2   6   76.56    4.42
  -1  -2   6   74.91    4.98
  -1  -2   6   76.56    4.42
   1   2  -6   71.27    4.17
   1   2  -6   71.21    4.93
   1   2  -6   74.85    4.80
   1   2  -6   71.27    4.17
   1   2  -6   71.21    4.93
   1   2  -6   74.85    4.80
  -1  -2   5  143.72    5.27
  -1  -2   5  138.12    4.82
  -1  -2   5  143.72    5.27
  -1  -2   5  138.12    4.82
   1   2  -5  128.81    4.53
   1   2  -5  141.26    5.29
   1   2  -5  133.60    4.66
   1   2  -5  128.81    4.53
   1   2  -5  141.26    5.29
   1   2  -5  133.60    4.66
  -1  -2   4    8.07    2.56
  -1  -2   4    8.41    2.37
  -1  -2   4    8.07    2.56
  -1  -2   4    8.41    2.37
   1   2  -4    8.32    2.33
   1   2  -4    7.30    2.53
   1   2  -4    8.01    2.57
   1   2  -4    8.32    2.33
   1   2  -4    7.30    2.53
   1   2  -4    8.01    2.57
  -1  -2   3   64.45    4.07
  -1  -2   3   62.34    3.57
  -1  -2   3   64.45    4.07
  -1  -2   3   62.34    3.57
   1   2  -3   62.75    3.72
   1   2  -3   64.71    4.17
   1   2  -3   61.88    3.88
   1   2  -3   62.75    3.72
   1   2  -3   64.71    4.17
   1   2  -3   61.88    3.88
  -1  -2   2  384.05    5.71
  -1  -2   2  365.42    5.40
  -1  -2   2  384.05    5.71
  -1  -2   2  365.42    5.40
   1   2  -2  368.45    5.46
   1   2  -2  360.85    5.49
   1   2  -2  369.46    5.27
   1   2  -2  368.45    5.46
   1   2  -2  360.85    5.49
   1   2  -2  369.46    5.27
  -1  -2   1 1021.26    7.42
  -1  -2   1  985.39    7.28
  -1  -2   1 1021.26    7.42
  -1  -2   1  985.39    7.28
   1   2  -1  976.51    7.03
   1   2  -1  995.14    7.73
   1   2  -1 1022.44    7.55
   1   2  -1  976.51    7.03
   1   2  -1  995.14    7.73
   1   2  -1 1022.44    7.55
  -1  -2   0   34.88    2.91
  -1  -2   0   29.37    2.91
  -1  -2   0   34.88    2.91
  -1  -2   0   29.37    2.91
  -1  -2  -1   12.28    1.84
  -1  -2  -1   14.76    1.88
  -1  -2  -1   12.28    1.84
  -1  -2  -1   14.76    1.88
  -1  -2  -2  716.78    6.45
  -1  -2  -2  730.08    5.89
  -1  -2  -2  716.78    6.45
  -1  -2  -2  730.08    5.89
  -1  -2  -3  589.11    5.16
  -1  -2  -3  578.33    5.70
  -1  -2  -3  555.90    5.44
  -1  -2  -3  589.11    5.16
  -1  -2  -3  578.33    5.70
  -1  -2  -3  555.90    5.44
  -1  -2  -4   13.12    1.90
  -1  -2  -4   19.92    2.31
  -1  -2  -4   13.64    2.08
  -1  -2  -4   13.12    1.90
  -1  -2  -4   19.92    2.31
  -1  -2  -4   13.64    2.08
  -1  -2  -5  211.04    4.88
  -1  -2  -5  218.70    4.99
  -1  -2  -5  214.22    4.90
  -1  -2  -5  197.13    4.83
  -1  -2  -5  211.04    4.88
  -1  -2  -5  218.70    4.99
  -1  -2  -5  214.22    4.90
  -1  -2  -5  197.13    4.83
  -1  -2  -6  135.91    4.77
  -1  -2  -6  136.38    4.66
  -1  -2  -6  132.69    4.69
  -1  -2  -6  127.30    4.32
  -1  -2  -6  135.91    4.77
  -1  -2  -6  136.38    4.66
  -1  -2  -6  132.69    4.69
  -1  -2  -6  127.30    4.32
  -1  -2  -7    2.48    2.30
  -1  -2  -7    0.25    2.42
  -1  -2  -7    2.34    2.51
  -1  -2  -7    5.23    2.54
  -1  -2  -7    2.48    2.30
  -1  -2  -7    0.25    2.42
  -1  -2  -7    2.34    2.51
  -1  -2  -7    5.23    2.54
  -1  -2  -8   39.02    4.80
  -1  -2  -8   43.04    4.53
  -1  -2  -8   35.35    4.27
  -1  -2  -8   34.89    4.28
  -1  -2  -8   39.02    4.80
  -1  -2  -8   43.04    4.53
  -1  -2  -8   35.35    4.27
  -1  -2  -8   34.89    4.28
  -1  -2  -9   71.41    5.54
  -1  -2  -9   71.31    5.06
  -1  -2  -9   72.29    5.55
  -1  -2  -9   71.41    5.54
  -1  -2  -9   71.31    5.06
  -1  -2  -9   72.29    5.55
  -1  -2 -10    4.71    2.90
  -1  -2 -10    3.09    1.89
  -1  -2 -10    2.43    3.10
  -1  -2 -10    6.54    3.69
  -1  -2 -10    4.71    2.90
  -1  -2 -10    3.09    1.89
  -1  -2 -10    2.43    3.10
  -1  -2 -10    6.54    3.69
  -1  -2 -11   21.69    3.52
  -1  -2 -11   28.18    4.01
  -1  -2 -11   23.64    4.33
  -1  -2 -11   21.69    3.52
  -1  -2 -11   28.18    4.01
  -1  -2 -11   23.64    4.33
  -1  -2 -12    5.30    3.42
  -1  -2 -12    2.66    4.16
  -1  -2 -12    5.30    3.42
  -1  -2 -12    2.66    4.16
  -1  -2 -13   30.88    4.53
  -1  -2 -13   32.86    5.20
  -1  -2 -13   30.88    4.53
  -1  -2 -13   32.86    5.20
  -1  -2 -14   50.57    5.73
  -1  -2 -14   44.00    6.08
  -1  -2 -14   50.57    5.73
  -1  -2 -14   44.00    6.08
  -1  -2 -15   59.90    6.91
  -1  -2 -15   59.90    6.91
   1   3 -14    6.27    5.56
   1   3 -14   10.51    4.80
   1   3 -14    7.75    5.34
   1   3 -14    6.27    5.56
   1   3 -14   10.51    4.80
   1   3 -14    7.75    5.34
   1   3 -13   -4.81    4.84
   1   3 -13   -0.29    2.47
   1   3 -13   -2.78    4.28
   1   3 -13    1.96    4.76
   1   3 -13   -4.81    4.84
   1   3 -13   -0.29    2.47
   1   3 -13   -2.78    4.28
   1   3 -13    1.96    4.76
   1   3 -12    3.48    4.95
   1   3 -12    7.08    3.19
   1   3 -12    9.16    4.63
   1   3 -12    7.78    4.99
   1   3 -12    3.48    4.95
   1   3 -12    7.08    3.19
   1   3 -12    9.16    4.63
   1   3 -12    7.78    4.99
   1   3 -11   14.26    5.12
   1   3 -11   18.42    3.60
   1   3 -11   18.35    4.52
   1   3 -11   17.38    4.79
   1   3 -11   14.26    5.12
   1   3 -11   18.42    3.60
   1   3 -11   18.35    4.52
   1   3 -11   17.38    4.79
   1   3 -10   -1.25    3.08
   1   3 -10    0.85    3.89
   1   3 -10   -0.56    4.08
   1   3 -10   -1.25    3.08
   1   3 -10    0.85    3.89
   1   3 -10   -0.56    4.08
   1   3  -9   12.13    3.37
   1   3  -9   13.01    4.14
   1   3  -9   10.76    4.07
   1   3  -9   12.13    3.37
   1   3  -9   13.01    4.14
   1   3  -9   10.76    4.07
   1   3  -8   18.28    3.30
   1   3  -8   16.64    3.78
   1   3  -8   15.39    4.02
   1   3  -8   18.28    3.30
   1   3  -8   16.64    3.78
   1   3  -8   15.39    4.02
  -1  -3   7  170.19    6.92
  -1  -3   7  170.19    6.92
   1   3  -7  161.94    5.76
   1   3  -7  167.85    6.67
   1   3  -7  164.15    6.62
   1   3  -7  161.94    5.76
   1   3  -7  167.85    6.67
   1   3  -7  164.15    6.62
  -1  -3   6  329.61    7.64
  -1  -3   6  318.73    6.85
  -1  -3   6  329.61    7.64
  -1  -3   6  318.73    6.85
   1   3  -6  317.52    6.58
   1   3  -6  318.18    7.56
   1   3  -6  313.65    7.41
   1   3  -6  317.52    6.58
   1   3  -6  318.18    7.56
   1   3  -6  313.65    7.41
  -1  -3   5  182.86    5.91
  -1  -3   5  175.27    5.10
  -1  -3   5  182.86    5.91
  -1  -3   5  175.27    5.10
   1   3  -5  179.12    5.36
   1   3  -5  181.33    5.92
   1   3  -5  172.61    5.66
   1   3  -5  179.12    5.36
   1   3  -5  181.33    5.92
   1   3  -5  172.61    5.66
  -1  -3   4  240.72    5.67
  -1  -3   4  240.17    5.53
  -1  -3   4  240.72    5.67
  -1  -3   4  240.17    5.53
   1   3  -4  235.23    5.49
   1   3  -4  240.59    5.84
   1   3  -4  232.70    6.11
   1   3  -4  235.23    5.49
   1   3  -4  240.59    5.84
   1   3  -4  232.70    6.11
  -1  -3   3  139.34    5.17
  -1  -3   3  138.77    4.64
  -1  -3   3  139.34    5.17
  -1  -3   3  138.77    4.64
   1   3  -3  145.54    4.77
   1   3  -3  142.72    4.84
   1   3  -3  143.26    4.75
   1   3  -3  145.54    4.77
   1   3  -3  142.72    4.84
   1   3  -3  143.26    4.75
  -1  -3   2    9.02    2.23
  -1  -3   2    9.09    2.36
  -1  -3   2    9.02    2.23
  -1  -3   2    9.09    2.36
   1   3  -2   11.73    2.40
   1   3  -2    8.15    2.56
   1   3  -2    8.87    2.49
   1   3  -2   11.73    2.40
   1   3  -2    8.15    2.56
   1   3  -2    8.87    2.49
  -1  -3   1   46.86    3.87
  -1  -3   1   42.07    3.59
  -1  -3   1   46.86    3.87
  -1  -3   1   42.07    3.59
   1   3  -1   44.85    3.68
   1   3  -1   51.31    4.13
   1   3  -1   53.64    3.90
   1   3  -1   44.85    3.68
   1   3  -1   51.31    4.13
   1   3  -1   53.64    3.90
  -1  -3   0  104.47    2.68
  -1  -3   0  108.03    4.19
  -1  -3   0  102.84    4.06
  -1  -3   0  104.47    2.68
  -1  -3   0  108.03    4.19
  -1  -3   0  102.84    4.06
   1   3   0  105.01    3.72
   1   3   0  108.49    4.11
   1   3   0  105.01    3.72
   1   3   0  108.49    4.11
  -1  -3  -1   64.21    2.82
  -1  -3  -1   68.13    3.69
  -1  -3  -1   64.21    2.82
  -1  -3  -1   68.13    3.69
   1   3   1   70.82    3.81
   1   3   1   72.99    3.59
   1   3   1   70.82    3.81
   1   3   1   72.99    3.59
  -1  -3  -2   37.68    3.33
  -1  -3  -2   37.68    3.33
   1   3   2   44.72    3.46
   1   3   2   44.72    3.46
  -1  -3  -3   -0.05    2.13
  -1  -3  -3    0.63    2.08
  -1  -3  -3   -0.05    2.13
  -1  -3  -3    0.63    2.08
  -1  -3  -4  219.94    3.60
  -1  -3  -4  227.49    5.20
  -1  -3  -4  210.26    4.99
  -1  -3  -4  219.94    3.60
  -1  -3  -4  227.49    5.20
  -1  -3  -4  210.26    4.99
  -1  -3  -5   64.66    3.27
  -1  -3  -5   62.60    4.04
  -1  -3  -5   67.15    3.97
  -1  -3  -5   64.66    3.27
  -1  -3  -5   62.60    4.04
  -1  -3  -5   67.15    3.97
   1   3   5   67.20    4.42
   1   3   5   67.20    4.42
  -1  -3  -6    1.02    1.71
  -1  -3  -6    0.18    2.29
  -1  -3  -6    0.19    2.51
  -1  -3  -6    1.94    2.31
  -1  -3  -6    1.02    1.71
  -1  -3  -6    0.18    2.29
  -1  -3  -6    0.19    2.51
  -1  -3  -6    1.94    2.31
   1   3   6    2.18    2.37
   1   3   6    2.18    2.37
  -1  -3  -7   47.51    4.01
  -1  -3  -7   49.62    4.33
  -1  -3  -7   47.56    4.76
  -1  -3  -7   45.25    4.25
  -1  -3  -7   47.51    4.01
  -1  -3  -7   49.62    4.33
  -1  -3  -7   47.56    4.76
  -1  -3  -7   45.25    4.25
  -1  -3  -8    7.84    2.42
  -1  -3  -8    7.50    3.14
  -1  -3  -8    8.94    3.27
  -1  -3  -8    7.40    2.79
  -1  -3  -8    7.84    2.42
  -1  -3  -8    7.50    3.14
  -1  -3  -8    8.94    3.27
  -1  -3  -8    7.40    2.79
  -1  -3  -9    1.37    2.00
  -1  -3  -9    1.26    3.07
  -1  -3  -9    0.81    3.22
  -1  -3  -9    1.37    2.00
  -1  -3  -9    1.26    3.07
  -1  -3  -9    0.81    3.22
  -1  -3 -10   30.83    4.17
  -1  -3 -10   24.59    4.40
  -1  -3 -10   30.83    4.17
  -1  -3 -10   24.59    4.40
  -1  -3 -11    0.02    3.39
  -1  -3 -11    2.89    3.72
  -1  -3 -11    0.02    3.39
  -1  -3 -11    2.89    3.72
  -1  -3 -12   26.66    4.37
  -1  -3 -12   21.57    4.66
  -1  -3 -12   26.66    4.37
  -1  -3 -12   21.57    4.66
  -1  -3 -13   12.72    4.02
  -1  -3 -13   11.99    4.85
  -1  -3 -13   12.72    4.02
  -1  -3 -13   11.99    4.85
  -1  -3 -14    8.06    4.06
  -1  -3 -14    9.04    5.02
  -1  -3 -14    8.06    4.06
  -1  -3 -14    9.04    5.02
   1   4 -13    6.16    5.62
   1   4 -13    5.91    4.66
   1   4 -13   13.01    5.36
   1   4 -13    6.16    5.62
   1   4 -13    5.91    4.66
   1   4 -13   13.01    5.36
   1   4 -12   14.04    5.58
   1   4 -12   13.23    3.31
   1   4 -12   14.21    4.81
   1   4 -12   10.04    5.29
   1   4 -12   14.04    5.58
   1   4 -12   13.23    3.31
   1   4 -12   14.21    4.81
   1   4 -12   10.04    5.29
   1   4 -11   30.84    5.88
   1   4 -11   42.93    5.05
   1   4 -11   39.29    5.45
   1   4 -11   42.16    5.89
   1   4 -11   30.84    5.88
   1   4 -11   42.93    5.05
   1   4 -11   39.29    5.45
   1   4 -11   42.16    5.89
   1   4 -10   79.72    5.31
   1   4 -10   84.93    7.08
   1   4 -10   81.86    6.91
   1   4 -10   79.72    5.31
   1   4 -10   84.93    7.08
   1   4 -10   81.86    6.91
   1   4  -9   92.72    5.31
   1   4  -9   92.32    6.50
   1   4  -9   79.35    6.65
   1   4  -9   92.72    5.31
   1   4  -9   92.32    6.50
   1   4  -9   79.35    6.65
   1   4  -8    1.73    2.97
   1   4  -8   -0.07    3.65
   1   4  -8    1.21    3.78
   1   4  -8    1.73    2.97
   1   4  -8   -0.07    3.65
   1   4  -8    1.21    3.78
   1   4  -7    6.78    3.11
   1   4  -7   10.28    3.66
   1   4  -7    7.33    3.60
   1   4  -7    6.78    3.11
   1   4  -7   10.28    3.66
   1   4  -7    7.33    3.60
  -1  -4   6    7.10    3.21
  -1  -4   6    7.10    3.21
   1   4  -6    3.26    2.69
   1   4  -6    5.04    3.17
   1   4  -6    3.89    3.20
   1   4  -6    3.26    2.69
   1   4  -6    5.04    3.17
   1   4  -6    3.89    3.20
  -1  -4   5    2.03    2.86
  -1  -4   5   -1.14    2.64
  -1  -4   5    2.03    2.86
  -1  -4   5   -1.14    2.64
   1   4  -5    0.97    2.64
   1   4  -5    3.21    2.97
   1   4  -5   -0.49    2.92
   1   4  -5    0.97    2.64
   1   4  -5    3.21    2.97
   1   4  -5   -0.49    2.92
  -1  -4   4  284.02    6.82
  -1  -4   4  279.95    6.19
  -1  -4   4  284.02    6.82
  -1  -4   4  279.95    6.19
   1   4  -4  271.77    6.34
   1   4  -4  279.59    6.90
   1   4  -4  283.65    6.41
   1   4  -4  271.77    6.34
   1   4  -4  279.59    6.90
   1   4  -4  283.65    6.41
  -1  -4   3   77.55    4.33
  -1  -4   3   74.39    4.31
  -1  -4   3   77.55    4.33
  -1  -4   3   74.39    4.31
   1   4  -3   76.09    4.35
   1   4  -3   80.24    4.98
   1   4  -3   72.18    4.89
   1   4  -3   76.09    4.35
   1   4  -3   80.24    4.98
   1   4  -3   72.18    4.89
  -1  -4   2    3.74    2.33
  -1  -4   2    4.94    2.50
  -1  -4   2    3.74    2.33
  -1  -4   2    4.94    2.50
   1   4  -2    2.33    2.18
   1   4  -2    5.02    2.81
   1   4  -2    2.33    2.18
   1   4  -2    5.02    2.81
  -1  -4   1   40.97    3.87
  -1  -4   1   44.30    3.56
  -1  -4   1   40.97    3.87
  -1  -4   1   44.30    3.56
   1   4  -1   42.61    4.18
   1   4  -1   43.61    4.11
   1   4  -1   42.61    4.18
   1   4  -1   43.61    4.11
  -1  -4   0   81.13    2.19
  -1  -4   0   83.30    4.59
  -1  -4   0   85.03    4.34
  -1  -4   0   81.13    2.19
  -1  -4   0   83.30    4.59
  -1  -4   0   85.03    4.34
   1   4   0   79.49    3.91
   1   4   0   89.43    4.56
   1   4   0   79.49    3.91
   1   4   0   89.43    4.56
  -1  -4  -1    2.50    2.16
  -1  -4  -1    2.50    2.16
   1   4   1    4.13    2.19
   1   4   1    2.81    2.37
   1   4   1    4.13    2.19
   1   4   1    2.81    2.37
  -1  -4  -2    5.55    2.58
  -1  -4  -2    5.55    2.58
   1   4   2    5.53    2.58
   1   4   2    4.04    2.65
   1   4   2    7.99    2.62
   1   4   2    5.53    2.58
   1   4   2    4.04    2.65
   1   4   2    7.99    2.62
  -1  -4  -3   77.35    4.30
  -1  -4  -3   77.35    4.30
   1   4   3   82.61    4.48
   1   4   3   81.84    4.04
   1   4   3   82.61    4.48
   1   4   3   81.84    4.04
  -1  -4  -4    2.73    2.49
  -1  -4  -4    2.78    2.48
  -1  -4  -4    2.73    2.49
  -1  -4  -4    2.78    2.48
   1   4   4    4.10    2.51
   1   4   4    2.82    2.26
   1   4   4    4.10    2.51
   1   4   4    2.82    2.26
  -1  -4  -5   33.82    4.14
  -1  -4  -5   31.22    3.30
  -1  -4  -5   33.82    4.14
  -1  -4  -5   31.22    3.30
   1   4   5   41.46    4.25
   1   4   5   41.46    4.25
  -1  -4  -6   28.45    2.79
  -1  -4  -6   26.82    3.40
  -1  -4  -6   24.66    3.58
  -1  -4  -6   28.45    2.79
  -1  -4  -6   26.82    3.40
  -1  -4  -6   24.66    3.58
   1   4   6   27.91    3.47
   1   4   6   27.91    3.47
  -1  -4  -7   26.79    3.72
  -1  -4  -7   24.54    3.80
  -1  -4  -7   29.94    3.29
  -1  -4  -7   26.79    3.72
  -1  -4  -7   24.54    3.80
  -1  -4  -7   29.94    3.29
  -1  -4  -8  134.23    6.05
  -1  -4  -8  128.62    6.18
  -1  -4  -8  134.23    6.05
  -1  -4  -8  128.62    6.18
  -1  -4  -9  133.83    6.28
  -1  -4  -9  136.15    6.53
  -1  -4  -9  133.83    6.28
  -1  -4  -9  136.15    6.53
  -1  -4 -10    2.98    3.45
  -1  -4 -10    6.48    4.08
  -1  -4 -10    2.98    3.45
  -1  -4 -10    6.48    4.08
  -1  -4 -11    7.46    3.89
  -1  -4 -11    6.40    4.36
  -1  -4 -11    7.46    3.89
  -1  -4 -11    6.40    4.36
  -1  -4 -12   27.28    4.64
  -1  -4 -12   22.35    5.07
  -1  -4 -12   27.28    4.64
  -1  -4 -12   22.35    5.07
  -1  -4 -13    0.56    4.14
  -1  -4 -13    2.46    4.69
  -1  -4 -13    0.56    4.14
  -1  -4 -13    2.46    4.69
  -1  -4 -14   -2.24    3.87
  -1  -4 -14   -0.09    4.91
  -1  -4 -14   -2.24    3.87
  -1  -4 -14   -0.09    4.91
   1   5 -13   20.40    6.37
   1   5 -13   22.48    5.98
   1   5 -13   20.40    6.37
   1   5 -13   22.48    5.98
   1   5 -12   79.23    8.86
   1   5 -12   69.11    4.64
   1   5 -12   76.99    7.27
   1   5 -12   81.38    7.61
   1   5 -12   79.23    8.86
   1   5 -12   69.11    4.64
   1   5 -12   76.99    7.27
   1   5 -12   81.38    7.61
   1   5 -11  106.25    8.66
   1   5 -11  114.73    5.65
   1   5 -11  106.04    7.13
   1   5 -11  115.61    7.92
   1   5 -11  106.25    8.66
   1   5 -11  114.73    5.65
   1   5 -11  106.04    7.13
   1   5 -11  115.61    7.92
   1   5 -10    1.90    4.65
   1   5 -10   10.04    3.58
   1   5 -10    9.43    4.47
   1   5 -10   10.88    4.93
   1   5 -10    1.90    4.65
   1   5 -10   10.04    3.58
   1   5 -10    9.43    4.47
   1   5 -10   10.88    4.93
   1   5  -9   26.64    3.80
   1   5  -9   27.59    4.85
   1   5  -9   27.66    5.05
   1   5  -9   26.64    3.80
   1   5  -9   27.59    4.85
   1   5  -9   27.66    5.05
   1   5  -8   37.42    4.19
   1   5  -8   36.89    4.95
   1   5  -8   36.41    4.95
   1   5  -8   37.42    4.19
   1   5  -8   36.89    4.95
   1   5  -8   36.41    4.95
   1   5  -7   20.48    3.46
   1   5  -7   15.42    3.89
   1   5  -7   18.43    4.15
   1   5  -7   20.48    3.46
   1   5  -7   15.42    3.89
   1   5  -7   18.43    4.15
  -1  -5   6  131.14    6.88
  -1  -5   6  131.14    6.88
   1   5  -6  121.25    5.82
   1   5  -6  125.58    6.57
   1   5  -6  123.38    6.57
   1   5  -6  121.25    5.82
   1   5  -6  125.58    6.57
   1   5  -6  123.38    6.57
  -1  -5   5   80.27    5.82
  -1  -5   5   80.27    5.82
   1   5  -5   81.88    4.86
   1   5  -5   91.51    5.95
   1   5  -5   80.21    5.82
   1   5  -5   81.88    4.86
   1   5  -5   91.51    5.95
   1   5  -5   80.21    5.82
  -1  -5   4   -2.18    2.92
  -1  -5   4    2.37    2.73
  -1  -5   4   -2.18    2.92
  -1  -5   4    2.37    2.73
   1   5  -4    1.44    2.71
   1   5  -4    0.38    3.10
   1   5  -4    1.44    2.71
   1   5  -4    0.38    3.10
  -1  -5   3  324.62    7.46
  -1  -5   3  315.70    6.88
  -1  -5   3  324.62    7.46
  -1  -5   3  315.70    6.88
   1   5  -3  306.56    6.82
   1   5  -3  312.48    7.36
   1   5  -3  306.56    6.82
   1   5  -3  312.48    7.36
  -1  -5   2  102.02    5.32
  -1  -5   2  101.25    4.85
  -1  -5   2  102.02    5.32
  -1  -5   2  101.25    4.85
   1   5  -2  100.22    2.28
   1   5  -2  104.45    4.90
   1   5  -2  104.61    4.82
   1   5  -2  100.22    2.28
   1   5  -2  104.45    4.90
   1   5  -2  104.61    4.82
  -1  -5   1   22.26    3.02
  -1  -5   1   22.19    2.88
  -1  -5   1   22.26    3.02
  -1  -5   1   22.19    2.88
   1   5  -1   22.92    3.09
   1   5  -1   22.19    3.00
   1   5  -1   22.92    3.09
   1   5  -1   22.19    3.00
  -1  -5   0  276.50    6.43
  -1  -5   0  276.50    6.43
   1   5   0  282.50    6.50
   1   5   0  285.29    6.61
   1   5   0  282.50    6.50
   1   5   0  285.29    6.61
  -1  -5  -1  126.38    5.22
  -1  -5  -1  126.38    5.22
   1   5   1  123.46    4.81
   1   5   1  127.45    5.12
   1   5   1  123.46    4.81
   1   5   1  127.45    5.12
  -1  -5  -2   91.05    4.87
  -1  -5  -2   91.05    4.87
   1   5   2   89.31    4.86
   1   5   2   93.70    4.71
   1   5   2   90.51    4.62
   1   5   2   89.31    4.86
   1   5   2   93.70    4.71
   1   5   2   90.51    4.62
  -1  -5  -3  540.05    8.47
  -1  -5  -3  540.05    8.47
   1   5   3  556.96    8.33
   1   5   3  579.60    8.32
   1   5   3  556.96    8.33
   1   5   3  579.60    8.32
  -1  -5  -4  753.81   10.23
  -1  -5  -4  710.75    9.80
  -1  -5  -4  753.81   10.23
  -1  -5  -4  710.75    9.80
   1   5   4  726.28    9.62
   1   5   4  781.48    9.57
   1   5   4  726.28    9.62
   1   5   4  781.48    9.57
  -1  -5  -5   51.59    5.02
  -1  -5  -5   54.15    4.86
  -1  -5  -5   51.59    5.02
  -1  -5  -5   54.15    4.86
   1   5   5   47.91    4.43
   1   5   5   59.18    4.66
   1   5   5   47.91    4.43
   1   5   5   59.18    4.66
  -1  -5  -6   16.23    3.45
  -1  -5  -6   15.47    3.55
  -1  -5  -6   16.23    3.45
  -1  -5  -6   15.47    3.55
   1   5   6   17.40    3.54
   1   5   6   17.40    3.54
  -1  -5  -7    2.99    3.33
  -1  -5  -7    5.70    3.49
  -1  -5  -7    2.99    3.33
  -1  -5  -7    5.70    3.49
  -1  -5  -8   30.47    4.22
  -1  -5  -8   24.76    4.26
  -1  -5  -8   30.47    4.22
  -1  -5  -8   24.76    4.26
  -1  -5  -9  135.44    6.75
  -1  -5  -9  131.19    6.91
  -1  -5  -9  135.44    6.75
  -1  -5  -9  131.19    6.91
  -1  -5 -10   31.94    4.79
  -1  -5 -10   26.22    5.01
  -1  -5 -10   31.94    4.79
  -1  -5 -10   26.22    5.01
  -1  -5 -11   -1.74    3.69
  -1  -5 -11   -0.06    4.18
  -1  -5 -11   -1.74    3.69
  -1  -5 -11   -0.06    4.18
  -1  -5 -12   69.94    6.73
  -1  -5 -12   69.94    6.73
  -1  -5 -13   39.25    5.39
  -1  -5 -13   29.65    5.61
  -1  -5 -13   39.25    5.39
  -1  -5 -13   29.65    5.61
  -1  -5 -14   44.56    5.60
  -1  -5 -14   32.40    6.24
  -1  -5 -14   44.56    5.60
  -1  -5 -14   32.40    6.24
   1   6 -12   33.00    6.87
   1   6 -12   37.60    6.64
   1   6 -12   33.00    6.87
   1   6 -12   37.60    6.64
   1   6 -11   38.48    6.65
   1   6 -11   44.44    4.98
   1   6 -11   43.14    6.23
   1   6 -11   38.48    6.65
   1   6 -11   44.44    4.98
   1   6 -11   43.14    6.23
   1   6 -10   28.86    5.98
   1   6 -10   35.31    4.30
   1   6 -10   37.65    5.98
   1   6 -10   28.86    5.98
   1   6 -10   35.31    4.30
   1   6 -10   37.65    5.98
   1   6  -9    1.69    4.55
   1   6  -9    2.26    3.46
   1   6  -9    0.38    4.44
   1   6  -9    1.69    4.55
   1   6  -9    2.26    3.46
   1   6  -9    0.38    4.44
   1   6  -8   25.39    3.99
   1   6  -8   24.40    4.86
   1   6  -8   25.39    3.99
   1   6  -8   24.40    4.86
   1   6  -7    8.73    3.54
   1   6  -7   10.72    4.29
   1   6  -7    8.73    3.54
   1   6  -7   10.72    4.29
   1   6  -6    2.97    3.10
   1   6  -6    1.63    3.80
   1   6  -6    2.97    3.10
   1   6  -6    1.63    3.80
  -1  -6   5   67.68    6.41
  -1  -6   5   67.68    6.41
   1   6  -5   60.41    5.46
   1   6  -5   68.34    6.19
   1   6  -5   60.41    5.46
   1   6  -5   68.34    6.19
  -1  -6   4   78.55    6.12
  -1  -6   4   78.55    6.12
   1   6  -4   72.55    5.61
   1   6  -4   70.60    6.06
   1   6  -4   72.55    5.61
   1   6  -4   70.60    6.06
  -1  -6   3   45.45    4.92
  -1  -6   3   43.44    4.79
  -1  -6   3   45.45    4.92
  -1  -6   3   43.44    4.79
   1   6  -3   38.59    4.67
   1   6  -3   41.33    4.42
   1   6  -3   38.59    4.67
   1   6  -3   41.33    4.42
  -1  -6   2    6.30    3.29
  -1  -6   2    6.05    3.12
  -1  -6   2    6.30    3.29
  -1  -6   2    6.05    3.12
   1   6  -2    5.75    1.45
   1   6  -2    7.23    3.01
   1   6  -2    4.46    3.31
   1   6  -2    5.75    1.45
   1   6  -2    7.23    3.01
   1   6  -2    4.46    3.31
  -1  -6   1   26.87    3.82
  -1  -6   1   25.68    3.58
  -1  -6   1   26.87    3.82
  -1  -6   1   25.68    3.58
   1   6  -1   31.35    2.53
   1   6  -1   29.17    3.63
   1   6  -1   38.70    4.07
   1   6  -1   31.35    2.53
   1   6  -1   29.17    3.63
   1   6  -1   38.70    4.07
  -1  -6   0    1.18    2.87
  -1  -6   0    1.18    2.87
   1   6   0    0.47    1.24
   1   6   0   -0.21    2.82
   1   6   0   -1.80    2.84
   1   6   0    0.47    1.24
   1   6   0   -0.21    2.82
   1   6   0   -1.80    2.84
  -1  -6  -1   15.50    3.31
  -1  -6  -1   15.50    3.31
   1   6   1   25.12    3.54
   1   6   1   20.62    3.37
   1   6   1   25.12    3.54
   1   6   1   20.62    3.37
  -1  -6  -2   75.64    5.32
  -1  -6  -2   75.64    5.32
   1   6   2   78.52    5.47
   1   6   2   72.57    4.95
   1   6   2   80.51    5.08
   1   6   2   78.52    5.47
   1   6   2   72.57    4.95
   1   6   2   80.51    5.08
  -1  -6  -3   -2.13    3.05
  -1  -6  -3   -2.13    3.05
   1   6   3   -0.17    3.02
   1   6   3   -0.74    2.85
   1   6   3   -0.17    3.02
   1   6   3   -0.74    2.85
  -1  -6  -4  200.22    7.06
  -1  -6  -4  182.93    6.31
  -1  -6  -4  200.22    7.06
  -1  -6  -4  182.93    6.31
   1   6   4  192.63    7.00
   1   6   4  185.27    6.29
   1   6   4  192.63    7.00
   1   6   4  185.27    6.29
  -1  -6  -5  251.42    7.30
  -1  -6  -5  248.69    7.65
  -1  -6  -5  251.42    7.30
  -1  -6  -5  248.69    7.65
   1   6   5  248.09    7.83
   1   6   5  248.09    7.83
  -1  -6  -6  160.78    6.54
  -1  -6  -6  161.10    6.95
  -1  -6  -6  160.78    6.54
  -1  -6  -6  161.10    6.95
   1   6   6  168.26    7.32
   1   6   6  168.26    7.32
  -1  -6  -7    5.24    3.72
  -1  -6  -7    4.18    3.83
  -1  -6  -7    5.24    3.72
  -1  -6  -7    4.18    3.83
  -1  -6  -8   26.36    4.43
  -1  -6  -8   35.25    4.95
  -1  -6  -8   26.36    4.43
  -1  -6  -8   35.25    4.95
  -1  -6  -9   49.47    6.08
  -1  -6  -9   50.08    5.59
  -1  -6  -9   49.47    6.08
  -1  -6  -9   50.08    5.59
  -1  -6 -10    1.84    4.15
  -1  -6 -10   -3.23    4.11
  -1  -6 -10    1.84    4.15
  -1  -6 -10   -3.23    4.11
  -1  -6 -11   -0.14    3.99
  -1  -6 -11   -2.12    4.61
  -1  -6 -11   -0.14    3.99
  -1  -6 -11   -2.12    4.61
  -1  -6 -12   -2.20    4.31
  -1  -6 -12   -0.63    4.73
  -1  -6 -12   -2.20    4.31
  -1  -6 -12   -0.63    4.73
  -1  -6 -13    9.03    4.79
  -1  -6 -13   11.12    5.16
  -1  -6 -13    9.03    4.79
  -1  -6 -13   11.12    5.16
   1   7 -12    1.93    5.78
   1   7 -12    1.52    5.67
   1   7 -12    1.93    5.78
   1   7 -12    1.52    5.67
   1   7 -11    2.99    5.73
   1   7 -11   10.09    3.52
   1   7 -11    2.38    5.20
   1   7 -11    2.99    5.73
   1   7 -11   10.09    3.52
   1   7 -11    2.38    5.20
   1   7 -10   15.86    5.94
   1   7 -10   10.35    3.82
   1   7 -10   11.68    5.25
   1   7 -10   15.86    5.94
   1   7 -10   10.35    3.82
   1   7 -10   11.68    5.25
   1   7  -9    4.37    4.97
   1   7  -9    8.72    3.95
   1   7  -9    4.53    4.93
   1   7  -9    4.37    4.97
   1   7  -9    8.72    3.95
   1   7  -9    4.53    4.93
   1   7  -8   10.58    4.96
   1   7  -8    7.64    3.85
   1   7  -8    4.67    4.71
   1   7  -8   10.58    4.96
   1   7  -8    7.64    3.85
   1   7  -8    4.67    4.71
   1   7  -7    7.86    3.86
   1   7  -7    8.68    4.79
   1   7  -7    7.86    3.86
   1   7  -7    8.68    4.79
   1   7  -6   73.22    5.85
   1   7  -6   79.47    7.03
   1   7  -6   73.22    5.85
   1   7  -6   79.47    7.03
  -1  -7   5   54.86    5.92
  -1  -7   5   54.86    5.92
   1   7  -5   52.24    5.63
   1   7  -5   48.86    5.41
   1   7  -5   52.24    5.63
   1   7  -5   48.86    5.41
  -1  -7   4    0.02    3.71
  -1  -7   4    0.02    3.71
   1   7  -4    3.85    3.31
   1   7  -4    2.11    3.76
   1   7  -4    3.85    3.31
   1   7  -4    2.11    3.76
  -1  -7   3   54.26    6.35
  -1  -7   3   54.26    6.35
   1   7  -3   54.46    5.39
   1   7  -3   57.85    6.29
   1   7  -3   54.46    5.39
   1   7  -3   57.85    6.29
  -1  -7   2  189.99    7.11
  -1  -7   2  173.78    6.86
  -1  -7   2  189.99    7.11
  -1  -7   2  173.78    6.86
   1   7  -2  173.77    6.78
   1   7  -2  183.50    7.43
   1   7  -2  173.77    6.78
   1   7  -2  183.50    7.43
  -1  -7   1   13.05    3.63
  -1  -7   1   13.05    3.63
   1   7  -1   12.36    3.60
   1   7  -1   11.84    3.81
   1   7  -1   12.36    3.60
   1   7  -1   11.84    3.81
  -1  -7   0   -1.36    3.23
  -1  -7   0   -1.36    3.23
   1   7   0    1.55    3.29
   1   7   0    1.14    3.23
   1   7   0    1.55    3.29
   1   7   0    1.14    3.23
  -1  -7  -1   35.96    4.40
  -1  -7  -1   35.96    4.40
   1   7   1   39.05    4.41
   1   7   1   44.38    4.93
   1   7   1   39.05    4.41
   1   7   1   44.38    4.93
  -1  -7  -2    0.97    3.46
  -1  -7  -2    0.97    3.46
   1   7   2    1.74    3.36
   1   7   2    1.36    3.36
   1   7   2    1.02    3.30
   1   7   2    1.74    3.36
   1   7   2    1.36    3.36
   1   7   2    1.02    3.30
  -1  -7  -3   77.78    6.09
  -1  -7  -3   77.78    6.09
   1   7   3   73.04    6.18
   1   7   3   86.72    5.75
   1   7   3   73.04    6.18
   1   7   3   86.72    5.75
  -1  -7  -4   52.92    6.04
  -1  -7  -4   52.68    5.75
  -1  -7  -4   52.92    6.04
  -1  -7  -4   52.68    5.75
   1   7   4   52.83    6.09
   1   7   4   57.52    5.45
   1   7   4   52.83    6.09
   1   7   4   57.52    5.45
  -1  -7  -5    9.86    4.02
  -1  -7  -5   10.12    4.01
  -1  -7  -5    9.86    4.02
  -1  -7  -5   10.12    4.01
   1   7   5    8.57    3.91
   1   7   5    8.57    3.91
  -1  -7  -6    5.09    3.94
  -1  -7  -6    8.95    4.10
  -1  -7  -6    5.09    3.94
  -1  -7  -6    8.95    4.10
   1   7   6    4.11    3.95
   1   7   6    4.11    3.95
  -1  -7  -7    1.34    3.91
  -1  -7  -7    5.35    4.18
  -1  -7  -7    1.34    3.91
  -1  -7  -7    5.35    4.18
  -1  -7  -8   28.70    4.88
  -1  -7  -8   19.98    4.92
  -1  -7  -8   28.70    4.88
  -1  -7  -8   19.98    4.92
  -1  -7  -9  119.23    7.39
  -1  -7  -9  108.49    7.46
  -1  -7  -9  119.23    7.39
  -1  -7  -9  108.49    7.46
  -1  -7 -10   95.73    7.20
  -1  -7 -10   95.70    7.55
  -1  -7 -10   95.73    7.20
  -1  -7 -10   95.70    7.55
  -1  -7 -11   -2.49    4.46
  -1  -7 -11    1.13    4.80
  -1  -7 -11   -2.49    4.46
  -1  -7 -11    1.13    4.80
  -1  -7 -12   24.38    5.55
  -1  -7 -12   17.81    5.79
  -1  -7 -12   24.38    5.55
  -1  -7 -12   17.81    5.79
  -1  -7 -13   33.23    5.94
  -1  -7 -13   33.23    5.94
   1   8 -11   64.98    8.16
   1   8 -11   50.08    4.91
   1   8 -11   55.87    7.46
   1   8 -11   64.98    8.16
   1   8 -11   50.08    4.91
   1   8 -11   55.87    7.46
   1   8 -10   83.71    9.64
   1   8 -10  105.97    6.37
   1   8 -10   98.22    8.41
   1   8 -10   83.71    9.64
   1   8 -10  105.97    6.37
   1   8 -10   98.22    8.41
   1   8  -9   11.97    5.69
   1   8  -9   12.38    4.12
   1   8  -9   13.33    5.62
   1   8  -9   11.97    5.69
   1   8  -9   12.38    4.12
   1   8  -9   13.33    5.62
   1   8  -8   11.96    5.44
   1   8  -8    8.99    3.95
   1   8  -8    7.10    5.09
   1   8  -8   11.96    5.44
   1   8  -8    8.99    3.95
   1   8  -8    7.10    5.09
   1   8  -7    0.44    4.70
   1   8  -7    1.68    3.92
   1   8  -7    0.38    4.62
   1   8  -7    0.44    4.70
   1   8  -7    1.68    3.92
   1   8  -7    0.38    4.62
   1   8  -6    4.42    4.51
   1   8  -6    0.46    3.44
   1   8  -6   -1.60    4.28
   1   8  -6    4.42    4.51
   1   8  -6    0.46    3.44
   1   8  -6   -1.60    4.28
   1   8  -5   19.45    4.09
   1   8  -5   21.83    4.94
   1   8  -5   19.45    4.09
   1   8  -5   21.83    4.94
  -1  -8   4    9.79    4.55
  -1  -8   4    9.79    4.55
   1   8  -4    7.35    3.72
   1   8  -4    5.42    4.29
   1   8  -4    7.35    3.72
   1   8  -4    5.42    4.29
  -1  -8   3   23.27    4.48
  -1  -8   3   23.27    4.48
   1   8  -3   15.58    4.17
   1   8  -3   22.26    4.73
   1   8  -3   15.58    4.17
   1   8  -3   22.26    4.73
  -1  -8   2   81.00    6.37
  -1  -8   2   81.00    6.37
   1   8  -2   81.65    6.06
   1   8  -2   88.42    6.42
   1   8  -2   81.65    6.06
   1   8  -2   88.42    6.42
  -1  -8   1  107.68    6.56
  -1  -8   1  107.68    6.56
   1   8  -1   99.44    6.37
   1   8  -1   89.38    6.31
   1   8  -1   99.44    6.37
   1   8  -1   89.38    6.31
  -1  -8   0    0.76    3.75
  -1  -8   0    0.76    3.75
   1   8   0    0.37    2.85
   1   8   0    3.14    3.33
   1   8   0    0.99    3.64
   1   8   0    0.37    2.85
   1   8   0    3.14    3.33
   1   8   0    0.99    3.64
  -1  -8  -1   20.51    4.38
  -1  -8  -1   20.51    4.38
   1   8   1   17.86    4.26
   1   8   1   19.88    4.18
   1   8   1   17.86    4.26
   1   8   1   19.88    4.18
  -1  -8  -2   20.79    4.42
  -1  -8  -2   20.79    4.42
   1   8   2   13.10    3.90
   1   8   2   17.13    4.12
   1   8   2   11.99    4.04
   1   8   2   13.10    3.90
   1   8   2   17.13    4.12
   1   8   2   11.99    4.04
  -1  -8  -3   16.70    4.37
  -1  -8  -3   16.70    4.37
   1   8   3   13.79    4.22
   1   8   3   16.95    4.17
   1   8   3   13.79    4.22
   1   8   3   16.95    4.17
  -1  -8  -4   32.40    4.73
  -1  -8  -4   31.28    4.83
  -1  -8  -4   32.40    4.73
  -1  -8  -4   31.28    4.83
   1   8   4   33.54    4.99
   1   8   4   33.54    4.99
  -1  -8  -5    8.46    4.39
  -1  -8  -5   10.05    4.33
  -1  -8  -5    8.46    4.39
  -1  -8  -5   10.05    4.33
   1   8   5   12.21    4.44
   1   8   5   12.21    4.44
  -1  -8  -6   -0.90    3.99
  -1  -8  -6    2.00    4.26
  -1  -8  -6   -0.90    3.99
  -1  -8  -6    2.00    4.26
   1   8   6   -2.00    4.16
   1   8   6   -2.00    4.16
  -1  -8  -7   14.23    4.55
  -1  -8  -7   16.35    4.90
  -1  -8  -7   14.23    4.55
  -1  -8  -7   16.35    4.90
  -1  -8  -8    0.38    4.47
  -1  -8  -8   -0.72    4.39
  -1  -8  -8    0.38    4.47
  -1  -8  -8   -0.72    4.39
  -1  -8  -9    6.15    4.65
  -1  -8  -9    3.43    4.85
  -1  -8  -9    6.15    4.65
  -1  -8  -9    3.43    4.85
  -1  -8 -10   19.67    5.39
  -1  -8 -10   18.43    5.49
  -1  -8 -10   19.67    5.39
  -1  -8 -10   18.43    5.49
  -1  -8 -11    9.97    4.97
  -1  -8 -11    5.68    5.17
  -1  -8 -11    9.97    4.97
  -1  -8 -11    5.68    5.17
  -1  -8 -12   -1.05    4.59
  -1  -8 -12   -2.26    5.17
  -1  -8 -12   -1.05    4.59
  -1  -8 -12   -2.26    5.17
   1   9 -10   21.87    6.71
   1   9 -10   14.75    4.08
   1   9 -10   11.51    6.00
   1   9 -10   21.87    6.71
   1   9 -10   14.75    4.08
   1   9 -10   11.51    6.00
   1   9  -9   76.52    8.24
   1   9  -9   84.10    6.56
   1   9  -9   83.16    8.28
   1   9  -9   76.52    8.24
   1   9  -9   84.10    6.56
   1   9  -9   83.16    8.28
   1   9  -8    2.85    5.28
   1   9  -8    2.76    4.13
   1   9  -8    3.75    5.43
   1   9  -8    2.85    5.28
   1   9  -8    2.76    4.13
   1   9  -8    3.75    5.43
   1   9  -7    2.66    5.04
   1   9  -7    2.67    3.97
   1   9  -7    3.06    5.02
   1   9  -7    2.66    5.04
   1   9  -7    2.67    3.97
   1   9  -7    3.06    5.02
   1   9  -6   44.70    6.19
   1   9  -6   38.09    5.09
   1   9  -6   43.08    6.16
   1   9  -6   44.70    6.19
   1   9  -6   38.09    5.09
   1   9  -6   43.08    6.16
   1   9  -5   50.92    6.20
   1   9  -5   50.92    5.67
   1   9  -5   53.94    6.37
   1   9  -5   50.92    6.20
   1   9  -5   50.92    5.67
   1   9  -5   53.94    6.37
   1   9  -4   20.93    4.81
   1   9  -4   22.46    4.67
   1   9  -4   27.66    5.26
   1   9  -4   20.93    4.81
   1   9  -4   22.46    4.67
   1   9  -4   27.66    5.26
  -1  -9   3    5.68    4.79
  -1  -9   3    5.68    4.79
   1   9  -3    2.35    3.88
   1   9  -3    1.20    3.76
   1   9  -3    3.70    4.52
   1   9  -3    2.35    3.88
   1   9  -3    1.20    3.76
   1   9  -3    3.70    4.52
   1   9  -2   16.25    4.08
   1   9  -2   15.24    4.42
   1   9  -2   12.33    4.26
   1   9  -2   16.25    4.08
   1   9  -2   15.24    4.42
   1   9  -2   12.33    4.26
   1   9  -1  112.09    7.08
   1   9  -1  108.16    6.97
   1   9  -1  112.09    7.08
   1   9  -1  108.16    6.97
   1   9   0   42.01    5.21
   1   9   0   43.67    5.38
   1   9   0   42.01    5.21
   1   9   0   43.67    5.38
  -1  -9  -1   39.95    5.34
  -1  -9  -1   39.95    5.34
   1   9   1   32.99    5.12
   1   9   1   28.79    4.93
   1   9   1   34.21    5.15
   1   9   1   32.99    5.12
   1   9   1   28.79    4.93
   1   9   1   34.21    5.15
  -1  -9  -2    5.15    4.25
  -1  -9  -2    5.15    4.25
   1   9   2    6.03    3.97
   1   9   2   10.16    4.32
   1   9   2    9.03    4.37
   1   9   2    6.03    3.97
   1   9   2   10.16    4.32
   1   9   2    9.03    4.37
  -1  -9  -3   93.52    7.33
  -1  -9  -3   93.52    7.33
   1   9   3   92.86    6.78
   1   9   3   92.86    6.78
  -1  -9  -4  129.93    8.15
  -1  -9  -4  141.86    8.11
  -1  -9  -4  129.93    8.15
  -1  -9  -4  141.86    8.11
   1   9   4  133.95    8.17
   1   9   4  133.95    8.17
  -1  -9  -5    8.86    4.74
  -1  -9  -5    8.96    4.73
  -1  -9  -5    8.86    4.74
  -1  -9  -5    8.96    4.73
   1   9   5    9.62    4.84
   1   9   5    9.62    4.84
  -1  -9  -6    1.00    4.51
  -1  -9  -6    0.26    4.59
  -1  -9  -6    1.00    4.51
  -1  -9  -6    0.26    4.59
   1   9   6    3.81    4.75
   1   9   6    3.81    4.75
  -1  -9  -7    6.64    4.72
  -1  -9  -7    1.32    4.68
  -1  -9  -7    6.64    4.72
  -1  -9  -7    1.32    4.68
  -1  -9  -8    1.70    4.68
  -1  -9  -8    5.38    5.00
  -1  -9  -8    1.70    4.68
  -1  -9  -8    5.38    5.00
  -1  -9  -9    3.22    4.79
  -1  -9  -9    2.17    5.10
  -1  -9  -9    3.22    4.79
  -1  -9  -9    2.17    5.10
  -1  -9 -10   24.81    5.68
  -1  -9 -10   23.43    6.08
  -1  -9 -10   24.81    5.68
  -1  -9 -10   23.43    6.08
  -1  -9 -11    2.15    4.94
  -1  -9 -11    7.52    5.54
  -1  -9 -11    2.15    4.94
  -1  -9 -11    7.52    5.54
   1  10  -8   36.57    7.02
   1  10  -8   30.35    5.19
   1  10  -8   34.34    6.70
   1  10  -8   36.57    7.02
   1  10  -8   30.35    5.19
   1  10  -8   34.34    6.70
   1  10  -7    5.85    5.41
   1  10  -7    3.86    4.25
   1  10  -7    3.47    5.25
   1  10  -7    5.85    5.41
   1  10  -7    3.86    4.25
   1  10  -7    3.47    5.25
   1  10  -6    9.68    5.33
   1  10  -6   13.17    4.55
   1  10  -6    6.42    5.49
   1  10  -6    9.68    5.33
   1  10  -6   13.17    4.55
   1  10  -6    6.42    5.49
   1  10  -5   95.39    9.30
   1  10  -5   83.01    6.45
   1  10  -5   86.67    7.81
   1  10  -5   95.39    9.30
   1  10  -5   83.01    6.45
   1  10  -5   86.67    7.81
   1  10  -4  164.19    9.75
   1  10  -4  156.57    8.03
   1  10  -4  161.77    8.85
   1  10  -4  164.19    9.75
   1  10  -4  156.57    8.03
   1  10  -4  161.77    8.85
   1  10  -3    5.27    4.54
   1  10  -3   10.78    4.98
   1  10  -3    5.27    4.54
   1  10  -3   10.78    4.98
   1  10  -2   57.20    6.48
   1  10  -2   53.85    6.28
   1  10  -2   57.20    6.48
   1  10  -2   53.85    6.28
   1  10  -1   68.52    6.81
   1  10  -1   77.74    7.00
   1  10  -1   68.52    6.81
   1  10  -1   77.74    7.00
   1  10   0   -0.25    4.36
   1  10   0    4.64    4.50
   1  10   0   -0.25    4.36
   1  10   0    4.64    4.50
   1  10   1   -2.53    4.34
   1  10   1    2.90    4.40
   1  10   1    0.71    4.50
   1  10   1   -2.53    4.34
   1  10   1    2.90    4.40
   1  10   1    0.71    4.50
   1  10   2   15.53    4.99
   1  10   2   15.53    4.99
  -1 -10  -3   19.58    5.39
  -1 -10  -3   19.58    5.39
   1  10   3   17.75    5.28
   1  10   3   17.75    5.28
  -1 -10  -4  121.30    7.90
  -1 -10  -4  117.23    8.43
  -1 -10  -4  121.30    7.90
  -1 -10  -4  117.23    8.43
   1  10   4  121.46    7.81
   1  10   4  121.46    7.81
  -1 -10  -5  113.59    8.36
  -1 -10  -5   95.28    8.11
  -1 -10  -5  113.59    8.36
  -1 -10  -5   95.28    8.11
   1  10   5  112.95    8.58
   1  10   5  112.95    8.58
  -1 -10  -6    0.39    4.87
  -1 -10  -6    2.19    5.10
  -1 -10  -6    0.39    4.87
  -1 -10  -6    2.19    5.10
   1  10   6    3.36    5.16
   1  10   6    3.36    5.16
  -1 -10  -7   55.98    6.83
  -1 -10  -7   58.72    7.08
  -1 -10  -7   55.98    6.83
  -1 -10  -7   58.72    7.08
  -1 -10  -8   79.60    7.85
  -1 -10  -8   66.16    8.02
  -1 -10  -8   79.60    7.85
  -1 -10  -8   66.16    8.02
  -1 -10  -9   50.58    6.71
  -1 -10  -9   54.00    7.30
  -1 -10  -9   50.58    6.71
  -1 -10  -9   54.00    7.30
  -1 -10 -10    8.08    5.41
  -1 -10 -10    8.07    5.84
  -1 -10 -10    8.08    5.41
  -1 -10 -10    8.07    5.84
   1  11  -7    2.68    5.60
   1  11  -7    2.40    4.56
   1  11  -7    3.45    5.70
   1  11  -7    2.68    5.60
   1  11  -7    2.40    4.56
   1  11  -7    3.45    5.70
   1  11  -6    6.58    5.37
   1  11  -6    5.16    4.76
   1  11  -6    5.42    5.56
   1  11  -6    6.58    5.37
   1  11  -6    5.16    4.76
   1  11  -6    5.42    5.56
   1  11  -5   -3.72    4.31
   1  11  -5    0.74    5.28
   1  11  -5   -3.72    4.31
   1  11  -5    0.74    5.28
   1  11  -4    7.08    4.79
   1  11  -4    4.38    5.31
   1  11  -4    7.08    4.79
   1  11  -4    4.38    5.31
   1  11  -3    0.22    4.60
   1  11  -3    3.90    5.20
   1  11  -3    0.22    4.60
   1  11  -3    3.90    5.20
   1  11  -2    8.10    4.71
   1  11  -2    7.51    5.08
   1  11  -2    8.10    4.71
   1  11  -2    7.51    5.08
   1  11  -1   57.63    6.59
   1  11  -1   62.75    7.21
   1  11  -1   57.63    6.59
   1  11  -1   62.75    7.21
   1  11   0   63.90    7.12
   1  11   0   65.10    7.36
   1  11   0   62.90    7.09
   1  11   0   63.90    7.12
   1  11   0   65.10    7.36
   1  11   0   62.90    7.09
   1  11   1   39.22    6.10
   1  11   1   39.22    6.10
   1  11   2    0.75    4.96
   1  11   2    0.75    4.96
   1  11   3   10.22    5.25
   1  11   3   10.22    5.25
  -1 -11  -4    4.20    5.33
  -1 -11  -4    4.20    5.33
   1  11   4   11.71    5.47
   1  11   4   11.71    5.47
  -1 -11  -5    9.11    5.51
  -1 -11  -5    9.11    5.51
   1  11   5   -0.49    5.25
   1  11   5   -0.49    5.25
  -1 -11  -6    1.53    5.28
  -1 -11  -6    3.16    5.42
  -1 -11  -6    1.53    5.28
  -1 -11  -6    3.16    5.42
   1  11   6    3.92    5.59
   1  11   6    3.92    5.59
  -1 -11  -7   26.74    5.89
  -1 -11  -7   34.32    6.79
  -1 -11  -7   26.74    5.89
  -1 -11  -7   34.32    6.79
  -1 -11  -8   39.38    6.73
  -1 -11  -8   34.68    7.02
  -1 -11  -8   39.38    6.73
  -1 -11  -8   34.68    7.02
   1  12  -4    2.84    4.85
   1  12  -4   -4.32    5.18
   1  12  -4    2.84    4.85
   1  12  -4   -4.32    5.18
   1  12  -3    7.95    5.16
   1  12  -3    3.17    5.52
   1  12  -3    7.95    5.16
   1  12  -3    3.17    5.52
   1  12  -2    2.47    5.02
   1  12  -2   11.00    5.68
   1  12  -2    2.47    5.02
   1  12  -2   11.00    5.68
   1  12  -1    8.66    5.06
   1  12  -1    8.66    5.06
   1  12   0    5.80    5.15
   1  12   0    5.80    5.15
   1  12   1    1.89    5.10
   1  12   1    1.89    5.10
   1  12   2   -3.60    4.97
   1  12   2   -3.60    4.97
   1  12   3    5.49    5.35
   1  12   3    5.49    5.35
  -1 -12  -4   13.08    5.71
  -1 -12  -4   13.08    5.71
   1  12   4   27.51    6.43
   1  12   4   27.51    6.43
  -1 -12  -5   52.48    7.47
  -1 -12  -5   52.48    7.47
   1  12   5   45.08    7.15
   1  12   5   45.08    7.15
  -1 -12  -6   18.83    6.35
  -1 -12  -6   18.83    6.35
   1  12   6   18.52    6.43
   1  12   6   18.52    6.43
  -2  11   3   20.34    5.65
  -2  11   3   20.34    5.65
   2 -11  -3   13.77    6.60
   2 -11  -3   13.77    6.60
  -2  11   2   31.05    6.09
  -2  11   2   34.09    6.92
  -2  11   2   31.05    6.09
  -2  11   2   34.09    6.92
  -2  11   1   24.62    5.64
  -2  11   1   26.20    6.40
  -2  11   1   24.62    5.64
  -2  11   1   26.20    6.40
  -2  11   0   -0.05    4.57
  -2  11   0    2.05    5.55
  -2  11   0   -0.05    4.57
  -2  11   0    2.05    5.55
  -2  11  -1   40.91    5.71
  -2  11  -1   39.97    6.99
  -2  11  -1   40.91    5.71
  -2  11  -1   39.97    6.99
  -2  11  -2   40.26    5.65
  -2  11  -2   42.54    7.23
  -2  11  -2   44.36    7.24
  -2  11  -2   40.26    5.65
  -2  11  -2   42.54    7.23
  -2  11  -2   44.36    7.24
  -2  11  -3   12.53    4.73
  -2  11  -3    9.08    5.60
  -2  11  -3   14.50    6.08
  -2  11  -3   12.53    4.73
  -2  11  -3    9.08    5.60
  -2  11  -3   14.50    6.08
  -2  10   6    5.88    5.43
  -2  10   6    5.88    5.43
   2 -10  -6    3.99    6.02
   2 -10  -6    3.99    6.02
  -2  10   5   -0.33    5.32
  -2  10   5   -0.33    5.32
   2 -10  -5   -4.70    5.64
   2 -10  -5   -4.70    5.64
  -2  10   4   19.80    5.56
  -2  10   4   19.80    5.56
   2 -10  -4   21.75    6.61
   2 -10  -4   21.75    6.61
  -2  10   3   29.23    5.94
  -2  10   3   35.37    6.49
  -2  10   3   29.23    5.94
  -2  10   3   35.37    6.49
   2 -10  -3   30.96    6.80
   2 -10  -3   30.96    6.80
  -2  10   2    2.10    4.83
  -2  10   2    6.36    5.49
  -2  10   2    2.10    4.83
  -2  10   2    6.36    5.49
   2 -10  -2   -3.20    5.42
   2 -10  -2   -3.20    5.42
  -2  10   1    4.22    4.38
  -2  10   1    5.13    5.13
  -2  10   1    4.22    4.38
  -2  10   1    5.13    5.13
  -2  10   0    1.39    4.33
  -2  10   0    0.33    4.94
  -2  10   0    1.39    4.33
  -2  10   0    0.33    4.94
  -2  10  -1   13.50    4.84
  -2  10  -1   13.41    5.51
  -2  10  -1   12.35    5.41
  -2  10  -1   13.50    4.84
  -2  10  -1   13.41    5.51
  -2  10  -1   12.35    5.41
  -2  10  -2   23.80    4.95
  -2  10  -2   30.15    6.28
  -2  10  -2   28.67    6.02
  -2  10  -2   23.80    4.95
  -2  10  -2   30.15    6.28
  -2  10  -2   28.67    6.02
  -2  10  -3   42.26    5.18
  -2  10  -3   43.63    6.65
  -2  10  -3   42.26    5.18
  -2  10  -3   43.63    6.65
  -2  10  -4    8.00    4.01
  -2  10  -4    9.15    5.39
  -2  10  -4    8.00    4.01
  -2  10  -4    9.15    5.39
  -2  10  -5   25.22    3.97
  -2  10  -5   18.96    5.77
  -2  10  -5   25.22    3.97
  -2  10  -5   18.96    5.77
  -2  10  -6   12.25    5.67
  -2  10  -6   12.25    5.67
  -2   9   8   17.83    6.11
  -2   9   8   17.83    6.11
   2  -9  -8   19.11    6.46
   2  -9  -8   19.11    6.46
  -2   9   7   11.67    5.63
  -2   9   7   11.67    5.63
   2  -9  -7    9.16    5.90
   2  -9  -7    9.16    5.90
  -2   9   6   -2.24    4.88
  -2   9   6   -2.24    4.88
  -2   9   5    1.61    4.81
  -2   9   5    1.61    4.81
   2  -9  -5    1.46    5.42
   2  -9  -5    1.46    5.42
  -2   9   4   20.00    5.52
  -2   9   4   23.66    5.84
  -2   9   4   20.00    5.52
  -2   9   4   23.66    5.84
   2  -9  -4   19.53    6.00
   2  -9  -4   19.53    6.00
  -2   9   3    8.88    4.70
  -2   9   3   18.06    5.47
  -2   9   3    8.88    4.70
  -2   9   3   18.06    5.47
   2  -9  -3   13.25    5.28
   2  -9  -3   13.25    5.28
  -2   9   2   -5.87    4.80
  -2   9   2   13.92    4.66
  -2   9   2   21.32    5.09
  -2   9   2   -5.87    4.80
  -2   9   2   13.92    4.66
  -2   9   2   21.32    5.09
   2  -9  -2    9.53    5.50
   2  -9  -2    9.53    5.50
  -2   9   1    9.69    4.31
  -2   9   1   10.14    4.60
  -2   9   1   10.69    5.00
  -2   9   1    9.69    4.31
  -2   9   1   10.14    4.60
  -2   9   1   10.69    5.00
   2  -9  -1   12.31    5.04
   2  -9  -1   12.31    5.04
  -2   9   0    4.47    4.20
  -2   9   0    6.44    4.80
  -2   9   0    4.47    4.20
  -2   9   0    6.44    4.80
  -2   9  -1    4.41    4.07
  -2   9  -1    1.42    4.67
  -2   9  -1    2.73    4.62
  -2   9  -1    4.41    4.07
  -2   9  -1    1.42    4.67
  -2   9  -1    2.73    4.62
  -2   9  -2    1.89    4.02
  -2   9  -2    5.52    4.65
  -2   9  -2    1.89    4.02
  -2   9  -2    5.52    4.65
  -2   9  -3    1.50    3.76
  -2   9  -3   -2.87    4.72
  -2   9  -3    1.50    3.76
  -2   9  -3   -2.87    4.72
  -2   9  -4   27.73    4.30
  -2   9  -4   26.37    5.55
  -2   9  -4   27.73    4.30
  -2   9  -4   26.37    5.55
  -2   9  -5    7.18    4.73
  -2   9  -5    7.61    3.46
  -2   9  -5    7.92    5.29
  -2   9  -5    7.18    4.73
  -2   9  -5    7.61    3.46
  -2   9  -5    7.92    5.29
  -2   9  -6   22.51    5.61
  -2   9  -6   16.14    2.75
  -2   9  -6   17.87    5.74
  -2   9  -6   22.51    5.61
  -2   9  -6   16.14    2.75
  -2   9  -6   17.87    5.74
  -2   9  -7   39.67    6.57
  -2   9  -7   35.87    6.38
  -2   9  -7   39.67    6.57
  -2   9  -7   35.87    6.38
  -2   9  -8   36.73    6.76
  -2   9  -8   32.26    6.12
  -2   9  -8   36.73    6.76
  -2   9  -8   32.26    6.12
  -2   8  10    1.33    5.76
  -2   8  10    1.33    5.76
   2  -8 -10    1.51    5.65
   2  -8 -10    1.51    5.65
  -2   8   9    5.87    5.65
  -2   8   9    5.87    5.65
   2  -8  -9    4.39    5.65
   2  -8  -9    4.39    5.65
  -2   8   8    3.78    5.22
  -2   8   8    3.78    5.22
   2  -8  -8    3.69    5.51
   2  -8  -8    3.69    5.51
  -2   8   7   12.28    5.30
  -2   8   7   12.28    5.30
   2  -8  -7   18.80    6.00
   2  -8  -7   18.80    6.00
  -2   8   6   12.01    5.07
  -2   8   6   12.01    5.07
   2  -8  -6   10.58    5.61
   2  -8  -6   10.58    5.61
  -2   8   5   -0.64    4.43
  -2   8   5    0.65    4.69
  -2   8   5   -0.64    4.43
  -2   8   5    0.65    4.69
   2  -8  -5    0.29    4.96
   2  -8  -5    0.29    4.96
  -2   8   4   48.50    5.90
  -2   8   4   53.54    6.30
  -2   8   4   48.50    5.90
  -2   8   4   53.54    6.30
   2  -8  -4   50.84    6.22
   2  -8  -4   50.84    6.22
  -2   8   3   53.93    6.50
  -2   8   3   52.38    6.17
  -2   8   3   53.93    6.50
  -2   8   3   52.38    6.17
   2  -8  -3   66.80    7.73
   2  -8  -3   66.80    7.73
  -2   8   2   -1.67    3.91
  -2   8   2    0.60    4.34
  -2   8   2   -1.67    3.91
  -2   8   2    0.60    4.34
   2  -8  -2    2.91    4.31
   2  -8  -2    2.91    4.31
  -2   8   1   60.62    6.33
  -2   8   1   63.73    6.13
  -2   8   1   61.87    6.64
  -2   8   1   60.62    6.33
  -2   8   1   63.73    6.13
  -2   8   1   61.87    6.64
  -2   8   0   25.68    4.36
  -2   8   0   41.96    4.97
  -2   8   0   38.04    5.40
  -2   8   0   36.91    5.33
  -2   8   0   25.68    4.36
  -2   8   0   41.96    4.97
  -2   8   0   38.04    5.40
  -2   8   0   36.91    5.33
  -2   8  -1   11.88    3.23
  -2   8  -1   18.67    4.20
  -2   8  -1   13.48    4.65
  -2   8  -1   13.15    4.59
  -2   8  -1   11.88    3.23
  -2   8  -1   18.67    4.20
  -2   8  -1   13.48    4.65
  -2   8  -1   13.15    4.59
  -2   8  -2   30.43    4.33
  -2   8  -2   30.21    5.07
  -2   8  -2   30.43    4.33
  -2   8  -2   30.21    5.07
  -2   8  -3   60.29    5.65
  -2   8  -3   59.81    5.35
  -2   8  -3   66.89    6.68
  -2   8  -3   60.29    5.65
  -2   8  -3   59.81    5.35
  -2   8  -3   66.89    6.68
  -2   8  -4    9.76    4.38
  -2   8  -4   12.56    3.55
  -2   8  -4   17.88    4.86
  -2   8  -4    9.76    4.38
  -2   8  -4   12.56    3.55
  -2   8  -4   17.88    4.86
  -2   8  -5   19.94    4.94
  -2   8  -5   18.30    3.44
  -2   8  -5   21.16    5.28
  -2   8  -5   19.94    4.94
  -2   8  -5   18.30    3.44
  -2   8  -5   21.16    5.28
  -2   8  -6   11.53    4.87
  -2   8  -6    3.25    2.46
  -2   8  -6    1.78    4.72
  -2   8  -6   11.53    4.87
  -2   8  -6    3.25    2.46
  -2   8  -6    1.78    4.72
  -2   8  -7    5.97    4.89
  -2   8  -7    3.87    4.73
  -2   8  -7    5.97    4.89
  -2   8  -7    3.87    4.73
  -2   8  -8   -1.99    4.88
  -2   8  -8   -0.29    4.48
  -2   8  -8   -1.99    4.88
  -2   8  -8   -0.29    4.48
  -2   8  -9   12.25    5.72
  -2   8  -9    1.80    4.75
  -2   8  -9   12.25    5.72
  -2   8  -9    1.80    4.75
  -2   8 -10   -3.40    5.27
  -2   8 -10    3.93    4.87
  -2   8 -10   -3.40    5.27
  -2   8 -10    3.93    4.87
   2  -7 -11   23.56    6.32
   2  -7 -11   17.22    6.27
   2  -7 -11   23.56    6.32
   2  -7 -11   17.22    6.27
  -2   7  10    2.64    5.60
  -2   7  10    2.64    5.60
   2  -7 -10    0.86    5.26
   2  -7 -10   -0.92    5.35
   2  -7 -10    0.86    5.26
   2  -7 -10   -0.92    5.35
  -2   7   9   55.59    7.02
  -2   7   9   55.59    7.02
   2  -7  -9   50.91    6.99
   2  -7  -9   50.91    6.99
  -2   7   8   75.53    8.00
  -2   7   8   75.53    8.00
   2  -7  -8   60.82    7.12
   2  -7  -8   66.49    7.82
   2  -7  -8   60.82    7.12
   2  -7  -8   66.49    7.82
  -2   7   7   46.63    6.17
  -2   7   7   46.63    6.17
   2  -7  -7   39.87    6.33
   2  -7  -7   39.86    6.04
   2  -7  -7   39.87    6.33
   2  -7  -7   39.86    6.04
  -2   7   6   10.57    4.81
  -2   7   6   10.57    4.81
   2  -7  -6    2.97    4.85
   2  -7  -6    2.97    4.85
  -2   7   5   16.94    4.80
  -2   7   5   16.53    4.51
  -2   7   5   16.94    4.80
  -2   7   5   16.53    4.51
   2  -7  -5   14.29    5.16
   2  -7  -5   14.29    5.16
  -2   7   4   -1.33    3.98
  -2   7   4   -0.01    4.08
  -2   7   4   -1.33    3.98
  -2   7   4   -0.01    4.08
   2  -7  -4    2.68    4.59
   2  -7  -4    2.68    4.59
  -2   7   3   34.28    4.86
  -2   7   3   31.24    4.80
  -2   7   3   34.28    4.86
  -2   7   3   31.24    4.80
   2  -7  -3   30.11    5.37
   2  -7  -3   30.11    5.37
  -2   7   2   26.93    4.63
  -2   7   2   51.34    5.91
  -2   7   2   62.37    6.35
  -2   7   2   26.93    4.63
  -2   7   2   51.34    5.91
  -2   7   2   62.37    6.35
   2  -7  -2   59.43    6.17
   2  -7  -2   59.43    6.17
  -2   7   1   -2.74    4.75
  -2   7   1   -0.15    2.61
  -2   7   1    1.22    3.66
  -2   7   1    0.94    3.87
  -2   7   1   -2.74    4.75
  -2   7   1   -0.15    2.61
  -2   7   1    1.22    3.66
  -2   7   1    0.94    3.87
  -2   7   0   65.52    7.04
  -2   7   0   59.82    5.97
  -2   7   0   57.27    6.19
  -2   7   0   59.41    6.03
  -2   7   0   65.52    7.04
  -2   7   0   59.82    5.97
  -2   7   0   57.27    6.19
  -2   7   0   59.41    6.03
  -2   7  -1  193.00    7.69
  -2   7  -1  190.70    6.79
  -2   7  -1  199.90    7.96
  -2   7  -1  193.00    7.69
  -2   7  -1  190.70    6.79
  -2   7  -1  199.90    7.96
  -2   7  -2   84.03    6.78
  -2   7  -2   44.90    5.10
  -2   7  -2   90.21    5.70
  -2   7  -2   93.36    6.45
  -2   7  -2   84.03    6.78
  -2   7  -2   44.90    5.10
  -2   7  -2   90.21    5.70
  -2   7  -2   93.36    6.45
  -2   7  -3   -1.04    3.42
  -2   7  -3    2.30    2.76
  -2   7  -3   -1.15    2.95
  -2   7  -3    0.58    3.76
  -2   7  -3   -1.04    3.42
  -2   7  -3    2.30    2.76
  -2   7  -3   -1.15    2.95
  -2   7  -3    0.58    3.76
  -2   7  -4   34.08    4.86
  -2   7  -4   27.93    3.68
  -2   7  -4   29.32    4.83
  -2   7  -4   34.08    4.86
  -2   7  -4   27.93    3.68
  -2   7  -4   29.32    4.83
  -2   7  -5    6.71    4.17
  -2   7  -5    4.18    2.75
  -2   7  -5    5.22    4.03
  -2   7  -5    6.71    4.17
  -2   7  -5    4.18    2.75
  -2   7  -5    5.22    4.03
  -2   7  -6   13.85    4.70
  -2   7  -6   10.58    2.44
  -2   7  -6   14.54    4.58
  -2   7  -6   13.85    4.70
  -2   7  -6   10.58    2.44
  -2   7  -6   14.54    4.58
  -2   7  -7   55.19    6.34
  -2   7  -7   55.90    6.30
  -2   7  -7   55.19    6.34
  -2   7  -7   55.90    6.30
  -2   7  -8   24.70    5.60
  -2   7  -8   18.60    5.04
  -2   7  -8   24.70    5.60
  -2   7  -8   18.60    5.04
  -2   7  -9    1.39    4.93
  -2   7  -9    4.16    4.66
  -2   7  -9    1.39    4.93
  -2   7  -9    4.16    4.66
  -2   7 -10   15.26    5.88
  -2   7 -10   13.64    4.97
  -2   7 -10   15.26    5.88
  -2   7 -10   13.64    4.97
  -2   7 -11    3.89    5.55
  -2   7 -11    3.60    5.06
  -2   7 -11    3.89    5.55
  -2   7 -11    3.60    5.06
   2  -6 -12   -7.20    4.92
   2  -6 -12   -1.96    5.59
   2  -6 -12   -7.20    4.92
   2  -6 -12   -1.96    5.59
   2  -6 -11    1.92    5.22
   2  -6 -11    8.00    5.58
   2  -6 -11    1.92    5.22
   2  -6 -11    8.00    5.58
  -2   6  10    1.03    5.14
  -2   6  10    1.03    5.14
   2  -6 -10   -4.99    4.83
   2  -6 -10   -1.65    4.94
   2  -6 -10   -4.99    4.83
   2  -6 -10   -1.65    4.94
  -2   6   9   48.71    6.55
  -2   6   9   48.71    6.55
   2  -6  -9   53.35    6.72
   2  -6  -9   53.35    6.72
  -2   6   8   15.91    5.25
  -2   6   8   15.91    5.25
   2  -6  -8   11.22    5.16
   2  -6  -8   16.22    5.11
   2  -6  -8   11.22    5.16
   2  -6  -8   16.22    5.11
  -2   6   7  164.23    8.58
  -2   6   7  164.23    8.58
   2  -6  -7  164.51    8.98
   2  -6  -7  164.51    8.98
  -2   6   6   95.27    7.35
  -2   6   6   91.23    6.97
  -2   6   6   95.27    7.35
  -2   6   6   91.23    6.97
   2  -6  -6   87.37    7.74
   2  -6  -6   94.93    7.27
   2  -6  -6   87.37    7.74
   2  -6  -6   94.93    7.27
  -2   6   5   12.47    4.33
  -2   6   5   12.62    4.32
  -2   6   5   12.47    4.33
  -2   6   5   12.62    4.32
   2  -6  -5    9.48    4.26
   2  -6  -5   11.24    4.41
   2  -6  -5    9.48    4.26
   2  -6  -5   11.24    4.41
  -2   6   4    2.34    3.83
  -2   6   4    1.05    3.47
  -2   6   4    2.34    3.83
  -2   6   4    1.05    3.47
   2  -6  -4    5.15    4.27
   2  -6  -4   -0.39    3.38
   2  -6  -4    5.15    4.27
   2  -6  -4   -0.39    3.38
  -2   6   3   55.31    5.99
  -2   6   3   54.30    5.96
  -2   6   3   55.31    5.99
  -2   6   3   54.30    5.96
   2  -6  -3   57.27    6.59
   2  -6  -3   57.38    5.97
   2  -6  -3   57.27    6.59
   2  -6  -3   57.38    5.97
  -2   6   2   21.35    3.98
  -2   6   2   18.02    4.19
  -2   6   2   21.35    3.98
  -2   6   2   18.02    4.19
   2  -6  -2   21.88    4.19
   2  -6  -2   21.88    4.19
  -2   6   1   30.15    4.15
  -2   6   1   31.93    4.27
  -2   6   1   31.08    4.44
  -2   6   1   30.15    4.15
  -2   6   1   31.93    4.27
  -2   6   1   31.08    4.44
  -2   6   0   18.78    3.01
  -2   6   0   22.83    4.50
  -2   6   0   18.73    3.38
  -2   6   0   16.27    3.53
  -2   6   0   15.28    3.95
  -2   6   0   17.88    3.63
  -2   6   0   18.78    3.01
  -2   6   0   22.83    4.50
  -2   6   0   18.73    3.38
  -2   6   0   16.27    3.53
  -2   6   0   15.28    3.95
  -2   6   0   17.88    3.63
  -2   6  -1   59.05    5.58
  -2   6  -1   75.36    5.88
  -2   6  -1   71.13    4.74
  -2   6  -1   69.25    5.41
  -2   6  -1   73.13    5.60
  -2   6  -1   59.05    5.58
  -2   6  -1   75.36    5.88
  -2   6  -1   71.13    4.74
  -2   6  -1   69.25    5.41
  -2   6  -1   73.13    5.60
  -2   6  -2   90.18    6.56
  -2   6  -2   94.02    6.36
  -2   6  -2   35.06    3.80
  -2   6  -2   91.92    5.33
  -2   6  -2   95.46    6.39
  -2   6  -2   90.18    6.56
  -2   6  -2   94.02    6.36
  -2   6  -2   35.06    3.80
  -2   6  -2   91.92    5.33
  -2   6  -2   95.46    6.39
  -2   6  -3  124.87    7.07
  -2   6  -3  128.68    6.20
  -2   6  -3  124.43    5.46
  -2   6  -3  126.16    6.38
  -2   6  -3  124.87    7.07
  -2   6  -3  128.68    6.20
  -2   6  -3  124.43    5.46
  -2   6  -3  126.16    6.38
  -2   6  -4   17.87    4.05
  -2   6  -4    8.04    3.03
  -2   6  -4   14.13    2.93
  -2   6  -4   14.65    3.85
  -2   6  -4   17.87    4.05
  -2   6  -4    8.04    3.03
  -2   6  -4   14.13    2.93
  -2   6  -4   14.65    3.85
  -2   6  -5   13.13    4.19
  -2   6  -5   13.89    2.62
  -2   6  -5    8.84    3.97
  -2   6  -5   13.13    4.19
  -2   6  -5   13.89    2.62
  -2   6  -5    8.84    3.97
  -2   6  -6   66.00    7.15
  -2   6  -6   62.75    3.13
  -2   6  -6   64.16    5.83
  -2   6  -6   66.00    7.15
  -2   6  -6   62.75    3.13
  -2   6  -6   64.16    5.83
  -2   6  -7    8.51    4.57
  -2   6  -7   16.26    4.35
  -2   6  -7    8.51    4.57
  -2   6  -7   16.26    4.35
  -2   6  -8   29.14    5.53
  -2   6  -8   41.90    5.36
  -2   6  -8   29.14    5.53
  -2   6  -8   41.90    5.36
  -2   6  -9   11.02    5.08
  -2   6  -9   19.83    4.90
  -2   6  -9   11.02    5.08
  -2   6  -9   19.83    4.90
  -2   6 -10    9.33    5.33
  -2   6 -10    0.58    4.47
  -2   6 -10    9.33    5.33
  -2   6 -10    0.58    4.47
  -2   6 -11   28.02    6.27
  -2   6 -11   23.61    5.43
  -2   6 -11   28.02    6.27
  -2   6 -11   23.61    5.43
  -2   6 -12   26.57    6.45
  -2   6 -12   19.37    5.53
  -2   6 -12   26.57    6.45
  -2   6 -12   19.37    5.53
   2  -5 -12   21.49    5.78
   2  -5 -12   24.42    6.22
   2  -5 -12   21.49    5.78
   2  -5 -12   24.42    6.22
   2  -5 -11   52.77    6.76
   2  -5 -11   49.50    6.76
   2  -5 -11   52.77    6.76
   2  -5 -11   49.50    6.76
   2  -5 -10   -5.61    4.48
   2  -5 -10    2.42    4.88
   2  -5 -10   -5.61    4.48
   2  -5 -10    2.42    4.88
  -2   5   9   27.45    5.57
  -2   5   9   27.45    5.57
   2  -5  -9   23.82    5.43
   2  -5  -9   25.75    5.06
   2  -5  -9   23.82    5.43
   2  -5  -9   25.75    5.06
  -2   5   8   42.10    5.45
  -2   5   8   42.10    5.45
   2  -5  -8   52.09    6.12
   2  -5  -8   41.02    5.65
   2  -5  -8   52.09    6.12
   2  -5  -8   41.02    5.65
  -2   5   7   -0.89    4.09
  -2   5   7   -0.89    4.09
   2  -5  -7    2.82    4.38
   2  -5  -7   -0.38    4.11
   2  -5  -7    2.82    4.38
   2  -5  -7   -0.38    4.11
  -2   5   6   30.52    4.92
  -2   5   6   32.23    4.86
  -2   5   6   30.52    4.92
  -2   5   6   32.23    4.86
   2  -5  -6   31.11    4.77
   2  -5  -6   24.64    4.74
   2  -5  -6   31.11    4.77
   2  -5  -6   24.64    4.74
  -2   5   5   45.59    5.39
  -2   5   5   47.71    5.08
  -2   5   5   45.59    5.39
  -2   5   5   47.71    5.08
   2  -5  -5   47.63    5.39
   2  -5  -5   45.08    5.03
   2  -5  -5   47.63    5.39
   2  -5  -5   45.08    5.03
  -2   5   4   31.23    4.47
  -2   5   4   21.58    3.98
  -2   5   4   31.23    4.47
  -2   5   4   21.58    3.98
   2  -5  -4   24.07    4.23
   2  -5  -4   22.79    4.21
   2  -5  -4   24.07    4.23
   2  -5  -4   22.79    4.21
  -2   5   3   61.09    5.68
  -2   5   3   62.10    5.60
  -2   5   3   61.09    5.68
  -2   5   3   62.10    5.60
   2  -5  -3   56.75    5.50
   2  -5  -3   57.67    5.57
   2  -5  -3   56.75    5.50
   2  -5  -3   57.67    5.57
  -2   5   2   86.22    5.62
  -2   5   2   88.56    5.77
  -2   5   2   86.22    5.62
  -2   5   2   88.56    5.77
   2  -5  -2   93.82    6.29
   2  -5  -2   84.21    5.52
   2  -5  -2   93.82    6.29
   2  -5  -2   84.21    5.52
  -2   5   1  121.38    4.79
  -2   5   1  105.61    5.99
  -2   5   1  116.65    6.05
  -2   5   1  110.56    5.83
  -2   5   1  121.38    4.79
  -2   5   1  105.61    5.99
  -2   5   1  116.65    6.05
  -2   5   1  110.56    5.83
   2  -5  -1  111.69    5.52
   2  -5  -1  111.69    5.52
  -2   5   0   17.14    2.78
  -2   5   0   15.79    3.97
  -2   5   0   19.00    3.40
  -2   5   0   18.91    3.33
  -2   5   0   16.64    3.49
  -2   5   0   15.03    3.40
  -2   5   0   17.14    2.78
  -2   5   0   15.79    3.97
  -2   5   0   19.00    3.40
  -2   5   0   18.91    3.33
  -2   5   0   16.64    3.49
  -2   5   0   15.03    3.40
  -2   5  -1   72.26    3.21
  -2   5  -1  101.60    5.58
  -2   5  -1   96.00    6.36
  -2   5  -1  100.70    4.88
  -2   5  -1  100.11    5.15
  -2   5  -1   99.87    5.41
  -2   5  -1   72.26    3.21
  -2   5  -1  101.60    5.58
  -2   5  -1   96.00    6.36
  -2   5  -1  100.70    4.88
  -2   5  -1  100.11    5.15
  -2   5  -1   99.87    5.41
  -2   5  -2   -1.84    2.61
  -2   5  -2    0.25    3.00
  -2   5  -2   -0.77    2.49
  -2   5  -2    0.08    2.47
  -2   5  -2   -1.00    2.88
  -2   5  -2   -1.84    2.61
  -2   5  -2    0.25    3.00
  -2   5  -2   -0.77    2.49
  -2   5  -2    0.08    2.47
  -2   5  -2   -1.00    2.88
  -2   5  -3    3.73    3.13
  -2   5  -3    1.27    3.16
  -2   5  -3    2.49    2.41
  -2   5  -3    2.20    3.08
  -2   5  -3    3.73    3.13
  -2   5  -3    1.27    3.16
  -2   5  -3    2.49    2.41
  -2   5  -3    2.20    3.08
  -2   5  -4   26.74    4.12
  -2   5  -4   33.22    3.90
  -2   5  -4   24.14    2.67
  -2   5  -4   25.15    3.74
  -2   5  -4   26.74    4.12
  -2   5  -4   33.22    3.90
  -2   5  -4   24.14    2.67
  -2   5  -4   25.15    3.74
  -2   5  -5   29.11    4.46
  -2   5  -5   25.65    3.02
  -2   5  -5   28.66    3.86
  -2   5  -5   29.11    4.46
  -2   5  -5   25.65    3.02
  -2   5  -5   28.66    3.86
  -2   5  -6  173.16    8.28
  -2   5  -6  192.14    6.79
  -2   5  -6  173.16    8.28
  -2   5  -6  192.14    6.79
  -2   5  -7  147.72    8.21
  -2   5  -7  155.08    7.01
  -2   5  -7  147.72    8.21
  -2   5  -7  155.08    7.01
  -2   5  -8   34.71    5.42
  -2   5  -8   36.52    4.78
  -2   5  -8   34.71    5.42
  -2   5  -8   36.52    4.78
  -2   5  -9   64.39    7.37
  -2   5  -9   81.50    6.62
  -2   5  -9   64.39    7.37
  -2   5  -9   81.50    6.62
  -2   5 -10   14.14    5.17
  -2   5 -10   14.01    4.64
  -2   5 -10   14.14    5.17
  -2   5 -10   14.01    4.64
  -2   5 -11   72.06    7.92
  -2   5 -11   75.53    6.83
  -2   5 -11   72.06    7.92
  -2   5 -11   75.53    6.83
  -2   5 -12    4.08    5.31
  -2   5 -12    2.53    4.64
  -2   5 -12    4.08    5.31
  -2   5 -12    2.53    4.64
  -2   5 -13    6.91    5.76
  -2   5 -13   10.68    5.09
  -2   5 -13    6.91    5.76
  -2   5 -13   10.68    5.09
   2  -4 -13   74.90    8.27
   2  -4 -13   70.89    8.28
   2  -4 -13   74.90    8.27
   2  -4 -13   70.89    8.28
   2  -4 -12   -0.38    4.81
   2  -4 -12    4.54    5.29
   2  -4 -12   -0.38    4.81
   2  -4 -12    4.54    5.29
   2  -4 -11   18.64    5.34
   2  -4 -11   10.81    5.31
   2  -4 -11   18.64    5.34
   2  -4 -11   10.81    5.31
   2  -4 -10   26.89    5.48
   2  -4 -10   18.88    5.27
   2  -4 -10   26.89    5.48
   2  -4 -10   18.88    5.27
  -2   4   9    1.42    4.10
  -2   4   9    1.42    4.10
   2  -4  -9    2.98    4.05
   2  -4  -9    3.60    4.57
   2  -4  -9    2.98    4.05
   2  -4  -9    3.60    4.57
  -2   4   8    6.63    4.36
  -2   4   8    6.63    4.36
   2  -4  -8    1.70    4.30
   2  -4  -8    4.47    4.27
   2  -4  -8    1.70    4.30
   2  -4  -8    4.47    4.27
  -2   4   7  166.20    7.96
  -2   4   7  166.20    7.96
   2  -4  -7  187.95    8.39
   2  -4  -7  166.89    7.80
   2  -4  -7  187.95    8.39
   2  -4  -7  166.89    7.80
  -2   4   6   16.77    4.20
  -2   4   6   18.46    4.05
  -2   4   6   16.77    4.20
  -2   4   6   18.46    4.05
   2  -4  -6   18.92    4.45
   2  -4  -6   20.63    4.36
   2  -4  -6   18.92    4.45
   2  -4  -6   20.63    4.36
  -2   4   5    1.75    3.50
  -2   4   5    0.76    3.40
  -2   4   5    1.75    3.50
  -2   4   5    0.76    3.40
   2  -4  -5   -1.42    3.21
   2  -4  -5   -0.04    3.47
   2  -4  -5   -1.42    3.21
   2  -4  -5   -0.04    3.47
  -2   4   4    5.11    3.32
  -2   4   4    6.95    3.43
  -2   4   4    5.11    3.32
  -2   4   4    6.95    3.43
   2  -4  -4   10.07    3.67
   2  -4  -4    5.04    3.38
   2  -4  -4   10.07    3.67
   2  -4  -4    5.04    3.38
  -2   4   3   52.97    5.17
  -2   4   3   50.70    4.48
  -2   4   3   52.97    5.17
  -2   4   3   50.70    4.48
   2  -4  -3   49.70    5.59
   2  -4  -3   53.40    5.07
   2  -4  -3   49.70    5.59
   2  -4  -3   53.40    5.07
  -2   4   2  114.04    5.46
  -2   4   2  123.57    5.61
  -2   4   2  114.04    5.46
  -2   4   2  123.57    5.61
   2  -4  -2  112.14    5.39
   2  -4  -2  119.08    5.38
   2  -4  -2  112.14    5.39
   2  -4  -2  119.08    5.38
  -2   4   1    1.58    1.89
  -2   4   1    1.02    2.51
  -2   4   1    3.78    2.74
  -2   4   1    1.58    1.89
  -2   4   1    1.02    2.51
  -2   4   1    3.78    2.74
   2  -4  -1    0.68    2.61
   2  -4  -1    2.55    2.59
   2  -4  -1    0.68    2.61
   2  -4  -1    2.55    2.59
  -2   4   0  235.53    5.83
  -2   4   0  216.81    6.95
  -2   4   0  224.10    6.10
  -2   4   0  232.64    5.69
  -2   4   0  232.21    6.13
  -2   4   0  230.60    6.08
  -2   4   0  235.53    5.83
  -2   4   0  216.81    6.95
  -2   4   0  224.10    6.10
  -2   4   0  232.64    5.69
  -2   4   0  232.21    6.13
  -2   4   0  230.60    6.08
   2  -4   0  223.23    5.58
   2  -4   0  223.23    5.58
  -2   4  -1  793.19    7.07
  -2   4  -1  789.58    9.34
  -2   4  -1  775.85   10.06
  -2   4  -1  760.26    9.18
  -2   4  -1  766.82    8.60
  -2   4  -1  790.85    9.62
  -2   4  -1  793.19    7.07
  -2   4  -1  789.58    9.34
  -2   4  -1  775.85   10.06
  -2   4  -1  760.26    9.18
  -2   4  -1  766.82    8.60
  -2   4  -1  790.85    9.62
  -2   4  -2   99.52    3.63
  -2   4  -2  104.99    5.43
  -2   4  -2  104.60    5.32
  -2   4  -2   94.31    4.79
  -2   4  -2  106.00    4.27
  -2   4  -2   99.80    4.71
  -2   4  -2   99.52    3.63
  -2   4  -2  104.99    5.43
  -2   4  -2  104.60    5.32
  -2   4  -2   94.31    4.79
  -2   4  -2  106.00    4.27
  -2   4  -2   99.80    4.71
  -2   4  -3  196.55    4.67
  -2   4  -3  200.82    6.72
  -2   4  -3  210.20    6.47
  -2   4  -3  214.29    5.88
  -2   4  -3  197.83    4.62
  -2   4  -3  203.21    6.03
  -2   4  -3  196.55    4.67
  -2   4  -3  200.82    6.72
  -2   4  -3  210.20    6.47
  -2   4  -3  214.29    5.88
  -2   4  -3  197.83    4.62
  -2   4  -3  203.21    6.03
  -2   4  -4   89.21    6.09
  -2   4  -4   90.14    5.37
  -2   4  -4   91.85    3.27
  -2   4  -4   95.90    5.11
  -2   4  -4   89.21    6.09
  -2   4  -4   90.14    5.37
  -2   4  -4   91.85    3.27
  -2   4  -4   95.90    5.11
  -2   4  -5   29.95    4.20
  -2   4  -5   23.35    1.62
  -2   4  -5   31.37    3.69
  -2   4  -5   29.95    4.20
  -2   4  -5   23.35    1.62
  -2   4  -5   31.37    3.69
  -2   4  -6   -0.41    3.45
  -2   4  -6   -3.44    2.96
  -2   4  -6   -0.41    3.45
  -2   4  -6   -3.44    2.96
  -2   4  -7   15.83    4.21
  -2   4  -7   11.94    3.50
  -2   4  -7   15.83    4.21
  -2   4  -7   11.94    3.50
  -2   4  -8   42.41    5.38
  -2   4  -8   43.63    4.51
  -2   4  -8   42.41    5.38
  -2   4  -8   43.63    4.51
  -2   4  -9   49.82    5.88
  -2   4  -9   50.98    6.01
  -2   4  -9   49.82    5.88
  -2   4  -9   50.98    6.01
  -2   4 -10    0.36    4.31
  -2   4 -10    3.27    3.85
  -2   4 -10    0.36    4.31
  -2   4 -10    3.27    3.85
  -2   4 -11   16.44    5.33
  -2   4 -11   18.05    4.57
  -2   4 -11   16.44    5.33
  -2   4 -11   18.05    4.57
  -2   4 -12   30.47    6.11
  -2   4 -12   28.41    5.14
  -2   4 -12   30.47    6.11
  -2   4 -12   28.41    5.14
  -2   4 -13   19.16    5.96
  -2   4 -13   12.73    5.17
  -2   4 -13   19.16    5.96
  -2   4 -13   12.73    5.17
   2  -3 -13    2.64    4.88
   2  -3 -13   -3.86    5.05
   2  -3 -13    2.64    4.88
   2  -3 -13   -3.86    5.05
   2  -3 -12   14.10    5.23
   2  -3 -12   15.95    5.73
   2  -3 -12   14.10    5.23
   2  -3 -12   15.95    5.73
   2  -3 -11   13.11    4.93
   2  -3 -11    9.51    5.07
   2  -3 -11   13.11    4.93
   2  -3 -11    9.51    5.07
   2  -3 -10   22.43    5.17
   2  -3 -10   12.12    4.90
   2  -3 -10   22.43    5.17
   2  -3 -10   12.12    4.90
  -2   3   9   11.29    4.65
  -2   3   9   11.29    4.65
   2  -3  -9   12.94    4.58
   2  -3  -9    9.71    4.51
   2  -3  -9   12.94    4.58
   2  -3  -9    9.71    4.51
  -2   3   8  176.49    8.15
  -2   3   8  176.49    8.15
   2  -3  -8  162.59    8.06
   2  -3  -8  162.59    8.06
  -2   3   7   10.04    4.03
  -2   3   7   13.46    3.82
  -2   3   7   10.04    4.03
  -2   3   7   13.46    3.82
   2  -3  -7   15.33    3.89
   2  -3  -7    8.51    3.66
   2  -3  -7   15.33    3.89
   2  -3  -7    8.51    3.66
  -2   3   6   89.96    6.40
  -2   3   6   89.92    5.88
  -2   3   6   89.96    6.40
  -2   3   6   89.92    5.88
   2  -3  -6   83.95    5.91
   2  -3  -6   77.15    6.13
   2  -3  -6   83.95    5.91
   2  -3  -6   77.15    6.13
  -2   3   5  165.52    6.25
  -2   3   5  178.39    6.51
  -2   3   5  165.52    6.25
  -2   3   5  178.39    6.51
   2  -3  -5  162.72    6.53
   2  -3  -5  166.49    6.64
   2  -3  -5  162.72    6.53
   2  -3  -5  166.49    6.64
  -2   3   4   -2.48    2.83
  -2   3   4    3.04    3.00
  -2   3   4   -2.48    2.83
  -2   3   4    3.04    3.00
   2  -3  -4    1.03    2.85
   2  -3  -4   -1.19    2.86
   2  -3  -4    1.03    2.85
   2  -3  -4   -1.19    2.86
  -2   3   3   90.79    5.09
  -2   3   3   98.21    5.00
  -2   3   3   90.79    5.09
  -2   3   3   98.21    5.00
   2  -3  -3   95.09    5.46
   2  -3  -3   92.20    4.54
   2  -3  -3   95.09    5.46
   2  -3  -3   92.20    4.54
  -2   3   2  306.81    6.56
  -2   3   2  324.45    6.84
  -2   3   2  306.81    6.56
  -2   3   2  324.45    6.84
   2  -3  -2  317.98    7.19
   2  -3  -2  299.59    6.47
   2  -3  -2  317.98    7.19
   2  -3  -2  299.59    6.47
  -2   3   1  385.87    6.66
  -2   3   1  391.28    7.03
  -2   3   1  385.87    6.66
  -2   3   1  391.28    7.03
   2  -3  -1  387.77    7.08
   2  -3  -1  378.80    6.60
   2  -3  -1  387.77    7.08
   2  -3  -1  378.80    6.60
  -2   3   0  125.92    4.59
  -2   3   0  138.08    6.12
  -2   3   0  123.43    5.25
  -2   3   0  126.03    4.64
  -2   3   0  117.17    4.73
  -2   3   0  124.65    4.98
  -2   3   0  125.92    4.59
  -2   3   0  138.08    6.12
  -2   3   0  123.43    5.25
  -2   3   0  126.03    4.64
  -2   3   0  117.17    4.73
  -2   3   0  124.65    4.98
  -2   3  -1  431.63    5.65
  -2   3  -1  422.44    7.01
  -2   3  -1  412.44    7.57
  -2   3  -1  417.76    6.93
  -2   3  -1  424.79    6.02
  -2   3  -1  426.24    6.61
  -2   3  -1  431.63    5.65
  -2   3  -1  422.44    7.01
  -2   3  -1  412.44    7.57
  -2   3  -1  417.76    6.93
  -2   3  -1  424.79    6.02
  -2   3  -1  426.24    6.61
  -2   3  -2    2.73    1.91
  -2   3  -2    1.98    2.33
  -2   3  -2    2.79    2.75
  -2   3  -2    3.70    2.39
  -2   3  -2    4.34    1.87
  -2   3  -2    4.16    2.21
  -2   3  -2    2.73    1.91
  -2   3  -2    1.98    2.33
  -2   3  -2    2.79    2.75
  -2   3  -2    3.70    2.39
  -2   3  -2    4.34    1.87
  -2   3  -2    4.16    2.21
  -2   3  -3   20.95    2.50
  -2   3  -3   19.96    3.02
  -2   3  -3   19.80    3.18
  -2   3  -3   22.82    2.30
  -2   3  -3   20.45    2.37
  -2   3  -3   21.74    2.64
  -2   3  -3   20.95    2.50
  -2   3  -3   19.96    3.02
  -2   3  -3   19.80    3.18
  -2   3  -3   22.82    2.30
  -2   3  -3   20.45    2.37
  -2   3  -3   21.74    2.64
  -2   3  -4   63.65    5.27
  -2   3  -4   75.46    4.33
  -2   3  -4   63.65    5.27
  -2   3  -4   75.46    4.33
  -2   3  -5   32.78    3.94
  -2   3  -5   44.10    4.04
  -2   3  -5   32.78    3.94
  -2   3  -5   44.10    4.04
  -2   3  -6  132.29    7.02
  -2   3  -6  143.43    5.41
  -2   3  -6  132.29    7.02
  -2   3  -6  143.43    5.41
  -2   3  -7  332.77    9.59
  -2   3  -7  357.78    7.46
  -2   3  -7  332.77    9.59
  -2   3  -7  357.78    7.46
  -2   3  -8  156.10    8.00
  -2   3  -8  174.59    6.14
  -2   3  -8  156.10    8.00
  -2   3  -8  174.59    6.14
  -2   3  -9   14.76    4.52
  -2   3  -9   10.56    3.50
  -2   3  -9   14.76    4.52
  -2   3  -9   10.56    3.50
  -2   3 -10   20.26    4.94
  -2   3 -10   18.00    3.97
  -2   3 -10   20.26    4.94
  -2   3 -10   18.00    3.97
  -2   3 -11   14.86    5.07
  -2   3 -11   22.63    4.45
  -2   3 -11   14.86    5.07
  -2   3 -11   22.63    4.45
  -2   3 -12    9.55    5.14
  -2   3 -12   16.64    4.70
  -2   3 -12    9.55    5.14
  -2   3 -12   16.64    4.70
  -2   3 -13   20.20    5.89
  -2   3 -13   29.97    5.24
  -2   3 -13   20.20    5.89
  -2   3 -13   29.97    5.24
  -2   3 -14    1.73    5.25
  -2   3 -14    5.01    4.73
  -2   3 -14    1.73    5.25
  -2   3 -14    5.01    4.73
   2  -2 -13   21.99    5.55
   2  -2 -13   24.28    6.05
   2  -2 -13   21.99    5.55
   2  -2 -13   24.28    6.05
   2  -2 -12    8.28    4.86
   2  -2 -12   11.12    5.22
   2  -2 -12    8.28    4.86
   2  -2 -12   11.12    5.22
   2  -2 -11   -0.53    4.24
   2  -2 -11    2.63    4.57
   2  -2 -11   -0.53    4.24
   2  -2 -11    2.63    4.57
   2  -2 -10    8.28    4.37
   2  -2 -10   10.32    4.61
   2  -2 -10    8.28    4.37
   2  -2 -10   10.32    4.61
  -2   2   9   32.53    5.15
  -2   2   9   32.53    5.15
   2  -2  -9   38.27    5.26
   2  -2  -9   40.03    5.32
   2  -2  -9   38.27    5.26
   2  -2  -9   40.03    5.32
  -2   2   8  130.71    7.34
  -2   2   8  130.71    7.34
   2  -2  -8  124.85    6.64
   2  -2  -8  114.49    6.96
   2  -2  -8  124.85    6.64
   2  -2  -8  114.49    6.96
  -2   2   7  391.04    9.47
  -2   2   7  391.77    8.87
  -2   2   7  391.04    9.47
  -2   2   7  391.77    8.87
   2  -2  -7  383.54    9.21
   2  -2  -7  389.94    9.30
   2  -2  -7  383.54    9.21
   2  -2  -7  389.94    9.30
  -2   2   6   95.96    6.14
  -2   2   6  101.07    5.17
  -2   2   6   95.96    6.14
  -2   2   6  101.07    5.17
   2  -2  -6   96.34    6.34
   2  -2  -6   91.51    5.93
   2  -2  -6   96.34    6.34
   2  -2  -6   91.51    5.93
  -2   2   5   41.99    5.02
  -2   2   5   41.69    4.52
  -2   2   5   41.99    5.02
  -2   2   5   41.69    4.52
   2  -2  -5   46.06    4.66
   2  -2  -5   42.95    4.92
   2  -2  -5   46.06    4.66
   2  -2  -5   42.95    4.92
  -2   2   4  126.97    5.47
  -2   2   4  127.32    5.30
  -2   2   4  126.97    5.47
  -2   2   4  127.32    5.30
   2  -2  -4  126.60    5.85
   2  -2  -4  123.38    5.37
   2  -2  -4  126.60    5.85
   2  -2  -4  123.38    5.37
  -2   2   3   19.27    2.86
  -2   2   3   21.43    3.12
  -2   2   3   19.27    2.86
  -2   2   3   21.43    3.12
   2  -2  -3   21.88    3.12
   2  -2  -3   20.78    3.14
   2  -2  -3   21.88    3.12
   2  -2  -3   20.78    3.14
  -2   2   2   94.45    4.58
  -2   2   2  100.05    4.61
  -2   2   2   94.45    4.58
  -2   2   2  100.05    4.61
   2  -2  -2   91.20    4.40
   2  -2  -2   89.56    4.38
   2  -2  -2   91.20    4.40
   2  -2  -2   89.56    4.38
  -2   2   1  252.87    5.26
  -2   2   1  250.74    5.50
  -2   2   1  252.87    5.26
  -2   2   1  250.74    5.50
   2  -2  -1  245.18    5.77
   2  -2  -1  239.31    5.11
   2  -2  -1  245.18    5.77
   2  -2  -1  239.31    5.11
  -2   2   0  165.65    4.58
  -2   2   0  167.06    5.29
  -2   2   0  155.39    4.76
  -2   2   0  160.63    4.20
  -2   2   0  169.09    4.44
  -2   2   0  161.13    4.29
  -2   2   0  165.65    4.58
  -2   2   0  167.06    5.29
  -2   2   0  155.39    4.76
  -2   2   0  160.63    4.20
  -2   2   0  169.09    4.44
  -2   2   0  161.13    4.29
   2  -2   0  165.84    4.66
   2  -2   0  165.84    4.66
  -2   2  -1  268.61    5.75
  -2   2  -1  256.27    5.71
  -2   2  -1  269.70    5.75
  -2   2  -1  281.48    4.27
  -2   2  -1  278.20    4.94
  -2   2  -1  268.61    5.75
  -2   2  -1  256.27    5.71
  -2   2  -1  269.70    5.75
  -2   2  -1  281.48    4.27
  -2   2  -1  278.20    4.94
  -2   2  -2  230.17    4.93
  -2   2  -2  230.89    5.88
  -2   2  -2  220.68    5.95
  -2   2  -2  235.96    5.23
  -2   2  -2  240.46    3.21
  -2   2  -2  239.24    4.67
  -2   2  -2  230.17    4.93
  -2   2  -2  230.89    5.88
  -2   2  -2  220.68    5.95
  -2   2  -2  235.96    5.23
  -2   2  -2  240.46    3.21
  -2   2  -2  239.24    4.67
  -2   2  -3   36.86    3.83
  -2   2  -3   27.24    3.06
  -2   2  -3   39.26    4.36
  -2   2  -3   36.11    3.22
  -2   2  -3   36.86    3.83
  -2   2  -3   27.24    3.06
  -2   2  -3   39.26    4.36
  -2   2  -3   36.11    3.22
  -2   2  -4   41.31    4.16
  -2   2  -4   41.82    4.88
  -2   2  -4   36.97    3.22
  -2   2  -4   41.31    4.16
  -2   2  -4   41.82    4.88
  -2   2  -4   36.97    3.22
  -2   2  -5   75.53    5.81
  -2   2  -5   73.06    3.53
  -2   2  -5   75.53    5.81
  -2   2  -5   73.06    3.53
  -2   2  -6    7.65    3.19
  -2   2  -6    4.24    2.31
  -2   2  -6    7.65    3.19
  -2   2  -6    4.24    2.31
  -2   2  -7  132.43    7.16
  -2   2  -7  137.24    4.99
  -2   2  -7  132.43    7.16
  -2   2  -7  137.24    4.99
  -2   2  -8  364.44    9.88
  -2   2  -8  383.25    7.42
  -2   2  -8  364.44    9.88
  -2   2  -8  383.25    7.42
  -2   2  -9   19.93    4.54
  -2   2  -9   19.86    3.41
  -2   2  -9   19.93    4.54
  -2   2  -9   19.86    3.41
  -2   2 -10   -2.59    3.94
  -2   2 -10    1.27    3.20
  -2   2 -10   -2.59    3.94
  -2   2 -10    1.27    3.20
  -2   2 -11   39.59    5.72
  -2   2 -11   51.66    5.82
  -2   2 -11   39.59    5.72
  -2   2 -11   51.66    5.82
  -2   2 -12   29.75    5.68
  -2   2 -12   32.32    4.91
  -2   2 -12   29.75    5.68
  -2   2 -12   32.32    4.91
  -2   2 -13    3.89    4.89
  -2   2 -13    6.37    4.42
  -2   2 -13    3.89    4.89
  -2   2 -13    6.37    4.42
  -2   2 -14   16.69    5.85
  -2   2 -14   18.62    5.05
  -2   2 -14   16.69    5.85
  -2   2 -14   18.62    5.05
   2  -1 -14    0.02    4.77
   2  -1 -14   -0.38    5.27
   2  -1 -14    0.02    4.77
   2  -1 -14   -0.38    5.27
   2  -1 -13   34.73    6.09
   2  -1 -13   41.01    6.54
   2  -1 -13   34.73    6.09
   2  -1 -13   41.01    6.54
   2  -1 -12   52.19    6.20
   2  -1 -12   59.38    7.25
   2  -1 -12   52.19    6.20
   2  -1 -12   59.38    7.25
   2  -1 -11   89.72    7.22
   2  -1 -11   71.37    7.08
   2  -1 -11   89.72    7.22
   2  -1 -11   71.37    7.08
   2  -1 -10   30.73    5.04
   2  -1 -10   32.53    5.24
   2  -1 -10   30.73    5.04
   2  -1 -10   32.53    5.24
  -2   1   9   -1.48    3.93
  -2   1   9   -1.48    3.93
   2  -1  -9   -0.84    3.72
   2  -1  -9    0.90    3.83
   2  -1  -9   -0.84    3.72
   2  -1  -9    0.90    3.83
  -2   1   8   19.58    4.32
  -2   1   8   19.58    4.32
   2  -1  -8   15.77    4.12
   2  -1  -8   17.23    4.20
   2  -1  -8   15.77    4.12
   2  -1  -8   17.23    4.20
  -2   1   7   13.12    3.50
  -2   1   7   15.38    3.59
  -2   1   7   13.12    3.50
  -2   1   7   15.38    3.59
   2  -1  -7   15.14    3.87
   2  -1  -7   13.51    3.52
   2  -1  -7   15.14    3.87
   2  -1  -7   13.51    3.52
  -2   1   6    3.57    3.15
  -2   1   6    1.26    2.96
  -2   1   6    3.57    3.15
  -2   1   6    1.26    2.96
   2  -1  -6    0.04    3.16
   2  -1  -6    0.94    3.04
   2  -1  -6    0.04    3.16
   2  -1  -6    0.94    3.04
  -2   1   5   89.02    5.26
  -2   1   5   93.25    4.92
  -2   1   5   89.02    5.26
  -2   1   5   93.25    4.92
   2  -1  -5   87.88    5.44
   2  -1  -5   95.84    4.76
   2  -1  -5   87.88    5.44
   2  -1  -5   95.84    4.76
  -2   1   4   22.49    2.94
  -2   1   4   18.27    3.04
  -2   1   4   22.49    2.94
  -2   1   4   18.27    3.04
   2  -1  -4   23.01    3.36
   2  -1  -4   22.96    3.19
   2  -1  -4   23.01    3.36
   2  -1  -4   22.96    3.19
  -2   1   3   55.44    4.42
  -2   1   3   60.12    4.27
  -2   1   3   55.44    4.42
  -2   1   3   60.12    4.27
   2  -1  -3   57.77    4.18
   2  -1  -3   53.09    4.22
   2  -1  -3   57.77    4.18
   2  -1  -3   53.09    4.22
  -2   1   2    3.93    2.14
  -2   1   2    4.70    2.31
  -2   1   2    3.93    2.14
  -2   1   2    4.70    2.31
   2  -1  -2    3.16    2.29
   2  -1  -2    3.88    2.07
   2  -1  -2    3.16    2.29
   2  -1  -2    3.88    2.07
  -2   1   1    0.37    1.94
  -2   1   1    1.68    2.05
  -2   1   1    0.37    1.94
  -2   1   1    1.68    2.05
   2  -1  -1    2.22    2.02
   2  -1  -1    2.22    2.02
  -2   1   0    0.60    1.82
  -2   1   0    4.57    2.75
  -2   1   0    0.59    2.30
  -2   1   0    0.46    1.68
  -2   1   0    2.18    1.91
  -2   1   0    0.60    1.82
  -2   1   0    4.57    2.75
  -2   1   0    0.59    2.30
  -2   1   0    0.46    1.68
  -2   1   0    2.18    1.91
  -2   1  -1   73.50    4.42
  -2   1  -1   72.25    4.72
  -2   1  -1   72.33    3.79
  -2   1  -1   75.10    2.20
  -2   1  -1   69.35    2.73
  -2   1  -1   73.50    4.42
  -2   1  -1   72.25    4.72
  -2   1  -1   72.33    3.79
  -2   1  -1   75.10    2.20
  -2   1  -1   69.35    2.73
  -2   1  -2  113.66    4.18
  -2   1  -2  108.86    5.03
  -2   1  -2  105.41    4.24
  -2   1  -2  116.44    2.80
  -2   1  -2  113.66    4.18
  -2   1  -2  108.86    5.03
  -2   1  -2  105.41    4.24
  -2   1  -2  116.44    2.80
  -2   1  -3   82.93    4.55
  -2   1  -3   78.17    4.81
  -2   1  -3   80.73    2.48
  -2   1  -3   82.93    4.55
  -2   1  -3   78.17    4.81
  -2   1  -3   80.73    2.48
  -2   1  -4    5.93    2.56
  -2   1  -4    6.78    2.57
  -2   1  -4    6.79    1.52
  -2   1  -4    5.93    2.56
  -2   1  -4    6.78    2.57
  -2   1  -4    6.79    1.52
  -2   1  -5   21.82    3.13
  -2   1  -5   22.87    2.58
  -2   1  -5   21.82    3.13
  -2   1  -5   22.87    2.58
  -2   1  -6   34.77    3.79
  -2   1  -6   39.12    3.15
  -2   1  -6   34.77    3.79
  -2   1  -6   39.12    3.15
  -2   1  -7  122.01    6.86
  -2   1  -7  127.11    4.33
  -2   1  -7  122.01    6.86
  -2   1  -7  127.11    4.33
  -2   1  -8    1.72    3.40
  -2   1  -8    1.46    2.57
  -2   1  -8    1.72    3.40
  -2   1  -8    1.46    2.57
  -2   1  -9    7.99    3.88
  -2   1  -9    5.95    2.84
  -2   1  -9    7.99    3.88
  -2   1  -9    5.95    2.84
  -2   1 -10   53.65    6.42
  -2   1 -10   58.70    5.34
  -2   1 -10   53.65    6.42
  -2   1 -10   58.70    5.34
  -2   1 -11    6.44    4.34
  -2   1 -11    5.36    3.44
  -2   1 -11    6.44    4.34
  -2   1 -11    5.36    3.44
  -2   1 -12   31.13    5.45
  -2   1 -12   33.99    4.83
  -2   1 -12   31.13    5.45
  -2   1 -12   33.99    4.83
  -2   1 -13   59.64    6.68
  -2   1 -13   66.40    6.19
  -2   1 -13   59.64    6.68
  -2   1 -13   66.40    6.19
  -2   1 -14   34.70    6.23
  -2   1 -14   35.94    5.58
  -2   1 -14   34.70    6.23
  -2   1 -14   35.94    5.58
   2   0 -14    0.43    3.93
   2   0 -14    3.35    4.84
   2   0 -14    8.63    5.52
   2   0 -14    0.43    3.93
   2   0 -14    3.35    4.84
   2   0 -14    8.63    5.52
   2   0 -13    9.05    4.18
   2   0 -13    0.27    4.57
   2   0 -13    9.18    5.17
   2   0 -13    9.05    4.18
   2   0 -13    0.27    4.57
   2   0 -13    9.18    5.17
   2   0 -12    2.32    4.67
   2   0 -12    4.57    4.87
   2   0 -12    2.32    4.67
   2   0 -12    4.57    4.87
   2   0 -11   51.45    5.85
   2   0 -11   56.08    6.82
   2   0 -11   51.45    5.85
   2   0 -11   56.08    6.82
   2   0 -10   84.87    6.81
   2   0 -10   83.59    6.96
   2   0 -10   84.87    6.81
   2   0 -10   83.59    6.96
  -2   0   9    4.51    4.03
  -2   0   9    4.51    4.03
   2   0  -9   -0.33    3.75
   2   0  -9    3.89    3.95
   2   0  -9   -0.33    3.75
   2   0  -9    3.89    3.95
  -2   0   8   96.51    6.73
  -2   0   8   96.51    6.73
   2   0  -8   96.62    6.59
   2   0  -8   87.55    6.31
   2   0  -8   96.62    6.59
   2   0  -8   87.55    6.31
  -2   0   7  237.53    7.63
  -2   0   7  244.14    7.03
  -2   0   7  237.53    7.63
  -2   0   7  244.14    7.03
   2   0  -7  235.51    7.82
   2   0  -7  225.52    7.45
   2   0  -7  235.51    7.82
   2   0  -7  225.52    7.45
  -2   0   6  139.80    6.21
  -2   0   6  141.34    5.71
  -2   0   6  139.80    6.21
  -2   0   6  141.34    5.71
   2   0  -6  129.52    5.69
   2   0  -6  139.77    5.96
   2   0  -6  129.52    5.69
   2   0  -6  139.77    5.96
  -2   0   5   55.20    4.79
  -2   0   5   58.69    4.44
  -2   0   5   55.20    4.79
  -2   0   5   58.69    4.44
   2   0  -5   52.71    4.91
   2   0  -5   54.18    4.62
   2   0  -5   52.71    4.91
   2   0  -5   54.18    4.62
  -2   0   4  127.48    5.26
  -2   0   4  121.51    4.90
  -2   0   4  127.48    5.26
  -2   0   4  121.51    4.90
   2   0  -4  124.57    4.99
   2   0  -4  123.83    5.11
   2   0  -4  124.57    4.99
   2   0  -4  123.83    5.11
  -2   0   3    4.56    2.23
  -2   0   3    7.25    2.51
  -2   0   3    4.56    2.23
  -2   0   3    7.25    2.51
   2   0  -3    5.48    2.39
   2   0  -3    4.39    2.48
   2   0  -3    5.48    2.39
   2   0  -3    4.39    2.48
  -2   0   2    9.91    2.32
  -2   0   2    9.15    2.35
  -2   0   2    9.91    2.32
  -2   0   2    9.15    2.35
   2   0  -2    8.52    2.30
   2   0  -2   11.91    2.37
   2   0  -2    8.52    2.30
   2   0  -2   11.91    2.37
  -2   0   1   46.27    3.37
  -2   0   1   54.70    3.36
  -2   0   1   46.27    3.37
  -2   0   1   54.70    3.36
   2   0  -1   55.13    3.84
   2   0  -1   55.13    3.84
  -2   0   0  330.75    5.61
  -2   0   0  342.43    4.05
  -2   0   0  343.27    4.38
  -2   0   0  330.75    5.61
  -2   0   0  342.43    4.05
  -2   0   0  343.27    4.38
  -2   0  -1  224.18    4.98
  -2   0  -1  217.91    5.48
  -2   0  -1  211.99    5.42
  -2   0  -1  226.39    2.85
  -2   0  -1  225.58    2.80
  -2   0  -1  224.18    4.98
  -2   0  -1  217.91    5.48
  -2   0  -1  211.99    5.42
  -2   0  -1  226.39    2.85
  -2   0  -1  225.58    2.80
  -2   0  -2 1289.21    9.14
  -2   0  -2 1274.58    9.65
  -2   0  -2 1285.71    9.49
  -2   0  -2 1211.17    9.15
  -2   0  -2 1289.21    9.14
  -2   0  -2 1274.58    9.65
  -2   0  -2 1285.71    9.49
  -2   0  -2 1211.17    9.15
  -2   0  -3  436.89    6.69
  -2   0  -3  439.16    7.00
  -2   0  -3  471.89    6.83
  -2   0  -3  436.89    6.69
  -2   0  -3  439.16    7.00
  -2   0  -3  471.89    6.83
  -2   0  -4   -0.59    2.63
  -2   0  -4    1.64    2.31
  -2   0  -4    0.40    2.77
  -2   0  -4   -0.59    2.63
  -2   0  -4    1.64    2.31
  -2   0  -4    0.40    2.77
  -2   0  -5  143.86    5.68
  -2   0  -5  143.86    5.68
  -2   0  -6   37.33    3.65
  -2   0  -6   36.37    2.73
  -2   0  -6   37.33    3.65
  -2   0  -6   36.37    2.73
  -2   0  -7    3.95    2.97
  -2   0  -7    3.65    1.61
  -2   0  -7    3.77    2.17
  -2   0  -7    3.95    2.97
  -2   0  -7    3.65    1.61
  -2   0  -7    3.77    2.17
  -2   0  -8   35.99    4.26
  -2   0  -8   39.28    3.18
  -2   0  -8   35.72    3.93
  -2   0  -8   35.99    4.26
  -2   0  -8   39.28    3.18
  -2   0  -8   35.72    3.93
  -2   0  -9   42.43    4.79
  -2   0  -9   43.10    3.45
  -2   0  -9   37.66    4.48
  -2   0  -9   42.43    4.79
  -2   0  -9   43.10    3.45
  -2   0  -9   37.66    4.48
  -2   0 -10   -2.76    3.49
  -2   0 -10    0.80    2.18
  -2   0 -10    3.65    3.20
  -2   0 -10   -2.76    3.49
  -2   0 -10    0.80    2.18
  -2   0 -10    3.65    3.20
  -2   0 -11   18.08    4.53
  -2   0 -11   14.45    2.48
  -2   0 -11   21.31    3.89
  -2   0 -11   18.08    4.53
  -2   0 -11   14.45    2.48
  -2   0 -11   21.31    3.89
  -2   0 -12    0.67    4.09
  -2   0 -12    4.22    3.67
  -2   0 -12    0.67    4.09
  -2   0 -12    4.22    3.67
  -2   0 -13   24.17    5.26
  -2   0 -13   25.87    4.95
  -2   0 -13   24.17    5.26
  -2   0 -13   25.87    4.95
  -2   0 -14   12.54    4.88
  -2   0 -14   14.42    4.87
  -2   0 -14   12.54    4.88
  -2   0 -14   14.42    4.87
  -2   0 -15   16.36    4.96
  -2   0 -15   10.99    4.96
  -2   0 -15   16.36    4.96
  -2   0 -15   10.99    4.96
   2   1 -14   -0.80    3.86
   2   1 -14    4.29    5.05
   2   1 -14    2.11    5.30
   2   1 -14   -0.80    3.86
   2   1 -14    4.29    5.05
   2   1 -14    2.11    5.30
   2   1 -13   16.06    4.94
   2   1 -13   23.35    4.44
   2   1 -13   25.65    5.64
   2   1 -13   25.49    5.85
   2   1 -13   16.06    4.94
   2   1 -13   23.35    4.44
   2   1 -13   25.65    5.64
   2   1 -13   25.49    5.85
   2   1 -12   69.10    6.16
   2   1 -12   68.16    7.42
   2   1 -12   63.05    7.20
   2   1 -12   69.10    6.16
   2   1 -12   68.16    7.42
   2   1 -12   63.05    7.20
   2   1 -11   50.77    6.30
   2   1 -11   47.84    5.88
   2   1 -11   50.77    6.30
   2   1 -11   47.84    5.88
   2   1 -10    2.20    3.97
   2   1 -10    1.97    4.15
   2   1 -10    2.20    3.97
   2   1 -10    1.97    4.15
   2   1  -9   37.16    4.94
   2   1  -9   36.88    4.96
   2   1  -9   37.16    4.94
   2   1  -9   36.88    4.96
  -2  -1   8   18.89    4.13
  -2  -1   8   18.89    4.13
   2   1  -8   12.09    3.89
   2   1  -8   15.64    4.05
   2   1  -8   12.09    3.89
   2   1  -8   15.64    4.05
  -2  -1   7  221.62    7.52
  -2  -1   7  219.04    6.69
  -2  -1   7  221.62    7.52
  -2  -1   7  219.04    6.69
   2   1  -7  219.67    7.49
   2   1  -7  215.42    7.30
   2   1  -7  219.67    7.49
   2   1  -7  215.42    7.30
  -2  -1   6  296.90    7.58
  -2  -1   6  303.95    7.07
  -2  -1   6  296.90    7.58
  -2  -1   6  303.95    7.07
   2   1  -6  283.70    7.65
   2   1  -6  284.84    7.39
   2   1  -6  283.70    7.65
   2   1  -6  284.84    7.39
  -2  -1   5    8.97    2.90
  -2  -1   5    7.36    2.69
  -2  -1   5    8.97    2.90
  -2  -1   5    7.36    2.69
   2   1  -5   10.99    2.81
   2   1  -5    8.07    2.77
   2   1  -5   10.99    2.81
   2   1  -5    8.07    2.77
  -2  -1   4  116.87    4.67
  -2  -1   4  119.20    4.81
  -2  -1   4  116.87    4.67
  -2  -1   4  119.20    4.81
   2   1  -4  122.69    4.90
   2   1  -4  108.86    4.88
   2   1  -4  122.69    4.90
   2   1  -4  108.86    4.88
  -2  -1   3 1936.93   12.58
  -2  -1   3 1918.64   12.39
  -2  -1   3 1936.93   12.58
  -2  -1   3 1918.64   12.39
   2   1  -3 1910.19   12.94
   2   1  -3 1892.47   12.34
   2   1  -3 1910.19   12.94
   2   1  -3 1892.47   12.34
  -2  -1   2  419.71    6.08
  -2  -1   2  420.05    5.78
  -2  -1   2  419.71    6.08
  -2  -1   2  420.05    5.78
   2   1  -2  419.10    6.45
   2   1  -2  420.04    5.99
   2   1  -2  419.10    6.45
   2   1  -2  420.04    5.99
  -2  -1   1   88.22    4.41
  -2  -1   1   69.25    3.55
  -2  -1   1   68.47    3.49
  -2  -1   1   88.22    4.41
  -2  -1   1   69.25    3.55
  -2  -1   1   68.47    3.49
   2   1  -1   70.59    3.95
   2   1  -1   70.59    3.95
  -2  -1   0    9.04    2.35
  -2  -1   0    6.19    2.37
  -2  -1   0    8.42    1.67
  -2  -1   0    9.23    1.84
  -2  -1   0    9.04    2.35
  -2  -1   0    6.19    2.37
  -2  -1   0    8.42    1.67
  -2  -1   0    9.23    1.84
  -2  -1  -1   37.50    3.83
  -2  -1  -1   37.17    3.42
  -2  -1  -1   36.10    1.99
  -2  -1  -1   37.50    3.83
  -2  -1  -1   37.17    3.42
  -2  -1  -1   36.10    1.99
  -2  -1  -2  192.52    4.58
  -2  -1  -2  203.00    4.88
  -2  -1  -2  192.52    4.58
  -2  -1  -2  203.00    4.88
  -2  -1  -3   96.92    4.66
  -2  -1  -3  104.24    4.38
  -2  -1  -3   89.30    4.26
  -2  -1  -3   96.92    4.66
  -2  -1  -3  104.24    4.38
  -2  -1  -3   89.30    4.26
  -2  -1  -4  262.87    6.35
  -2  -1  -4  262.08    5.77
  -2  -1  -4  251.87    5.61
  -2  -1  -4  262.87    6.35
  -2  -1  -4  262.08    5.77
  -2  -1  -4  251.87    5.61
  -2  -1  -5  219.02    6.04
  -2  -1  -5  218.15    2.46
  -2  -1  -5  213.97    3.36
  -2  -1  -5  191.58    5.56
  -2  -1  -5  219.02    6.04
  -2  -1  -5  218.15    2.46
  -2  -1  -5  213.97    3.36
  -2  -1  -5  191.58    5.56
  -2  -1  -6    7.98    2.59
  -2  -1  -6    7.63    1.48
  -2  -1  -6    9.04    1.88
  -2  -1  -6   11.03    2.80
  -2  -1  -6    7.98    2.59
  -2  -1  -6    7.63    1.48
  -2  -1  -6    9.04    1.88
  -2  -1  -6   11.03    2.80
  -2  -1  -7   33.71    3.57
  -2  -1  -7   37.08    2.83
  -2  -1  -7   40.16    3.61
  -2  -1  -7   39.34    4.67
  -2  -1  -7   33.71    3.57
  -2  -1  -7   37.08    2.83
  -2  -1  -7   40.16    3.61
  -2  -1  -7   39.34    4.67
  -2  -1  -8    0.11    2.88
  -2  -1  -8    1.87    1.90
  -2  -1  -8    2.66    2.51
  -2  -1  -8    0.11    2.88
  -2  -1  -8    1.87    1.90
  -2  -1  -8    2.66    2.51
  -2  -1  -9    1.37    3.20
  -2  -1  -9    0.57    2.10
  -2  -1  -9    2.12    2.88
  -2  -1  -9    1.37    3.20
  -2  -1  -9    0.57    2.10
  -2  -1  -9    2.12    2.88
  -2  -1 -10    7.47    3.59
  -2  -1 -10    7.68    2.45
  -2  -1 -10    8.83    3.36
  -2  -1 -10    7.47    3.59
  -2  -1 -10    7.68    2.45
  -2  -1 -10    8.83    3.36
  -2  -1 -11    4.22    3.76
  -2  -1 -11    5.38    2.51
  -2  -1 -11    3.27    3.42
  -2  -1 -11    4.22    3.76
  -2  -1 -11    5.38    2.51
  -2  -1 -11    3.27    3.42
  -2  -1 -12   19.17    4.53
  -2  -1 -12    8.79    2.50
  -2  -1 -12    7.65    4.10
  -2  -1 -12   19.17    4.53
  -2  -1 -12    8.79    2.50
  -2  -1 -12    7.65    4.10
  -2  -1 -13    1.06    3.66
  -2  -1 -13    4.64    4.03
  -2  -1 -13    1.06    3.66
  -2  -1 -13    4.64    4.03
  -2  -1 -14    1.10    4.25
  -2  -1 -14    1.10    4.25
  -2  -1 -15    8.33    4.76
  -2  -1 -15    8.33    4.76
   2   2 -14    2.62    4.94
   2   2 -14    6.53    3.77
   2   2 -14   10.06    5.34
   2   2 -14    4.41    5.76
   2   2 -14    2.62    4.94
   2   2 -14    6.53    3.77
   2   2 -14   10.06    5.34
   2   2 -14    4.41    5.76
   2   2 -13   -0.70    4.81
   2   2 -13    2.83    3.81
   2   2 -13    0.61    4.57
   2   2 -13    6.25    5.17
   2   2 -13   -0.70    4.81
   2   2 -13    2.83    3.81
   2   2 -13    0.61    4.57
   2   2 -13    6.25    5.17
   2   2 -12   -0.79    3.72
   2   2 -12    2.57    4.38
   2   2 -12    2.54    4.73
   2   2 -12   -0.79    3.72
   2   2 -12    2.57    4.38
   2   2 -12    2.54    4.73
   2   2 -11   57.06    5.66
   2   2 -11   71.89    6.74
   2   2 -11   65.74    6.97
   2   2 -11   57.06    5.66
   2   2 -11   71.89    6.74
   2   2 -11   65.74    6.97
   2   2 -10   47.85    5.43
   2   2 -10   41.76    5.31
   2   2 -10   43.12    5.39
   2   2 -10   47.85    5.43
   2   2 -10   41.76    5.31
   2   2 -10   43.12    5.39
   2   2  -9   34.80    4.88
   2   2  -9   36.88    5.04
   2   2  -9   34.80    4.88
   2   2  -9   36.88    5.04
  -2  -2   8   15.84    4.11
  -2  -2   8   15.84    4.11
   2   2  -8   20.48    4.12
   2   2  -8   15.91    4.02
   2   2  -8   20.48    4.12
   2   2  -8   15.91    4.02
  -2  -2   7   24.65    4.04
  -2  -2   7   24.65    4.04
   2   2  -7   23.67    4.04
   2   2  -7   22.03    3.93
   2   2  -7   23.67    4.04
   2   2  -7   22.03    3.93
  -2  -2   6    1.95    3.03
  -2  -2   6    1.00    2.67
  -2  -2   6    1.95    3.03
  -2  -2   6    1.00    2.67
   2   2  -6    1.24    2.76
   2   2  -6   -1.58    2.65
   2   2  -6    1.24    2.76
   2   2  -6   -1.58    2.65
  -2  -2   5    1.69    2.67
  -2  -2   5    0.98    2.55
  -2  -2   5    1.69    2.67
  -2  -2   5    0.98    2.55
   2   2  -5   -0.47    2.50
   2   2  -5   -0.94    2.65
   2   2  -5   -0.47    2.50
   2   2  -5   -0.94    2.65
  -2  -2   4  411.81    7.37
  -2  -2   4  392.05    6.96
  -2  -2   4  411.81    7.37
  -2  -2   4  392.05    6.96
   2   2  -4  407.12    7.34
   2   2  -4  399.84    7.38
   2   2  -4  407.12    7.34
   2   2  -4  399.84    7.38
  -2  -2   3   43.11    3.81
  -2  -2   3   47.59    3.99
  -2  -2   3   43.11    3.81
  -2  -2   3   47.59    3.99
   2   2  -3   44.21    4.69
   2   2  -3   39.68    3.81
   2   2  -3   44.21    4.69
   2   2  -3   39.68    3.81
  -2  -2   2   88.40    4.30
  -2  -2   2   87.60    4.06
  -2  -2   2   88.40    4.30
  -2  -2   2   87.60    4.06
   2   2  -2   90.84    4.52
   2   2  -2   86.08    4.16
   2   2  -2   90.84    4.52
   2   2  -2   86.08    4.16
  -2  -2   1  297.12    4.07
  -2  -2   1  307.28    4.46
  -2  -2   1  319.21    5.25
  -2  -2   1  313.19    5.18
  -2  -2   1  297.12    4.07
  -2  -2   1  307.28    4.46
  -2  -2   1  319.21    5.25
  -2  -2   1  313.19    5.18
   2   2  -1  315.07    5.60
   2   2  -1  314.97    5.14
   2   2  -1  315.07    5.60
   2   2  -1  314.97    5.14
  -2  -2   0  272.30    4.13
  -2  -2   0  274.71    4.27
  -2  -2   0  285.79    4.52
  -2  -2   0  273.34    4.43
  -2  -2   0  272.30    4.13
  -2  -2   0  274.71    4.27
  -2  -2   0  285.79    4.52
  -2  -2   0  273.34    4.43
  -2  -2  -1    2.37    2.04
  -2  -2  -1    4.73    1.73
  -2  -2  -1    2.37    2.04
  -2  -2  -1    4.73    1.73
  -2  -2  -2  124.28    4.51
  -2  -2  -2  114.94    2.85
  -2  -2  -2  124.28    4.51
  -2  -2  -2  114.94    2.85
  -2  -2  -3  180.01    5.34
  -2  -2  -3  185.09    4.65
  -2  -2  -3  190.55    3.00
  -2  -2  -3  185.42    3.08
  -2  -2  -3  180.01    5.34
  -2  -2  -3  185.09    4.65
  -2  -2  -3  190.55    3.00
  -2  -2  -3  185.42    3.08
  -2  -2  -4   76.37    4.97
  -2  -2  -4   69.05    4.25
  -2  -2  -4   69.87    2.71
  -2  -2  -4   70.98    2.79
  -2  -2  -4   58.05    4.37
  -2  -2  -4   76.37    4.97
  -2  -2  -4   69.05    4.25
  -2  -2  -4   69.87    2.71
  -2  -2  -4   70.98    2.79
  -2  -2  -4   58.05    4.37
  -2  -2  -5  208.83    5.47
  -2  -2  -5  217.92    3.79
  -2  -2  -5  209.75    4.08
  -2  -2  -5  193.26    5.63
  -2  -2  -5  208.83    5.47
  -2  -2  -5  217.92    3.79
  -2  -2  -5  209.75    4.08
  -2  -2  -5  193.26    5.63
  -2  -2  -6    3.99    2.29
  -2  -2  -6    1.37    1.68
  -2  -2  -6    2.93    1.96
  -2  -2  -6    2.35    2.47
  -2  -2  -6    3.99    2.29
  -2  -2  -6    1.37    1.68
  -2  -2  -6    2.93    1.96
  -2  -2  -6    2.35    2.47
  -2  -2  -7   33.41    3.34
  -2  -2  -7   33.56    3.25
  -2  -2  -7   30.78    2.95
  -2  -2  -7   35.51    3.64
  -2  -2  -7   33.41    3.34
  -2  -2  -7   33.56    3.25
  -2  -2  -7   30.78    2.95
  -2  -2  -7   35.51    3.64
  -2  -2  -8  180.96    6.65
  -2  -2  -8  183.82    4.82
  -2  -2  -8  180.30    5.67
  -2  -2  -8  177.89    6.26
  -2  -2  -8  180.96    6.65
  -2  -2  -8  183.82    4.82
  -2  -2  -8  180.30    5.67
  -2  -2  -8  177.89    6.26
  -2  -2  -9   46.56    4.28
  -2  -2  -9   54.24    4.04
  -2  -2  -9   46.53    4.88
  -2  -2  -9   46.56    4.28
  -2  -2  -9   54.24    4.04
  -2  -2  -9   46.53    4.88
  -2  -2 -10   78.51    6.03
  -2  -2 -10   77.98    4.47
  -2  -2 -10   78.60    5.39
  -2  -2 -10   78.51    6.03
  -2  -2 -10   77.98    4.47
  -2  -2 -10   78.60    5.39
  -2  -2 -11   95.21    6.30
  -2  -2 -11  196.28    5.84
  -2  -2 -11   95.21    6.30
  -2  -2 -11  196.28    5.84
  -2  -2 -12   82.87    6.24
  -2  -2 -12   75.08    4.62
  -2  -2 -12  121.20    6.85
  -2  -2 -12   82.87    6.24
  -2  -2 -12   75.08    4.62
  -2  -2 -12  121.20    6.85
  -2  -2 -13    0.65    4.06
  -2  -2 -13    0.65    4.06
  -2  -2 -14    2.05    4.29
  -2  -2 -14    2.05    4.29
  -2  -2 -15    9.85    4.95
  -2  -2 -15    9.85    4.95
   2   3 -13   46.47    6.98
   2   3 -13   57.37    5.57
   2   3 -13   60.57    7.02
   2   3 -13   53.47    7.18
   2   3 -13   46.47    6.98
   2   3 -13   57.37    5.57
   2   3 -13   60.57    7.02
   2   3 -13   53.47    7.18
   2   3 -12   61.51    5.86
   2   3 -12   59.59    6.78
   2   3 -12   55.48    6.66
   2   3 -12   61.51    5.86
   2   3 -12   59.59    6.78
   2   3 -12   55.48    6.66
   2   3 -11   54.37    5.91
   2   3 -11   51.61    5.93
   2   3 -11   51.72    6.31
   2   3 -11   54.37    5.91
   2   3 -11   51.61    5.93
   2   3 -11   51.72    6.31
   2   3 -10   -0.38    3.44
   2   3 -10   -0.67    3.92
   2   3 -10    5.81    4.33
   2   3 -10   -0.38    3.44
   2   3 -10   -0.67    3.92
   2   3 -10    5.81    4.33
   2   3  -9   48.50    5.46
   2   3  -9   51.14    6.23
   2   3  -9   49.00    5.47
   2   3  -9   48.50    5.46
   2   3  -9   51.14    6.23
   2   3  -9   49.00    5.47
  -2  -3   8   60.66    5.76
  -2  -3   8   60.66    5.76
   2   3  -8   53.59    5.03
   2   3  -8   56.96    6.07
   2   3  -8   60.87    6.12
   2   3  -8   53.59    5.03
   2   3  -8   56.96    6.07
   2   3  -8   60.87    6.12
  -2  -3   7    0.89    3.51
  -2  -3   7    0.89    3.51
   2   3  -7   -0.38    3.09
   2   3  -7    2.17    3.48
   2   3  -7    2.72    3.53
   2   3  -7   -0.38    3.09
   2   3  -7    2.17    3.48
   2   3  -7    2.72    3.53
  -2  -3   6    4.21    3.18
  -2  -3   6    2.10    2.88
  -2  -3   6    4.21    3.18
  -2  -3   6    2.10    2.88
   2   3  -6    0.97    2.79
   2   3  -6    1.58    3.18
   2   3  -6    0.41    3.12
   2   3  -6    0.97    2.79
   2   3  -6    1.58    3.18
   2   3  -6    0.41    3.12
  -2  -3   5    2.95    2.64
  -2  -3   5    4.45    2.75
  -2  -3   5    2.95    2.64
  -2  -3   5    4.45    2.75
   2   3  -5    2.63    2.93
   2   3  -5    3.41    2.65
   2   3  -5    2.63    2.93
   2   3  -5    3.41    2.65
  -2  -3   4   64.51    4.88
  -2  -3   4   71.43    4.38
  -2  -3   4   64.51    4.88
  -2  -3   4   71.43    4.38
   2   3  -4   71.16    5.04
   2   3  -4   75.91    4.35
   2   3  -4   71.16    5.04
   2   3  -4   75.91    4.35
  -2  -3   3  488.14    7.69
  -2  -3   3  466.40    7.30
  -2  -3   3  488.14    7.69
  -2  -3   3  466.40    7.30
   2   3  -3  469.28    7.57
   2   3  -3  481.13    7.70
   2   3  -3  469.28    7.57
   2   3  -3  481.13    7.70
  -2  -3   2   80.22    2.37
  -2  -3   2   86.17    4.61
  -2  -3   2   83.66    4.21
  -2  -3   2   80.22    2.37
  -2  -3   2   86.17    4.61
  -2  -3   2   83.66    4.21
   2   3  -2   91.52    4.48
   2   3  -2   89.89    4.25
   2   3  -2   91.52    4.48
   2   3  -2   89.89    4.25
  -2  -3   1    5.40    1.55
  -2  -3   1    5.18    2.31
  -2  -3   1    7.60    2.34
  -2  -3   1    5.40    1.55
  -2  -3   1    5.18    2.31
  -2  -3   1    7.60    2.34
   2   3  -1    5.70    2.09
   2   3  -1    6.69    2.29
   2   3  -1    5.57    2.16
   2   3  -1    5.70    2.09
   2   3  -1    6.69    2.29
   2   3  -1    5.57    2.16
  -2  -3   0   93.77    3.00
  -2  -3   0   98.28    3.85
  -2  -3   0   97.23    3.93
  -2  -3   0   93.77    3.00
  -2  -3   0   98.28    3.85
  -2  -3   0   97.23    3.93
   2   3   0  103.73    3.95
   2   3   0   92.95    4.35
   2   3   0   94.10    3.81
   2   3   0  103.73    3.95
   2   3   0   92.95    4.35
   2   3   0   94.10    3.81
  -2  -3  -1    9.29    2.12
  -2  -3  -1    9.93    2.09
  -2  -3  -1    9.29    2.12
  -2  -3  -1    9.93    2.09
   2   3   1    6.38    2.20
   2   3   1    6.38    2.20
  -2  -3  -2  545.18    6.56
  -2  -3  -2  544.85    5.82
  -2  -3  -2  545.18    6.56
  -2  -3  -2  544.85    5.82
  -2  -3  -3  955.95    8.85
  -2  -3  -3  994.97    7.66
  -2  -3  -3  955.95    8.85
  -2  -3  -3  994.97    7.66
  -2  -3  -4  598.49    6.56
  -2  -3  -4  606.17    6.38
  -2  -3  -4  589.80    6.40
  -2  -3  -4  598.49    6.56
  -2  -3  -4  606.17    6.38
  -2  -3  -4  589.80    6.40
  -2  -3  -5   30.61    3.52
  -2  -3  -5   27.29    1.89
  -2  -3  -5   32.22    3.35
  -2  -3  -5   25.89    3.15
  -2  -3  -5   22.55    2.98
  -2  -3  -5   30.61    3.52
  -2  -3  -5   27.29    1.89
  -2  -3  -5   32.22    3.35
  -2  -3  -5   25.89    3.15
  -2  -3  -5   22.55    2.98
  -2  -3  -6   68.66    4.22
  -2  -3  -6   67.68    1.84
  -2  -3  -6   64.01    3.80
  -2  -3  -6   65.74    3.85
  -2  -3  -6   59.20    4.48
  -2  -3  -6   68.66    4.22
  -2  -3  -6   67.68    1.84
  -2  -3  -6   64.01    3.80
  -2  -3  -6   65.74    3.85
  -2  -3  -6   59.20    4.48
  -2  -3  -7   67.54    4.64
  -2  -3  -7   53.01    4.03
  -2  -3  -7   60.60    4.51
  -2  -3  -7   54.84    4.82
  -2  -3  -7   67.54    4.64
  -2  -3  -7   53.01    4.03
  -2  -3  -7   60.60    4.51
  -2  -3  -7   54.84    4.82
  -2  -3  -8    2.87    2.52
  -2  -3  -8    1.21    2.32
  -2  -3  -8   -2.47    2.74
  -2  -3  -8    2.32    3.05
  -2  -3  -8    2.87    2.52
  -2  -3  -8    1.21    2.32
  -2  -3  -8   -2.47    2.74
  -2  -3  -8    2.32    3.05
  -2  -3  -9   46.16    5.09
  -2  -3  -9   48.94    4.41
  -2  -3  -9   45.77    4.90
  -2  -3  -9   40.48    4.34
  -2  -3  -9   46.16    5.09
  -2  -3  -9   48.94    4.41
  -2  -3  -9   45.77    4.90
  -2  -3  -9   40.48    4.34
  -2  -3 -10    3.29    2.52
  -2  -3 -10    6.99    2.86
  -2  -3 -10    6.25    3.52
  -2  -3 -10    3.29    2.52
  -2  -3 -10    6.99    2.86
  -2  -3 -10    6.25    3.52
  -2  -3 -11  101.84    5.29
  -2  -3 -11  101.84    5.29
  -2  -3 -12  303.24    7.31
  -2  -3 -12  303.24    7.31
  -2  -3 -13   63.44    4.96
  -2  -3 -13   63.44    4.96
  -2  -3 -14   12.82    4.92
  -2  -3 -14   12.82    4.92
  -2  -3 -15    9.52    5.06
  -2  -3 -15    9.52    5.06
   2   4 -13   -7.11    5.22
   2   4 -13    4.62    3.91
   2   4 -13    9.38    5.17
   2   4 -13    0.49    5.54
   2   4 -13   -7.11    5.22
   2   4 -13    4.62    3.91
   2   4 -13    9.38    5.17
   2   4 -13    0.49    5.54
   2   4 -12   19.59    4.28
   2   4 -12   21.42    5.46
   2   4 -12   20.13    5.90
   2   4 -12   19.59    4.28
   2   4 -12   21.42    5.46
   2   4 -12   20.13    5.90
   2   4 -11    3.49    3.96
   2   4 -11    7.17    4.60
   2   4 -11   10.69    5.04
   2   4 -11    3.49    3.96
   2   4 -11    7.17    4.60
   2   4 -11   10.69    5.04
   2   4 -10    2.02    3.79
   2   4 -10    3.50    4.23
   2   4 -10   -0.25    4.40
   2   4 -10    2.02    3.79
   2   4 -10    3.50    4.23
   2   4 -10   -0.25    4.40
   2   4  -9   30.69    4.38
   2   4  -9   32.69    5.07
   2   4  -9   33.43    5.28
   2   4  -9   30.69    4.38
   2   4  -9   32.69    5.07
   2   4  -9   33.43    5.28
   2   4  -8  107.88    6.26
   2   4  -8   98.17    6.86
   2   4  -8  106.65    7.08
   2   4  -8  107.88    6.26
   2   4  -8   98.17    6.86
   2   4  -8  106.65    7.08
  -2  -4   7   21.06    4.25
  -2  -4   7   21.06    4.25
   2   4  -7   23.73    3.74
   2   4  -7   19.03    4.17
   2   4  -7   19.73    4.17
   2   4  -7   23.73    3.74
   2   4  -7   19.03    4.17
   2   4  -7   19.73    4.17
  -2  -4   6    2.26    3.35
  -2  -4   6   -1.84    2.93
  -2  -4   6    2.26    3.35
  -2  -4   6   -1.84    2.93
   2   4  -6   -1.54    2.93
   2   4  -6    3.75    3.43
   2   4  -6    2.53    3.42
   2   4  -6   -1.54    2.93
   2   4  -6    3.75    3.43
   2   4  -6    2.53    3.42
  -2  -4   5   15.29    3.24
  -2  -4   5   17.60    3.34
  -2  -4   5   15.29    3.24
  -2  -4   5   17.60    3.34
   2   4  -5   14.46    3.19
   2   4  -5   21.34    3.72
   2   4  -5   15.63    3.55
   2   4  -5   14.46    3.19
   2   4  -5   21.34    3.72
   2   4  -5   15.63    3.55
  -2  -4   4    2.88    2.84
  -2  -4   4   -0.48    2.54
  -2  -4   4    2.88    2.84
  -2  -4   4   -0.48    2.54
   2   4  -4   -0.05    2.57
   2   4  -4    1.39    2.89
   2   4  -4   -1.80    2.75
   2   4  -4   -0.05    2.57
   2   4  -4    1.39    2.89
   2   4  -4   -1.80    2.75
  -2  -4   3   -2.49    2.54
  -2  -4   3    1.09    2.56
  -2  -4   3   -2.49    2.54
  -2  -4   3    1.09    2.56
   2   4  -3    0.75    2.25
   2   4  -3   -0.54    2.70
   2   4  -3   -0.01    2.67
   2   4  -3    0.75    2.25
   2   4  -3   -0.54    2.70
   2   4  -3   -0.01    2.67
  -2  -4   2   17.09    2.77
  -2  -4   2   19.58    2.99
  -2  -4   2   17.09    2.77
  -2  -4   2   19.58    2.99
   2   4  -2   18.44    2.93
   2   4  -2   18.18    2.91
   2   4  -2   23.20    3.22
   2   4  -2   18.44    2.93
   2   4  -2   18.18    2.91
   2   4  -2   23.20    3.22
  -2  -4   1    4.06    2.68
  -2  -4   1    4.11    2.31
  -2  -4   1    4.06    2.68
  -2  -4   1    4.11    2.31
   2   4  -1    5.28    2.55
   2   4  -1    6.07    2.55
   2   4  -1    6.44    2.73
   2   4  -1    5.28    2.55
   2   4  -1    6.07    2.55
   2   4  -1    6.44    2.73
  -2  -4   0    1.25    2.45
  -2  -4   0    2.82    2.48
  -2  -4   0    1.25    2.45
  -2  -4   0    2.82    2.48
   2   4   0    4.17    2.27
   2   4   0    7.17    2.75
   2   4   0    5.35    2.67
   2   4   0    4.17    2.27
   2   4   0    7.17    2.75
   2   4   0    5.35    2.67
  -2  -4  -1   32.52    3.17
  -2  -4  -1   34.23    3.71
  -2  -4  -1   32.52    3.17
  -2  -4  -1   34.23    3.71
   2   4   1   31.55    3.69
   2   4   1   33.76    3.50
   2   4   1   31.55    3.69
   2   4   1   33.76    3.50
  -2  -4  -2   15.62    2.42
  -2  -4  -2   16.70    2.63
  -2  -4  -2   15.62    2.42
  -2  -4  -2   16.70    2.63
   2   4   2   15.41    2.57
   2   4   2   15.41    2.57
  -2  -4  -3   69.30    4.49
  -2  -4  -3   69.22    4.11
  -2  -4  -3   69.30    4.49
  -2  -4  -3   69.22    4.11
  -2  -4  -4  161.97    4.73
  -2  -4  -4  150.79    4.62
  -2  -4  -4  161.97    4.73
  -2  -4  -4  150.79    4.62
  -2  -4  -5   54.73    4.06
  -2  -4  -5   50.39    3.70
  -2  -4  -5   54.73    4.06
  -2  -4  -5   50.39    3.70
  -2  -4  -6   28.90    3.52
  -2  -4  -6   26.57    3.09
  -2  -4  -6   26.62    3.25
  -2  -4  -6   14.77    3.06
  -2  -4  -6   28.90    3.52
  -2  -4  -6   26.57    3.09
  -2  -4  -6   26.62    3.25
  -2  -4  -6   14.77    3.06
  -2  -4  -7    2.43    2.04
  -2  -4  -7    5.82    2.67
  -2  -4  -7    3.45    2.92
  -2  -4  -7    1.68    3.00
  -2  -4  -7    2.43    2.04
  -2  -4  -7    5.82    2.67
  -2  -4  -7    3.45    2.92
  -2  -4  -7    1.68    3.00
  -2  -4  -8   22.50    2.58
  -2  -4  -8   41.91    4.46
  -2  -4  -8   45.91    5.07
  -2  -4  -8   49.66    5.08
  -2  -4  -8   22.50    2.58
  -2  -4  -8   41.91    4.46
  -2  -4  -8   45.91    5.07
  -2  -4  -8   49.66    5.08
  -2  -4  -9   63.83    5.25
  -2  -4  -9   68.62    5.59
  -2  -4  -9   60.20    5.18
  -2  -4  -9   63.83    5.25
  -2  -4  -9   68.62    5.59
  -2  -4  -9   60.20    5.18
  -2  -4 -10    7.08    3.09
  -2  -4 -10    6.28    3.79
  -2  -4 -10    7.08    3.09
  -2  -4 -10    6.28    3.79
  -2  -4 -11   -0.79    3.12
  -2  -4 -11    0.61    3.88
  -2  -4 -11   -0.79    3.12
  -2  -4 -11    0.61    3.88
  -2  -4 -12    1.69    3.26
  -2  -4 -12   -0.78    4.06
  -2  -4 -12    1.69    3.26
  -2  -4 -12   -0.78    4.06
  -2  -4 -13    1.12    3.21
  -2  -4 -13    1.21    4.35
  -2  -4 -13    1.12    3.21
  -2  -4 -13    1.21    4.35
  -2  -4 -14    3.23    4.62
  -2  -4 -14    3.23    4.62
   2   5 -13   27.60    6.84
   2   5 -13   29.19    6.01
   2   5 -13   26.32    6.62
   2   5 -13   27.60    6.84
   2   5 -13   29.19    6.01
   2   5 -13   26.32    6.62
   2   5 -12   46.26    7.13
   2   5 -12   43.78    5.02
   2   5 -12   43.77    6.30
   2   5 -12   51.03    6.78
   2   5 -12   46.26    7.13
   2   5 -12   43.78    5.02
   2   5 -12   43.77    6.30
   2   5 -12   51.03    6.78
   2   5 -11   32.45    4.73
   2   5 -11   36.25    5.62
   2   5 -11   40.40    6.22
   2   5 -11   32.45    4.73
   2   5 -11   36.25    5.62
   2   5 -11   40.40    6.22
   2   5 -10    7.27    3.88
   2   5 -10   13.24    4.94
   2   5 -10   17.13    5.21
   2   5 -10    7.27    3.88
   2   5 -10   13.24    4.94
   2   5 -10   17.13    5.21
   2   5  -9   13.42    4.01
   2   5  -9   15.26    4.70
   2   5  -9   15.97    4.93
   2   5  -9   13.42    4.01
   2   5  -9   15.26    4.70
   2   5  -9   15.97    4.93
   2   5  -8   25.57    4.08
   2   5  -8   27.75    4.78
   2   5  -8   25.10    4.99
   2   5  -8   25.57    4.08
   2   5  -8   27.75    4.78
   2   5  -8   25.10    4.99
  -2  -5   7   56.82    6.64
  -2  -5   7   56.82    6.64
   2   5  -7   51.54    5.57
   2   5  -7   46.77    5.08
   2   5  -7   50.91    6.18
   2   5  -7   51.54    5.57
   2   5  -7   46.77    5.08
   2   5  -7   50.91    6.18
  -2  -5   6  150.49    7.35
  -2  -5   6  150.49    7.35
   2   5  -6  131.52    6.14
   2   5  -6  130.78    7.11
   2   5  -6  147.78    7.17
   2   5  -6  131.52    6.14
   2   5  -6  130.78    7.11
   2   5  -6  147.78    7.17
  -2  -5   5   11.21    3.40
  -2  -5   5   10.11    3.34
  -2  -5   5   11.21    3.40
  -2  -5   5   10.11    3.34
   2   5  -5    9.98    3.24
   2   5  -5   14.07    3.80
   2   5  -5    9.22    3.68
   2   5  -5    9.98    3.24
   2   5  -5   14.07    3.80
   2   5  -5    9.22    3.68
  -2  -5   4   90.30    5.42
  -2  -5   4   97.72    5.44
  -2  -5   4   90.30    5.42
  -2  -5   4   97.72    5.44
   2   5  -4   86.56    4.76
   2   5  -4   91.64    6.12
   2   5  -4   90.20    5.78
   2   5  -4   86.56    4.76
   2   5  -4   91.64    6.12
   2   5  -4   90.20    5.78
  -2  -5   3  328.69    7.72
  -2  -5   3  335.86    7.40
  -2  -5   3  328.69    7.72
  -2  -5   3  335.86    7.40
   2   5  -3  324.01    7.30
   2   5  -3  322.21    7.51
   2   5  -3  340.21    7.85
   2   5  -3  324.01    7.30
   2   5  -3  322.21    7.51
   2   5  -3  340.21    7.85
  -2  -5   2  299.71    7.05
  -2  -5   2  291.97    6.80
  -2  -5   2  299.71    7.05
  -2  -5   2  291.97    6.80
   2   5  -2  295.82    6.82
   2   5  -2  290.79    6.95
   2   5  -2  295.40    7.07
   2   5  -2  295.82    6.82
   2   5  -2  290.79    6.95
   2   5  -2  295.40    7.07
  -2  -5   1    5.94    2.57
  -2  -5   1    4.74    2.72
  -2  -5   1    5.94    2.57
  -2  -5   1    4.74    2.72
   2   5  -1    4.08    2.64
   2   5  -1    1.32    2.62
   2   5  -1    4.08    2.64
   2   5  -1    1.32    2.62
  -2  -5   0   23.29    2.10
  -2  -5   0   27.02    3.29
  -2  -5   0   24.66    3.16
  -2  -5   0   23.29    2.10
  -2  -5   0   27.02    3.29
  -2  -5   0   24.66    3.16
   2   5   0   25.70    3.18
   2   5   0   26.07    3.36
   2   5   0   25.70    3.18
   2   5   0   26.07    3.36
  -2  -5  -1  112.83    3.75
  -2  -5  -1  113.40    4.96
  -2  -5  -1  112.83    3.75
  -2  -5  -1  113.40    4.96
   2   5   1  116.62    4.63
   2   5   1  113.04    4.85
   2   5   1  116.62    4.63
   2   5   1  113.04    4.85
  -2  -5  -2    3.78    2.01
  -2  -5  -2    2.16    2.51
  -2  -5  -2    3.78    2.01
  -2  -5  -2    2.16    2.51
   2   5   2    1.07    2.44
   2   5   2    1.01    2.46
   2   5   2    1.07    2.44
   2   5   2    1.01    2.46
  -2  -5  -3  136.31    5.05
  -2  -5  -3  136.31    5.05
   2   5   3  148.37    5.15
   2   5   3  142.73    4.86
   2   5   3  148.37    5.15
   2   5   3  142.73    4.86
  -2  -5  -4   46.14    4.18
  -2  -5  -4   48.67    4.15
  -2  -5  -4   46.14    4.18
  -2  -5  -4   48.67    4.15
   2   5   4   51.67    4.27
   2   5   4   51.67    4.27
  -2  -5  -5    6.92    2.78
  -2  -5  -5    2.57    2.91
  -2  -5  -5    6.92    2.78
  -2  -5  -5    2.57    2.91
   2   5   5    5.77    2.76
   2   5   5    5.77    2.76
  -2  -5  -6   24.19    3.45
  -2  -5  -6   17.76    3.47
  -2  -5  -6   24.19    3.45
  -2  -5  -6   17.76    3.47
  -2  -5  -7    4.37    3.13
  -2  -5  -7    7.47    3.20
  -2  -5  -7    3.49    3.19
  -2  -5  -7    4.37    3.13
  -2  -5  -7    7.47    3.20
  -2  -5  -7    3.49    3.19
  -2  -5  -8    6.34    3.03
  -2  -5  -8    6.79    3.52
  -2  -5  -8    8.10    3.48
  -2  -5  -8    6.34    3.03
  -2  -5  -8    6.79    3.52
  -2  -5  -8    8.10    3.48
  -2  -5  -9   31.85    4.09
  -2  -5  -9   32.38    4.43
  -2  -5  -9   31.85    4.09
  -2  -5  -9   32.38    4.43
  -2  -5 -10   12.41    3.71
  -2  -5 -10    9.96    3.99
  -2  -5 -10   12.41    3.71
  -2  -5 -10    9.96    3.99
  -2  -5 -11   29.93    4.41
  -2  -5 -11   28.66    4.99
  -2  -5 -11   29.93    4.41
  -2  -5 -11   28.66    4.99
  -2  -5 -12   73.17    6.14
  -2  -5 -12   73.17    6.14
  -2  -5 -13   48.46    5.05
  -2  -5 -13   48.46    5.05
  -2  -5 -14   19.22    4.06
  -2  -5 -14   19.22    4.06
   2   6 -12   26.44    6.67
   2   6 -12   25.53    4.54
   2   6 -12   28.96    5.94
   2   6 -12   37.90    6.59
   2   6 -12   26.44    6.67
   2   6 -12   25.53    4.54
   2   6 -12   28.96    5.94
   2   6 -12   37.90    6.59
   2   6 -11   92.25    6.70
   2   6 -11   99.14    7.58
   2   6 -11   89.78    8.08
   2   6 -11   92.25    6.70
   2   6 -11   99.14    7.58
   2   6 -11   89.78    8.08
   2   6 -10   79.71    6.42
   2   6 -10   83.13    7.24
   2   6 -10   85.93    7.73
   2   6 -10   79.71    6.42
   2   6 -10   83.13    7.24
   2   6 -10   85.93    7.73
   2   6  -9    1.94    3.71
   2   6  -9   -3.21    4.16
   2   6  -9    4.97    4.76
   2   6  -9    1.94    3.71
   2   6  -9   -3.21    4.16
   2   6  -9    4.97    4.76
   2   6  -8   89.80    6.25
   2   6  -8   82.51    7.10
   2   6  -8   88.50    7.26
   2   6  -8   89.80    6.25
   2   6  -8   82.51    7.10
   2   6  -8   88.50    7.26
   2   6  -7   29.74    4.21
   2   6  -7   34.37    4.99
   2   6  -7   33.39    4.84
   2   6  -7   29.74    4.21
   2   6  -7   34.37    4.99
   2   6  -7   33.39    4.84
  -2  -6   6    0.28    3.82
  -2  -6   6    0.28    3.82
   2   6  -6    2.89    3.34
   2   6  -6   -4.28    3.63
   2   6  -6    0.30    3.95
   2   6  -6    2.89    3.34
   2   6  -6   -4.28    3.63
   2   6  -6    0.30    3.95
  -2  -6   5   45.12    4.94
  -2  -6   5   45.12    4.94
   2   6  -5   41.27    5.12
   2   6  -5   50.98    6.25
   2   6  -5   48.57    5.42
   2   6  -5   41.27    5.12
   2   6  -5   50.98    6.25
   2   6  -5   48.57    5.42
  -2  -6   4   24.33    3.92
  -2  -6   4   16.12    3.74
  -2  -6   4   24.33    3.92
  -2  -6   4   16.12    3.74
   2   6  -4   13.86    3.51
   2   6  -4   16.09    4.06
   2   6  -4   12.65    4.07
   2   6  -4   13.86    3.51
   2   6  -4   16.09    4.06
   2   6  -4   12.65    4.07
  -2  -6   3   84.88    5.47
  -2  -6   3   80.41    5.53
  -2  -6   3   84.88    5.47
  -2  -6   3   80.41    5.53
   2   6  -3   73.94    5.39
   2   6  -3   82.96    6.07
   2   6  -3   73.94    5.39
   2   6  -3   82.96    6.07
  -2  -6   2  278.62    7.75
  -2  -6   2  282.39    7.41
  -2  -6   2  278.62    7.75
  -2  -6   2  282.39    7.41
   2   6  -2  269.64    7.29
   2   6  -2  293.67    7.46
   2   6  -2  269.64    7.29
   2   6  -2  293.67    7.46
  -2  -6   1  153.70    3.52
  -2  -6   1  155.39    6.30
  -2  -6   1  149.68    6.03
  -2  -6   1  153.70    3.52
  -2  -6   1  155.39    6.30
  -2  -6   1  149.68    6.03
   2   6  -1  156.25    6.07
   2   6  -1  158.44    5.79
   2   6  -1  156.25    6.07
   2   6  -1  158.44    5.79
  -2  -6   0   97.60    3.15
  -2  -6   0  104.19    4.98
  -2  -6   0   97.60    3.15
  -2  -6   0  104.19    4.98
   2   6   0  104.04    5.46
   2   6   0  102.77    5.27
   2   6   0  104.04    5.46
   2   6   0  102.77    5.27
  -2  -6  -1   36.00    2.98
  -2  -6  -1   39.89    4.00
  -2  -6  -1   36.00    2.98
  -2  -6  -1   39.89    4.00
   2   6   1   37.96    4.62
   2   6   1   39.05    4.29
   2   6   1   37.96    4.62
   2   6   1   39.05    4.29
  -2  -6  -2  255.73    6.56
  -2  -6  -2  255.73    6.56
   2   6   2  258.10    6.87
   2   6   2  267.90    6.55
   2   6   2  258.10    6.87
   2   6   2  267.90    6.55
  -2  -6  -3    8.19    3.08
  -2  -6  -3    8.19    3.08
   2   6   3    4.75    2.72
   2   6   3    4.44    2.90
   2   6   3    4.75    2.72
   2   6   3    4.44    2.90
  -2  -6  -4   52.01    4.86
  -2  -6  -4   52.01    4.86
   2   6   4   58.61    5.06
   2   6   4   59.49    4.34
   2   6   4   58.61    5.06
   2   6   4   59.49    4.34
  -2  -6  -5    3.78    3.10
  -2  -6  -5    4.99    3.21
  -2  -6  -5    3.78    3.10
  -2  -6  -5    4.99    3.21
   2   6   5    1.30    3.08
   2   6   5    1.30    3.08
  -2  -6  -6   41.04    5.06
  -2  -6  -6   32.99    4.16
  -2  -6  -6   41.04    5.06
  -2  -6  -6   32.99    4.16
  -2  -6  -7  144.66    6.86
  -2  -6  -7  133.95    6.41
  -2  -6  -7  144.66    6.86
  -2  -6  -7  133.95    6.41
  -2  -6  -8   23.29    4.13
  -2  -6  -8   13.63    3.95
  -2  -6  -8   14.29    3.76
  -2  -6  -8   23.29    4.13
  -2  -6  -8   13.63    3.95
  -2  -6  -8   14.29    3.76
  -2  -6  -9    3.24    3.68
  -2  -6  -9    0.02    3.92
  -2  -6  -9    3.24    3.68
  -2  -6  -9    0.02    3.92
  -2  -6 -10   80.02    6.39
  -2  -6 -10   73.28    6.76
  -2  -6 -10   80.02    6.39
  -2  -6 -10   73.28    6.76
  -2  -6 -11   17.81    4.33
  -2  -6 -11   18.32    4.96
  -2  -6 -11   17.81    4.33
  -2  -6 -11   18.32    4.96
  -2  -6 -12   -2.68    3.94
  -2  -6 -12   -4.10    4.39
  -2  -6 -12   -2.68    3.94
  -2  -6 -12   -4.10    4.39
  -2  -6 -13    6.90    4.01
  -2  -6 -13    4.02    4.89
  -2  -6 -13    6.90    4.01
  -2  -6 -13    4.02    4.89
  -2  -6 -14    9.53    4.09
  -2  -6 -14   14.71    5.31
  -2  -6 -14    9.53    4.09
  -2  -6 -14   14.71    5.31
   2   7 -11    0.11    5.54
   2   7 -11   -3.32    3.95
   2   7 -11    3.91    5.36
   2   7 -11    0.11    5.54
   2   7 -11   -3.32    3.95
   2   7 -11    3.91    5.36
   2   7 -10    6.88    4.03
   2   7 -10    3.39    5.42
   2   7 -10    6.88    4.03
   2   7 -10    3.39    5.42
   2   7  -9   31.02    4.78
   2   7  -9   26.86    5.83
   2   7  -9   31.02    4.78
   2   7  -9   26.86    5.83
   2   7  -8   17.17    4.34
   2   7  -8   20.73    5.36
   2   7  -8   17.17    4.34
   2   7  -8   20.73    5.36
   2   7  -7   32.69    4.69
   2   7  -7   31.67    5.42
   2   7  -7   32.69    4.69
   2   7  -7   31.67    5.42
  -2  -7   6   82.39    7.53
  -2  -7   6   82.39    7.53
   2   7  -6   77.96    6.38
   2   7  -6   71.45    7.18
   2   7  -6   77.96    6.38
   2   7  -6   71.45    7.18
  -2  -7   5   55.13    5.60
  -2  -7   5   55.13    5.60
   2   7  -5   56.97    5.61
   2   7  -5   59.01    6.80
   2   7  -5   56.97    5.61
   2   7  -5   59.01    6.80
  -2  -7   4    6.48    3.91
  -2  -7   4    6.48    3.91
   2   7  -4    6.16    3.62
   2   7  -4    4.68    4.04
   2   7  -4    6.16    3.62
   2   7  -4    4.68    4.04
  -2  -7   3   21.30    4.30
  -2  -7   3   14.67    3.85
  -2  -7   3   21.30    4.30
  -2  -7   3   14.67    3.85
   2   7  -3   14.52    3.78
   2   7  -3   14.66    4.20
   2   7  -3   14.52    3.78
   2   7  -3   14.66    4.20
  -2  -7   2    0.24    3.60
  -2  -7   2    1.80    3.46
  -2  -7   2    0.24    3.60
  -2  -7   2    1.80    3.46
   2   7  -2   -0.23    3.34
   2   7  -2   -1.20    3.57
   2   7  -2   -0.23    3.34
   2   7  -2   -1.20    3.57
  -2  -7   1   42.98    5.05
  -2  -7   1   43.60    4.73
  -2  -7   1   42.98    5.05
  -2  -7   1   43.60    4.73
   2   7  -1   45.53    5.29
   2   7  -1   47.10    5.73
   2   7  -1   45.53    5.29
   2   7  -1   47.10    5.73
  -2  -7   0    6.26    3.45
  -2  -7   0    6.26    3.45
   2   7   0    6.43    3.12
   2   7   0    2.31    3.32
   2   7   0    6.43    3.12
   2   7   0    2.31    3.32
  -2  -7  -1   26.77    4.03
  -2  -7  -1   26.77    4.03
   2   7   1   26.74    3.75
   2   7   1   30.46    3.90
   2   7   1   26.74    3.75
   2   7   1   30.46    3.90
  -2  -7  -2  283.82    7.84
  -2  -7  -2  283.82    7.84
   2   7   2  281.47    7.48
   2   7   2  287.97    7.48
   2   7   2  289.53    7.54
   2   7   2  281.47    7.48
   2   7   2  287.97    7.48
   2   7   2  289.53    7.54
  -2  -7  -3  428.59    9.25
  -2  -7  -3  428.59    9.25
   2   7   3  432.56    8.93
   2   7   3  455.53    8.83
   2   7   3  432.56    8.93
   2   7   3  455.53    8.83
  -2  -7  -4  188.85    7.19
  -2  -7  -4  188.85    7.19
   2   7   4  195.95    7.37
   2   7   4  195.95    7.37
  -2  -7  -5    5.08    3.65
  -2  -7  -5    4.11    3.57
  -2  -7  -5    5.08    3.65
  -2  -7  -5    4.11    3.57
   2   7   5    2.82    3.59
   2   7   5    2.82    3.59
  -2  -7  -6   40.37    4.62
  -2  -7  -6   37.21    4.76
  -2  -7  -6   40.37    4.62
  -2  -7  -6   37.21    4.76
  -2  -7  -7   26.45    4.38
  -2  -7  -7   19.19    4.36
  -2  -7  -7   26.45    4.38
  -2  -7  -7   19.19    4.36
  -2  -7  -8    0.68    3.87
  -2  -7  -8   -4.00    3.73
  -2  -7  -8    0.68    3.87
  -2  -7  -8   -4.00    3.73
  -2  -7  -9   11.64    4.28
  -2  -7  -9   14.98    4.56
  -2  -7  -9   11.64    4.28
  -2  -7  -9   14.98    4.56
  -2  -7 -10    9.51    4.38
  -2  -7 -10   13.73    4.93
  -2  -7 -10    9.51    4.38
  -2  -7 -10   13.73    4.93
  -2  -7 -11   53.06    6.58
  -2  -7 -11   45.18    6.21
  -2  -7 -11   53.06    6.58
  -2  -7 -11   45.18    6.21
  -2  -7 -12   38.41    5.53
  -2  -7 -12   38.41    5.53
  -2  -7 -13   16.14    4.74
  -2  -7 -13   10.27    5.20
  -2  -7 -13   16.14    4.74
  -2  -7 -13   10.27    5.20
   2   8 -11    2.09    5.94
   2   8 -11    1.42    4.20
   2   8 -11   -0.56    5.53
   2   8 -11    2.09    5.94
   2   8 -11    1.42    4.20
   2   8 -11   -0.56    5.53
   2   8 -10   -2.45    5.38
   2   8 -10    5.73    4.31
   2   8 -10   -3.50    5.29
   2   8 -10   -2.45    5.38
   2   8 -10    5.73    4.31
   2   8 -10   -3.50    5.29
   2   8  -9   -0.62    3.94
   2   8  -9    7.23    5.30
   2   8  -9   -0.62    3.94
   2   8  -9    7.23    5.30
   2   8  -8   10.77    4.32
   2   8  -8   12.35    5.34
   2   8  -8   10.77    4.32
   2   8  -8   12.35    5.34
   2   8  -7    3.74    4.08
   2   8  -7    6.00    4.94
   2   8  -7    3.74    4.08
   2   8  -7    6.00    4.94
   2   8  -6   16.02    4.43
   2   8  -6   10.54    4.92
   2   8  -6   16.02    4.43
   2   8  -6   10.54    4.92
  -2  -8   5   33.42    5.44
  -2  -8   5   33.42    5.44
   2   8  -5   29.63    4.62
   2   8  -5   29.67    5.26
   2   8  -5   29.63    4.62
   2   8  -5   29.67    5.26
  -2  -8   4   35.66    5.28
  -2  -8   4   35.66    5.28
   2   8  -4   31.11    4.66
   2   8  -4   29.73    5.10
   2   8  -4   31.11    4.66
   2   8  -4   29.73    5.10
  -2  -8   3   29.41    4.65
  -2  -8   3   29.41    4.65
   2   8  -3   29.57    4.60
   2   8  -3   31.45    4.75
   2   8  -3   29.57    4.60
   2   8  -3   31.45    4.75
  -2  -8   2  149.90    7.69
  -2  -8   2  135.15    7.00
  -2  -8   2  149.90    7.69
  -2  -8   2  135.15    7.00
   2   8  -2  134.05    6.95
   2   8  -2  129.57    7.25
   2   8  -2  134.05    6.95
   2   8  -2  129.57    7.25
  -2  -8   1  116.74    6.79
  -2  -8   1  116.74    6.79
   2   8  -1  106.84    6.59
   2   8  -1  115.22    6.59
   2   8  -1  106.84    6.59
   2   8  -1  115.22    6.59
  -2  -8   0   23.78    4.11
  -2  -8   0   23.78    4.11
   2   8   0   21.95    4.25
   2   8   0   21.77    3.92
   2   8   0   21.95    4.25
   2   8   0   21.77    3.92
  -2  -8  -1   11.16    4.10
  -2  -8  -1   11.16    4.10
   2   8   1   13.14    3.99
   2   8   1   11.42    3.49
   2   8   1   13.14    3.99
   2   8   1   11.42    3.49
  -2  -8  -2    4.84    3.86
  -2  -8  -2    4.84    3.86
   2   8   2    5.53    3.81
   2   8   2    4.45    3.54
   2   8   2    6.39    3.66
   2   8   2    5.53    3.81
   2   8   2    4.45    3.54
   2   8   2    6.39    3.66
  -2  -8  -3   11.22    4.15
  -2  -8  -3   11.22    4.15
   2   8   3    9.74    4.05
   2   8   3    9.74    4.05
  -2  -8  -4   46.28    5.19
  -2  -8  -4   46.28    5.19
   2   8   4   46.25    5.17
   2   8   4   46.25    5.17
  -2  -8  -5   11.40    4.13
  -2  -8  -5    8.90    4.11
  -2  -8  -5   11.40    4.13
  -2  -8  -5    8.90    4.11
   2   8   5    8.50    4.18
   2   8   5    8.50    4.18
  -2  -8  -6   66.17    6.31
  -2  -8  -6   81.77    6.69
  -2  -8  -6   66.17    6.31
  -2  -8  -6   81.77    6.69
  -2  -8  -7  105.41    7.03
  -2  -8  -7  114.21    7.36
  -2  -8  -7  105.41    7.03
  -2  -8  -7  114.21    7.36
  -2  -8  -8   94.14    6.91
  -2  -8  -8   85.96    7.05
  -2  -8  -8   94.14    6.91
  -2  -8  -8   85.96    7.05
  -2  -8  -9   32.17    5.20
  -2  -8  -9   36.41    5.88
  -2  -8  -9   32.17    5.20
  -2  -8  -9   36.41    5.88
  -2  -8 -10   27.95    5.10
  -2  -8 -10   24.82    5.57
  -2  -8 -10   27.95    5.10
  -2  -8 -10   24.82    5.57
  -2  -8 -11    8.38    4.75
  -2  -8 -11    7.59    5.00
  -2  -8 -11    8.38    4.75
  -2  -8 -11    7.59    5.00
  -2  -8 -12    1.59    4.62
  -2  -8 -12    4.82    5.28
  -2  -8 -12    1.59    4.62
  -2  -8 -12    4.82    5.28
   2   9 -10   17.72    6.55
   2   9 -10   16.05    4.69
   2   9 -10   20.52    6.47
   2   9 -10   17.72    6.55
   2   9 -10   16.05    4.69
   2   9 -10   20.52    6.47
   2   9  -9    6.25    5.84
   2   9  -9    4.24    4.58
   2   9  -9   16.27    6.33
   2   9  -9    6.25    5.84
   2   9  -9    4.24    4.58
   2   9  -9   16.27    6.33
   2   9  -8    1.63    4.24
   2   9  -8    1.18    5.23
   2   9  -8    1.63    4.24
   2   9  -8    1.18    5.23
   2   9  -7   29.76    5.09
   2   9  -7   28.03    6.07
   2   9  -7   29.76    5.09
   2   9  -7   28.03    6.07
   2   9  -6   13.02    4.40
   2   9  -6   12.17    5.27
   2   9  -6   13.02    4.40
   2   9  -6   12.17    5.27
  -2  -9   5    8.33    5.08
  -2  -9   5    8.33    5.08
   2   9  -5    9.08    4.23
   2   9  -5    3.30    4.78
   2   9  -5    9.08    4.23
   2   9  -5    3.30    4.78
  -2  -9   4   10.02    4.57
  -2  -9   4   10.02    4.57
   2   9  -4   13.62    4.38
   2   9  -4   11.35    4.74
   2   9  -4   13.62    4.38
   2   9  -4   11.35    4.74
  -2  -9   3    5.62    4.60
  -2  -9   3    5.62    4.60
   2   9  -3    2.50    4.20
   2   9  -3    2.31    4.40
   2   9  -3    2.50    4.20
   2   9  -3    2.31    4.40
   2   9  -2   15.82    4.45
   2   9  -2   14.52    4.58
   2   9  -2   15.82    4.45
   2   9  -2   14.52    4.58
  -2  -9   1   75.45    6.81
  -2  -9   1   75.45    6.81
   2   9  -1   65.06    6.43
   2   9  -1   73.94    6.40
   2   9  -1   65.06    6.43
   2   9  -1   73.94    6.40
  -2  -9   0   52.48    5.67
  -2  -9   0   52.48    5.67
   2   9   0   48.73    5.44
   2   9   0   47.59    5.70
   2   9   0   48.73    5.44
   2   9   0   47.59    5.70
  -2  -9  -1    4.41    4.20
  -2  -9  -1    4.41    4.20
   2   9   1    9.10    4.24
   2   9   1    6.91    3.94
   2   9   1    9.10    4.24
   2   9   1    6.91    3.94
  -2  -9  -2   12.18    4.48
  -2  -9  -2   12.18    4.48
   2   9   2    4.87    4.21
   2   9   2    4.87    4.21
  -2  -9  -3   48.85    5.65
  -2  -9  -3   48.85    5.65
   2   9   3   44.23    5.53
   2   9   3   44.23    5.53
  -2  -9  -4   34.94    5.31
  -2  -9  -4   34.94    5.31
   2   9   4   34.81    5.34
   2   9   4   34.81    5.34
  -2  -9  -5    9.44    4.46
  -2  -9  -5    9.27    4.61
  -2  -9  -5    9.44    4.46
  -2  -9  -5    9.27    4.61
   2   9   5   12.74    4.73
   2   9   5   12.74    4.73
  -2  -9  -6    7.68    4.36
  -2  -9  -6    9.50    4.67
  -2  -9  -6    7.68    4.36
  -2  -9  -6    9.50    4.67
  -2  -9  -7   27.54    5.25
  -2  -9  -7   19.55    5.15
  -2  -9  -7   27.54    5.25
  -2  -9  -7   19.55    5.15
  -2  -9  -8    7.12    4.51
  -2  -9  -8    3.34    4.72
  -2  -9  -8    7.12    4.51
  -2  -9  -8    3.34    4.72
  -2  -9  -9    8.38    4.64
  -2  -9  -9    4.40    4.89
  -2  -9  -9    8.38    4.64
  -2  -9  -9    4.40    4.89
  -2  -9 -10    2.23    4.51
  -2  -9 -10    0.06    4.87
  -2  -9 -10    2.23    4.51
  -2  -9 -10    0.06    4.87
  -2  -9 -11   33.27    5.69
  -2  -9 -11   32.35    6.51
  -2  -9 -11   33.27    5.69
  -2  -9 -11   32.35    6.51
  -2  -9 -12   36.50    6.13
  -2  -9 -12   41.57    6.83
  -2  -9 -12   36.50    6.13
  -2  -9 -12   41.57    6.83
   2  10  -8   58.86    7.71
   2  10  -8   55.80    6.51
   2  10  -8   71.38    8.49
   2  10  -8   58.86    7.71
   2  10  -8   55.80    6.51
   2  10  -8   71.38    8.49
   2  10  -7   20.94    6.16
   2  10  -7   31.89    5.36
   2  10  -7   15.78    5.92
   2  10  -7   20.94    6.16
   2  10  -7   31.89    5.36
   2  10  -7   15.78    5.92
   2  10  -6   -1.58    5.00
   2  10  -6    2.58    4.49
   2  10  -6    1.06    5.20
   2  10  -6   -1.58    5.00
   2  10  -6    2.58    4.49
   2  10  -6    1.06    5.20
   2  10  -5   35.01    5.38
   2  10  -5   33.21    6.15
   2  10  -5   35.01    5.38
   2  10  -5   33.21    6.15
  -2 -10   4   19.84    5.76
  -2 -10   4   19.84    5.76
   2  10  -4   19.57    5.12
   2  10  -4   13.59    5.42
   2  10  -4   19.57    5.12
   2  10  -4   13.59    5.42
   2  10  -3    2.29    4.40
   2  10  -3    6.46    4.79
   2  10  -3    2.29    4.40
   2  10  -3    6.46    4.79
   2  10  -2   90.66    7.07
   2  10  -2   90.48    7.38
   2  10  -2   90.66    7.07
   2  10  -2   90.48    7.38
   2  10  -1   12.54    4.60
   2  10  -1    9.39    4.59
   2  10  -1   12.54    4.60
   2  10  -1    9.39    4.59
   2  10   0    1.92    4.38
   2  10   0    5.76    4.44
   2  10   0    1.92    4.38
   2  10   0    5.76    4.44
  -2 -10  -1   43.54    5.87
  -2 -10  -1   43.54    5.87
   2  10   1   43.34    5.73
   2  10   1   43.34    5.73
  -2 -10  -2    4.66    4.61
  -2 -10  -2    4.66    4.61
   2  10   2    1.53    4.53
   2  10   2    1.53    4.53
  -2 -10  -3   21.21    5.27
  -2 -10  -3   21.21    5.27
   2  10   3   21.30    4.86
   2  10   3   21.30    4.86
  -2 -10  -4   24.36    5.43
  -2 -10  -4   24.36    5.43
   2  10   4   25.79    5.50
   2  10   4   25.79    5.50
  -2 -10  -5   11.89    5.07
  -2 -10  -5   15.58    5.20
  -2 -10  -5   11.89    5.07
  -2 -10  -5   15.58    5.20
   2  10   5   13.79    4.77
   2  10   5   13.79    4.77
  -2 -10  -6    9.54    4.96
  -2 -10  -6   10.17    5.21
  -2 -10  -6    9.54    4.96
  -2 -10  -6   10.17    5.21
  -2 -10  -7   41.25    6.18
  -2 -10  -7   44.89    6.36
  -2 -10  -7   41.25    6.18
  -2 -10  -7   44.89    6.36
  -2 -10  -8   29.51    5.73
  -2 -10  -8   35.37    6.23
  -2 -10  -8   29.51    5.73
  -2 -10  -8   35.37    6.23
  -2 -10  -9    2.51    4.77
  -2 -10  -9   11.69    5.47
  -2 -10  -9    2.51    4.77
  -2 -10  -9   11.69    5.47
  -2 -10 -10    1.43    5.10
  -2 -10 -10   -0.09    5.55
  -2 -10 -10    1.43    5.10
  -2 -10 -10   -0.09    5.55
   2  11  -7   84.26    8.69
   2  11  -7   89.73    7.35
   2  11  -7   82.09    8.53
   2  11  -7   84.26    8.69
   2  11  -7   89.73    7.35
   2  11  -7   82.09    8.53
   2  11  -6   96.32   10.38
   2  11  -6   92.92    7.53
   2  11  -6   95.87    8.62
   2  11  -6   96.32   10.38
   2  11  -6   92.92    7.53
   2  11  -6   95.87    8.62
   2  11  -5    6.59    5.40
   2  11  -5    7.72    5.01
   2  11  -5    6.80    5.52
   2  11  -5    6.59    5.40
   2  11  -5    7.72    5.01
   2  11  -5    6.80    5.52
   2  11  -4   13.10    4.91
   2  11  -4    4.12    5.22
   2  11  -4   13.10    4.91
   2  11  -4    4.12    5.22
   2  11  -3   12.65    4.95
   2  11  -3   15.72    5.53
   2  11  -3   12.65    4.95
   2  11  -3   15.72    5.53
   2  11  -2   -2.41    4.54
   2  11  -2   -3.09    4.69
   2  11  -2   -2.41    4.54
   2  11  -2   -3.09    4.69
   2  11  -1   50.59    6.45
   2  11  -1   50.59    6.45
   2  11   0   17.31    5.39
   2  11   0   17.31    5.39
   2  11   1    9.09    5.08
   2  11   1    9.09    5.08
   2  11   2   55.34    6.58
   2  11   2   55.34    6.58
  -2 -11  -3   49.07    6.58
  -2 -11  -3   49.07    6.58
   2  11   3   40.54    6.28
   2  11   3   40.54    6.28
  -2 -11  -4   21.51    5.75
  -2 -11  -4   21.51    5.75
   2  11   4   17.55    5.66
   2  11   4   17.55    5.66
  -2 -11  -5    4.89    4.72
  -2 -11  -5   10.65    5.39
  -2 -11  -5    4.89    4.72
  -2 -11  -5   10.65    5.39
   2  11   5    7.37    5.32
   2  11   5    7.37    5.32
  -2 -11  -6  101.54    8.30
  -2 -11  -6  116.38    8.80
  -2 -11  -6  101.54    8.30
  -2 -11  -6  116.38    8.80
  -2 -11  -7    5.98    5.18
  -2 -11  -7    1.55    5.35
  -2 -11  -7    5.98    5.18
  -2 -11  -7    1.55    5.35
  -2 -11  -8   28.09    6.02
  -2 -11  -8   31.31    6.53
  -2 -11  -8   28.09    6.02
  -2 -11  -8   31.31    6.53
  -2 -11  -9   36.45    6.66
  -2 -11  -9   48.49    7.50
  -2 -11  -9   36.45    6.66
  -2 -11  -9   48.49    7.50
   2  12  -5   34.61    5.85
   2  12  -5   38.83    7.21
   2  12  -5   34.61    5.85
   2  12  -5   38.83    7.21
   2  12  -4   44.97    6.30
   2  12  -4   37.18    6.92
   2  12  -4   44.97    6.30
   2  12  -4   37.18    6.92
   2  12  -3    7.95    5.07
   2  12  -3    7.95    5.07
   2  12  -2   84.21    7.69
   2  12  -2   84.21    7.69
   2  12  -1   43.95    6.39
   2  12  -1   43.95    6.39
   2  12   0    1.11    5.00
   2  12   0    1.11    5.00
   2  12   1   27.83    6.03
   2  12   1   27.83    6.03
   2  12   2    6.28    5.33
   2  12   2    6.28    5.33
   2  12   3    4.72    5.49
   2  12   3    4.72    5.49
  -2 -12  -4   -0.29    4.95
  -2 -12  -4   -0.29    4.95
   2  12   4    5.17    5.63
   2  12   4    5.17    5.63
  -2 -12  -5   -0.75    5.33
  -2 -12  -5   -0.75    5.33
   2  12   5   -2.40    5.41
   2  12   5   -2.40    5.41
  -2 -12  -6   19.09    6.18
  -2 -12  -6   19.67    6.40
  -2 -12  -6   19.09    6.18
  -2 -12  -6   19.67    6.40
  -2 -12  -7   84.24    8.48
  -2 -12  -7   85.51    8.94
  -2 -12  -7   84.24    8.48
  -2 -12  -7   85.51    8.94
   2  13  -1   12.66    5.77
   2  13  -1   12.66    5.77
   2  13   0    6.88    5.87
   2  13   0    6.88    5.87
   2  13   1    4.56    5.51
   2  13   1    4.56    5.51
   2  13   2   32.30    6.65
   2  13   2   32.30    6.65
   2  13   3   22.82    6.46
   2  13   3   22.82    6.46
  -3  10   4    2.01    6.59
  -3  10   4   37.37    6.34
  -3  10   4    2.01    6.59
  -3  10   4   37.37    6.34
   3 -10  -4   24.94    7.15
   3 -10  -4   24.94    7.15
  -3  10   3   13.44    6.02
  -3  10   3   12.92    5.41
  -3  10   3   18.28    6.17
  -3  10   3   13.44    6.02
  -3  10   3   12.92    5.41
  -3  10   3   18.28    6.17
  -3  10   2    1.93    4.76
  -3  10   2    9.87    5.77
  -3  10   2    1.93    4.76
  -3  10   2    9.87    5.77
  -3  10   1   27.12    5.34
  -3  10   1   26.36    6.38
  -3  10   1   27.12    5.34
  -3  10   1   26.36    6.38
  -3  10   0   13.23    4.93
  -3  10   0   10.65    5.62
  -3  10   0   13.23    4.93
  -3  10   0   10.65    5.62
  -3  10  -1   -0.01    4.22
  -3  10  -1    2.31    5.24
  -3  10  -1   -0.01    4.22
  -3  10  -1    2.31    5.24
  -3  10  -2   37.77    5.14
  -3  10  -2   40.90    6.66
  -3  10  -2   37.77    5.14
  -3  10  -2   40.90    6.66
  -3  10  -3   40.09    4.78
  -3  10  -3   41.50    6.70
  -3  10  -3   36.54    6.47
  -3  10  -3   40.09    4.78
  -3  10  -3   41.50    6.70
  -3  10  -3   36.54    6.47
  -3  10  -4   -4.31    4.98
  -3  10  -4    1.18    5.48
  -3  10  -4   -4.31    4.98
  -3  10  -4    1.18    5.48
  -3   9   7    4.28    5.42
  -3   9   7    4.28    5.42
   3  -9  -7   -0.99    5.92
   3  -9  -7   -0.99    5.92
  -3   9   6   11.31    5.48
  -3   9   6   11.31    5.48
   3  -9  -6    9.60    6.19
   3  -9  -6    9.60    6.19
  -3   9   5    4.53    5.25
  -3   9   5    4.53    5.25
   3  -9  -5    4.85    5.83
   3  -9  -5    4.85    5.83
  -3   9   4    2.79    4.64
  -3   9   4   -1.93    5.13
  -3   9   4    2.79    4.64
  -3   9   4   -1.93    5.13
   3  -9  -4    2.34    5.26
   3  -9  -4    2.34    5.26
  -3   9   3   -9.37    5.83
  -3   9   3    0.17    4.70
  -3   9   3    0.61    5.15
  -3   9   3   -9.37    5.83
  -3   9   3    0.17    4.70
  -3   9   3    0.61    5.15
   3  -9  -3   -3.69    4.87
   3  -9  -3   -3.69    4.87
  -3   9   2   -1.75    5.17
  -3   9   2   -0.24    4.32
  -3   9   2    0.80    4.98
  -3   9   2   -1.75    5.17
  -3   9   2   -0.24    4.32
  -3   9   2    0.80    4.98
  -3   9   1   44.21    6.13
  -3   9   1   42.17    5.55
  -3   9   1   44.14    6.47
  -3   9   1   44.21    6.13
  -3   9   1   42.17    5.55
  -3   9   1   44.14    6.47
  -3   9   0   50.92    6.09
  -3   9   0   48.62    6.54
  -3   9   0   50.92    6.09
  -3   9   0   48.62    6.54
  -3   9  -1   49.79    5.38
  -3   9  -1   53.80    6.60
  -3   9  -1   49.79    5.38
  -3   9  -1   53.80    6.60
  -3   9  -2    4.00    3.85
  -3   9  -2    2.67    5.00
  -3   9  -2    5.63    4.95
  -3   9  -2    4.00    3.85
  -3   9  -2    2.67    5.00
  -3   9  -2    5.63    4.95
  -3   9  -3   11.61    3.74
  -3   9  -3   12.15    5.13
  -3   9  -3    9.45    5.31
  -3   9  -3   11.61    3.74
  -3   9  -3   12.15    5.13
  -3   9  -3    9.45    5.31
  -3   9  -4   18.22    3.30
  -3   9  -4   15.82    5.27
  -3   9  -4   18.22    3.30
  -3   9  -4   15.82    5.27
  -3   9  -5    0.76    5.01
  -3   9  -5    0.76    5.01
  -3   9  -6   -0.75    4.96
  -3   9  -6   -0.75    4.96
  -3   9  -7    1.99    5.31
  -3   9  -7    2.11    5.10
  -3   9  -7    1.99    5.31
  -3   9  -7    2.11    5.10
  -3   8   8    6.13    5.49
  -3   8   8    6.13    5.49
   3  -8  -8    2.07    5.84
   3  -8  -8    2.07    5.84
  -3   8   7   38.68    6.45
  -3   8   7   38.68    6.45
   3  -8  -7   45.42    7.33
   3  -8  -7   45.42    7.33
  -3   8   6   -2.58    4.71
  -3   8   6   -2.58    4.71
   3  -8  -6   -2.14    4.93
   3  -8  -6   -2.14    4.93
  -3   8   5   29.27    5.62
  -3   8   5   30.90    6.15
  -3   8   5   29.27    5.62
  -3   8   5   30.90    6.15
   3  -8  -5   28.71    6.39
   3  -8  -5   28.71    6.39
  -3   8   4   -2.54    5.26
  -3   8   4   48.82    5.93
  -3   8   4   51.18    6.57
  -3   8   4   -2.54    5.26
  -3   8   4   48.82    5.93
  -3   8   4   51.18    6.57
   3  -8  -4   45.14    6.87
   3  -8  -4   45.14    6.87
  -3   8   3   71.95    6.70
  -3   8   3   70.96    7.33
  -3   8   3   71.95    6.70
  -3   8   3   70.96    7.33
   3  -8  -3   78.90    8.42
   3  -8  -3   78.90    8.42
  -3   8   2   11.56    6.17
  -3   8   2   19.39    4.78
  -3   8   2   17.95    5.31
  -3   8   2   11.56    6.17
  -3   8   2   19.39    4.78
  -3   8   2   17.95    5.31
   3  -8  -2   15.88    5.56
   3  -8  -2   15.88    5.56
  -3   8   1   23.59    5.61
  -3   8   1   29.57    4.88
  -3   8   1   23.07    5.38
  -3   8   1   23.59    5.61
  -3   8   1   29.57    4.88
  -3   8   1   23.07    5.38
  -3   8   0    5.99    4.34
  -3   8   0    4.59    4.00
  -3   8   0    3.82    4.59
  -3   8   0    5.99    4.34
  -3   8   0    4.59    4.00
  -3   8   0    3.82    4.59
  -3   8  -1   12.93    4.49
  -3   8  -1   20.34    4.18
  -3   8  -1   24.87    5.19
  -3   8  -1   12.93    4.49
  -3   8  -1   20.34    4.18
  -3   8  -1   24.87    5.19
  -3   8  -2    0.38    3.45
  -3   8  -2   -1.46    4.48
  -3   8  -2    4.66    4.47
  -3   8  -2    0.38    3.45
  -3   8  -2   -1.46    4.48
  -3   8  -2    4.66    4.47
  -3   8  -3    2.27    3.26
  -3   8  -3   -0.47    4.57
  -3   8  -3    2.27    3.26
  -3   8  -3   -0.47    4.57
  -3   8  -4   10.96    4.62
  -3   8  -4   11.33    3.00
  -3   8  -4    9.36    4.86
  -3   8  -4   10.96    4.62
  -3   8  -4   11.33    3.00
  -3   8  -4    9.36    4.86
  -3   8  -5   20.88    5.27
  -3   8  -5   21.69    5.14
  -3   8  -5   20.88    5.27
  -3   8  -5   21.69    5.14
  -3   8  -6   38.02    6.16
  -3   8  -6   34.50    5.69
  -3   8  -6   38.02    6.16
  -3   8  -6   34.50    5.69
  -3   8  -7    9.15    5.28
  -3   8  -7    5.42    4.88
  -3   8  -7    9.15    5.28
  -3   8  -7    5.42    4.88
  -3   8  -8   -0.48    5.14
  -3   8  -8    1.30    4.92
  -3   8  -8   -0.48    5.14
  -3   8  -8    1.30    4.92
  -3   8  -9    3.43    5.50
  -3   8  -9   -1.96    4.91
  -3   8  -9    3.43    5.50
  -3   8  -9   -1.96    4.91
  -3   7  10    9.37    5.98
  -3   7  10    9.37    5.98
   3  -7 -10    9.05    6.08
   3  -7 -10    9.05    6.08
  -3   7   9    3.89    5.50
  -3   7   9    3.89    5.50
   3  -7  -9    1.81    5.08
   3  -7  -9    1.81    5.08
  -3   7   8   80.08    7.99
  -3   7   8   80.08    7.99
   3  -7  -8   80.71    8.83
   3  -7  -8   80.71    8.83
  -3   7   7    3.72    4.91
  -3   7   7    3.72    4.91
   3  -7  -7    0.46    5.22
   3  -7  -7    0.46    5.22
  -3   7   6   17.88    5.23
  -3   7   6   17.88    5.23
   3  -7  -6   21.24    6.03
   3  -7  -6   21.24    6.03
  -3   7   5   22.68    5.18
  -3   7   5   24.34    5.52
  -3   7   5   22.68    5.18
  -3   7   5   24.34    5.52
   3  -7  -5   18.54    5.61
   3  -7  -5   18.54    5.61
  -3   7   4   30.50    5.35
  -3   7   4   35.32    5.73
  -3   7   4   30.50    5.35
  -3   7   4   35.32    5.73
   3  -7  -4   37.18    6.01
   3  -7  -4   37.18    6.01
  -3   7   3   47.43    6.16
  -3   7   3   65.07    6.33
  -3   7   3   64.28    6.84
  -3   7   3   47.43    6.16
  -3   7   3   65.07    6.33
  -3   7   3   64.28    6.84
   3  -7  -3   56.68    6.56
   3  -7  -3   56.68    6.56
  -3   7   2   52.65    6.91
  -3   7   2   23.92    4.44
  -3   7   2   48.56    5.31
  -3   7   2   50.34    5.90
  -3   7   2   52.65    6.91
  -3   7   2   23.92    4.44
  -3   7   2   48.56    5.31
  -3   7   2   50.34    5.90
   3  -7  -2   46.41    6.19
   3  -7  -2   46.41    6.19
  -3   7   1    2.59    4.90
  -3   7   1    8.38    3.51
  -3   7   1    9.78    3.98
  -3   7   1    9.14    4.36
  -3   7   1    2.59    4.90
  -3   7   1    8.38    3.51
  -3   7   1    9.78    3.98
  -3   7   1    9.14    4.36
   3  -7  -1    7.40    4.67
   3  -7  -1    7.40    4.67
  -3   7   0  121.16    7.58
  -3   7   0  131.87    6.69
  -3   7   0  121.61    7.38
  -3   7   0  121.16    7.58
  -3   7   0  131.87    6.69
  -3   7   0  121.61    7.38
  -3   7  -1  198.28    8.23
  -3   7  -1  181.78    6.85
  -3   7  -1  180.45    8.21
  -3   7  -1  188.43    8.04
  -3   7  -1  198.28    8.23
  -3   7  -1  181.78    6.85
  -3   7  -1  180.45    8.21
  -3   7  -1  188.43    8.04
  -3   7  -2   16.22    4.09
  -3   7  -2   10.68    4.03
  -3   7  -2   18.94    3.70
  -3   7  -2   14.54    4.46
  -3   7  -2   11.79    4.29
  -3   7  -2   16.22    4.09
  -3   7  -2   10.68    4.03
  -3   7  -2   18.94    3.70
  -3   7  -2   14.54    4.46
  -3   7  -2   11.79    4.29
  -3   7  -3    4.66    3.93
  -3   7  -3    4.40    3.59
  -3   7  -3    5.63    3.04
  -3   7  -3    1.31    3.87
  -3   7  -3    4.66    3.93
  -3   7  -3    4.40    3.59
  -3   7  -3    5.63    3.04
  -3   7  -3    1.31    3.87
  -3   7  -4    5.03    4.09
  -3   7  -4    8.73    2.72
  -3   7  -4    6.98    4.14
  -3   7  -4    5.03    4.09
  -3   7  -4    8.73    2.72
  -3   7  -4    6.98    4.14
  -3   7  -5    8.19    4.39
  -3   7  -5    7.36    4.39
  -3   7  -5    8.19    4.39
  -3   7  -5    7.36    4.39
  -3   7  -6   57.59    6.44
  -3   7  -6   67.48    6.73
  -3   7  -6   57.59    6.44
  -3   7  -6   67.48    6.73
  -3   7  -7   19.14    5.39
  -3   7  -7   22.83    4.86
  -3   7  -7   19.14    5.39
  -3   7  -7   22.83    4.86
  -3   7  -8    8.08    5.20
  -3   7  -8    7.82    4.61
  -3   7  -8    8.08    5.20
  -3   7  -8    7.82    4.61
  -3   7  -9  149.46   10.03
  -3   7  -9  157.63    8.36
  -3   7  -9  149.46   10.03
  -3   7  -9  157.63    8.36
  -3   7 -10   30.98    6.65
  -3   7 -10   32.36    5.81
  -3   7 -10   30.98    6.65
  -3   7 -10   32.36    5.81
  -3   6  11   14.33    6.12
  -3   6  11   14.33    6.12
   3  -6 -11    8.61    5.84
   3  -6 -11    8.61    5.84
  -3   6  10    9.13    5.73
  -3   6  10    9.13    5.73
   3  -6 -10   11.92    5.87
   3  -6 -10   11.92    5.87
  -3   6   9    2.58    5.29
  -3   6   9    2.58    5.29
   3  -6  -9    3.41    5.46
   3  -6  -9    3.41    5.46
  -3   6   8    2.89    4.89
  -3   6   8    2.89    4.89
   3  -6  -8    5.74    4.94
   3  -6  -8    5.74    4.94
  -3   6   7  126.51    8.20
  -3   6   7  126.51    8.20
   3  -6  -7  123.03    8.87
   3  -6  -7  123.03    8.87
  -3   6   6    8.29    4.64
  -3   6   6    4.42    4.60
  -3   6   6    8.29    4.64
  -3   6   6    4.42    4.60
   3  -6  -6    3.91    4.90
   3  -6  -6    3.91    4.90
  -3   6   5    9.39    4.51
  -3   6   5    8.75    4.65
  -3   6   5    9.39    4.51
  -3   6   5    8.75    4.65
   3  -6  -5    6.22    4.43
   3  -6  -5    6.22    4.43
  -3   6   4    2.37    3.96
  -3   6   4    2.78    4.20
  -3   6   4    2.37    3.96
  -3   6   4    2.78    4.20
   3  -6  -4    8.80    4.73
   3  -6  -4    8.80    4.73
  -3   6   3   -1.83    3.60
  -3   6   3    0.40    3.98
  -3   6   3   -1.83    3.60
  -3   6   3    0.40    3.98
   3  -6  -3   -3.60    3.77
   3  -6  -3   -3.60    3.77
  -3   6   2   14.47    4.61
  -3   6   2   23.23    4.15
  -3   6   2   19.65    4.49
  -3   6   2   14.47    4.61
  -3   6   2   23.23    4.15
  -3   6   2   19.65    4.49
   3  -6  -2   27.97    4.74
   3  -6  -2   27.97    4.74
  -3   6   1   -1.18    4.65
  -3   6   1    1.18    3.91
  -3   6   1    0.69    3.44
  -3   6   1    2.25    3.80
  -3   6   1   -1.18    4.65
  -3   6   1    1.18    3.91
  -3   6   1    0.69    3.44
  -3   6   1    2.25    3.80
   3  -6  -1    0.04    3.96
   3  -6  -1    0.04    3.96
  -3   6   0   22.78    4.95
  -3   6   0   29.87    4.31
  -3   6   0   22.46    3.85
  -3   6   0   25.93    4.45
  -3   6   0   22.78    4.95
  -3   6   0   29.87    4.31
  -3   6   0   22.46    3.85
  -3   6   0   25.93    4.45
   3  -6   0   28.18    4.78
   3  -6   0   28.18    4.78
  -3   6  -1  523.79    9.92
  -3   6  -1  506.51   10.84
  -3   6  -1  515.50    9.72
  -3   6  -1  513.46    9.11
  -3   6  -1  514.98   10.68
  -3   6  -1  495.65   10.36
  -3   6  -1  523.79    9.92
  -3   6  -1  506.51   10.84
  -3   6  -1  515.50    9.72
  -3   6  -1  513.46    9.11
  -3   6  -1  514.98   10.68
  -3   6  -1  495.65   10.36
  -3   6  -2   88.05    6.86
  -3   6  -2   85.85    6.98
  -3   6  -2   31.90    3.70
  -3   6  -2   84.38    5.06
  -3   6  -2   80.87    5.95
  -3   6  -2   88.05    6.86
  -3   6  -2   85.85    6.98
  -3   6  -2   31.90    3.70
  -3   6  -2   84.38    5.06
  -3   6  -2   80.87    5.95
  -3   6  -3   56.96    5.22
  -3   6  -3   57.21    5.88
  -3   6  -3    2.25    2.49
  -3   6  -3   57.35    4.24
  -3   6  -3   61.82    5.67
  -3   6  -3   56.96    5.22
  -3   6  -3   57.21    5.88
  -3   6  -3    2.25    2.49
  -3   6  -3   57.35    4.24
  -3   6  -3   61.82    5.67
  -3   6  -4    6.87    3.91
  -3   6  -4    2.22    3.21
  -3   6  -4    5.50    2.17
  -3   6  -4    3.01    3.57
  -3   6  -4    6.87    3.91
  -3   6  -4    2.22    3.21
  -3   6  -4    5.50    2.17
  -3   6  -4    3.01    3.57
  -3   6  -5   48.68    5.60
  -3   6  -5   42.87    5.01
  -3   6  -5   48.68    5.60
  -3   6  -5   42.87    5.01
  -3   6  -6   55.35    6.00
  -3   6  -6   54.79    6.18
  -3   6  -6   55.35    6.00
  -3   6  -6   54.79    6.18
  -3   6  -7   10.43    4.70
  -3   6  -7   13.25    4.35
  -3   6  -7   10.43    4.70
  -3   6  -7   13.25    4.35
  -3   6  -8   33.72    5.87
  -3   6  -8   47.33    5.48
  -3   6  -8   33.72    5.87
  -3   6  -8   47.33    5.48
  -3   6  -9   34.09    6.14
  -3   6  -9   34.69    5.45
  -3   6  -9   34.09    6.14
  -3   6  -9   34.69    5.45
  -3   6 -10    0.07    5.06
  -3   6 -10    4.96    4.74
  -3   6 -10    0.07    5.06
  -3   6 -10    4.96    4.74
  -3   6 -11   27.98    6.59
  -3   6 -11   21.29    5.29
  -3   6 -11   27.98    6.59
  -3   6 -11   21.29    5.29
  -3   5  11   -0.02    5.47
  -3   5  11   -0.02    5.47
   3  -5 -11    3.61    5.40
   3  -5 -11    3.61    5.40
  -3   5  10   40.02    6.55
  -3   5  10   40.02    6.55
   3  -5 -10   29.65    6.35
   3  -5 -10   35.10    6.46
   3  -5 -10   29.65    6.35
   3  -5 -10   35.10    6.46
  -3   5   9   -0.96    4.80
  -3   5   9   -0.96    4.80
   3  -5  -9    5.80    5.22
   3  -5  -9    2.00    5.00
   3  -5  -9    5.80    5.22
   3  -5  -9    2.00    5.00
  -3   5   8   33.36    5.74
  -3   5   8   33.36    5.74
   3  -5  -8   30.68    6.01
   3  -5  -8   26.39    5.56
   3  -5  -8   30.68    6.01
   3  -5  -8   26.39    5.56
  -3   5   7    1.30    4.50
  -3   5   7    1.30    4.50
   3  -5  -7    4.08    4.76
   3  -5  -7    6.46    4.72
   3  -5  -7    4.08    4.76
   3  -5  -7    6.46    4.72
  -3   5   6   38.61    5.33
  -3   5   6   47.73    5.68
  -3   5   6   38.61    5.33
  -3   5   6   47.73    5.68
   3  -5  -6   52.67    6.24
   3  -5  -6   42.33    5.59
   3  -5  -6   52.67    6.24
   3  -5  -6   42.33    5.59
  -3   5   5   19.75    4.54
  -3   5   5   22.96    4.72
  -3   5   5   19.75    4.54
  -3   5   5   22.96    4.72
   3  -5  -5   21.80    4.70
   3  -5  -5   21.80    4.70
  -3   5   4    1.20    3.59
  -3   5   4    1.54    3.89
  -3   5   4    1.20    3.59
  -3   5   4    1.54    3.89
   3  -5  -4   -1.15    4.04
   3  -5  -4   -1.15    4.04
  -3   5   3    4.01    3.55
  -3   5   3    4.81    3.50
  -3   5   3    4.01    3.55
  -3   5   3    4.81    3.50
   3  -5  -3    5.63    3.79
   3  -5  -3    5.63    3.79
  -3   5   2    0.35    3.20
  -3   5   2    7.85    3.76
  -3   5   2    0.35    3.20
  -3   5   2    7.85    3.76
   3  -5  -2    4.15    3.85
   3  -5  -2    4.15    3.85
  -3   5   1    1.73    4.15
  -3   5   1    3.28    3.84
  -3   5   1    2.18    3.07
  -3   5   1    1.00    3.33
  -3   5   1    1.73    4.15
  -3   5   1    3.28    3.84
  -3   5   1    2.18    3.07
  -3   5   1    1.00    3.33
   3  -5  -1    0.13    3.31
   3  -5  -1    0.13    3.31
  -3   5   0  196.90    6.75
  -3   5   0  175.84    7.93
  -3   5   0  184.63    7.05
  -3   5   0  196.16    6.43
  -3   5   0  185.79    6.93
  -3   5   0  196.90    6.75
  -3   5   0  175.84    7.93
  -3   5   0  184.63    7.05
  -3   5   0  196.16    6.43
  -3   5   0  185.79    6.93
   3  -5   0  190.17    7.44
   3  -5   0  190.17    7.44
  -3   5  -1  163.21    6.61
  -3   5  -1  170.56    7.57
  -3   5  -1  168.72    7.04
  -3   5  -1  163.94    5.83
  -3   5  -1  171.77    7.03
  -3   5  -1  156.34    6.39
  -3   5  -1  163.21    6.61
  -3   5  -1  170.56    7.57
  -3   5  -1  168.72    7.04
  -3   5  -1  163.94    5.83
  -3   5  -1  171.77    7.03
  -3   5  -1  156.34    6.39
  -3   5  -2    0.20    2.99
  -3   5  -2    1.67    3.71
  -3   5  -2    0.41    3.00
  -3   5  -2    2.18    2.54
  -3   5  -2    0.73    3.28
  -3   5  -2    0.20    2.99
  -3   5  -2    1.67    3.71
  -3   5  -2    0.41    3.00
  -3   5  -2    2.18    2.54
  -3   5  -2    0.73    3.28
  -3   5  -3   -1.76    3.11
  -3   5  -3   -3.09    3.66
  -3   5  -3   -1.74    3.05
  -3   5  -3    0.81    2.14
  -3   5  -3    2.11    3.14
  -3   5  -3   -1.76    3.11
  -3   5  -3   -3.09    3.66
  -3   5  -3   -1.74    3.05
  -3   5  -3    0.81    2.14
  -3   5  -3    2.11    3.14
  -3   5  -4    5.01    3.54
  -3   5  -4    7.55    3.84
  -3   5  -4    4.12    3.40
  -3   5  -4    5.01    3.54
  -3   5  -4    7.55    3.84
  -3   5  -4    4.12    3.40
  -3   5  -5    1.50    3.63
  -3   5  -5    2.31    3.44
  -3   5  -5    1.50    3.63
  -3   5  -5    2.31    3.44
  -3   5  -6  140.05    8.17
  -3   5  -6  125.72    6.45
  -3   5  -6  140.05    8.17
  -3   5  -6  125.72    6.45
  -3   5  -7  148.46    8.45
  -3   5  -7  161.86    6.95
  -3   5  -7  148.46    8.45
  -3   5  -7  161.86    6.95
  -3   5  -8   13.66    4.89
  -3   5  -8   13.80    4.13
  -3   5  -8   13.66    4.89
  -3   5  -8   13.80    4.13
  -3   5  -9   69.55    7.70
  -3   5  -9   80.67    6.44
  -3   5  -9   69.55    7.70
  -3   5  -9   80.67    6.44
  -3   5 -10    4.01    4.97
  -3   5 -10    2.80    4.13
  -3   5 -10    4.01    4.97
  -3   5 -10    2.80    4.13
  -3   5 -11   66.15    7.55
  -3   5 -11   65.22    6.60
  -3   5 -11   66.15    7.55
  -3   5 -11   65.22    6.60
  -3   5 -12    4.38    5.41
  -3   5 -12    1.64    4.48
  -3   5 -12    4.38    5.41
  -3   5 -12    1.64    4.48
   3  -4 -12   10.27    5.66
   3  -4 -12   15.11    5.87
   3  -4 -12   10.27    5.66
   3  -4 -12   15.11    5.87
   3  -4 -11    2.88    5.15
   3  -4 -11   -0.75    5.10
   3  -4 -11    2.88    5.15
   3  -4 -11   -0.75    5.10
  -3   4  10   -2.55    4.92
  -3   4  10   -2.55    4.92
   3  -4 -10   -1.32    5.00
   3  -4 -10    0.72    4.94
   3  -4 -10   -1.32    5.00
   3  -4 -10    0.72    4.94
  -3   4   9   26.80    5.66
  -3   4   9   26.80    5.66
   3  -4  -9   26.48    5.77
   3  -4  -9   23.06    5.53
   3  -4  -9   26.48    5.77
   3  -4  -9   23.06    5.53
  -3   4   8   25.23    4.94
  -3   4   8   25.23    4.94
   3  -4  -8   23.02    5.36
   3  -4  -8   22.57    5.20
   3  -4  -8   23.02    5.36
   3  -4  -8   22.57    5.20
  -3   4   7   38.38    5.45
  -3   4   7   36.73    5.23
  -3   4   7   38.38    5.45
  -3   4   7   36.73    5.23
   3  -4  -7   40.99    5.52
   3  -4  -7   36.23    5.43
   3  -4  -7   40.99    5.52
   3  -4  -7   36.23    5.43
  -3   4   6   11.69    4.28
  -3   4   6   15.46    4.42
  -3   4   6   11.69    4.28
  -3   4   6   15.46    4.42
   3  -4  -6   11.25    4.56
   3  -4  -6   11.69    4.31
   3  -4  -6   11.25    4.56
   3  -4  -6   11.69    4.31
  -3   4   5  132.97    6.57
  -3   4   5  126.36    6.91
  -3   4   5  132.97    6.57
  -3   4   5  126.36    6.91
   3  -4  -5  132.42    7.08
   3  -4  -5  132.42    7.08
  -3   4   4  134.94    6.79
  -3   4   4  136.23    6.79
  -3   4   4  134.94    6.79
  -3   4   4  136.23    6.79
   3  -4  -4  144.17    6.99
   3  -4  -4  124.38    6.63
   3  -4  -4  144.17    6.99
   3  -4  -4  124.38    6.63
  -3   4   3   53.17    5.35
  -3   4   3   56.12    4.97
  -3   4   3   53.17    5.35
  -3   4   3   56.12    4.97
   3  -4  -3   55.64    5.47
   3  -4  -3   58.01    5.40
   3  -4  -3   55.64    5.47
   3  -4  -3   58.01    5.40
  -3   4   2    3.79    3.03
  -3   4   2    6.38    3.36
  -3   4   2    3.79    3.03
  -3   4   2    6.38    3.36
   3  -4  -2    4.56    3.53
   3  -4  -2    2.38    3.20
   3  -4  -2    4.56    3.53
   3  -4  -2    2.38    3.20
  -3   4   1    4.47    4.24
  -3   4   1   -2.03    3.56
  -3   4   1   -0.57    2.68
  -3   4   1   -1.81    2.91
  -3   4   1    4.47    4.24
  -3   4   1   -2.03    3.56
  -3   4   1   -0.57    2.68
  -3   4   1   -1.81    2.91
   3  -4  -1   -1.63    3.15
   3  -4  -1   -1.63    3.15
  -3   4   0   -0.66    2.39
  -3   4   0    2.42    3.88
  -3   4   0   -1.04    3.12
  -3   4   0   -1.41    2.53
  -3   4   0   -1.17    2.77
  -3   4   0   -0.66    2.39
  -3   4   0    2.42    3.88
  -3   4   0   -1.04    3.12
  -3   4   0   -1.41    2.53
  -3   4   0   -1.17    2.77
   3  -4   0    1.34    3.04
   3  -4   0    1.34    3.04
  -3   4  -1  102.92    4.65
  -3   4  -1  112.36    5.92
  -3   4  -1  104.83    6.49
  -3   4  -1  103.18    5.75
  -3   4  -1  108.04    4.67
  -3   4  -1  108.28    5.22
  -3   4  -1  102.84    5.11
  -3   4  -1  102.92    4.65
  -3   4  -1  112.36    5.92
  -3   4  -1  104.83    6.49
  -3   4  -1  103.18    5.75
  -3   4  -1  108.04    4.67
  -3   4  -1  108.28    5.22
  -3   4  -1  102.84    5.11
  -3   4  -2   28.94    2.96
  -3   4  -2   29.17    3.65
  -3   4  -2   37.16    4.38
  -3   4  -2   33.68    3.77
  -3   4  -2   29.26    3.43
  -3   4  -2   28.58    3.45
  -3   4  -2   28.94    2.96
  -3   4  -2   29.17    3.65
  -3   4  -2   37.16    4.38
  -3   4  -2   33.68    3.77
  -3   4  -2   29.26    3.43
  -3   4  -2   28.58    3.45
  -3   4  -3    2.49    2.43
  -3   4  -3   -0.09    2.96
  -3   4  -3    4.01    3.48
  -3   4  -3    1.85    2.91
  -3   4  -3    1.19    1.65
  -3   4  -3    0.97    2.88
  -3   4  -3    2.49    2.43
  -3   4  -3   -0.09    2.96
  -3   4  -3    4.01    3.48
  -3   4  -3    1.85    2.91
  -3   4  -3    1.19    1.65
  -3   4  -3    0.97    2.88
  -3   4  -4    0.91    2.56
  -3   4  -4    1.62    3.23
  -3   4  -4    3.54    3.43
  -3   4  -4    1.77    3.10
  -3   4  -4    0.91    2.56
  -3   4  -4    1.62    3.23
  -3   4  -4    3.54    3.43
  -3   4  -4    1.77    3.10
  -3   4  -5    0.61    3.41
  -3   4  -5    2.48    3.12
  -3   4  -5    0.61    3.41
  -3   4  -5    2.48    3.12
  -3   4  -6    5.36    3.81
  -3   4  -6    3.85    3.07
  -3   4  -6    5.36    3.81
  -3   4  -6    3.85    3.07
  -3   4  -7   48.88    5.41
  -3   4  -7   55.28    5.12
  -3   4  -7   48.88    5.41
  -3   4  -7   55.28    5.12
  -3   4  -8   73.13    7.32
  -3   4  -8   89.91    5.74
  -3   4  -8   73.13    7.32
  -3   4  -8   89.91    5.74
  -3   4  -9   10.41    4.64
  -3   4  -9    4.25    3.52
  -3   4  -9   10.41    4.64
  -3   4  -9    4.25    3.52
  -3   4 -10    4.09    4.55
  -3   4 -10    5.61    3.87
  -3   4 -10    4.09    4.55
  -3   4 -10    5.61    3.87
  -3   4 -11   32.73    5.97
  -3   4 -11   32.07    4.97
  -3   4 -11   32.73    5.97
  -3   4 -11   32.07    4.97
  -3   4 -12   14.60    5.69
  -3   4 -12   10.17    4.44
  -3   4 -12   14.60    5.69
  -3   4 -12   10.17    4.44
  -3   4 -13   -0.43    5.25
  -3   4 -13   -1.36    4.55
  -3   4 -13   -0.43    5.25
  -3   4 -13   -1.36    4.55
   3  -3 -12   79.98    8.09
   3  -3 -12   76.67    8.30
   3  -3 -12   79.98    8.09
   3  -3 -12   76.67    8.30
   3  -3 -11   36.30    6.27
   3  -3 -11   38.59    6.39
   3  -3 -11   36.30    6.27
   3  -3 -11   38.59    6.39
  -3   3  10    9.93    5.24
  -3   3  10    9.93    5.24
   3  -3 -10    6.63    4.98
   3  -3 -10    7.13    5.01
   3  -3 -10    6.63    4.98
   3  -3 -10    7.13    5.01
  -3   3   9  123.28    8.22
  -3   3   9  123.28    8.22
   3  -3  -9  122.51    8.32
   3  -3  -9  113.57    8.02
   3  -3  -9  122.51    8.32
   3  -3  -9  113.57    8.02
  -3   3   8   33.11    5.41
  -3   3   8   33.11    5.41
   3  -3  -8   35.12    5.63
   3  -3  -8   29.84    4.90
   3  -3  -8   35.12    5.63
   3  -3  -8   29.84    4.90
  -3   3   7   45.98    5.12
  -3   3   7   48.39    6.02
  -3   3   7   45.98    5.12
  -3   3   7   48.39    6.02
   3  -3  -7   49.05    6.08
   3  -3  -7   45.30    5.38
   3  -3  -7   49.05    6.08
   3  -3  -7   45.30    5.38
  -3   3   6    1.24    3.38
  -3   3   6    3.84    3.71
  -3   3   6    1.24    3.38
  -3   3   6    3.84    3.71
   3  -3  -6    3.90    3.72
   3  -3  -6    3.55    3.46
   3  -3  -6    3.90    3.72
   3  -3  -6    3.55    3.46
  -3   3   5   36.50    4.56
  -3   3   5   35.97    4.53
  -3   3   5   36.50    4.56
  -3   3   5   35.97    4.53
   3  -3  -5   30.69    4.69
   3  -3  -5   28.95    4.36
   3  -3  -5   30.69    4.69
   3  -3  -5   28.95    4.36
  -3   3   4   49.90    4.70
  -3   3   4   51.51    5.36
  -3   3   4   49.90    4.70
  -3   3   4   51.51    5.36
   3  -3  -4   44.73    5.26
   3  -3  -4   50.99    5.33
   3  -3  -4   44.73    5.26
   3  -3  -4   50.99    5.33
  -3   3   3  167.06    6.28
  -3   3   3  158.01    6.30
  -3   3   3  167.06    6.28
  -3   3   3  158.01    6.30
   3  -3  -3  155.87    6.32
   3  -3  -3  154.77    6.13
   3  -3  -3  155.87    6.32
   3  -3  -3  154.77    6.13
  -3   3   2    9.56    2.93
  -3   3   2   12.59    3.20
  -3   3   2    9.56    2.93
  -3   3   2   12.59    3.20
   3  -3  -2    9.43    3.07
   3  -3  -2    8.99    3.08
   3  -3  -2    9.43    3.07
   3  -3  -2    8.99    3.08
  -3   3   1   55.35    5.77
  -3   3   1   59.94    4.16
  -3   3   1   53.20    4.44
  -3   3   1   55.35    5.77
  -3   3   1   59.94    4.16
  -3   3   1   53.20    4.44
   3  -3  -1   58.05    4.97
   3  -3  -1   54.12    4.46
   3  -3  -1   58.05    4.97
   3  -3  -1   54.12    4.46
  -3   3   0  102.58    5.27
  -3   3   0   91.14    5.52
  -3   3   0   91.81    5.72
  -3   3   0   98.77    4.29
  -3   3   0  100.01    4.62
  -3   3   0  102.58    5.27
  -3   3   0   91.14    5.52
  -3   3   0   91.81    5.72
  -3   3   0   98.77    4.29
  -3   3   0  100.01    4.62
   3  -3   0   98.74    5.00
   3  -3   0   98.74    5.00
  -3   3  -1  137.82    5.65
  -3   3  -1  134.44    6.43
  -3   3  -1  131.36    5.79
  -3   3  -1  133.23    4.11
  -3   3  -1  133.75    5.04
  -3   3  -1  127.03    4.98
  -3   3  -1  137.82    5.65
  -3   3  -1  134.44    6.43
  -3   3  -1  131.36    5.79
  -3   3  -1  133.23    4.11
  -3   3  -1  133.75    5.04
  -3   3  -1  127.03    4.98
  -3   3  -2    9.70    2.49
  -3   3  -2    8.64    2.81
  -3   3  -2    9.71    3.43
  -3   3  -2    9.98    3.03
  -3   3  -2    9.41    1.63
  -3   3  -2   10.45    1.79
  -3   3  -2   12.21    2.67
  -3   3  -2    9.70    2.49
  -3   3  -2    8.64    2.81
  -3   3  -2    9.71    3.43
  -3   3  -2    9.98    3.03
  -3   3  -2    9.41    1.63
  -3   3  -2   10.45    1.79
  -3   3  -2   12.21    2.67
  -3   3  -3   -0.40    2.49
  -3   3  -3    0.02    2.76
  -3   3  -3    2.35    3.18
  -3   3  -3    0.29    2.85
  -3   3  -3   -1.66    2.29
  -3   3  -3   -0.40    2.49
  -3   3  -3    0.02    2.76
  -3   3  -3    2.35    3.18
  -3   3  -3    0.29    2.85
  -3   3  -3   -1.66    2.29
  -3   3  -4    4.82    2.66
  -3   3  -4    7.35    3.18
  -3   3  -4   10.10    3.47
  -3   3  -4    5.85    2.61
  -3   3  -4    4.82    2.66
  -3   3  -4    7.35    3.18
  -3   3  -4   10.10    3.47
  -3   3  -4    5.85    2.61
  -3   3  -5    3.95    2.90
  -3   3  -5    1.93    3.20
  -3   3  -5    2.48    2.65
  -3   3  -5    3.95    2.90
  -3   3  -5    1.93    3.20
  -3   3  -5    2.48    2.65
  -3   3  -6   -1.99    3.34
  -3   3  -6    1.79    2.70
  -3   3  -6   -1.99    3.34
  -3   3  -6    1.79    2.70
  -3   3  -7    1.58    3.65
  -3   3  -7   -0.12    2.91
  -3   3  -7    1.58    3.65
  -3   3  -7   -0.12    2.91
  -3   3  -8   33.51    4.93
  -3   3  -8   41.62    4.78
  -3   3  -8   33.51    4.93
  -3   3  -8   41.62    4.78
  -3   3  -9   26.07    5.08
  -3   3  -9   27.38    3.95
  -3   3  -9   26.07    5.08
  -3   3  -9   27.38    3.95
  -3   3 -10   33.22    5.53
  -3   3 -10   36.56    4.40
  -3   3 -10   33.22    5.53
  -3   3 -10   36.56    4.40
  -3   3 -11    3.33    4.69
  -3   3 -11    1.97    3.64
  -3   3 -11    3.33    4.69
  -3   3 -11    1.97    3.64
  -3   3 -12   13.37    5.46
  -3   3 -12    9.74    4.37
  -3   3 -12   13.37    5.46
  -3   3 -12    9.74    4.37
  -3   3 -13    6.05    5.38
  -3   3 -13    7.97    4.56
  -3   3 -13    6.05    5.38
  -3   3 -13    7.97    4.56
   3  -2 -13   -1.41    5.02
   3  -2 -13    1.71    5.57
   3  -2 -13   -1.41    5.02
   3  -2 -13    1.71    5.57
   3  -2 -12    0.22    4.97
   3  -2 -12    0.42    5.21
   3  -2 -12    0.22    4.97
   3  -2 -12    0.42    5.21
   3  -2 -11   31.79    5.91
   3  -2 -11   40.48    6.27
   3  -2 -11   31.79    5.91
   3  -2 -11   40.48    6.27
  -3   2  10   14.63    5.18
  -3   2  10   14.63    5.18
   3  -2 -10   16.06    5.21
   3  -2 -10    7.17    4.81
   3  -2 -10   16.06    5.21
   3  -2 -10    7.17    4.81
  -3   2   9   21.63    5.16
  -3   2   9   21.63    5.16
   3  -2  -9   28.68    5.32
   3  -2  -9   25.01    5.24
   3  -2  -9   28.68    5.32
   3  -2  -9   25.01    5.24
  -3   2   8  148.59    7.96
  -3   2   8  148.59    7.96
   3  -2  -8  147.25    7.61
   3  -2  -8  149.16    7.87
   3  -2  -8  147.25    7.61
   3  -2  -8  149.16    7.87
  -3   2   7  111.53    7.08
  -3   2   7  119.67    6.26
  -3   2   7  111.53    7.08
  -3   2   7  119.67    6.26
   3  -2  -7   97.83    6.54
   3  -2  -7  106.93    6.95
   3  -2  -7   97.83    6.54
   3  -2  -7  106.93    6.95
  -3   2   6    0.08    3.30
  -3   2   6    1.81    3.51
  -3   2   6    0.08    3.30
  -3   2   6    1.81    3.51
   3  -2  -6    2.45    3.79
   3  -2  -6    0.79    3.61
   3  -2  -6    2.45    3.79
   3  -2  -6    0.79    3.61
  -3   2   5   40.95    4.68
  -3   2   5   39.13    4.35
  -3   2   5   40.95    4.68
  -3   2   5   39.13    4.35
   3  -2  -5   43.37    5.17
   3  -2  -5   47.51    5.40
   3  -2  -5   43.37    5.17
   3  -2  -5   47.51    5.40
  -3   2   4  294.17    7.56
  -3   2   4  290.49    7.21
  -3   2   4  294.17    7.56
  -3   2   4  290.49    7.21
   3  -2  -4  298.35    8.22
   3  -2  -4  285.79    7.44
   3  -2  -4  298.35    8.22
   3  -2  -4  285.79    7.44
  -3   2   3   17.41    3.12
  -3   2   3   15.56    3.16
  -3   2   3   17.41    3.12
  -3   2   3   15.56    3.16
   3  -2  -3   19.42    3.49
   3  -2  -3   15.74    3.12
   3  -2  -3   19.42    3.49
   3  -2  -3   15.74    3.12
  -3   2   2   10.95    2.65
  -3   2   2    7.39    2.78
  -3   2   2   10.95    2.65
  -3   2   2    7.39    2.78
   3  -2  -2   15.06    3.14
   3  -2  -2    9.50    2.61
   3  -2  -2   15.06    3.14
   3  -2  -2    9.50    2.61
  -3   2   1   12.34    2.41
  -3   2   1   11.52    2.66
  -3   2   1   12.34    2.41
  -3   2   1   11.52    2.66
   3  -2  -1   12.09    2.60
   3  -2  -1   11.69    2.53
   3  -2  -1   12.09    2.60
   3  -2  -1   11.69    2.53
  -3   2   0  227.12    7.14
  -3   2   0  230.34    6.32
  -3   2   0  252.44    4.98
  -3   2   0  257.40    5.73
  -3   2   0  227.12    7.14
  -3   2   0  230.34    6.32
  -3   2   0  252.44    4.98
  -3   2   0  257.40    5.73
   3  -2   0  245.54    5.81
   3  -2   0  245.54    5.81
  -3   2  -1  206.90    5.82
  -3   2  -1  209.85    6.80
  -3   2  -1  198.94    5.88
  -3   2  -1  216.46    3.96
  -3   2  -1  205.80    5.00
  -3   2  -1  203.06    4.92
  -3   2  -1  206.90    5.82
  -3   2  -1  209.85    6.80
  -3   2  -1  198.94    5.88
  -3   2  -1  216.46    3.96
  -3   2  -1  205.80    5.00
  -3   2  -1  203.06    4.92
   3  -2   1  203.62    5.05
   3  -2   1  203.62    5.05
  -3   2  -2  435.21    7.12
  -3   2  -2  432.62    8.00
  -3   2  -2  445.96    8.32
  -3   2  -2  427.49    7.82
  -3   2  -2  450.46    6.02
  -3   2  -2  435.21    7.12
  -3   2  -2  432.62    8.00
  -3   2  -2  445.96    8.32
  -3   2  -2  427.49    7.82
  -3   2  -2  450.46    6.02
  -3   2  -3    0.67    2.47
  -3   2  -3    0.79    2.52
  -3   2  -3   -0.26    2.59
  -3   2  -3    0.86    2.71
  -3   2  -3    0.82    1.87
  -3   2  -3    0.67    2.47
  -3   2  -3    0.79    2.52
  -3   2  -3   -0.26    2.59
  -3   2  -3    0.86    2.71
  -3   2  -3    0.82    1.87
  -3   2  -4  333.15    7.08
  -3   2  -4  321.45    7.95
  -3   2  -4  346.58    5.32
  -3   2  -4  333.15    7.08
  -3   2  -4  321.45    7.95
  -3   2  -4  346.58    5.32
  -3   2  -5  461.32    8.16
  -3   2  -5  481.76    9.67
  -3   2  -5  507.90    6.30
  -3   2  -5  461.32    8.16
  -3   2  -5  481.76    9.67
  -3   2  -5  507.90    6.30
  -3   2  -6   71.40    6.32
  -3   2  -6   80.32    3.96
  -3   2  -6   71.40    6.32
  -3   2  -6   80.32    3.96
  -3   2  -7    2.14    3.48
  -3   2  -7    3.41    2.49
  -3   2  -7    2.14    3.48
  -3   2  -7    3.41    2.49
  -3   2  -8   11.62    4.05
  -3   2  -8   15.63    3.02
  -3   2  -8   11.62    4.05
  -3   2  -8   15.63    3.02
  -3   2  -9    0.68    3.87
  -3   2  -9    4.43    2.94
  -3   2  -9    0.68    3.87
  -3   2  -9    4.43    2.94
  -3   2 -10   42.67    5.76
  -3   2 -10   44.81    4.85
  -3   2 -10   42.67    5.76
  -3   2 -10   44.81    4.85
  -3   2 -11   57.06    6.43
  -3   2 -11   52.96    5.44
  -3   2 -11   57.06    6.43
  -3   2 -11   52.96    5.44
  -3   2 -12    3.99    4.82
  -3   2 -12    4.88    3.86
  -3   2 -12    3.99    4.82
  -3   2 -12    4.88    3.86
  -3   2 -13   12.44    5.47
  -3   2 -13   17.68    4.63
  -3   2 -13   12.44    5.47
  -3   2 -13   17.68    4.63
  -3   2 -14    4.64    5.47
  -3   2 -14    2.30    4.43
  -3   2 -14    4.64    5.47
  -3   2 -14    2.30    4.43
   3  -1 -13   -1.05    4.86
   3  -1 -13    1.88    5.70
   3  -1 -13   -1.05    4.86
   3  -1 -13    1.88    5.70
   3  -1 -12    1.28    4.84
   3  -1 -12    5.31    5.31
   3  -1 -12    1.28    4.84
   3  -1 -12    5.31    5.31
   3  -1 -11    4.66    4.85
   3  -1 -11    4.96    4.90
   3  -1 -11    4.66    4.85
   3  -1 -11    4.96    4.90
  -3   1  10    7.06    4.83
  -3   1  10    7.06    4.83
   3  -1 -10   10.49    4.81
   3  -1 -10   10.78    4.90
   3  -1 -10   10.49    4.81
   3  -1 -10   10.78    4.90
  -3   1   9   38.08    5.60
  -3   1   9   38.08    5.60
   3  -1  -9   35.63    5.46
   3  -1  -9   38.93    5.44
   3  -1  -9   35.63    5.46
   3  -1  -9   38.93    5.44
  -3   1   8   -2.06    3.91
  -3   1   8   -2.06    3.91
   3  -1  -8    1.50    3.65
   3  -1  -8   -1.45    3.49
   3  -1  -8    1.50    3.65
   3  -1  -8   -1.45    3.49
  -3   1   7    4.15    3.78
  -3   1   7    2.82    3.61
  -3   1   7    4.15    3.78
  -3   1   7    2.82    3.61
   3  -1  -7    1.75    3.84
   3  -1  -7    0.60    3.74
   3  -1  -7    1.75    3.84
   3  -1  -7    0.60    3.74
  -3   1   6    1.49    3.17
  -3   1   6    0.16    3.32
  -3   1   6    1.49    3.17
  -3   1   6    0.16    3.32
   3  -1  -6    3.26    3.41
   3  -1  -6    0.06    3.42
   3  -1  -6    3.26    3.41
   3  -1  -6    0.06    3.42
  -3   1   5   74.44    5.58
  -3   1   5   74.65    4.89
  -3   1   5   74.44    5.58
  -3   1   5   74.65    4.89
   3  -1  -5   72.67    5.40
   3  -1  -5   71.74    5.47
   3  -1  -5   72.67    5.40
   3  -1  -5   71.74    5.47
  -3   1   4  230.03    6.29
  -3   1   4  228.05    6.54
  -3   1   4  230.03    6.29
  -3   1   4  228.05    6.54
   3  -1  -4  229.60    6.72
   3  -1  -4  224.03    6.56
   3  -1  -4  229.60    6.72
   3  -1  -4  224.03    6.56
  -3   1   3 1137.59   11.33
  -3   1   3 1115.78   11.39
  -3   1   3 1137.59   11.33
  -3   1   3 1115.78   11.39
   3  -1  -3 1133.11   12.17
   3  -1  -3 1125.61   11.28
   3  -1  -3 1133.11   12.17
   3  -1  -3 1125.61   11.28
  -3   1   2  154.58    5.38
  -3   1   2  156.15    5.19
  -3   1   2  154.58    5.38
  -3   1   2  156.15    5.19
   3  -1  -2  160.28    5.73
   3  -1  -2  153.94    5.01
   3  -1  -2  160.28    5.73
   3  -1  -2  153.94    5.01
  -3   1   1    7.95    3.43
  -3   1   1    0.60    2.14
  -3   1   1   -0.13    2.25
  -3   1   1    7.95    3.43
  -3   1   1    0.60    2.14
  -3   1   1   -0.13    2.25
   3  -1  -1    1.45    2.44
   3  -1  -1    1.45    2.44
  -3   1   0   80.27    5.73
  -3   1   0   69.12    5.38
  -3   1   0   79.66    3.33
  -3   1   0   75.88    3.59
  -3   1   0   80.27    5.73
  -3   1   0   69.12    5.38
  -3   1   0   79.66    3.33
  -3   1   0   75.88    3.59
   3  -1   0   78.81    3.97
   3  -1   0   78.81    3.97
  -3   1  -1   66.05    4.50
  -3   1  -1   68.48    4.71
  -3   1  -1   63.77    5.22
  -3   1  -1   73.59    2.41
  -3   1  -1   68.09    3.51
  -3   1  -1   66.05    4.50
  -3   1  -1   68.48    4.71
  -3   1  -1   63.77    5.22
  -3   1  -1   73.59    2.41
  -3   1  -1   68.09    3.51
  -3   1  -2    6.90    2.59
  -3   1  -2    5.20    2.45
  -3   1  -2    2.17    2.99
  -3   1  -2    5.87    2.63
  -3   1  -2    4.93    1.81
  -3   1  -2    6.90    2.59
  -3   1  -2    5.20    2.45
  -3   1  -2    2.17    2.99
  -3   1  -2    5.87    2.63
  -3   1  -2    4.93    1.81
  -3   1  -3   40.95    4.35
  -3   1  -3   40.16    4.73
  -3   1  -3   40.96    4.34
  -3   1  -3   39.50    4.17
  -3   1  -3   42.85    2.73
  -3   1  -3   40.95    4.35
  -3   1  -3   40.16    4.73
  -3   1  -3   40.96    4.34
  -3   1  -3   39.50    4.17
  -3   1  -3   42.85    2.73
  -3   1  -4   64.01    4.72
  -3   1  -4   60.64    5.25
  -3   1  -4   67.46    2.46
  -3   1  -4   62.78    2.32
  -3   1  -4   64.01    4.72
  -3   1  -4   60.64    5.25
  -3   1  -4   67.46    2.46
  -3   1  -4   62.78    2.32
  -3   1  -5  416.87    8.33
  -3   1  -5  430.40    9.03
  -3   1  -5  430.98    4.40
  -3   1  -5  417.15    4.21
  -3   1  -5  416.87    8.33
  -3   1  -5  430.40    9.03
  -3   1  -5  430.98    4.40
  -3   1  -5  417.15    4.21
  -3   1  -6  181.11    7.23
  -3   1  -6  176.19    3.75
  -3   1  -6  181.11    7.23
  -3   1  -6  176.19    3.75
  -3   1  -7  149.97    7.13
  -3   1  -7  162.88    4.23
  -3   1  -7  149.97    7.13
  -3   1  -7  162.88    4.23
  -3   1  -8    0.61    3.52
  -3   1  -8   -0.75    2.29
  -3   1  -8    0.61    3.52
  -3   1  -8   -0.75    2.29
  -3   1  -9   27.86    4.75
  -3   1  -9   28.49    3.27
  -3   1  -9   27.86    4.75
  -3   1  -9   28.49    3.27
  -3   1 -10   52.82    6.47
  -3   1 -10   41.78    4.77
  -3   1 -10   52.82    6.47
  -3   1 -10   41.78    4.77
  -3   1 -11    5.52    4.46
  -3   1 -11    9.33    3.54
  -3   1 -11    5.52    4.46
  -3   1 -11    9.33    3.54
  -3   1 -12   31.51    5.68
  -3   1 -12   30.65    4.47
  -3   1 -12   31.51    5.68
  -3   1 -12   30.65    4.47
  -3   1 -13   -2.71    4.57
  -3   1 -13    1.26    3.92
  -3   1 -13   -2.71    4.57
  -3   1 -13    1.26    3.92
  -3   1 -14    5.28    5.29
  -3   1 -14    6.46    4.16
  -3   1 -14    5.28    5.29
  -3   1 -14    6.46    4.16
   3   0 -13    1.66    4.96
   3   0 -13    5.93    5.47
   3   0 -13    1.66    4.96
   3   0 -13    5.93    5.47
   3   0 -12    2.84    4.96
   3   0 -12    3.16    5.10
   3   0 -12    2.84    4.96
   3   0 -12    3.16    5.10
   3   0 -11   20.84    5.34
   3   0 -11   26.74    5.71
   3   0 -11   20.84    5.34
   3   0 -11   26.74    5.71
  -3   0  10    0.33    4.19
  -3   0  10    0.33    4.19
   3   0 -10    0.08    4.29
   3   0 -10   -1.71    4.34
   3   0 -10    0.08    4.29
   3   0 -10   -1.71    4.34
  -3   0   9    6.01    4.42
  -3   0   9    6.01    4.42
   3   0  -9    3.19    3.91
   3   0  -9    1.11    4.29
   3   0  -9    3.19    3.91
   3   0  -9    1.11    4.29
  -3   0   8   63.59    6.06
  -3   0   8   63.59    6.06
   3   0  -8   63.05    6.62
   3   0  -8   59.61    6.43
   3   0  -8   63.05    6.62
   3   0  -8   59.61    6.43
  -3   0   7    5.70    3.51
  -3   0   7   11.22    3.75
  -3   0   7    5.70    3.51
  -3   0   7   11.22    3.75
   3   0  -7   13.96    4.16
   3   0  -7    9.35    3.61
   3   0  -7   13.96    4.16
   3   0  -7    9.35    3.61
  -3   0   6    6.60    3.54
  -3   0   6    8.46    3.45
  -3   0   6    6.60    3.54
  -3   0   6    8.46    3.45
   3   0  -6    8.14    3.42
   3   0  -6    4.29    3.38
   3   0  -6    8.14    3.42
   3   0  -6    4.29    3.38
  -3   0   5    2.53    3.05
  -3   0   5   -2.67    2.55
  -3   0   5    2.53    3.05
  -3   0   5   -2.67    2.55
   3   0  -5   -0.96    2.86
   3   0  -5    0.86    2.98
   3   0  -5   -0.96    2.86
   3   0  -5    0.86    2.98
  -3   0   4   66.69    4.92
  -3   0   4   71.42    4.33
  -3   0   4   66.69    4.92
  -3   0   4   71.42    4.33
   3   0  -4   68.68    4.75
   3   0  -4   69.08    4.81
   3   0  -4   68.68    4.75
   3   0  -4   69.08    4.81
  -3   0   3   48.14    4.39
  -3   0   3   46.25    4.21
  -3   0   3   48.14    4.39
  -3   0   3   46.25    4.21
   3   0  -3   42.80    4.79
   3   0  -3   36.90    3.63
   3   0  -3   42.80    4.79
   3   0  -3   36.90    3.63
  -3   0   2  154.42    4.91
  -3   0   2  151.03    5.01
  -3   0   2  154.42    4.91
  -3   0   2  151.03    5.01
   3   0  -2  143.51    4.89
   3   0  -2  140.52    4.71
   3   0  -2  143.51    4.89
   3   0  -2  140.52    4.71
  -3   0   1   92.34    5.72
  -3   0   1   95.31    3.85
  -3   0   1   95.31    4.06
  -3   0   1   92.34    5.72
  -3   0   1   95.31    3.85
  -3   0   1   95.31    4.06
   3   0  -1   87.23    4.41
   3   0  -1   87.23    4.41
  -3   0   0   39.36    4.82
  -3   0   0   36.43    4.14
  -3   0   0   38.50    2.88
  -3   0   0   38.55    3.21
  -3   0   0   36.67    3.39
  -3   0   0   39.36    4.82
  -3   0   0   36.43    4.14
  -3   0   0   38.50    2.88
  -3   0   0   38.55    3.21
  -3   0   0   36.67    3.39
  -3   0  -1    1.90    2.82
  -3   0  -1   -0.56    2.63
  -3   0  -1    1.85    1.63
  -3   0  -1   -1.52    2.26
  -3   0  -1    1.90    2.82
  -3   0  -1   -0.56    2.63
  -3   0  -1    1.85    1.63
  -3   0  -1   -1.52    2.26
  -3   0  -2    0.94    2.32
  -3   0  -2    1.91    2.27
  -3   0  -2    1.31    2.55
  -3   0  -2    2.18    2.42
  -3   0  -2    2.20    1.26
  -3   0  -2    4.34    2.58
  -3   0  -2    0.94    2.32
  -3   0  -2    1.91    2.27
  -3   0  -2    1.31    2.55
  -3   0  -2    2.18    2.42
  -3   0  -2    2.20    1.26
  -3   0  -2    4.34    2.58
  -3   0  -3   17.18    2.93
  -3   0  -3   14.89    2.74
  -3   0  -3   26.39    3.23
  -3   0  -3   17.18    2.93
  -3   0  -3   14.89    2.74
  -3   0  -3   26.39    3.23
  -3   0  -4   53.22    4.18
  -3   0  -4   48.88    5.01
  -3   0  -4   41.24    4.89
  -3   0  -4   53.22    4.18
  -3   0  -4   48.88    5.01
  -3   0  -4   41.24    4.89
  -3   0  -5   20.70    3.38
  -3   0  -5   19.01    3.16
  -3   0  -5   18.70    3.34
  -3   0  -5   20.70    3.38
  -3   0  -5   19.01    3.16
  -3   0  -5   18.70    3.34
  -3   0  -6   29.91    3.70
  -3   0  -6   35.10    2.00
  -3   0  -6   29.91    3.70
  -3   0  -6   35.10    2.00
  -3   0  -7   -1.22    2.98
  -3   0  -7    3.17    1.72
  -3   0  -7   -1.22    2.98
  -3   0  -7    3.17    1.72
  -3   0  -8    7.31    3.54
  -3   0  -8    7.77    2.28
  -3   0  -8    7.31    3.54
  -3   0  -8    7.77    2.28
  -3   0  -9   16.07    4.09
  -3   0  -9   15.10    2.80
  -3   0  -9   16.07    4.09
  -3   0  -9   15.10    2.80
  -3   0 -10  188.67    8.24
  -3   0 -10  181.24    5.95
  -3   0 -10  188.67    8.24
  -3   0 -10  181.24    5.95
  -3   0 -11  121.13    7.85
  -3   0 -11  128.75    6.09
  -3   0 -11  121.13    7.85
  -3   0 -11  128.75    6.09
  -3   0 -12   32.28    5.55
  -3   0 -12   27.30    4.25
  -3   0 -12   32.28    5.55
  -3   0 -12   27.30    4.25
  -3   0 -13   19.98    5.30
  -3   0 -13   15.60    4.29
  -3   0 -13   19.98    5.30
  -3   0 -13   15.60    4.29
  -3   0 -14   -0.02    4.69
  -3   0 -14    2.57    4.21
  -3   0 -14   -0.02    4.69
  -3   0 -14    2.57    4.21
   3   1 -13   76.19    6.65
   3   1 -13   80.67    7.78
   3   1 -13   68.51    8.12
   3   1 -13   76.19    6.65
   3   1 -13   80.67    7.78
   3   1 -13   68.51    8.12
   3   1 -12   25.99    5.68
   3   1 -12   35.06    6.43
   3   1 -12   25.99    5.68
   3   1 -12   35.06    6.43
   3   1 -11    0.24    4.42
   3   1 -11    2.83    4.80
   3   1 -11    0.24    4.42
   3   1 -11    2.83    4.80
   3   1 -10   64.05    6.88
   3   1 -10   59.39    6.95
   3   1 -10   64.05    6.88
   3   1 -10   59.39    6.95
  -3  -1   9  135.54    8.18
  -3  -1   9  135.54    8.18
   3   1  -9  128.49    7.73
   3   1  -9  124.22    7.67
   3   1  -9  128.49    7.73
   3   1  -9  124.22    7.67
  -3  -1   8   56.54    6.68
  -3  -1   8   56.54    6.68
   3   1  -8   55.09    6.47
   3   1  -8   66.57    6.49
   3   1  -8   55.09    6.47
   3   1  -8   66.57    6.49
  -3  -1   7    3.04    3.77
  -3  -1   7   -0.88    2.99
  -3  -1   7    3.04    3.77
  -3  -1   7   -0.88    2.99
   3   1  -7   -0.48    3.68
   3   1  -7   -0.05    3.57
   3   1  -7   -0.48    3.68
   3   1  -7   -0.05    3.57
  -3  -1   6    1.90    3.41
  -3  -1   6    2.44    3.21
  -3  -1   6    1.90    3.41
  -3  -1   6    2.44    3.21
   3   1  -6    4.07    3.46
   3   1  -6    2.58    3.30
   3   1  -6    4.07    3.46
   3   1  -6    2.58    3.30
  -3  -1   5    6.84    3.24
  -3  -1   5    5.67    2.99
  -3  -1   5    6.84    3.24
  -3  -1   5    5.67    2.99
   3   1  -5    6.33    3.29
   3   1  -5    2.47    2.74
   3   1  -5    6.33    3.29
   3   1  -5    2.47    2.74
  -3  -1   4    8.53    2.85
  -3  -1   4   12.96    2.98
  -3  -1   4    8.53    2.85
  -3  -1   4   12.96    2.98
   3   1  -4   13.48    3.18
   3   1  -4    9.89    2.88
   3   1  -4   13.48    3.18
   3   1  -4    9.89    2.88
  -3  -1   3   78.57    4.80
  -3  -1   3   79.69    4.64
  -3  -1   3   78.57    4.80
  -3  -1   3   79.69    4.64
   3   1  -3   79.71    4.58
   3   1  -3   73.35    4.61
   3   1  -3   79.71    4.58
   3   1  -3   73.35    4.61
  -3  -1   2    2.58    2.39
  -3  -1   2    1.91    2.20
  -3  -1   2    2.58    2.39
  -3  -1   2    1.91    2.20
   3   1  -2    2.06    2.56
   3   1  -2    4.09    2.37
   3   1  -2    2.06    2.56
   3   1  -2    4.09    2.37
  -3  -1   1    7.18    2.72
  -3  -1   1    7.16    2.83
  -3  -1   1    8.10    2.09
  -3  -1   1    8.00    2.24
  -3  -1   1    7.18    2.72
  -3  -1   1    7.16    2.83
  -3  -1   1    8.10    2.09
  -3  -1   1    8.00    2.24
   3   1  -1    7.35    2.35
   3   1  -1    7.35    2.35
  -3  -1   0    6.30    2.61
  -3  -1   0    6.93    2.65
  -3  -1   0    8.47    1.78
  -3  -1   0    6.61    1.98
  -3  -1   0    6.96    2.26
  -3  -1   0    6.30    2.61
  -3  -1   0    6.93    2.65
  -3  -1   0    8.47    1.78
  -3  -1   0    6.61    1.98
  -3  -1   0    6.96    2.26
  -3  -1  -1   22.32    2.99
  -3  -1  -1   23.39    2.96
  -3  -1  -1   23.10    2.37
  -3  -1  -1   23.58    2.81
  -3  -1  -1   22.32    2.99
  -3  -1  -1   23.39    2.96
  -3  -1  -1   23.10    2.37
  -3  -1  -1   23.58    2.81
  -3  -1  -2   66.70    4.26
  -3  -1  -2   74.31    4.69
  -3  -1  -2   60.35    4.17
  -3  -1  -2   65.76    4.23
  -3  -1  -2   61.46    1.74
  -3  -1  -2   64.21    4.39
  -3  -1  -2   66.70    4.26
  -3  -1  -2   74.31    4.69
  -3  -1  -2   60.35    4.17
  -3  -1  -2   65.76    4.23
  -3  -1  -2   61.46    1.74
  -3  -1  -2   64.21    4.39
  -3  -1  -3   49.51    4.97
  -3  -1  -3   52.08    4.68
  -3  -1  -3   57.18    4.73
  -3  -1  -3   49.51    4.97
  -3  -1  -3   52.08    4.68
  -3  -1  -3   57.18    4.73
  -3  -1  -4   14.16    2.89
  -3  -1  -4   18.11    2.85
  -3  -1  -4   18.78    3.12
  -3  -1  -4   14.16    2.89
  -3  -1  -4   18.11    2.85
  -3  -1  -4   18.78    3.12
  -3  -1  -5  128.63    5.40
  -3  -1  -5  137.23    5.74
  -3  -1  -5  114.21    5.19
  -3  -1  -5  128.63    5.40
  -3  -1  -5  137.23    5.74
  -3  -1  -5  114.21    5.19
  -3  -1  -6   57.76    5.52
  -3  -1  -6   58.92    2.09
  -3  -1  -6   61.44    2.02
  -3  -1  -6   60.11    5.12
  -3  -1  -6   57.76    5.52
  -3  -1  -6   58.92    2.09
  -3  -1  -6   61.44    2.02
  -3  -1  -6   60.11    5.12
  -3  -1  -7   99.83    6.07
  -3  -1  -7   99.21    3.24
  -3  -1  -7   86.89    5.63
  -3  -1  -7   99.83    6.07
  -3  -1  -7   99.21    3.24
  -3  -1  -7   86.89    5.63
  -3  -1  -8   49.82    6.15
  -3  -1  -8   49.82    6.15
  -3  -1  -9    3.70    3.53
  -3  -1  -9    4.95    2.53
  -3  -1  -9    3.70    3.53
  -3  -1  -9    4.95    2.53
  -3  -1 -10   37.89    4.87
  -3  -1 -10   38.24    4.28
  -3  -1 -10   37.89    4.87
  -3  -1 -10   38.24    4.28
  -3  -1 -11   44.28    5.30
  -3  -1 -11   51.66    4.92
  -3  -1 -11   44.28    5.30
  -3  -1 -11   51.66    4.92
  -3  -1 -12   86.87    7.61
  -3  -1 -12   78.73    5.81
  -3  -1 -12   86.87    7.61
  -3  -1 -12   78.73    5.81
  -3  -1 -13   -1.67    4.12
  -3  -1 -13   -1.55    3.74
  -3  -1 -13   -1.67    4.12
  -3  -1 -13   -1.55    3.74
  -3  -1 -14    6.15    4.31
  -3  -1 -14   -0.03    4.20
  -3  -1 -14    6.15    4.31
  -3  -1 -14   -0.03    4.20
  -3  -1 -15   40.18    5.54
  -3  -1 -15   40.18    5.54
   3   2 -13   11.11    4.53
   3   2 -13   12.19    5.59
   3   2 -13   14.96    5.85
   3   2 -13   11.11    4.53
   3   2 -13   12.19    5.59
   3   2 -13   14.96    5.85
   3   2 -12    1.57    4.17
   3   2 -12   -0.44    4.70
   3   2 -12    4.32    5.07
   3   2 -12    1.57    4.17
   3   2 -12   -0.44    4.70
   3   2 -12    4.32    5.07
   3   2 -11   -3.62    4.39
   3   2 -11    4.63    4.80
   3   2 -11   -3.62    4.39
   3   2 -11    4.63    4.80
   3   2 -10    1.12    4.22
   3   2 -10    0.75    4.44
   3   2 -10    1.12    4.22
   3   2 -10    0.75    4.44
  -3  -2   9   70.00    7.36
  -3  -2   9   70.00    7.36
   3   2  -9   61.47    6.71
   3   2  -9   60.10    6.65
   3   2  -9   61.47    6.71
   3   2  -9   60.10    6.65
  -3  -2   8  211.80    8.53
  -3  -2   8  211.80    8.53
   3   2  -8  192.84    7.64
   3   2  -8  199.42    7.68
   3   2  -8  192.84    7.64
   3   2  -8  199.42    7.68
  -3  -2   7   40.60    4.87
  -3  -2   7   42.30    4.62
  -3  -2   7   40.60    4.87
  -3  -2   7   42.30    4.62
   3   2  -7   37.79    4.78
   3   2  -7   31.75    4.56
   3   2  -7   37.79    4.78
   3   2  -7   31.75    4.56
  -3  -2   6   31.03    4.25
  -3  -2   6   26.03    3.82
  -3  -2   6   31.03    4.25
  -3  -2   6   26.03    3.82
   3   2  -6   28.04    4.21
   3   2  -6   29.34    4.18
   3   2  -6   28.04    4.21
   3   2  -6   29.34    4.18
  -3  -2   5  342.04    8.08
  -3  -2   5  337.55    7.75
  -3  -2   5  342.04    8.08
  -3  -2   5  337.55    7.75
   3   2  -5  339.91    7.98
   3   2  -5  342.17    7.65
   3   2  -5  339.91    7.98
   3   2  -5  342.17    7.65
  -3  -2   4  166.33    5.53
  -3  -2   4  169.87    5.79
  -3  -2   4  166.33    5.53
  -3  -2   4  169.87    5.79
   3   2  -4  173.01    6.38
   3   2  -4  170.63    5.90
   3   2  -4  173.01    6.38
   3   2  -4  170.63    5.90
  -3  -2   3    6.33    2.74
  -3  -2   3    8.91    2.80
  -3  -2   3    6.33    2.74
  -3  -2   3    8.91    2.80
   3   2  -3    3.23    2.63
   3   2  -3    4.23    2.75
   3   2  -3    3.23    2.63
   3   2  -3    4.23    2.75
  -3  -2   2  206.65    5.29
  -3  -2   2  210.76    5.48
  -3  -2   2  200.44    5.44
  -3  -2   2  206.65    5.29
  -3  -2   2  210.76    5.48
  -3  -2   2  200.44    5.44
   3   2  -2  204.98    5.83
   3   2  -2  204.70    5.41
   3   2  -2  204.98    5.83
   3   2  -2  204.70    5.41
  -3  -2   1   93.96    3.95
  -3  -2   1   88.45    4.47
  -3  -2   1   94.41    3.97
  -3  -2   1   95.22    4.01
  -3  -2   1   93.96    3.95
  -3  -2   1   88.45    4.47
  -3  -2   1   94.41    3.97
  -3  -2   1   95.22    4.01
   3   2  -1   92.86    4.45
   3   2  -1   92.86    4.45
  -3  -2   0   99.81    4.13
  -3  -2   0   95.89    3.84
  -3  -2   0  104.71    3.47
  -3  -2   0   99.67    3.54
  -3  -2   0   99.81    4.13
  -3  -2   0   95.89    3.84
  -3  -2   0  104.71    3.47
  -3  -2   0   99.67    3.54
   3   2   0  105.48    3.95
   3   2   0  105.48    3.95
  -3  -2  -1  159.91    4.90
  -3  -2  -1  152.54    4.97
  -3  -2  -1  162.17    3.55
  -3  -2  -1  159.91    4.90
  -3  -2  -1  152.54    4.97
  -3  -2  -1  162.17    3.55
  -3  -2  -2  114.48    5.20
  -3  -2  -2  113.42    2.80
  -3  -2  -2  114.48    5.20
  -3  -2  -2  113.42    2.80
  -3  -2  -3   86.21    5.08
  -3  -2  -3   93.39    5.08
  -3  -2  -3   97.85    2.17
  -3  -2  -3   72.76    4.62
  -3  -2  -3   86.21    5.08
  -3  -2  -3   93.39    5.08
  -3  -2  -3   97.85    2.17
  -3  -2  -3   72.76    4.62
  -3  -2  -4  388.64    7.66
  -3  -2  -4  403.27    7.09
  -3  -2  -4  409.24    2.78
  -3  -2  -4  359.79    7.14
  -3  -2  -4  388.64    7.66
  -3  -2  -4  403.27    7.09
  -3  -2  -4  409.24    2.78
  -3  -2  -4  359.79    7.14
  -3  -2  -5   86.74    5.55
  -3  -2  -5   93.71    5.19
  -3  -2  -5   93.47    2.32
  -3  -2  -5   93.28    2.23
  -3  -2  -5   91.91    5.04
  -3  -2  -5   86.74    5.55
  -3  -2  -5   93.71    5.19
  -3  -2  -5   93.47    2.32
  -3  -2  -5   93.28    2.23
  -3  -2  -5   91.91    5.04
  -3  -2  -6    3.69    2.61
  -3  -2  -6    3.53    1.57
  -3  -2  -6    4.57    1.42
  -3  -2  -6    6.29    2.93
  -3  -2  -6    3.69    2.61
  -3  -2  -6    3.53    1.57
  -3  -2  -6    4.57    1.42
  -3  -2  -6    6.29    2.93
  -3  -2  -7  146.35    6.38
  -3  -2  -7  143.62    3.97
  -3  -2  -7  132.62    5.92
  -3  -2  -7  146.35    6.38
  -3  -2  -7  143.62    3.97
  -3  -2  -7  132.62    5.92
  -3  -2  -8  104.92    6.44
  -3  -2  -8  107.93    4.34
  -3  -2  -8  108.13    6.16
  -3  -2  -8  104.92    6.44
  -3  -2  -8  107.93    4.34
  -3  -2  -8  108.13    6.16
  -3  -2  -9   11.34    3.52
  -3  -2  -9   10.58    2.83
  -3  -2  -9   14.63    4.09
  -3  -2  -9   11.34    3.52
  -3  -2  -9   10.58    2.83
  -3  -2  -9   14.63    4.09
  -3  -2 -10   30.91    4.40
  -3  -2 -10   36.02    4.50
  -3  -2 -10   30.91    4.40
  -3  -2 -10   36.02    4.50
  -3  -2 -11   30.65    4.65
  -3  -2 -11   30.65    4.65
  -3  -2 -12    8.17    3.67
  -3  -2 -12   10.55    3.94
  -3  -2 -12    8.17    3.67
  -3  -2 -12   10.55    3.94
  -3  -2 -13    1.84    3.64
  -3  -2 -13    4.96    4.11
  -3  -2 -13    1.84    3.64
  -3  -2 -13    4.96    4.11
  -3  -2 -14    5.75    4.40
  -3  -2 -14    5.75    4.40
  -3  -2 -15   11.80    4.97
  -3  -2 -15   11.80    4.97
   3   3 -13   68.86    6.76
   3   3 -13   89.91    7.94
   3   3 -13   81.65    8.97
   3   3 -13   68.86    6.76
   3   3 -13   89.91    7.94
   3   3 -13   81.65    8.97
   3   3 -12   34.79    5.15
   3   3 -12   33.96    5.88
   3   3 -12   45.91    6.69
   3   3 -12   34.79    5.15
   3   3 -12   33.96    5.88
   3   3 -12   45.91    6.69
   3   3 -11    6.99    4.02
   3   3 -11    6.72    4.81
   3   3 -11    0.94    4.87
   3   3 -11    6.99    4.02
   3   3 -11    6.72    4.81
   3   3 -11    0.94    4.87
   3   3 -10    3.41    3.99
   3   3 -10    1.36    4.35
   3   3 -10    2.91    4.44
   3   3 -10    3.41    3.99
   3   3 -10    1.36    4.35
   3   3 -10    2.91    4.44
  -3  -3   9   37.08    5.60
  -3  -3   9   37.08    5.60
   3   3  -9   33.37    5.24
   3   3  -9   27.34    5.12
   3   3  -9   33.37    5.24
   3   3  -9   27.34    5.12
  -3  -3   8   31.19    5.05
  -3  -3   8   31.19    5.05
   3   3  -8   30.26    4.93
   3   3  -8   29.44    4.82
   3   3  -8   30.26    4.93
   3   3  -8   29.44    4.82
  -3  -3   7   12.43    4.08
  -3  -3   7   12.43    4.08
   3   3  -7   10.91    4.02
   3   3  -7   14.09    4.11
   3   3  -7   10.91    4.02
   3   3  -7   14.09    4.11
  -3  -3   6    0.06    3.45
  -3  -3   6    0.46    3.23
  -3  -3   6    0.06    3.45
  -3  -3   6    0.46    3.23
   3   3  -6    1.52    3.54
   3   3  -6   -1.58    3.45
   3   3  -6    1.52    3.54
   3   3  -6   -1.58    3.45
  -3  -3   5  199.69    7.15
  -3  -3   5  185.92    6.48
  -3  -3   5  199.69    7.15
  -3  -3   5  185.92    6.48
   3   3  -5  184.15    6.58
   3   3  -5  201.31    6.87
   3   3  -5  184.15    6.58
   3   3  -5  201.31    6.87
  -3  -3   4  600.39    9.41
  -3  -3   4  565.65    8.78
  -3  -3   4  600.39    9.41
  -3  -3   4  565.65    8.78
   3   3  -4  601.98    9.57
   3   3  -4  587.90    9.31
   3   3  -4  601.98    9.57
   3   3  -4  587.90    9.31
  -3  -3   3  497.65    6.26
  -3  -3   3  517.94    8.27
  -3  -3   3  508.96    8.17
  -3  -3   3  497.65    6.26
  -3  -3   3  517.94    8.27
  -3  -3   3  508.96    8.17
   3   3  -3  508.70    8.38
   3   3  -3  522.87    8.25
   3   3  -3  508.70    8.38
   3   3  -3  522.87    8.25
  -3  -3   2   70.00    3.52
  -3  -3   2   67.24    4.02
  -3  -3   2   70.14    3.97
  -3  -3   2   70.00    3.52
  -3  -3   2   67.24    4.02
  -3  -3   2   70.14    3.97
   3   3  -2   75.83    4.46
   3   3  -2   71.52    4.56
   3   3  -2   75.83    4.46
   3   3  -2   71.52    4.56
  -3  -3   1  232.51    4.55
  -3  -3   1  225.31    5.18
  -3  -3   1  244.82    5.51
  -3  -3   1  238.41    5.55
  -3  -3   1  232.51    4.55
  -3  -3   1  225.31    5.18
  -3  -3   1  244.82    5.51
  -3  -3   1  238.41    5.55
   3   3  -1  247.71    6.04
   3   3  -1  243.37    5.57
   3   3  -1  247.71    6.04
   3   3  -1  243.37    5.57
  -3  -3   0   49.65    3.45
  -3  -3   0   46.32    3.32
  -3  -3   0   50.63    3.53
  -3  -3   0   49.65    3.45
  -3  -3   0   46.32    3.32
  -3  -3   0   50.63    3.53
   3   3   0   45.61    3.41
   3   3   0   45.61    3.41
  -3  -3  -1    3.66    2.17
  -3  -3  -1    2.16    2.01
  -3  -3  -1    3.66    2.17
  -3  -3  -1    2.16    2.01
  -3  -3  -2  245.77    6.06
  -3  -3  -2  244.89    4.51
  -3  -3  -2  245.77    6.06
  -3  -3  -2  244.89    4.51
  -3  -3  -3  327.65    6.83
  -3  -3  -3  334.71    4.58
  -3  -3  -3  327.65    6.83
  -3  -3  -3  334.71    4.58
  -3  -3  -4   -0.39    2.82
  -3  -3  -4    1.42    1.49
  -3  -3  -4    1.16    1.73
  -3  -3  -4    0.90    2.87
  -3  -3  -4   -0.39    2.82
  -3  -3  -4    1.42    1.49
  -3  -3  -4    1.16    1.73
  -3  -3  -4    0.90    2.87
  -3  -3  -5   57.68    4.74
  -3  -3  -5   62.40    4.49
  -3  -3  -5   58.81    2.53
  -3  -3  -5   63.74    3.09
  -3  -3  -5   51.09    4.53
  -3  -3  -5   57.68    4.74
  -3  -3  -5   62.40    4.49
  -3  -3  -5   58.81    2.53
  -3  -3  -5   63.74    3.09
  -3  -3  -5   51.09    4.53
  -3  -3  -6  131.62    5.58
  -3  -3  -6  133.62    3.07
  -3  -3  -6  130.95    3.85
  -3  -3  -6  111.19    5.68
  -3  -3  -6  131.62    5.58
  -3  -3  -6  133.62    3.07
  -3  -3  -6  130.95    3.85
  -3  -3  -6  111.19    5.68
  -3  -3  -7    1.23    2.54
  -3  -3  -7    2.49    1.56
  -3  -3  -7    3.58    2.34
  -3  -3  -7    0.45    3.11
  -3  -3  -7    1.23    2.54
  -3  -3  -7    2.49    1.56
  -3  -3  -7    3.58    2.34
  -3  -3  -7    0.45    3.11
  -3  -3  -8   26.02    3.54
  -3  -3  -8   24.20    2.13
  -3  -3  -8   23.89    3.18
  -3  -3  -8   20.07    3.93
  -3  -3  -8   26.02    3.54
  -3  -3  -8   24.20    2.13
  -3  -3  -8   23.89    3.18
  -3  -3  -8   20.07    3.93
  -3  -3  -9   23.71    3.68
  -3  -3  -9   27.58    2.92
  -3  -3  -9   25.12    3.46
  -3  -3  -9   24.72    4.28
  -3  -3  -9   23.71    3.68
  -3  -3  -9   27.58    2.92
  -3  -3  -9   25.12    3.46
  -3  -3  -9   24.72    4.28
  -3  -3 -10    3.88    3.11
  -3  -3 -10    0.74    1.72
  -3  -3 -10    0.96    2.97
  -3  -3 -10   -0.60    3.79
  -3  -3 -10    3.88    3.11
  -3  -3 -10    0.74    1.72
  -3  -3 -10    0.96    2.97
  -3  -3 -10   -0.60    3.79
  -3  -3 -11   61.54    5.94
  -3  -3 -11   93.25    5.66
  -3  -3 -11   61.54    5.94
  -3  -3 -11   93.25    5.66
  -3  -3 -13   11.49    4.40
  -3  -3 -13   11.49    4.40
  -3  -3 -14   -3.93    3.97
  -3  -3 -14   -3.93    3.97
  -3  -3 -15   26.40    5.30
  -3  -3 -15   26.40    5.30
   3   4 -13    2.82    4.51
   3   4 -13   11.56    5.53
   3   4 -13    8.11    5.81
   3   4 -13    2.82    4.51
   3   4 -13   11.56    5.53
   3   4 -13    8.11    5.81
   3   4 -12   12.94    4.73
   3   4 -12    6.24    4.99
   3   4 -12    6.98    5.39
   3   4 -12   12.94    4.73
   3   4 -12    6.24    4.99
   3   4 -12    6.98    5.39
   3   4 -11    7.21    4.26
   3   4 -11    7.44    4.96
   3   4 -11    8.31    5.28
   3   4 -11    7.21    4.26
   3   4 -11    7.44    4.96
   3   4 -11    8.31    5.28
   3   4 -10    7.83    3.99
   3   4 -10    5.57    4.60
   3   4 -10    4.16    4.78
   3   4 -10    7.83    3.99
   3   4 -10    5.57    4.60
   3   4 -10    4.16    4.78
   3   4  -9   19.06    4.43
   3   4  -9   24.81    5.07
   3   4  -9   21.97    5.11
   3   4  -9   19.06    4.43
   3   4  -9   24.81    5.07
   3   4  -9   21.97    5.11
  -3  -4   8   60.40    6.27
  -3  -4   8   60.40    6.27
   3   4  -8   67.08    5.84
   3   4  -8   71.86    6.94
   3   4  -8   69.67    7.02
   3   4  -8   67.08    5.84
   3   4  -8   71.86    6.94
   3   4  -8   69.67    7.02
  -3  -4   7   24.79    4.55
  -3  -4   7   24.79    4.55
   3   4  -7   28.47    4.31
   3   4  -7   23.87    4.58
   3   4  -7   26.57    4.72
   3   4  -7   28.47    4.31
   3   4  -7   23.87    4.58
   3   4  -7   26.57    4.72
  -3  -4   6   28.97    4.49
  -3  -4   6   31.68    4.16
  -3  -4   6   28.97    4.49
  -3  -4   6   31.68    4.16
   3   4  -6   26.02    3.99
   3   4  -6   29.40    4.29
   3   4  -6   29.33    4.22
   3   4  -6   26.02    3.99
   3   4  -6   29.40    4.29
   3   4  -6   29.33    4.22
  -3  -4   5   -2.82    2.88
  -3  -4   5   -2.78    2.68
  -3  -4   5   -2.82    2.88
  -3  -4   5   -2.78    2.68
   3   4  -5    0.67    3.02
   3   4  -5   -0.19    3.33
   3   4  -5   -0.82    3.32
   3   4  -5    0.67    3.02
   3   4  -5   -0.19    3.33
   3   4  -5   -0.82    3.32
  -3  -4   4    6.19    2.14
  -3  -4   4    4.26    3.15
  -3  -4   4    0.22    2.89
  -3  -4   4    6.19    2.14
  -3  -4   4    4.26    3.15
  -3  -4   4    0.22    2.89
   3   4  -4    0.64    2.85
   3   4  -4    1.56    2.87
   3   4  -4    0.64    2.85
   3   4  -4    1.56    2.87
  -3  -4   3   11.88    1.74
  -3  -4   3   14.82    3.11
  -3  -4   3   11.22    2.75
  -3  -4   3   11.88    1.74
  -3  -4   3   14.82    3.11
  -3  -4   3   11.22    2.75
   3   4  -3   15.64    3.29
   3   4  -3   15.09    3.15
   3   4  -3   15.64    3.29
   3   4  -3   15.09    3.15
  -3  -4   2   59.98    2.59
  -3  -4   2   56.49    3.52
  -3  -4   2   57.43    4.62
  -3  -4   2   60.58    4.39
  -3  -4   2   59.98    2.59
  -3  -4   2   56.49    3.52
  -3  -4   2   57.43    4.62
  -3  -4   2   60.58    4.39
   3   4  -2   54.98    5.05
   3   4  -2   51.03    4.48
   3   4  -2   54.98    5.05
   3   4  -2   51.03    4.48
  -3  -4   1   58.95    3.51
  -3  -4   1   59.24    4.39
  -3  -4   1   62.86    3.86
  -3  -4   1   58.95    3.51
  -3  -4   1   59.24    4.39
  -3  -4   1   62.86    3.86
   3   4  -1   63.70    4.38
   3   4  -1   57.87    4.28
   3   4  -1   64.80    4.67
   3   4  -1   63.70    4.38
   3   4  -1   57.87    4.28
   3   4  -1   64.80    4.67
  -3  -4   0   68.26    3.50
  -3  -4   0   65.61    4.01
  -3  -4   0   74.65    4.18
  -3  -4   0   68.26    3.50
  -3  -4   0   65.61    4.01
  -3  -4   0   74.65    4.18
   3   4   0   70.81    4.19
   3   4   0   70.57    4.71
   3   4   0   75.15    4.16
   3   4   0   70.81    4.19
   3   4   0   70.57    4.71
   3   4   0   75.15    4.16
  -3  -4  -1    0.85    2.31
  -3  -4  -1    1.81    2.18
  -3  -4  -1    0.85    2.31
  -3  -4  -1    1.81    2.18
   3   4   1    3.72    2.18
   3   4   1    1.67    2.34
   3   4   1    3.72    2.18
   3   4   1    1.67    2.34
  -3  -4  -2  343.09    6.45
  -3  -4  -2  348.81    5.73
  -3  -4  -2  343.09    6.45
  -3  -4  -2  348.81    5.73
  -3  -4  -3    1.13    2.55
  -3  -4  -3    0.67    2.14
  -3  -4  -3    1.13    2.55
  -3  -4  -3    0.67    2.14
  -3  -4  -4   42.31    4.64
  -3  -4  -4   40.69    3.18
  -3  -4  -4   37.42    3.29
  -3  -4  -4   42.31    4.64
  -3  -4  -4   40.69    3.18
  -3  -4  -4   37.42    3.29
  -3  -4  -5   25.51    3.62
  -3  -4  -5   26.34    3.18
  -3  -4  -5   30.05    3.57
  -3  -4  -5   25.51    3.62
  -3  -4  -5   26.34    3.18
  -3  -4  -5   30.05    3.57
  -3  -4  -6   -0.12    2.20
  -3  -4  -6   -0.39    1.96
  -3  -4  -6    0.15    2.28
  -3  -4  -6   -0.10    3.00
  -3  -4  -6   -0.12    2.20
  -3  -4  -6   -0.39    1.96
  -3  -4  -6    0.15    2.28
  -3  -4  -6   -0.10    3.00
  -3  -4  -7   37.72    4.56
  -3  -4  -7   37.13    3.64
  -3  -4  -7   35.03    3.91
  -3  -4  -7   32.00    4.20
  -3  -4  -7   37.72    4.56
  -3  -4  -7   37.13    3.64
  -3  -4  -7   35.03    3.91
  -3  -4  -7   32.00    4.20
  -3  -4  -8    1.64    2.50
  -3  -4  -8    0.74    2.20
  -3  -4  -8    2.58    2.79
  -3  -4  -8    1.41    3.45
  -3  -4  -8    1.64    2.50
  -3  -4  -8    0.74    2.20
  -3  -4  -8    2.58    2.79
  -3  -4  -8    1.41    3.45
  -3  -4  -9   14.38    2.83
  -3  -4  -9   32.47    3.81
  -3  -4  -9   23.33    3.74
  -3  -4  -9   26.36    4.43
  -3  -4  -9   14.38    2.83
  -3  -4  -9   32.47    3.81
  -3  -4  -9   23.33    3.74
  -3  -4  -9   26.36    4.43
  -3  -4 -10  258.07    5.77
  -3  -4 -10  254.73    7.42
  -3  -4 -10  222.34    7.85
  -3  -4 -10  258.07    5.77
  -3  -4 -10  254.73    7.42
  -3  -4 -10  222.34    7.85
  -3  -4 -11   42.74    3.82
  -3  -4 -11   63.87    5.67
  -3  -4 -11   42.74    3.82
  -3  -4 -11   63.87    5.67
  -3  -4 -12   -5.17    3.68
  -3  -4 -12   -5.17    3.68
  -3  -4 -13   15.62    4.50
  -3  -4 -13   15.62    4.50
   3   5 -12   27.94    5.00
   3   5 -12   23.17    5.79
   3   5 -12   30.90    6.58
   3   5 -12   27.94    5.00
   3   5 -12   23.17    5.79
   3   5 -12   30.90    6.58
   3   5 -11    2.06    4.34
   3   5 -11   -0.69    4.61
   3   5 -11    3.11    5.23
   3   5 -11    2.06    4.34
   3   5 -11   -0.69    4.61
   3   5 -11    3.11    5.23
   3   5 -10   21.21    4.68
   3   5 -10   16.86    5.10
   3   5 -10   16.82    5.54
   3   5 -10   21.21    4.68
   3   5 -10   16.86    5.10
   3   5 -10   16.82    5.54
   3   5  -9   45.15    5.28
   3   5  -9   49.50    6.01
   3   5  -9   43.16    6.00
   3   5  -9   45.15    5.28
   3   5  -9   49.50    6.01
   3   5  -9   43.16    6.00
  -3  -5   8   32.73    5.45
  -3  -5   8   32.73    5.45
   3   5  -8   28.87    4.52
   3   5  -8   29.15    5.22
   3   5  -8   31.61    5.32
   3   5  -8   28.87    4.52
   3   5  -8   29.15    5.22
   3   5  -8   31.61    5.32
  -3  -5   7   63.30    6.12
  -3  -5   7   63.30    6.12
   3   5  -7   50.02    5.58
   3   5  -7   57.58    6.80
   3   5  -7   56.92    6.71
   3   5  -7   50.02    5.58
   3   5  -7   57.58    6.80
   3   5  -7   56.92    6.71
  -3  -5   6   74.92    6.83
  -3  -5   6   68.85    5.87
  -3  -5   6   74.92    6.83
  -3  -5   6   68.85    5.87
   3   5  -6   60.43    5.73
   3   5  -6   69.87    6.78
   3   5  -6   67.27    6.48
   3   5  -6   60.43    5.73
   3   5  -6   69.87    6.78
   3   5  -6   67.27    6.48
  -3  -5   5   11.29    3.93
  -3  -5   5   10.89    3.70
  -3  -5   5   11.29    3.93
  -3  -5   5   10.89    3.70
   3   5  -5   10.20    3.65
   3   5  -5   12.83    3.75
   3   5  -5   10.87    4.00
   3   5  -5   10.20    3.65
   3   5  -5   12.83    3.75
   3   5  -5   10.87    4.00
  -3  -5   4   35.54    4.25
  -3  -5   4   34.40    4.16
  -3  -5   4   35.54    4.25
  -3  -5   4   34.40    4.16
   3   5  -4   31.76    3.77
   3   5  -4   32.81    4.40
   3   5  -4   40.90    4.89
   3   5  -4   31.76    3.77
   3   5  -4   32.81    4.40
   3   5  -4   40.90    4.89
  -3  -5   3   94.10    3.67
  -3  -5   3  103.52    5.94
  -3  -5   3  105.10    5.08
  -3  -5   3   94.10    3.67
  -3  -5   3  103.52    5.94
  -3  -5   3  105.10    5.08
   3   5  -3  102.57    5.58
   3   5  -3  103.67    6.34
   3   5  -3  102.21    5.41
   3   5  -3  102.57    5.58
   3   5  -3  103.67    6.34
   3   5  -3  102.21    5.41
  -3  -5   2    8.38    1.74
  -3  -5   2    6.22    2.91
  -3  -5   2    6.19    2.95
  -3  -5   2    8.38    1.74
  -3  -5   2    6.22    2.91
  -3  -5   2    6.19    2.95
   3   5  -2    4.37    2.61
   3   5  -2    7.50    2.91
   3   5  -2    6.76    2.76
   3   5  -2    4.37    2.61
   3   5  -2    7.50    2.91
   3   5  -2    6.76    2.76
  -3  -5   1    4.99    2.69
  -3  -5   1    7.05    2.79
  -3  -5   1    4.99    2.69
  -3  -5   1    7.05    2.79
   3   5  -1    5.15    2.48
   3   5  -1    2.19    2.63
   3   5  -1    7.05    2.78
   3   5  -1    5.15    2.48
   3   5  -1    2.19    2.63
   3   5  -1    7.05    2.78
  -3  -5   0  127.04    5.00
  -3  -5   0  133.81    4.84
  -3  -5   0  127.04    5.00
  -3  -5   0  133.81    4.84
   3   5   0  140.11    5.28
   3   5   0  132.68    5.20
   3   5   0  138.44    5.01
   3   5   0  140.11    5.28
   3   5   0  132.68    5.20
   3   5   0  138.44    5.01
  -3  -5  -1   96.69    4.44
  -3  -5  -1   93.11    4.18
  -3  -5  -1   96.69    4.44
  -3  -5  -1   93.11    4.18
   3   5   1  106.18    4.80
   3   5   1   97.23    4.53
   3   5   1  106.18    4.80
   3   5   1   97.23    4.53
  -3  -5  -2  248.34    5.49
  -3  -5  -2  256.97    5.93
  -3  -5  -2  248.34    5.49
  -3  -5  -2  256.97    5.93
   3   5   2  262.77    5.93
   3   5   2  262.77    5.93
  -3  -5  -3  115.23    5.16
  -3  -5  -3  115.91    4.63
  -3  -5  -3  115.23    5.16
  -3  -5  -3  115.91    4.63
   3   5   3  123.21    4.59
   3   5   3  123.21    4.59
  -3  -5  -4    7.28    3.02
  -3  -5  -4    5.26    2.63
  -3  -5  -4    7.28    3.02
  -3  -5  -4    5.26    2.63
  -3  -5  -5  310.24    6.38
  -3  -5  -5  293.19    6.30
  -3  -5  -5  310.24    6.38
  -3  -5  -5  293.19    6.30
  -3  -5  -6  218.34    5.74
  -3  -5  -6  188.31    5.88
  -3  -5  -6  218.34    5.74
  -3  -5  -6  188.31    5.88
  -3  -5  -7   82.10    4.83
  -3  -5  -7   75.63    5.11
  -3  -5  -7   72.65    5.76
  -3  -5  -7   82.10    4.83
  -3  -5  -7   75.63    5.11
  -3  -5  -7   72.65    5.76
  -3  -5  -8   17.52    3.06
  -3  -5  -8   17.42    3.62
  -3  -5  -8   16.58    4.08
  -3  -5  -8   17.52    3.06
  -3  -5  -8   17.42    3.62
  -3  -5  -8   16.58    4.08
  -3  -5  -9    2.47    2.71
  -3  -5  -9    6.15    3.46
  -3  -5  -9    0.96    3.87
  -3  -5  -9    2.47    2.71
  -3  -5  -9    6.15    3.46
  -3  -5  -9    0.96    3.87
  -3  -5 -10    6.84    2.98
  -3  -5 -10    6.14    3.74
  -3  -5 -10    9.61    4.16
  -3  -5 -10    6.84    2.98
  -3  -5 -10    6.14    3.74
  -3  -5 -10    9.61    4.16
  -3  -5 -11   92.60    5.23
  -3  -5 -11   87.78    6.42
  -3  -5 -11   92.60    5.23
  -3  -5 -11   87.78    6.42
  -3  -5 -12   10.12    2.82
  -3  -5 -12    6.09    4.29
  -3  -5 -12   10.12    2.82
  -3  -5 -12    6.09    4.29
  -3  -5 -13   -3.16    4.16
  -3  -5 -13   -3.16    4.16
  -3  -5 -14    9.12    4.81
  -3  -5 -14    9.12    4.81
   3   6 -12    1.10    4.46
   3   6 -12   -6.13    4.70
   3   6 -12   -0.81    5.42
   3   6 -12    1.10    4.46
   3   6 -12   -6.13    4.70
   3   6 -12   -0.81    5.42
   3   6 -11    2.02    4.29
   3   6 -11    4.65    5.19
   3   6 -11    5.29    5.42
   3   6 -11    2.02    4.29
   3   6 -11    4.65    5.19
   3   6 -11    5.29    5.42
   3   6 -10    9.94    4.45
   3   6 -10    6.96    4.91
   3   6 -10    8.31    5.32
   3   6 -10    9.94    4.45
   3   6 -10    6.96    4.91
   3   6 -10    8.31    5.32
   3   6  -9   51.85    6.21
   3   6  -9   59.38    7.07
   3   6  -9   57.97    6.72
   3   6  -9   51.85    6.21
   3   6  -9   59.38    7.07
   3   6  -9   57.97    6.72
  -3  -6   8   37.41    5.44
  -3  -6   8   37.41    5.44
   3   6  -8   36.22    4.88
   3   6  -8   34.26    5.53
   3   6  -8   37.34    5.72
   3   6  -8   36.22    4.88
   3   6  -8   34.26    5.53
   3   6  -8   37.34    5.72
  -3  -6   7    7.24    4.58
  -3  -6   7    7.24    4.58
   3   6  -7   11.20    4.00
   3   6  -7    6.80    4.48
   3   6  -7    4.53    4.05
   3   6  -7   11.20    4.00
   3   6  -7    6.80    4.48
   3   6  -7    4.53    4.05
  -3  -6   6   25.58    4.84
  -3  -6   6   25.58    4.84
   3   6  -6   24.25    4.29
   3   6  -6   23.34    4.82
   3   6  -6   34.31    5.17
   3   6  -6   24.25    4.29
   3   6  -6   23.34    4.82
   3   6  -6   34.31    5.17
  -3  -6   5    7.01    4.13
  -3  -6   5    7.19    3.79
  -3  -6   5    7.01    4.13
  -3  -6   5    7.19    3.79
   3   6  -5    9.85    3.79
   3   6  -5    9.96    3.84
   3   6  -5    9.34    4.21
   3   6  -5    9.85    3.79
   3   6  -5    9.96    3.84
   3   6  -5    9.34    4.21
  -3  -6   4    7.14    3.87
  -3  -6   4    6.29    3.54
  -3  -6   4    7.14    3.87
  -3  -6   4    6.29    3.54
   3   6  -4    5.54    3.48
   3   6  -4    3.28    3.51
   3   6  -4    4.64    3.85
   3   6  -4    5.54    3.48
   3   6  -4    3.28    3.51
   3   6  -4    4.64    3.85
  -3  -6   3  241.67    7.82
  -3  -6   3  229.05    6.98
  -3  -6   3  241.67    7.82
  -3  -6   3  229.05    6.98
   3   6  -3  229.80    7.33
   3   6  -3  228.35    8.11
   3   6  -3  236.76    7.78
   3   6  -3  229.80    7.33
   3   6  -3  228.35    8.11
   3   6  -3  236.76    7.78
  -3  -6   2  200.48    7.09
  -3  -6   2  202.01    6.96
  -3  -6   2  200.48    7.09
  -3  -6   2  202.01    6.96
   3   6  -2  192.45    6.35
   3   6  -2  186.87    6.84
   3   6  -2  204.40    7.07
   3   6  -2  192.45    6.35
   3   6  -2  186.87    6.84
   3   6  -2  204.40    7.07
  -3  -6   1   21.11    3.62
  -3  -6   1   13.71    3.34
  -3  -6   1   21.11    3.62
  -3  -6   1   13.71    3.34
   3   6  -1   19.45    3.52
   3   6  -1   19.49    3.80
   3   6  -1   16.87    3.56
   3   6  -1   19.45    3.52
   3   6  -1   19.49    3.80
   3   6  -1   16.87    3.56
  -3  -6   0   15.18    2.60
  -3  -6   0   13.06    3.18
  -3  -6   0   17.03    3.42
  -3  -6   0   15.18    2.60
  -3  -6   0   13.06    3.18
  -3  -6   0   17.03    3.42
   3   6   0   15.51    3.28
   3   6   0   16.47    3.28
   3   6   0   15.51    3.28
   3   6   0   16.47    3.28
  -3  -6  -1    7.44    2.29
  -3  -6  -1    3.94    2.93
  -3  -6  -1    7.44    2.29
  -3  -6  -1    3.94    2.93
   3   6   1    6.90    2.93
   3   6   1    3.57    2.70
   3   6   1    6.90    2.93
   3   6   1    3.57    2.70
  -3  -6  -2   62.53    4.17
  -3  -6  -2   56.94    4.64
  -3  -6  -2   62.53    4.17
  -3  -6  -2   56.94    4.64
   3   6   2   64.29    4.82
   3   6   2   66.91    4.25
   3   6   2   64.29    4.82
   3   6   2   66.91    4.25
  -3  -6  -3   10.89    2.88
  -3  -6  -3    9.94    3.05
  -3  -6  -3   10.89    2.88
  -3  -6  -3    9.94    3.05
   3   6   3   10.71    3.05
   3   6   3   10.71    3.05
  -3  -6  -4    6.63    2.96
  -3  -6  -4    6.63    2.96
   3   6   4    7.71    2.93
   3   6   4    7.71    2.93
  -3  -6  -5   56.81    4.64
  -3  -6  -5   49.87    4.63
  -3  -6  -5   56.81    4.64
  -3  -6  -5   49.87    4.63
  -3  -6  -6  172.74    5.99
  -3  -6  -6  177.86    6.27
  -3  -6  -6  172.74    5.99
  -3  -6  -6  177.86    6.27
  -3  -6  -7   63.46    5.18
  -3  -6  -7   61.14    5.46
  -3  -6  -7   63.46    5.18
  -3  -6  -7   61.14    5.46
  -3  -6  -8   32.74    3.98
  -3  -6  -8   33.86    4.43
  -3  -6  -8   33.15    4.65
  -3  -6  -8   32.74    3.98
  -3  -6  -8   33.86    4.43
  -3  -6  -8   33.15    4.65
  -3  -6  -9    0.11    3.19
  -3  -6  -9    5.10    3.84
  -3  -6  -9    9.31    4.21
  -3  -6  -9    0.11    3.19
  -3  -6  -9    5.10    3.84
  -3  -6  -9    9.31    4.21
  -3  -6 -10   56.02    5.39
  -3  -6 -10   49.96    6.07
  -3  -6 -10   56.02    5.39
  -3  -6 -10   49.96    6.07
  -3  -6 -11   22.38    3.84
  -3  -6 -11   18.84    4.45
  -3  -6 -11   22.38    3.84
  -3  -6 -11   18.84    4.45
  -3  -6 -12   27.72    4.01
  -3  -6 -12   26.70    5.17
  -3  -6 -12   27.72    4.01
  -3  -6 -12   26.70    5.17
  -3  -6 -13    3.21    4.29
  -3  -6 -13    3.21    4.29
  -3  -6 -14    4.54    4.96
  -3  -6 -14    4.54    4.96
   3   7 -11    4.35    4.59
   3   7 -11    1.80    5.33
   3   7 -11   -3.63    5.47
   3   7 -11    4.35    4.59
   3   7 -11    1.80    5.33
   3   7 -11   -3.63    5.47
   3   7 -10   10.73    4.53
   3   7 -10    5.33    5.03
   3   7 -10   11.14    5.67
   3   7 -10   10.73    4.53
   3   7 -10    5.33    5.03
   3   7 -10   11.14    5.67
   3   7  -9    4.27    4.01
   3   7  -9    2.41    4.60
   3   7  -9   -0.93    4.95
   3   7  -9    4.27    4.01
   3   7  -9    2.41    4.60
   3   7  -9   -0.93    4.95
   3   7  -8    9.36    4.22
   3   7  -8    5.69    4.74
   3   7  -8    5.89    5.01
   3   7  -8    9.36    4.22
   3   7  -8    5.69    4.74
   3   7  -8    5.89    5.01
  -3  -7   7   80.71    7.24
  -3  -7   7   80.71    7.24
   3   7  -7   86.79    6.42
   3   7  -7   84.09    7.36
   3   7  -7   81.97    7.84
   3   7  -7   86.79    6.42
   3   7  -7   84.09    7.36
   3   7  -7   81.97    7.84
  -3  -7   6   37.05    5.22
  -3  -7   6   37.05    5.22
   3   7  -6   41.08    4.98
   3   7  -6   46.15    5.82
   3   7  -6   41.27    5.70
   3   7  -6   41.08    4.98
   3   7  -6   46.15    5.82
   3   7  -6   41.27    5.70
  -3  -7   5    6.64    4.32
  -3  -7   5    6.64    4.32
   3   7  -5    5.38    3.82
   3   7  -5    4.67    4.29
   3   7  -5    0.97    4.25
   3   7  -5    5.38    3.82
   3   7  -5    4.67    4.29
   3   7  -5    0.97    4.25
  -3  -7   4   70.25    6.84
  -3  -7   4   74.20    6.28
  -3  -7   4   70.25    6.84
  -3  -7   4   74.20    6.28
   3   7  -4   67.75    6.08
   3   7  -4   72.46    6.98
   3   7  -4   77.44    6.14
   3   7  -4   67.75    6.08
   3   7  -4   72.46    6.98
   3   7  -4   77.44    6.14
  -3  -7   3   25.27    4.21
  -3  -7   3   28.01    4.43
  -3  -7   3   25.27    4.21
  -3  -7   3   28.01    4.43
   3   7  -3   26.24    4.26
   3   7  -3   24.97    4.55
   3   7  -3   26.24    4.26
   3   7  -3   24.97    4.55
  -3  -7   2   27.75    4.39
  -3  -7   2   23.51    4.15
  -3  -7   2   27.75    4.39
  -3  -7   2   23.51    4.15
   3   7  -2   21.85    4.04
   3   7  -2   23.84    4.38
   3   7  -2   21.85    4.04
   3   7  -2   23.84    4.38
  -3  -7   1  215.04    7.06
  -3  -7   1  224.75    7.60
  -3  -7   1  215.04    7.06
  -3  -7   1  224.75    7.60
   3   7  -1  214.66    7.39
   3   7  -1  208.55    7.41
   3   7  -1  214.66    7.39
   3   7  -1  208.55    7.41
  -3  -7   0  117.99    4.51
  -3  -7   0  118.98    6.28
  -3  -7   0  117.99    4.51
  -3  -7   0  118.98    6.28
   3   7   0  123.55    6.29
   3   7   0  111.92    5.89
   3   7   0  123.55    6.29
   3   7   0  111.92    5.89
  -3  -7  -1    1.26    2.33
  -3  -7  -1    4.30    3.05
  -3  -7  -1    1.26    2.33
  -3  -7  -1    4.30    3.05
   3   7   1   -2.80    3.17
   3   7   1   -0.02    3.17
   3   7   1   -2.80    3.17
   3   7   1   -0.02    3.17
  -3  -7  -2  175.75    5.34
  -3  -7  -2  181.41    6.83
  -3  -7  -2  175.75    5.34
  -3  -7  -2  181.41    6.83
   3   7   2  189.33    6.86
   3   7   2  183.13    6.11
   3   7   2  189.33    6.86
   3   7   2  183.13    6.11
  -3  -7  -3  265.31    7.59
  -3  -7  -3  265.31    7.59
   3   7   3  277.48    7.71
   3   7   3  277.48    7.71
  -3  -7  -4   17.11    3.67
  -3  -7  -4   17.11    3.67
   3   7   4   19.29    3.79
   3   7   4   19.29    3.79
  -3  -7  -5   34.59    4.19
  -3  -7  -5   40.02    4.48
  -3  -7  -5   34.59    4.19
  -3  -7  -5   40.02    4.48
  -3  -7  -6   51.61    5.12
  -3  -7  -6   50.21    5.31
  -3  -7  -6   51.61    5.12
  -3  -7  -6   50.21    5.31
  -3  -7  -7    3.05    3.28
  -3  -7  -7   -1.24    3.63
  -3  -7  -7    3.05    3.28
  -3  -7  -7   -1.24    3.63
  -3  -7  -8    5.83    3.63
  -3  -7  -8    4.61    3.92
  -3  -7  -8    5.83    3.63
  -3  -7  -8    4.61    3.92
  -3  -7  -9    8.53    3.77
  -3  -7  -9   11.12    4.14
  -3  -7  -9    9.68    4.44
  -3  -7  -9    8.53    3.77
  -3  -7  -9   11.12    4.14
  -3  -7  -9    9.68    4.44
  -3  -7 -10   22.22    4.39
  -3  -7 -10   20.64    4.83
  -3  -7 -10   22.22    4.39
  -3  -7 -10   20.64    4.83
  -3  -7 -11  113.31    6.47
  -3  -7 -11   97.15    6.84
  -3  -7 -11  113.31    6.47
  -3  -7 -11   97.15    6.84
  -3  -7 -12   63.73    6.06
  -3  -7 -12   57.62    6.42
  -3  -7 -12   63.73    6.06
  -3  -7 -12   57.62    6.42
  -3  -7 -13    1.37    3.32
  -3  -7 -13    0.23    4.75
  -3  -7 -13    1.37    3.32
  -3  -7 -13    0.23    4.75
   3   8 -10    7.91    4.63
   3   8 -10    8.08    5.93
   3   8 -10    7.91    4.63
   3   8 -10    8.08    5.93
   3   8  -9   77.71    6.89
   3   8  -9   78.43    8.63
   3   8  -9   77.71    6.89
   3   8  -9   78.43    8.63
   3   8  -8   81.12    6.95
   3   8  -8   89.07    8.62
   3   8  -8   81.12    6.95
   3   8  -8   89.07    8.62
  -3  -8   7    8.46    5.22
  -3  -8   7    8.46    5.22
   3   8  -7   10.66    4.62
   3   8  -7   10.28    5.24
   3   8  -7   10.66    4.62
   3   8  -7   10.28    5.24
  -3  -8   6    4.08    4.73
  -3  -8   6    4.08    4.73
   3   8  -6    1.00    4.23
   3   8  -6   -0.61    4.57
   3   8  -6    1.00    4.23
   3   8  -6   -0.61    4.57
  -3  -8   5   66.92    7.58
  -3  -8   5   66.92    7.58
   3   8  -5   62.25    6.19
   3   8  -5   71.27    7.42
   3   8  -5   62.25    6.19
   3   8  -5   71.27    7.42
  -3  -8   4   35.84    5.35
  -3  -8   4   35.84    5.35
   3   8  -4   29.97    4.83
   3   8  -4   34.76    5.44
   3   8  -4   29.97    4.83
   3   8  -4   34.76    5.44
  -3  -8   3    6.75    4.18
  -3  -8   3    1.19    3.90
  -3  -8   3    6.75    4.18
  -3  -8   3    1.19    3.90
   3   8  -3    2.92    3.87
   3   8  -3    1.02    4.16
   3   8  -3    2.92    3.87
   3   8  -3    1.02    4.16
  -3  -8   2   39.13    5.10
  -3  -8   2   41.75    5.17
  -3  -8   2   39.13    5.10
  -3  -8   2   41.75    5.17
   3   8  -2   40.78    4.94
   3   8  -2   35.60    4.94
   3   8  -2   40.78    4.94
   3   8  -2   35.60    4.94
  -3  -8   1   45.34    5.14
  -3  -8   1   41.10    4.92
  -3  -8   1   45.34    5.14
  -3  -8   1   41.10    4.92
   3   8  -1   41.56    5.13
   3   8  -1   38.54    4.61
   3   8  -1   41.56    5.13
   3   8  -1   38.54    4.61
  -3  -8   0  149.54    7.13
  -3  -8   0  149.54    7.13
   3   8   0  146.44    6.61
   3   8   0  151.99    6.75
   3   8   0  146.44    6.61
   3   8   0  151.99    6.75
  -3  -8  -1  199.79    7.24
  -3  -8  -1  199.79    7.24
   3   8   1  208.11    7.74
   3   8   1  201.32    7.10
   3   8   1  208.11    7.74
   3   8   1  201.32    7.10
  -3  -8  -2    7.28    3.88
  -3  -8  -2    7.28    3.88
   3   8   2    6.92    3.76
   3   8   2    6.92    3.76
  -3  -8  -3   18.27    4.22
  -3  -8  -3   18.27    4.22
   3   8   3   18.07    4.13
   3   8   3   18.07    4.13
  -3  -8  -4    5.42    3.80
  -3  -8  -4    5.42    3.80
   3   8   4    1.91    3.67
   3   8   4    1.91    3.67
  -3  -8  -5   13.29    4.15
  -3  -8  -5   13.29    4.15
  -3  -8  -6  158.62    7.57
  -3  -8  -6  161.74    7.74
  -3  -8  -6  158.62    7.57
  -3  -8  -6  161.74    7.74
  -3  -8  -7  120.87    7.25
  -3  -8  -7  113.68    6.95
  -3  -8  -7  120.87    7.25
  -3  -8  -7  113.68    6.95
  -3  -8  -8   14.28    4.38
  -3  -8  -8   11.35    4.36
  -3  -8  -8   14.28    4.38
  -3  -8  -8   11.35    4.36
  -3  -8  -9   13.24    4.34
  -3  -8  -9   18.43    4.71
  -3  -8  -9   13.24    4.34
  -3  -8  -9   18.43    4.71
  -3  -8 -10    8.07    4.20
  -3  -8 -10    9.48    4.85
  -3  -8 -10    8.07    4.20
  -3  -8 -10    9.48    4.85
  -3  -8 -11    2.70    4.23
  -3  -8 -11   -0.19    4.36
  -3  -8 -11    2.70    4.23
  -3  -8 -11   -0.19    4.36
  -3  -8 -12   24.58    4.87
  -3  -8 -12   26.87    5.56
  -3  -8 -12   24.58    4.87
  -3  -8 -12   26.87    5.56
  -3  -8 -13    9.69    4.22
  -3  -8 -13   18.31    5.69
  -3  -8 -13    9.69    4.22
  -3  -8 -13   18.31    5.69
   3   9  -9   37.83    5.69
   3   9  -9   39.91    7.04
   3   9  -9   37.83    5.69
   3   9  -9   39.91    7.04
   3   9  -8   20.26    5.15
   3   9  -8   26.49    6.34
   3   9  -8   20.26    5.15
   3   9  -8   26.49    6.34
   3   9  -7   50.88    6.02
   3   9  -7   51.00    6.94
   3   9  -7   50.88    6.02
   3   9  -7   51.00    6.94
  -3  -9   6   23.23    5.77
  -3  -9   6   23.23    5.77
   3   9  -6   28.70    5.06
   3   9  -6   21.19    5.68
   3   9  -6   28.70    5.06
   3   9  -6   21.19    5.68
  -3  -9   5   -0.03    4.35
  -3  -9   5   -0.03    4.35
   3   9  -5    2.70    4.20
   3   9  -5    0.79    4.76
   3   9  -5    2.70    4.20
   3   9  -5    0.79    4.76
  -3  -9   4   22.87    5.35
  -3  -9   4   22.87    5.35
   3   9  -4   21.18    4.89
   3   9  -4   22.92    5.32
   3   9  -4   21.18    4.89
   3   9  -4   22.92    5.32
  -3  -9   3   -1.36    4.41
  -3  -9   3   -1.36    4.41
   3   9  -3    1.52    4.06
   3   9  -3    2.13    4.34
   3   9  -3    1.52    4.06
   3   9  -3    2.13    4.34
  -3  -9   2   82.97    7.41
  -3  -9   2   84.68    7.04
  -3  -9   2   82.97    7.41
  -3  -9   2   84.68    7.04
   3   9  -2   91.66    6.96
   3   9  -2   87.36    7.28
   3   9  -2   91.66    6.96
   3   9  -2   87.36    7.28
  -3  -9   1    4.72    4.12
  -3  -9   1    4.72    4.12
   3   9  -1    2.38    4.00
   3   9  -1    2.55    4.07
   3   9  -1    2.38    4.00
   3   9  -1    2.55    4.07
  -3  -9   0    5.54    4.23
  -3  -9   0    5.54    4.23
   3   9   0    5.07    4.21
   3   9   0    4.22    3.98
   3   9   0    5.07    4.21
   3   9   0    4.22    3.98
  -3  -9  -1   44.70    5.42
  -3  -9  -1   44.70    5.42
   3   9   1   44.88    5.29
   3   9   1   44.88    5.29
  -3  -9  -2   22.83    4.46
  -3  -9  -2   22.83    4.46
   3   9   2   18.63    4.56
   3   9   2   18.63    4.56
  -3  -9  -3   13.94    4.46
  -3  -9  -3   13.94    4.46
   3   9   3   23.79    4.72
   3   9   3   23.79    4.72
  -3  -9  -4   23.09    4.76
  -3  -9  -4   23.09    4.76
   3   9   4   21.19    4.72
   3   9   4   21.19    4.72
  -3  -9  -5    1.46    4.18
  -3  -9  -5    1.46    4.18
  -3  -9  -6   97.59    6.88
  -3  -9  -6   97.68    7.15
  -3  -9  -6   97.59    6.88
  -3  -9  -6   97.68    7.15
  -3  -9  -7   20.38    4.75
  -3  -9  -7   18.43    5.22
  -3  -9  -7   20.38    4.75
  -3  -9  -7   18.43    5.22
  -3  -9  -8   19.95    4.93
  -3  -9  -8   20.28    5.21
  -3  -9  -8   19.95    4.93
  -3  -9  -8   20.28    5.21
  -3  -9  -9   46.26    5.71
  -3  -9  -9   42.92    5.96
  -3  -9  -9   46.26    5.71
  -3  -9  -9   42.92    5.96
  -3  -9 -10    5.85    4.29
  -3  -9 -10    5.74    5.12
  -3  -9 -10    5.85    4.29
  -3  -9 -10    5.74    5.12
  -3  -9 -11    0.84    4.38
  -3  -9 -11    2.77    4.91
  -3  -9 -11    0.84    4.38
  -3  -9 -11    2.77    4.91
  -3  -9 -12    7.01    4.56
  -3  -9 -12   -0.56    5.26
  -3  -9 -12    7.01    4.56
  -3  -9 -12   -0.56    5.26
   3  10  -8    9.20    5.00
   3  10  -8   12.18    6.10
   3  10  -8    9.20    5.00
   3  10  -8   12.18    6.10
   3  10  -7    5.20    4.86
   3  10  -7    2.86    5.54
   3  10  -7    5.20    4.86
   3  10  -7    2.86    5.54
  -3 -10   6    6.11    5.58
  -3 -10   6    6.11    5.58
   3  10  -6    6.39    4.87
   3  10  -6   -4.67    5.09
   3  10  -6    6.39    4.87
   3  10  -6   -4.67    5.09
  -3 -10   5   15.82    5.65
  -3 -10   5   15.82    5.65
   3  10  -5   11.45    4.85
   3  10  -5   10.20    5.52
   3  10  -5   11.45    4.85
   3  10  -5   10.20    5.52
  -3 -10   4  183.46    9.85
  -3 -10   4  183.46    9.85
   3  10  -4  158.22    8.24
   3  10  -4  180.27    9.26
   3  10  -4  158.22    8.24
   3  10  -4  180.27    9.26
  -3 -10   3   39.03    6.19
  -3 -10   3   39.03    6.19
   3  10  -3   31.46    5.38
   3  10  -3   28.78    5.78
   3  10  -3   31.46    5.38
   3  10  -3   28.78    5.78
   3  10  -2  134.19    7.32
   3  10  -2  137.27    8.03
   3  10  -2  134.19    7.32
   3  10  -2  137.27    8.03
  -3 -10   1   11.55    4.84
  -3 -10   1   11.55    4.84
   3  10  -1   13.56    4.37
   3  10  -1   13.56    4.37
  -3 -10   0   45.39    5.78
  -3 -10   0   45.39    5.78
   3  10   0   43.96    5.67
   3  10   0   43.96    5.67
  -3 -10  -1  152.14    8.27
  -3 -10  -1  152.14    8.27
   3  10   1  150.73    8.24
   3  10   1  150.73    8.24
  -3 -10  -2   25.91    5.27
  -3 -10  -2   25.91    5.27
   3  10   2   28.48    5.23
   3  10   2   28.48    5.23
  -3 -10  -3   -3.77    4.28
  -3 -10  -3   -3.77    4.28
   3  10   3   -2.98    3.95
   3  10   3   -2.98    3.95
  -3 -10  -4   24.13    5.26
  -3 -10  -4   24.13    5.26
   3  10   4   19.44    5.18
   3  10   4   19.44    5.18
  -3 -10  -5    0.01    4.39
  -3 -10  -5    0.52    4.54
  -3 -10  -5    0.01    4.39
  -3 -10  -5    0.52    4.54
  -3 -10  -6   28.03    5.34
  -3 -10  -6   34.77    5.81
  -3 -10  -6   28.03    5.34
  -3 -10  -6   34.77    5.81
  -3 -10  -7   64.47    6.82
  -3 -10  -7   61.76    7.16
  -3 -10  -7   64.47    6.82
  -3 -10  -7   61.76    7.16
  -3 -10  -8    1.28    4.63
  -3 -10  -8    0.55    4.82
  -3 -10  -8    1.28    4.63
  -3 -10  -8    0.55    4.82
  -3 -10  -9   33.07    5.60
  -3 -10  -9   37.33    6.19
  -3 -10  -9   33.07    5.60
  -3 -10  -9   37.33    6.19
  -3 -10 -10   15.12    5.26
  -3 -10 -10   12.72    5.79
  -3 -10 -10   15.12    5.26
  -3 -10 -10   12.72    5.79
  -3 -10 -11   12.68    5.22
  -3 -10 -11    9.03    5.83
  -3 -10 -11   12.68    5.22
  -3 -10 -11    9.03    5.83
   3  11  -7   89.68    7.31
   3  11  -7   78.88    8.55
   3  11  -7   89.68    7.31
   3  11  -7   78.88    8.55
   3  11  -6   20.06    5.29
   3  11  -6   21.49    6.28
   3  11  -6   20.06    5.29
   3  11  -6   21.49    6.28
  -3 -11   5   10.64    6.09
  -3 -11   5   10.64    6.09
   3  11  -5    8.56    5.25
   3  11  -5   11.63    5.74
   3  11  -5    8.56    5.25
   3  11  -5   11.63    5.74
  -3 -11   4    8.79    5.77
  -3 -11   4    8.79    5.77
   3  11  -4   10.89    5.06
   3  11  -4    8.77    5.52
   3  11  -4   10.89    5.06
   3  11  -4    8.77    5.52
   3  11  -3    9.66    4.99
   3  11  -3    9.66    4.99
   3  11  -2   -1.29    4.66
   3  11  -2   -1.29    4.66
   3  11  -1   18.64    5.33
   3  11  -1   18.64    5.33
   3  11   0    1.43    4.68
   3  11   0    1.43    4.68
  -3 -11  -1  115.74    8.33
  -3 -11  -1  115.74    8.33
   3  11   1  110.37    8.11
   3  11   1  110.37    8.11
  -3 -11  -2  110.35    8.24
  -3 -11  -2  110.35    8.24
   3  11   2  110.04    8.35
   3  11   2  110.04    8.35
  -3 -11  -3   11.14    5.22
  -3 -11  -3   11.14    5.22
   3  11   3    7.19    5.07
   3  11   3    7.19    5.07
  -3 -11  -4   -1.36    4.79
  -3 -11  -4   -1.36    4.79
   3  11   4    0.71    4.99
   3  11   4    0.71    4.99
  -3 -11  -5    2.74    4.75
  -3 -11  -5   -2.55    4.85
  -3 -11  -5    2.74    4.75
  -3 -11  -5   -2.55    4.85
  -3 -11  -6   34.01    6.11
  -3 -11  -6   39.93    6.35
  -3 -11  -6   34.01    6.11
  -3 -11  -6   39.93    6.35
  -3 -11  -7    6.61    4.88
  -3 -11  -7    2.28    5.14
  -3 -11  -7    6.61    4.88
  -3 -11  -7    2.28    5.14
  -3 -11  -8    2.52    4.81
  -3 -11  -8   -2.30    5.00
  -3 -11  -8    2.52    4.81
  -3 -11  -8   -2.30    5.00
  -3 -11  -9    9.87    5.46
  -3 -11  -9   12.97    5.67
  -3 -11  -9    9.87    5.46
  -3 -11  -9   12.97    5.67
   3  12  -5    8.73    5.42
   3  12  -5    8.73    5.42
   3  12  -4   11.21    5.53
   3  12  -4   11.21    5.53
   3  12  -3   23.69    6.06
   3  12  -3   23.69    6.06
   3  12  -2   28.41    5.95
   3  12  -2   28.41    5.95
   3  12  -1   13.81    5.37
   3  12  -1   13.81    5.37
   3  12   0    3.78    5.22
   3  12   0    3.78    5.22
   3  12   1    6.12    5.33
   3  12   1    6.12    5.33
   3  12   2   13.37    5.70
   3  12   2   13.37    5.70
  -3 -12  -3   23.53    6.06
  -3 -12  -3   23.53    6.06
   3  12   3   26.70    6.30
   3  12   3   26.70    6.30
  -3 -12  -4   -2.64    5.30
  -3 -12  -4   -2.64    5.30
   3  12   4    4.42    5.46
   3  12   4    4.42    5.46
  -3 -12  -5   -1.14    5.16
  -3 -12  -5    0.22    5.42
  -3 -12  -5   -1.14    5.16
  -3 -12  -5    0.22    5.42
  -3 -12  -6   93.56    8.28
  -3 -12  -6   92.07    9.32
  -3 -12  -6   93.56    8.28
  -3 -12  -6   92.07    9.32
  -3 -12  -7  103.64    8.34
  -3 -12  -7  105.65    9.10
  -3 -12  -7  103.64    8.34
  -3 -12  -7  105.65    9.10
  -3 -12  -8   12.99    5.66
  -3 -12  -8    9.69    5.92
  -3 -12  -8   12.99    5.66
  -3 -12  -8    9.69    5.92
   3  13  -2    9.06    5.65
   3  13  -2    9.06    5.65
   3  13  -1   18.57    6.05
   3  13  -1   18.57    6.05
   3  13   0    5.12    5.50
   3  13   0    5.12    5.50
   3  13   1   -0.10    5.84
   3  13   1   -0.10    5.84
   3  13   2   21.62    6.37
   3  13   2   21.62    6.37
   3  13   3    1.91    5.59
   3  13   3    1.91    5.59
   3  13   4    9.82    6.14
   3  13   4    9.82    6.14
  -3 -13  -5   11.84    6.10
  -3 -13  -5   11.84    6.10
  -4   9   4   -1.93    6.78
  -4   9   4    3.94    5.07
  -4   9   4    4.22    5.69
  -4   9   4   -1.93    6.78
  -4   9   4    3.94    5.07
  -4   9   4    4.22    5.69
  -4   9   3   -2.80    6.57
  -4   9   3   -2.46    4.54
  -4   9   3    2.37    5.43
  -4   9   3   -2.80    6.57
  -4   9   3   -2.46    4.54
  -4   9   3    2.37    5.43
  -4   9   2   10.44    5.92
  -4   9   2    1.50    4.49
  -4   9   2    1.78    5.48
  -4   9   2   10.44    5.92
  -4   9   2    1.50    4.49
  -4   9   2    1.78    5.48
  -4   9   1    4.27    5.34
  -4   9   1    6.53    4.37
  -4   9   1    8.71    5.44
  -4   9   1    4.27    5.34
  -4   9   1    6.53    4.37
  -4   9   1    8.71    5.44
  -4   9   0  109.68    7.04
  -4   9   0   89.09    8.14
  -4   9   0  109.68    7.04
  -4   9   0   89.09    8.14
  -4   9  -1   79.59    6.26
  -4   9  -1   67.48    7.54
  -4   9  -1   79.59    6.26
  -4   9  -1   67.48    7.54
  -4   9  -2    0.41    3.34
  -4   9  -2   -1.25    4.94
  -4   9  -2    0.41    3.34
  -4   9  -2   -1.25    4.94
  -4   9  -3   -1.08    4.78
  -4   9  -3   -1.08    4.78
  -4   9  -4    4.50    4.97
  -4   9  -4   -3.29    4.71
  -4   9  -4    4.50    4.97
  -4   9  -4   -3.29    4.71
  -4   9  -5    2.43    5.13
  -4   9  -5    2.43    5.13
  -4   8   7   30.33    6.23
  -4   8   7   30.33    6.23
   4  -8  -7   28.19    7.15
   4  -8  -7   28.19    7.15
  -4   8   6   -1.65    4.90
  -4   8   6   -1.65    4.90
   4  -8  -6   -1.70    5.32
   4  -8  -6   -1.70    5.32
  -4   8   5  -15.71    5.31
  -4   8   5    8.06    4.96
  -4   8   5    4.97    5.61
  -4   8   5  -15.71    5.31
  -4   8   5    8.06    4.96
  -4   8   5    4.97    5.61
   4  -8  -5   14.98    6.33
   4  -8  -5   14.98    6.33
  -4   8   4   -0.35    6.93
  -4   8   4    0.29    4.41
  -4   8   4    4.19    4.81
  -4   8   4    3.12    5.26
  -4   8   4   -0.35    6.93
  -4   8   4    0.29    4.41
  -4   8   4    4.19    4.81
  -4   8   4    3.12    5.26
   4  -8  -4   13.82    6.07
   4  -8  -4   13.82    6.07
  -4   8   3    2.49    6.44
  -4   8   3    2.12    4.50
  -4   8   3    2.13    5.12
  -4   8   3    2.49    6.44
  -4   8   3    2.12    4.50
  -4   8   3    2.13    5.12
  -4   8   2    1.04    5.73
  -4   8   2   -1.82    4.12
  -4   8   2   -0.32    4.89
  -4   8   2    1.04    5.73
  -4   8   2   -1.82    4.12
  -4   8   2   -0.32    4.89
  -4   8   1   12.60    5.65
  -4   8   1   10.19    4.50
  -4   8   1   10.60    5.08
  -4   8   1   12.60    5.65
  -4   8   1   10.19    4.50
  -4   8   1   10.60    5.08
  -4   8   0    6.89    5.29
  -4   8   0    0.20    3.87
  -4   8   0   -0.35    4.64
  -4   8   0    6.89    5.29
  -4   8   0    0.20    3.87
  -4   8   0   -0.35    4.64
  -4   8  -1   86.58    7.16
  -4   8  -1  181.39    7.00
  -4   8  -1  189.28    9.03
  -4   8  -1   86.58    7.16
  -4   8  -1  181.39    7.00
  -4   8  -1  189.28    9.03
  -4   8  -2    4.56    3.29
  -4   8  -2    1.27    4.60
  -4   8  -2    4.56    3.29
  -4   8  -2    1.27    4.60
  -4   8  -3    1.01    2.37
  -4   8  -3    0.28    4.50
  -4   8  -3    0.76    4.53
  -4   8  -3    1.01    2.37
  -4   8  -3    0.28    4.50
  -4   8  -3    0.76    4.53
  -4   8  -4   18.85    5.12
  -4   8  -4   22.23    5.50
  -4   8  -4   18.85    5.12
  -4   8  -4   22.23    5.50
  -4   8  -5   39.74    5.96
  -4   8  -5   39.74    5.96
  -4   8  -6   10.88    5.47
  -4   8  -6   15.99    5.15
  -4   8  -6   10.88    5.47
  -4   8  -6   15.99    5.15
  -4   8  -7   -1.08    5.24
  -4   8  -7    1.66    4.65
  -4   8  -7   -1.08    5.24
  -4   8  -7    1.66    4.65
  -4   7   8    9.62    5.48
  -4   7   8    9.62    5.48
   4  -7  -8    2.22    5.91
   4  -7  -8    2.22    5.91
  -4   7   7   35.08    6.22
  -4   7   7   35.08    6.22
   4  -7  -7   32.42    6.55
   4  -7  -7   32.42    6.55
  -4   7   6   61.45    7.52
  -4   7   6   61.45    7.52
   4  -7  -6   62.61    7.70
   4  -7  -6   62.61    7.70
  -4   7   5    1.94    4.81
  -4   7   5    4.37    5.13
  -4   7   5    1.94    4.81
  -4   7   5    4.37    5.13
   4  -7  -5    6.65    5.59
   4  -7  -5    6.65    5.59
  -4   7   4   -2.99    5.03
  -4   7   4    1.35    4.29
  -4   7   4    6.40    5.07
  -4   7   4   -2.99    5.03
  -4   7   4    1.35    4.29
  -4   7   4    6.40    5.07
   4  -7  -4    6.80    5.54
   4  -7  -4    6.80    5.54
  -4   7   3   -5.87    6.02
  -4   7   3   -2.57    4.40
  -4   7   3    2.35    4.05
  -4   7   3    2.71    4.75
  -4   7   3   -5.87    6.02
  -4   7   3   -2.57    4.40
  -4   7   3    2.35    4.05
  -4   7   3    2.71    4.75
   4  -7  -3    0.31    5.01
   4  -7  -3    0.31    5.01
  -4   7   2    6.77    5.79
  -4   7   2   -1.04    3.71
  -4   7   2    3.74    4.10
  -4   7   2    1.81    4.68
  -4   7   2    6.77    5.79
  -4   7   2   -1.04    3.71
  -4   7   2    3.74    4.10
  -4   7   2    1.81    4.68
  -4   7   1   11.12    5.54
  -4   7   1    8.76    3.84
  -4   7   1    9.00    3.97
  -4   7   1    1.30    4.44
  -4   7   1   11.12    5.54
  -4   7   1    8.76    3.84
  -4   7   1    9.00    3.97
  -4   7   1    1.30    4.44
  -4   7   0   54.36    6.58
  -4   7   0   44.86    5.33
  -4   7   0   58.17    5.85
  -4   7   0   55.03    6.26
  -4   7   0   54.36    6.58
  -4   7   0   44.86    5.33
  -4   7   0   58.17    5.85
  -4   7   0   55.03    6.26
  -4   7  -1   -0.95    4.70
  -4   7  -1    3.11    3.37
  -4   7  -1    0.25    4.16
  -4   7  -1   -0.95    4.70
  -4   7  -1    3.11    3.37
  -4   7  -1    0.25    4.16
  -4   7  -2   36.67    5.60
  -4   7  -2   41.32    4.67
  -4   7  -2   38.77    5.54
  -4   7  -2   30.47    5.23
  -4   7  -2   36.67    5.60
  -4   7  -2   41.32    4.67
  -4   7  -2   38.77    5.54
  -4   7  -2   30.47    5.23
  -4   7  -3    7.19    4.08
  -4   7  -3    2.37    2.20
  -4   7  -3    6.10    4.26
  -4   7  -3    4.68    4.19
  -4   7  -3    7.19    4.08
  -4   7  -3    2.37    2.20
  -4   7  -3    6.10    4.26
  -4   7  -3    4.68    4.19
  -4   7  -4    0.50    4.24
  -4   7  -4    1.63    3.41
  -4   7  -4    2.27    4.29
  -4   7  -4    0.50    4.24
  -4   7  -4    1.63    3.41
  -4   7  -4    2.27    4.29
  -4   7  -5    2.64    4.56
  -4   7  -5    1.87    4.24
  -4   7  -5    2.64    4.56
  -4   7  -5    1.87    4.24
  -4   7  -6    3.86    4.89
  -4   7  -6    2.43    4.00
  -4   7  -6    3.86    4.89
  -4   7  -6    2.43    4.00
  -4   7  -7    3.90    5.00
  -4   7  -7   -1.20    4.18
  -4   7  -7    3.90    5.00
  -4   7  -7   -1.20    4.18
  -4   7  -8   24.68    6.08
  -4   7  -8   19.87    4.99
  -4   7  -8   24.68    6.08
  -4   7  -8   19.87    4.99
  -4   7  -9   62.53    7.86
  -4   7  -9   62.93    7.47
  -4   7  -9   62.53    7.86
  -4   7  -9   62.93    7.47
  -4   6   9    1.80    5.26
  -4   6   9    1.80    5.26
   4  -6  -9   -3.27    5.52
   4  -6  -9   -3.27    5.52
  -4   6   8    4.29    5.08
  -4   6   8    4.29    5.08
   4  -6  -8    0.01    5.56
   4  -6  -8    0.01    5.56
  -4   6   7   -4.86    4.55
  -4   6   7   -4.86    4.55
   4  -6  -7    0.43    5.35
   4  -6  -7    0.43    5.35
  -4   6   6   68.68    6.97
  -4   6   6   60.71    7.47
  -4   6   6   68.68    6.97
  -4   6   6   60.71    7.47
   4  -6  -6   80.34    8.71
   4  -6  -6   80.34    8.71
  -4   6   5  132.64    7.69
  -4   6   5  144.84    8.54
  -4   6   5  132.64    7.69
  -4   6   5  144.84    8.54
   4  -6  -5  141.38    9.45
   4  -6  -5  141.38    9.45
  -4   6   4   83.38    6.61
  -4   6   4   95.51    7.55
  -4   6   4   83.38    6.61
  -4   6   4   95.51    7.55
   4  -6  -4   87.59    7.60
   4  -6  -4   87.59    7.60
  -4   6   3   -0.83    5.08
  -4   6   3    3.79    3.84
  -4   6   3    7.38    4.57
  -4   6   3   -0.83    5.08
  -4   6   3    3.79    3.84
  -4   6   3    7.38    4.57
   4  -6  -3    3.55    4.84
   4  -6  -3    3.55    4.84
  -4   6   2   26.21    6.29
  -4   6   2   18.20    4.97
  -4   6   2   16.37    4.20
  -4   6   2   16.96    4.84
  -4   6   2   26.21    6.29
  -4   6   2   18.20    4.97
  -4   6   2   16.37    4.20
  -4   6   2   16.96    4.84
   4  -6  -2   19.02    5.12
   4  -6  -2   19.02    5.12
  -4   6   1   56.30    6.64
  -4   6   1   53.42    6.33
  -4   6   1   54.71    5.59
  -4   6   1   48.13    5.59
  -4   6   1   56.30    6.64
  -4   6   1   53.42    6.33
  -4   6   1   54.71    5.59
  -4   6   1   48.13    5.59
  -4   6   0   29.10    5.65
  -4   6   0   26.26    4.63
  -4   6   0   27.47    4.12
  -4   6   0   31.41    4.88
  -4   6   0   29.10    5.65
  -4   6   0   26.26    4.63
  -4   6   0   27.47    4.12
  -4   6   0   31.41    4.88
  -4   6  -1   13.39    4.99
  -4   6  -1   11.89    3.73
  -4   6  -1   11.10    3.29
  -4   6  -1   15.56    4.25
  -4   6  -1   13.39    4.99
  -4   6  -1   11.89    3.73
  -4   6  -1   11.10    3.29
  -4   6  -1   15.56    4.25
  -4   6  -2    3.52    3.63
  -4   6  -2   -1.51    4.34
  -4   6  -2    2.56    3.24
  -4   6  -2    6.33    2.78
  -4   6  -2    2.68    3.80
  -4   6  -2    0.95    3.66
  -4   6  -2    3.52    3.63
  -4   6  -2   -1.51    4.34
  -4   6  -2    2.56    3.24
  -4   6  -2    6.33    2.78
  -4   6  -2    2.68    3.80
  -4   6  -2    0.95    3.66
  -4   6  -3   -2.24    3.64
  -4   6  -3    2.71    4.30
  -4   6  -3    4.98    3.19
  -4   6  -3    2.42    1.92
  -4   6  -3    5.99    4.01
  -4   6  -3   -2.24    3.64
  -4   6  -3    2.71    4.30
  -4   6  -3    4.98    3.19
  -4   6  -3    2.42    1.92
  -4   6  -3    5.99    4.01
  -4   6  -4   13.46    4.47
  -4   6  -4   12.88    4.52
  -4   6  -4    9.45    4.10
  -4   6  -4   13.46    4.47
  -4   6  -4   12.88    4.52
  -4   6  -4    9.45    4.10
  -4   6  -5   26.72    5.08
  -4   6  -5   21.51    4.52
  -4   6  -5   26.72    5.08
  -4   6  -5   21.51    4.52
  -4   6  -6    5.55    4.56
  -4   6  -6    0.78    3.84
  -4   6  -6    5.55    4.56
  -4   6  -6    0.78    3.84
  -4   6  -7   10.13    5.14
  -4   6  -7   15.11    4.36
  -4   6  -7   10.13    5.14
  -4   6  -7   15.11    4.36
  -4   6  -8   29.21    5.99
  -4   6  -8   26.92    4.93
  -4   6  -8   29.21    5.99
  -4   6  -8   26.92    4.93
  -4   6  -9   11.88    5.53
  -4   6  -9    6.06    4.35
  -4   6  -9   11.88    5.53
  -4   6  -9    6.06    4.35
  -4   6 -10    5.30    5.63
  -4   6 -10    7.27    4.83
  -4   6 -10    5.30    5.63
  -4   6 -10    7.27    4.83
  -4   5  10   75.42    8.20
  -4   5  10   75.42    8.20
   4  -5 -10   62.12    7.72
   4  -5 -10   62.12    7.72
  -4   5   9  157.03    9.24
  -4   5   9  157.03    9.24
   4  -5  -9  156.12    9.99
   4  -5  -9  156.12    9.99
  -4   5   8   41.02    6.23
  -4   5   8   41.02    6.23
   4  -5  -8   44.21    6.90
   4  -5  -8   44.21    6.90
  -4   5   7   18.99    5.18
  -4   5   7   18.99    5.18
   4  -5  -7   15.87    5.70
   4  -5  -7   15.87    5.70
  -4   5   6   25.66    5.35
  -4   5   6   20.83    5.22
  -4   5   6   25.66    5.35
  -4   5   6   20.83    5.22
   4  -5  -6   18.41    5.54
   4  -5  -6   18.41    5.54
  -4   5   5    1.65    4.29
  -4   5   5    3.23    4.54
  -4   5   5    1.65    4.29
  -4   5   5    3.23    4.54
   4  -5  -5    2.37    4.33
   4  -5  -5    2.37    4.33
  -4   5   4    5.17    3.95
  -4   5   4   11.40    4.50
  -4   5   4    5.17    3.95
  -4   5   4   11.40    4.50
   4  -5  -4    7.96    4.78
   4  -5  -4    7.96    4.78
  -4   5   3   47.74    5.52
  -4   5   3   47.86    5.48
  -4   5   3   47.74    5.52
  -4   5   3   47.86    5.48
   4  -5  -3   51.68    6.04
   4  -5  -3   51.68    6.04
  -4   5   2   12.07    5.05
  -4   5   2    9.54    4.88
  -4   5   2   11.54    3.61
  -4   5   2   16.67    4.32
  -4   5   2   12.07    5.05
  -4   5   2    9.54    4.88
  -4   5   2   11.54    3.61
  -4   5   2   16.67    4.32
   4  -5  -2   13.29    4.54
   4  -5  -2   13.29    4.54
  -4   5   1  182.56    8.94
  -4   5   1  176.88    8.00
  -4   5   1  197.48    6.93
  -4   5   1  209.79    7.84
  -4   5   1  182.56    8.94
  -4   5   1  176.88    8.00
  -4   5   1  197.48    6.93
  -4   5   1  209.79    7.84
   4  -5  -1  206.28    8.48
   4  -5  -1  206.28    8.48
  -4   5   0  222.88    9.01
  -4   5   0  216.96    8.10
  -4   5   0  219.43    6.50
  -4   5   0  214.33    7.67
  -4   5   0  222.88    9.01
  -4   5   0  216.96    8.10
  -4   5   0  219.43    6.50
  -4   5   0  214.33    7.67
  -4   5  -1   87.05    6.72
  -4   5  -1   91.23    7.26
  -4   5  -1   85.50    6.32
  -4   5  -1   84.17    4.95
  -4   5  -1   89.28    5.87
  -4   5  -1   87.05    6.72
  -4   5  -1   91.23    7.26
  -4   5  -1   85.50    6.32
  -4   5  -1   84.17    4.95
  -4   5  -1   89.28    5.87
  -4   5  -2   27.88    4.19
  -4   5  -2   23.37    4.88
  -4   5  -2   23.06    4.21
  -4   5  -2   29.29    3.55
  -4   5  -2   28.62    4.24
  -4   5  -2   26.58    4.12
  -4   5  -2   27.88    4.19
  -4   5  -2   23.37    4.88
  -4   5  -2   23.06    4.21
  -4   5  -2   29.29    3.55
  -4   5  -2   28.62    4.24
  -4   5  -2   26.58    4.12
  -4   5  -3   84.16    7.05
  -4   5  -3   74.28    6.60
  -4   5  -3   78.17    6.50
  -4   5  -3   77.03    5.44
  -4   5  -3   84.16    7.05
  -4   5  -3   74.28    6.60
  -4   5  -3   78.17    6.50
  -4   5  -3   77.03    5.44
  -4   5  -4   43.17    5.16
  -4   5  -4   41.99    5.20
  -4   5  -4   34.07    4.41
  -4   5  -4   43.17    5.16
  -4   5  -4   41.99    5.20
  -4   5  -4   34.07    4.41
  -4   5  -5   16.32    4.51
  -4   5  -5   12.35    3.81
  -4   5  -5   16.32    4.51
  -4   5  -5   12.35    3.81
  -4   5  -6    9.31    4.49
  -4   5  -6   11.49    3.80
  -4   5  -6    9.31    4.49
  -4   5  -6   11.49    3.80
  -4   5  -7    3.31    4.51
  -4   5  -7   -0.49    3.53
  -4   5  -7    3.31    4.51
  -4   5  -7   -0.49    3.53
  -4   5  -8   94.82    8.51
  -4   5  -8   95.86    6.36
  -4   5  -8   94.82    8.51
  -4   5  -8   95.86    6.36
  -4   5  -9   56.83    6.85
  -4   5  -9   52.33    6.26
  -4   5  -9   56.83    6.85
  -4   5  -9   52.33    6.26
  -4   5 -10    9.34    5.48
  -4   5 -10   16.09    4.38
  -4   5 -10    9.34    5.48
  -4   5 -10   16.09    4.38
  -4   5 -11   18.39    6.07
  -4   5 -11   17.68    4.88
  -4   5 -11   18.39    6.07
  -4   5 -11   17.68    4.88
  -4   4  11    9.87    5.78
  -4   4  11    9.87    5.78
   4  -4 -11   -1.17    5.51
   4  -4 -11   -1.17    5.51
  -4   4  10    0.71    5.27
  -4   4  10    0.71    5.27
   4  -4 -10    3.29    5.45
   4  -4 -10    3.29    5.45
  -4   4   9   50.34    6.58
  -4   4   9   50.34    6.58
   4  -4  -9   42.97    6.70
   4  -4  -9   42.97    6.70
  -4   4   8   37.00    5.88
  -4   4   8   37.00    5.88
   4  -4  -8   28.45    5.95
   4  -4  -8   28.45    5.95
  -4   4   7    0.72    4.33
  -4   4   7    0.48    4.53
  -4   4   7    0.72    4.33
  -4   4   7    0.48    4.53
   4  -4  -7    1.66    4.78
   4  -4  -7    1.66    4.78
  -4   4   6   25.88    4.95
  -4   4   6   24.56    5.09
  -4   4   6   25.88    4.95
  -4   4   6   24.56    5.09
   4  -4  -6   22.55    5.36
   4  -4  -6   22.55    5.36
  -4   4   5   18.24    4.36
  -4   4   5   19.34    4.73
  -4   4   5   18.24    4.36
  -4   4   5   19.34    4.73
   4  -4  -5   22.55    4.72
   4  -4  -5   22.55    4.72
  -4   4   4   45.78    5.59
  -4   4   4   56.69    6.16
  -4   4   4   45.78    5.59
  -4   4   4   56.69    6.16
   4  -4  -4   47.30    5.71
   4  -4  -4   47.30    5.71
  -4   4   3   -1.35    3.22
  -4   4   3   -2.46    3.50
  -4   4   3   -1.35    3.22
  -4   4   3   -2.46    3.50
   4  -4  -3    3.20    3.68
   4  -4  -3    3.20    3.68
  -4   4   2   -1.38    4.85
  -4   4   2   -2.26    4.51
  -4   4   2    0.70    3.07
  -4   4   2   -2.67    3.35
  -4   4   2   -1.38    4.85
  -4   4   2   -2.26    4.51
  -4   4   2    0.70    3.07
  -4   4   2   -2.67    3.35
   4  -4  -2    0.78    3.80
   4  -4  -2    0.78    3.80
  -4   4   1    2.06    4.21
  -4   4   1    8.90    4.26
  -4   4   1   10.61    3.26
  -4   4   1   11.01    3.64
  -4   4   1    2.06    4.21
  -4   4   1    8.90    4.26
  -4   4   1   10.61    3.26
  -4   4   1   11.01    3.64
   4  -4  -1    2.21    3.69
   4  -4  -1    2.21    3.69
  -4   4   0   52.80    5.72
  -4   4   0   52.34    6.19
  -4   4   0   53.81    4.47
  -4   4   0   61.46    5.19
  -4   4   0   52.80    5.72
  -4   4   0   52.34    6.19
  -4   4   0   53.81    4.47
  -4   4   0   61.46    5.19
  -4   4  -1    5.02    2.84
  -4   4  -1    1.36    3.02
  -4   4  -1    2.04    4.21
  -4   4  -1    3.79    3.72
  -4   4  -1    1.85    2.48
  -4   4  -1    2.57    3.28
  -4   4  -1    5.02    2.84
  -4   4  -1    1.36    3.02
  -4   4  -1    2.04    4.21
  -4   4  -1    3.79    3.72
  -4   4  -1    1.85    2.48
  -4   4  -1    2.57    3.28
  -4   4  -2    1.74    2.48
  -4   4  -2    0.61    3.16
  -4   4  -2    1.06    4.01
  -4   4  -2    0.74    3.49
  -4   4  -2    2.63    1.96
  -4   4  -2   -3.80    3.01
  -4   4  -2    4.30    3.22
  -4   4  -2    1.74    2.48
  -4   4  -2    0.61    3.16
  -4   4  -2    1.06    4.01
  -4   4  -2    0.74    3.49
  -4   4  -2    2.63    1.96
  -4   4  -2   -3.80    3.01
  -4   4  -2    4.30    3.22
  -4   4  -3   44.46    4.18
  -4   4  -3  143.57    7.51
  -4   4  -3  136.38    7.34
  -4   4  -3  145.07    6.86
  -4   4  -3  140.97    5.83
  -4   4  -3   44.46    4.18
  -4   4  -3  143.57    7.51
  -4   4  -3  136.38    7.34
  -4   4  -3  145.07    6.86
  -4   4  -3  140.97    5.83
  -4   4  -4  127.15    5.21
  -4   4  -4  242.87    9.00
  -4   4  -4  222.44    8.18
  -4   4  -4  221.33    6.74
  -4   4  -4  127.15    5.21
  -4   4  -4  242.87    9.00
  -4   4  -4  222.44    8.18
  -4   4  -4  221.33    6.74
  -4   4  -5   -1.94    2.42
  -4   4  -5  135.91    7.88
  -4   4  -5  129.80    5.54
  -4   4  -5   -1.94    2.42
  -4   4  -5  135.91    7.88
  -4   4  -5  129.80    5.54
  -4   4  -6    0.50    3.93
  -4   4  -6    5.18    3.29
  -4   4  -6    0.50    3.93
  -4   4  -6    5.18    3.29
  -4   4  -7   11.55    4.56
  -4   4  -7    8.58    3.51
  -4   4  -7   11.55    4.56
  -4   4  -7    8.58    3.51
  -4   4  -8    4.48    4.54
  -4   4  -8    8.08    3.61
  -4   4  -8    4.48    4.54
  -4   4  -8    8.08    3.61
  -4   4  -9    4.62    4.64
  -4   4  -9    4.75    3.73
  -4   4  -9    4.62    4.64
  -4   4  -9    4.75    3.73
  -4   4 -10    8.74    5.12
  -4   4 -10   16.48    4.20
  -4   4 -10    8.74    5.12
  -4   4 -10   16.48    4.20
  -4   4 -11    3.27    5.05
  -4   4 -11    2.21    4.04
  -4   4 -11    3.27    5.05
  -4   4 -11    2.21    4.04
  -4   4 -12    4.40    5.39
  -4   4 -12    3.65    4.26
  -4   4 -12    4.40    5.39
  -4   4 -12    3.65    4.26
   4  -3 -12    2.67    5.54
   4  -3 -12    2.67    5.54
  -4   3  11   -5.19    5.16
  -4   3  11   -5.19    5.16
   4  -3 -11   -3.61    5.09
   4  -3 -11   -3.61    5.09
  -4   3  10   16.55    5.55
  -4   3  10   16.55    5.55
   4  -3 -10   10.60    5.54
   4  -3 -10   10.60    5.54
  -4   3   9   13.86    5.27
  -4   3   9   13.86    5.27
   4  -3  -9   16.09    5.23
   4  -3  -9   16.09    5.23
  -4   3   8    4.91    4.53
  -4   3   8    4.91    4.53
   4  -3  -8    0.50    4.77
   4  -3  -8    0.50    4.77
  -4   3   7   -2.21    4.05
  -4   3   7   -5.46    4.10
  -4   3   7   -2.21    4.05
  -4   3   7   -5.46    4.10
   4  -3  -7    4.69    4.72
   4  -3  -7    4.69    4.72
  -4   3   6    4.21    3.96
  -4   3   6   -0.81    4.02
  -4   3   6    4.21    3.96
  -4   3   6   -0.81    4.02
   4  -3  -6   -0.62    4.30
   4  -3  -6   -0.62    4.30
  -4   3   5   15.53    4.16
  -4   3   5   13.29    3.91
  -4   3   5   15.53    4.16
  -4   3   5   13.29    3.91
   4  -3  -5   11.41    4.54
   4  -3  -5   11.41    4.54
  -4   3   4   13.05    3.77
  -4   3   4   14.20    4.05
  -4   3   4   13.05    3.77
  -4   3   4   14.20    4.05
   4  -3  -4   16.29    4.44
   4  -3  -4   16.29    4.44
  -4   3   3  132.27    6.54
  -4   3   3  133.47    6.58
  -4   3   3  132.27    6.54
  -4   3   3  133.47    6.58
   4  -3  -3  127.22    7.22
   4  -3  -3  127.22    7.22
  -4   3   2   11.54    4.71
  -4   3   2    4.82    3.01
  -4   3   2    8.62    3.49
  -4   3   2   11.54    4.71
  -4   3   2    4.82    3.01
  -4   3   2    8.62    3.49
   4  -3  -2    4.22    3.65
   4  -3  -2    4.22    3.65
  -4   3   1   40.61    5.00
  -4   3   1   43.42    4.75
  -4   3   1   39.16    4.41
  -4   3   1   40.73    4.76
  -4   3   1   40.61    5.00
  -4   3   1   43.42    4.75
  -4   3   1   39.16    4.41
  -4   3   1   40.73    4.76
   4  -3  -1   39.17    4.28
   4  -3  -1   39.17    4.28
  -4   3   0  114.08    6.50
  -4   3   0  111.47    6.84
  -4   3   0  113.82    4.55
  -4   3   0  115.66    5.42
  -4   3   0  114.08    6.50
  -4   3   0  111.47    6.84
  -4   3   0  113.82    4.55
  -4   3   0  115.66    5.42
   4  -3   0  118.34    5.88
   4  -3   0  118.34    5.88
  -4   3  -1  134.03    6.52
  -4   3  -1  138.50    7.38
  -4   3  -1  133.84    6.82
  -4   3  -1  137.88    4.27
  -4   3  -1  140.44    5.65
  -4   3  -1  134.03    6.52
  -4   3  -1  138.50    7.38
  -4   3  -1  133.84    6.82
  -4   3  -1  137.88    4.27
  -4   3  -1  140.44    5.65
  -4   3  -2   42.71    4.91
  -4   3  -2   39.80    4.11
  -4   3  -2   44.17    4.99
  -4   3  -2   35.13    4.33
  -4   3  -2   36.46    1.77
  -4   3  -2   40.80    4.33
  -4   3  -2   40.52    4.31
  -4   3  -2   42.71    4.91
  -4   3  -2   39.80    4.11
  -4   3  -2   44.17    4.99
  -4   3  -2   35.13    4.33
  -4   3  -2   36.46    1.77
  -4   3  -2   40.80    4.33
  -4   3  -2   40.52    4.31
  -4   3  -3    5.59    2.99
  -4   3  -3    5.13    3.33
  -4   3  -3    5.64    4.03
  -4   3  -3    5.60    3.53
  -4   3  -3    4.79    2.86
  -4   3  -3    5.59    2.99
  -4   3  -3    5.13    3.33
  -4   3  -3    5.64    4.03
  -4   3  -3    5.60    3.53
  -4   3  -3    4.79    2.86
  -4   3  -4   -3.72    2.87
  -4   3  -4    0.71    3.35
  -4   3  -4    2.37    3.84
  -4   3  -4    3.12    3.53
  -4   3  -4    2.90    2.76
  -4   3  -4   -3.72    2.87
  -4   3  -4    0.71    3.35
  -4   3  -4    2.37    3.84
  -4   3  -4    3.12    3.53
  -4   3  -4    2.90    2.76
  -4   3  -5  154.62    6.14
  -4   3  -5  167.67    7.89
  -4   3  -5  174.59    5.50
  -4   3  -5  154.62    6.14
  -4   3  -5  167.67    7.89
  -4   3  -5  174.59    5.50
  -4   3  -6   26.02    4.05
  -4   3  -6   24.85    4.55
  -4   3  -6   25.20    3.29
  -4   3  -6   26.02    4.05
  -4   3  -6   24.85    4.55
  -4   3  -6   25.20    3.29
  -4   3  -7   25.28    4.81
  -4   3  -7   28.67    3.48
  -4   3  -7   25.28    4.81
  -4   3  -7   28.67    3.48
  -4   3  -8   12.47    4.55
  -4   3  -8   18.24    3.45
  -4   3  -8   12.47    4.55
  -4   3  -8   18.24    3.45
  -4   3  -9   56.58    6.31
  -4   3  -9   61.94    5.15
  -4   3  -9   56.58    6.31
  -4   3  -9   61.94    5.15
  -4   3 -10   66.09    7.51
  -4   3 -10   70.29    5.71
  -4   3 -10   66.09    7.51
  -4   3 -10   70.29    5.71
  -4   3 -11    2.77    4.82
  -4   3 -11    0.27    3.51
  -4   3 -11    2.77    4.82
  -4   3 -11    0.27    3.51
  -4   3 -12    4.99    5.28
  -4   3 -12    4.83    3.93
  -4   3 -12    4.99    5.28
  -4   3 -12    4.83    3.93
  -4   3 -13    6.47    5.62
  -4   3 -13    6.57    4.28
  -4   3 -13    6.47    5.62
  -4   3 -13    6.57    4.28
   4  -2 -12    6.30    5.49
   4  -2 -12    6.30    5.49
  -4   2  11   68.76    8.25
  -4   2  11   68.76    8.25
   4  -2 -11   78.91    8.16
   4  -2 -11   79.71    8.60
   4  -2 -11   78.91    8.16
   4  -2 -11   79.71    8.60
  -4   2  10   10.68    4.91
  -4   2  10   10.68    4.91
   4  -2 -10    7.48    5.16
   4  -2 -10    9.34    5.33
   4  -2 -10    7.48    5.16
   4  -2 -10    9.34    5.33
  -4   2   9    9.02    4.96
  -4   2   9    9.02    4.96
   4  -2  -9    5.10    5.03
   4  -2  -9    5.83    4.85
   4  -2  -9    5.10    5.03
   4  -2  -9    5.83    4.85
  -4   2   8   79.82    7.20
  -4   2   8   79.82    7.20
   4  -2  -8   81.52    7.77
   4  -2  -8   69.73    7.32
   4  -2  -8   81.52    7.77
   4  -2  -8   69.73    7.32
  -4   2   7   -0.47    4.02
  -4   2   7   -1.70    4.07
  -4   2   7   -0.47    4.02
  -4   2   7   -1.70    4.07
   4  -2  -7    1.37    3.98
   4  -2  -7   -1.16    4.05
   4  -2  -7    1.37    3.98
   4  -2  -7   -1.16    4.05
  -4   2   6   97.51    6.69
  -4   2   6   97.41    6.75
  -4   2   6   97.51    6.69
  -4   2   6   97.41    6.75
   4  -2  -6   97.80    7.60
   4  -2  -6   97.89    6.90
   4  -2  -6   97.80    7.60
   4  -2  -6   97.89    6.90
  -4   2   5  103.38    6.43
  -4   2   5  104.95    6.58
  -4   2   5  103.38    6.43
  -4   2   5  104.95    6.58
   4  -2  -5  117.00    7.51
   4  -2  -5  103.33    6.52
   4  -2  -5  117.00    7.51
   4  -2  -5  103.33    6.52
  -4   2   4   71.33    5.66
  -4   2   4   82.72    5.90
  -4   2   4   71.33    5.66
  -4   2   4   82.72    5.90
   4  -2  -4   77.67    5.91
   4  -2  -4   78.84    5.77
   4  -2  -4   77.67    5.91
   4  -2  -4   78.84    5.77
  -4   2   3  114.98    5.78
  -4   2   3  113.07    5.98
  -4   2   3  114.98    5.78
  -4   2   3  113.07    5.98
   4  -2  -3  116.86    6.06
   4  -2  -3  101.35    5.91
   4  -2  -3  116.86    6.06
   4  -2  -3  101.35    5.91
  -4   2   2  237.49    6.63
  -4   2   2  212.99    6.67
  -4   2   2  237.49    6.63
  -4   2   2  212.99    6.67
   4  -2  -2  219.62    7.24
   4  -2  -2  219.62    7.24
  -4   2   1   28.55    4.61
  -4   2   1   31.88    4.61
  -4   2   1   29.83    3.19
  -4   2   1   28.49    3.55
  -4   2   1   28.55    4.61
  -4   2   1   31.88    4.61
  -4   2   1   29.83    3.19
  -4   2   1   28.49    3.55
   4  -2  -1   31.71    3.73
   4  -2  -1   31.71    3.73
  -4   2   0   38.58    4.60
  -4   2   0   43.26    5.13
  -4   2   0   37.90    3.64
  -4   2   0   41.34    4.42
  -4   2   0   38.58    4.60
  -4   2   0   43.26    5.13
  -4   2   0   37.90    3.64
  -4   2   0   41.34    4.42
   4  -2   0   39.15    4.84
   4  -2   0   39.15    4.84
  -4   2  -1  127.28    6.18
  -4   2  -1  130.61    6.97
  -4   2  -1  119.26    6.44
  -4   2  -1  125.98    3.18
  -4   2  -1  126.70    3.45
  -4   2  -1  124.62    4.87
  -4   2  -1  127.28    6.18
  -4   2  -1  130.61    6.97
  -4   2  -1  119.26    6.44
  -4   2  -1  125.98    3.18
  -4   2  -1  126.70    3.45
  -4   2  -1  124.62    4.87
   4  -2   1  122.49    4.89
   4  -2   1  122.49    4.89
  -4   2  -2   17.73    3.33
  -4   2  -2   23.05    3.45
  -4   2  -2   20.12    4.11
  -4   2  -2   20.09    3.60
  -4   2  -2   21.70    2.83
  -4   2  -2   19.61    2.73
  -4   2  -2   17.73    3.33
  -4   2  -2   23.05    3.45
  -4   2  -2   20.12    4.11
  -4   2  -2   20.09    3.60
  -4   2  -2   21.70    2.83
  -4   2  -2   19.61    2.73
  -4   2  -3   -0.01    2.72
  -4   2  -3    2.43    2.94
  -4   2  -3    2.33    3.61
  -4   2  -3    2.27    3.32
  -4   2  -3    0.82    2.19
  -4   2  -3   -0.01    2.72
  -4   2  -3    2.43    2.94
  -4   2  -3    2.33    3.61
  -4   2  -3    2.27    3.32
  -4   2  -3    0.82    2.19
  -4   2  -4   83.33    5.79
  -4   2  -4   87.01    6.34
  -4   2  -4   92.65    6.48
  -4   2  -4   94.55    4.17
  -4   2  -4   83.33    5.79
  -4   2  -4   87.01    6.34
  -4   2  -4   92.65    6.48
  -4   2  -4   94.55    4.17
  -4   2  -5    4.09    3.20
  -4   2  -5    5.64    3.46
  -4   2  -5    6.03    2.40
  -4   2  -5    4.09    3.20
  -4   2  -5    5.64    3.46
  -4   2  -5    6.03    2.40
  -4   2  -6   27.65    4.07
  -4   2  -6   27.16    4.45
  -4   2  -6   27.32    2.77
  -4   2  -6   27.65    4.07
  -4   2  -6   27.16    4.45
  -4   2  -6   27.32    2.77
  -4   2  -7    0.05    3.60
  -4   2  -7    0.05    2.39
  -4   2  -7    0.05    3.60
  -4   2  -7    0.05    2.39
  -4   2  -8    9.72    4.19
  -4   2  -8    9.42    2.79
  -4   2  -8    9.72    4.19
  -4   2  -8    9.42    2.79
  -4   2  -9   56.90    6.95
  -4   2  -9   70.04    4.62
  -4   2  -9   56.90    6.95
  -4   2  -9   70.04    4.62
  -4   2 -10   90.17    7.82
  -4   2 -10   92.09    5.34
  -4   2 -10   90.17    7.82
  -4   2 -10   92.09    5.34
  -4   2 -11    7.90    4.97
  -4   2 -11   12.57    3.71
  -4   2 -11    7.90    4.97
  -4   2 -11   12.57    3.71
  -4   2 -12   -2.52    4.81
  -4   2 -12    7.20    3.68
  -4   2 -12   -2.52    4.81
  -4   2 -12    7.20    3.68
  -4   2 -13   33.15    6.54
  -4   2 -13   39.47    5.03
  -4   2 -13   33.15    6.54
  -4   2 -13   39.47    5.03
   4  -1 -12    4.00    5.47
   4  -1 -12   12.35    5.87
   4  -1 -12    4.00    5.47
   4  -1 -12   12.35    5.87
  -4   1  11   61.39    7.36
  -4   1  11   61.39    7.36
   4  -1 -11   49.71    6.47
   4  -1 -11   54.59    7.00
   4  -1 -11   49.71    6.47
   4  -1 -11   54.59    7.00
  -4   1  10  161.21    9.39
  -4   1  10  161.21    9.39
   4  -1 -10  143.29    8.95
   4  -1 -10  157.25    9.28
   4  -1 -10  143.29    8.95
   4  -1 -10  157.25    9.28
  -4   1   9  120.58    8.35
  -4   1   9  120.58    8.35
   4  -1  -9  124.90    8.44
   4  -1  -9  113.81    7.44
   4  -1  -9  124.90    8.44
   4  -1  -9  113.81    7.44
  -4   1   8   13.92    4.81
  -4   1   8   13.92    4.81
   4  -1  -8   13.47    4.63
   4  -1  -8   11.91    4.30
   4  -1  -8   13.47    4.63
   4  -1  -8   11.91    4.30
  -4   1   7   12.24    4.40
  -4   1   7   13.97    4.32
  -4   1   7   12.24    4.40
  -4   1   7   13.97    4.32
   4  -1  -7   12.77    4.60
   4  -1  -7   11.08    4.33
   4  -1  -7   12.77    4.60
   4  -1  -7   11.08    4.33
  -4   1   6   -1.39    3.67
  -4   1   6    4.02    3.78
  -4   1   6   -1.39    3.67
  -4   1   6    4.02    3.78
   4  -1  -6    1.09    3.58
   4  -1  -6    0.30    3.65
   4  -1  -6    1.09    3.58
   4  -1  -6    0.30    3.65
  -4   1   5    2.82    3.47
  -4   1   5   -1.82    3.41
  -4   1   5    2.82    3.47
  -4   1   5   -1.82    3.41
   4  -1  -5    0.00    3.40
   4  -1  -5    1.44    3.41
   4  -1  -5    0.00    3.40
   4  -1  -5    1.44    3.41
  -4   1   4   20.26    3.65
  -4   1   4   18.27    3.75
  -4   1   4   20.26    3.65
  -4   1   4   18.27    3.75
   4  -1  -4   15.21    3.92
   4  -1  -4   19.79    3.73
   4  -1  -4   15.21    3.92
   4  -1  -4   19.79    3.73
  -4   1   3   43.29    4.61
  -4   1   3   43.90    4.78
  -4   1   3   43.29    4.61
  -4   1   3   43.90    4.78
   4  -1  -3   42.02    4.28
   4  -1  -3   45.74    4.62
   4  -1  -3   42.02    4.28
   4  -1  -3   45.74    4.62
  -4   1   2   18.45    3.06
  -4   1   2   25.23    3.40
  -4   1   2   18.45    3.06
  -4   1   2   25.23    3.40
   4  -1  -2   18.13    3.41
   4  -1  -2   22.07    3.14
   4  -1  -2   18.13    3.41
   4  -1  -2   22.07    3.14
  -4   1   1   48.00    5.85
  -4   1   1   46.57    4.60
  -4   1   1   48.20    3.97
  -4   1   1   46.07    4.02
  -4   1   1   48.00    5.85
  -4   1   1   46.57    4.60
  -4   1   1   48.20    3.97
  -4   1   1   46.07    4.02
   4  -1  -1   54.44    4.59
   4  -1  -1   54.44    4.59
  -4   1   0   24.03    4.00
  -4   1   0   24.00    3.52
  -4   1   0   30.36    3.09
  -4   1   0   26.35    2.93
  -4   1   0   24.03    4.00
  -4   1   0   24.00    3.52
  -4   1   0   30.36    3.09
  -4   1   0   26.35    2.93
   4  -1   0   28.73    3.07
   4  -1   0   28.73    3.07
  -4   1  -1   20.58    3.52
  -4   1  -1   23.87    3.69
  -4   1  -1   21.86    1.81
  -4   1  -1   23.22    2.01
  -4   1  -1   25.51    2.65
  -4   1  -1   20.58    3.52
  -4   1  -1   23.87    3.69
  -4   1  -1   21.86    1.81
  -4   1  -1   23.22    2.01
  -4   1  -1   25.51    2.65
  -4   1  -2   87.09    5.24
  -4   1  -2   94.24    5.69
  -4   1  -2   91.92    6.03
  -4   1  -2   89.45    5.28
  -4   1  -2   88.87    3.58
  -4   1  -2   87.09    5.24
  -4   1  -2   94.24    5.69
  -4   1  -2   91.92    6.03
  -4   1  -2   89.45    5.28
  -4   1  -2   88.87    3.58
  -4   1  -3   53.89    4.96
  -4   1  -3   55.62    5.32
  -4   1  -3   55.91    5.69
  -4   1  -3   56.57    4.86
  -4   1  -3   57.06    3.03
  -4   1  -3   53.89    4.96
  -4   1  -3   55.62    5.32
  -4   1  -3   55.91    5.69
  -4   1  -3   56.57    4.86
  -4   1  -3   57.06    3.03
  -4   1  -4   -1.99    2.86
  -4   1  -4    0.17    2.88
  -4   1  -4    0.92    1.68
  -4   1  -4   -0.94    1.50
  -4   1  -4   -1.99    2.86
  -4   1  -4    0.17    2.88
  -4   1  -4    0.92    1.68
  -4   1  -4   -0.94    1.50
  -4   1  -5  181.49    6.75
  -4   1  -5  185.05    7.36
  -4   1  -5  195.62    3.67
  -4   1  -5  181.49    6.75
  -4   1  -5  185.05    7.36
  -4   1  -5  195.62    3.67
  -4   1  -6   87.67    6.14
  -4   1  -6   76.96    6.77
  -4   1  -6   87.33    3.27
  -4   1  -6   87.67    6.14
  -4   1  -6   76.96    6.77
  -4   1  -6   87.33    3.27
  -4   1  -7   47.44    5.19
  -4   1  -7   46.67    3.11
  -4   1  -7   47.44    5.19
  -4   1  -7   46.67    3.11
  -4   1  -8    3.85    3.86
  -4   1  -8    3.45    2.12
  -4   1  -8    3.85    3.86
  -4   1  -8    3.45    2.12
  -4   1  -9   12.18    4.47
  -4   1  -9   20.16    2.80
  -4   1  -9   12.18    4.47
  -4   1  -9   20.16    2.80
  -4   1 -10    3.59    4.27
  -4   1 -10    0.56    2.69
  -4   1 -10    3.59    4.27
  -4   1 -10    0.56    2.69
  -4   1 -11    4.31    4.64
  -4   1 -11    8.20    3.15
  -4   1 -11    4.31    4.64
  -4   1 -11    8.20    3.15
  -4   1 -12    6.16    5.00
  -4   1 -12   15.35    3.73
  -4   1 -12    6.16    5.00
  -4   1 -12   15.35    3.73
  -4   1 -13   16.95    5.67
  -4   1 -13   11.29    3.99
  -4   1 -13   16.95    5.67
  -4   1 -13   11.29    3.99
  -4   1 -14   26.59    6.39
  -4   1 -14   27.01    4.62
  -4   1 -14   26.59    6.39
  -4   1 -14   27.01    4.62
   4   0 -12   12.32    5.52
   4   0 -12    2.10    5.48
   4   0 -12   12.32    5.52
   4   0 -12    2.10    5.48
  -4   0  11    3.29    5.25
  -4   0  11    3.29    5.25
   4   0 -11    5.06    4.68
   4   0 -11    5.19    5.20
   4   0 -11    5.06    4.68
   4   0 -11    5.19    5.20
  -4   0  10    5.34    5.02
  -4   0  10    5.34    5.02
   4   0 -10    2.07    4.42
   4   0 -10    1.43    4.79
   4   0 -10    2.07    4.42
   4   0 -10    1.43    4.79
  -4   0   9   10.07    4.94
  -4   0   9   10.07    4.94
   4   0  -9    4.54    4.31
   4   0  -9    6.47    4.70
   4   0  -9    4.54    4.31
   4   0  -9    6.47    4.70
  -4   0   8   18.05    4.88
  -4   0   8   18.05    4.88
   4   0  -8   26.86    4.94
   4   0  -8   20.44    4.86
   4   0  -8   26.86    4.94
   4   0  -8   20.44    4.86
  -4   0   7    5.05    4.04
  -4   0   7    6.21    4.01
  -4   0   7    5.05    4.04
  -4   0   7    6.21    4.01
   4   0  -7    7.11    3.95
   4   0  -7    6.53    4.06
   4   0  -7    7.11    3.95
   4   0  -7    6.53    4.06
  -4   0   6   61.18    5.55
  -4   0   6   62.29    5.34
  -4   0   6   61.18    5.55
  -4   0   6   62.29    5.34
   4   0  -6   56.07    6.55
   4   0  -6   59.95    5.43
   4   0  -6   56.07    6.55
   4   0  -6   59.95    5.43
  -4   0   5  224.63    7.62
  -4   0   5  214.45    7.45
  -4   0   5  224.63    7.62
  -4   0   5  214.45    7.45
   4   0  -5  211.66    8.16
   4   0  -5  223.59    7.59
   4   0  -5  211.66    8.16
   4   0  -5  223.59    7.59
  -4   0   4   60.59    5.26
  -4   0   4   62.57    4.74
  -4   0   4   60.59    5.26
  -4   0   4   62.57    4.74
   4   0  -4   63.23    5.24
   4   0  -4   67.52    5.30
   4   0  -4   63.23    5.24
   4   0  -4   67.52    5.30
  -4   0   3    1.97    2.65
  -4   0   3    3.09    2.83
  -4   0   3    1.97    2.65
  -4   0   3    3.09    2.83
   4   0  -3   -1.79    2.95
   4   0  -3   -2.94    2.52
   4   0  -3   -1.79    2.95
   4   0  -3   -2.94    2.52
  -4   0   2  200.06    7.22
  -4   0   2  206.30    5.53
  -4   0   2  199.92    5.84
  -4   0   2  191.44    4.35
  -4   0   2  200.06    7.22
  -4   0   2  206.30    5.53
  -4   0   2  199.92    5.84
  -4   0   2  191.44    4.35
   4   0  -2  214.10    6.40
   4   0  -2  191.80    5.34
   4   0  -2  214.10    6.40
   4   0  -2  191.80    5.34
  -4   0   1  100.94    6.11
  -4   0   1  100.07    6.02
  -4   0   1  108.22    4.21
  -4   0   1  109.24    4.51
  -4   0   1  109.03    4.06
  -4   0   1  100.94    6.11
  -4   0   1  100.07    6.02
  -4   0   1  108.22    4.21
  -4   0   1  109.24    4.51
  -4   0   1  109.03    4.06
   4   0  -1  114.44    4.96
   4   0  -1  114.44    4.96
  -4   0   0    8.98    3.33
  -4   0   0    9.13    2.96
  -4   0   0   11.11    1.98
  -4   0   0    9.71    2.26
  -4   0   0   15.18    2.64
  -4   0   0    8.98    3.33
  -4   0   0    9.13    2.96
  -4   0   0   11.11    1.98
  -4   0   0    9.71    2.26
  -4   0   0   15.18    2.64
   4   0   0   14.11    2.50
   4   0   0   14.11    2.50
  -4   0  -1   20.51    3.59
  -4   0  -1   16.42    3.17
  -4   0  -1   19.74    2.27
  -4   0  -1   19.30    2.97
  -4   0  -1   20.51    3.59
  -4   0  -1   16.42    3.17
  -4   0  -1   19.74    2.27
  -4   0  -1   19.30    2.97
  -4   0  -2    3.82    2.63
  -4   0  -2    1.07    2.46
  -4   0  -2   -2.53    3.06
  -4   0  -2   -2.88    2.59
  -4   0  -2   -0.17    1.62
  -4   0  -2   -0.53    2.58
  -4   0  -2    3.82    2.63
  -4   0  -2    1.07    2.46
  -4   0  -2   -2.53    3.06
  -4   0  -2   -2.88    2.59
  -4   0  -2   -0.17    1.62
  -4   0  -2   -0.53    2.58
  -4   0  -3  329.33    7.18
  -4   0  -3  343.43    7.85
  -4   0  -3  342.44    8.04
  -4   0  -3  332.53    7.42
  -4   0  -3  333.73    3.66
  -4   0  -3  292.15    7.13
  -4   0  -3  329.33    7.18
  -4   0  -3  343.43    7.85
  -4   0  -3  342.44    8.04
  -4   0  -3  332.53    7.42
  -4   0  -3  333.73    3.66
  -4   0  -3  292.15    7.13
  -4   0  -4  561.47    9.35
  -4   0  -4  600.01    9.86
  -4   0  -4  536.20    9.33
  -4   0  -4  561.47    9.35
  -4   0  -4  600.01    9.86
  -4   0  -4  536.20    9.33
  -4   0  -5  111.62    6.12
  -4   0  -5  121.50    6.76
  -4   0  -5  111.82    6.25
  -4   0  -5  111.62    6.12
  -4   0  -5  121.50    6.76
  -4   0  -5  111.82    6.25
  -4   0  -6   20.61    3.96
  -4   0  -6   25.60    3.98
  -4   0  -6   20.61    3.96
  -4   0  -6   25.60    3.98
  -4   0  -7  168.97    7.66
  -4   0  -7  184.77    8.21
  -4   0  -7  195.48    3.17
  -4   0  -7  168.97    7.66
  -4   0  -7  184.77    8.21
  -4   0  -7  195.48    3.17
  -4   0  -8   43.53    5.03
  -4   0  -8   39.47    2.92
  -4   0  -8   43.53    5.03
  -4   0  -8   39.47    2.92
  -4   0  -9   37.40    5.05
  -4   0  -9   38.78    3.45
  -4   0  -9   37.40    5.05
  -4   0  -9   38.78    3.45
  -4   0 -10  189.59    8.88
  -4   0 -10  203.90    5.52
  -4   0 -10  189.59    8.88
  -4   0 -10  203.90    5.52
  -4   0 -11   63.77    7.31
  -4   0 -11   61.09    4.62
  -4   0 -11   63.77    7.31
  -4   0 -11   61.09    4.62
  -4   0 -12   -0.04    4.52
  -4   0 -12   -2.30    3.10
  -4   0 -12   -0.04    4.52
  -4   0 -12   -2.30    3.10
  -4   0 -13   17.37    5.70
  -4   0 -13   17.84    4.08
  -4   0 -13   17.37    5.70
  -4   0 -13   17.84    4.08
  -4   0 -14    5.54    5.40
  -4   0 -14   11.56    4.11
  -4   0 -14    5.54    5.40
  -4   0 -14   11.56    4.11
   4   1 -12    1.25    5.12
   4   1 -12    4.89    5.53
   4   1 -12    1.25    5.12
   4   1 -12    4.89    5.53
   4   1 -11    8.76    5.25
   4   1 -11   18.40    5.70
   4   1 -11    8.76    5.25
   4   1 -11   18.40    5.70
  -4  -1  10   35.85    6.14
  -4  -1  10   35.85    6.14
   4   1 -10   30.79    5.77
   4   1 -10   37.01    6.00
   4   1 -10   30.79    5.77
   4   1 -10   37.01    6.00
  -4  -1   9   66.74    7.43
  -4  -1   9   66.74    7.43
   4   1  -9   66.00    6.59
   4   1  -9   63.73    7.26
   4   1  -9   66.00    6.59
   4   1  -9   63.73    7.26
  -4  -1   8    3.27    4.29
  -4  -1   8    3.27    4.29
   4   1  -8    1.90    4.33
   4   1  -8    0.78    3.77
   4   1  -8    1.90    4.33
   4   1  -8    0.78    3.77
  -4  -1   7   18.12    4.49
  -4  -1   7   20.18    4.37
  -4  -1   7   18.12    4.49
  -4  -1   7   20.18    4.37
   4   1  -7   18.56    4.70
   4   1  -7   18.88    4.45
   4   1  -7   18.56    4.70
   4   1  -7   18.88    4.45
  -4  -1   6   57.07    6.22
  -4  -1   6   59.08    5.87
  -4  -1   6   57.07    6.22
  -4  -1   6   59.08    5.87
   4   1  -6   56.17    6.48
   4   1  -6   52.43    5.24
   4   1  -6   56.17    6.48
   4   1  -6   52.43    5.24
  -4  -1   5  243.18    7.77
  -4  -1   5  244.71    7.59
  -4  -1   5  243.18    7.77
  -4  -1   5  244.71    7.59
   4   1  -5  243.67    7.76
   4   1  -5  220.15    6.95
   4   1  -5  243.67    7.76
   4   1  -5  220.15    6.95
  -4  -1   4  183.51    6.56
  -4  -1   4  176.98    6.46
  -4  -1   4  183.51    6.56
  -4  -1   4  176.98    6.46
   4   1  -4  172.39    6.54
   4   1  -4  183.15    6.49
   4   1  -4  172.39    6.54
   4   1  -4  183.15    6.49
  -4  -1   3   15.60    3.04
  -4  -1   3   14.53    3.17
  -4  -1   3   15.60    3.04
  -4  -1   3   14.53    3.17
   4   1  -3   15.14    3.34
   4   1  -3   17.81    3.19
   4   1  -3   15.14    3.34
   4   1  -3   17.81    3.19
  -4  -1   2   48.85    5.22
  -4  -1   2   52.21    4.02
  -4  -1   2   53.04    4.20
  -4  -1   2   44.27    3.33
  -4  -1   2   48.85    5.22
  -4  -1   2   52.21    4.02
  -4  -1   2   53.04    4.20
  -4  -1   2   44.27    3.33
   4   1  -2   56.34    4.74
   4   1  -2   56.23    3.99
   4   1  -2   56.34    4.74
   4   1  -2   56.23    3.99
  -4  -1   1  320.44    7.35
  -4  -1   1  306.53    7.53
  -4  -1   1  332.08    5.87
  -4  -1   1  320.49    6.15
  -4  -1   1  287.38    5.62
  -4  -1   1  320.44    7.35
  -4  -1   1  306.53    7.53
  -4  -1   1  332.08    5.87
  -4  -1   1  320.49    6.15
  -4  -1   1  287.38    5.62
   4   1  -1  323.70    6.59
   4   1  -1  323.70    6.59
  -4  -1   0    9.06    3.23
  -4  -1   0   16.00    3.21
  -4  -1   0   11.52    1.99
  -4  -1   0   13.20    2.45
  -4  -1   0   15.44    2.84
  -4  -1   0    9.06    3.23
  -4  -1   0   16.00    3.21
  -4  -1   0   11.52    1.99
  -4  -1   0   13.20    2.45
  -4  -1   0   15.44    2.84
   4   1   0   12.23    2.45
   4   1   0   12.23    2.45
  -4  -1  -1   14.98    3.07
  -4  -1  -1   12.55    3.24
  -4  -1  -1   16.97    2.21
  -4  -1  -1    9.59    2.81
  -4  -1  -1   14.98    3.07
  -4  -1  -1   12.55    3.24
  -4  -1  -1   16.97    2.21
  -4  -1  -1    9.59    2.81
  -4  -1  -2    0.99    2.91
  -4  -1  -2    3.66    2.88
  -4  -1  -2    3.41    3.03
  -4  -1  -2    3.97    1.63
  -4  -1  -2   -0.09    2.75
  -4  -1  -2    0.99    2.91
  -4  -1  -2    3.66    2.88
  -4  -1  -2    3.41    3.03
  -4  -1  -2    3.97    1.63
  -4  -1  -2   -0.09    2.75
  -4  -1  -3    3.59    2.98
  -4  -1  -3    5.19    2.67
  -4  -1  -3    6.65    2.84
  -4  -1  -3    5.68    1.04
  -4  -1  -3    1.52    2.72
  -4  -1  -3    3.59    2.98
  -4  -1  -3    5.19    2.67
  -4  -1  -3    6.65    2.84
  -4  -1  -3    5.68    1.04
  -4  -1  -3    1.52    2.72
  -4  -1  -4  149.19    5.81
  -4  -1  -4  141.77    6.09
  -4  -1  -4  124.20    5.53
  -4  -1  -4  149.19    5.81
  -4  -1  -4  141.77    6.09
  -4  -1  -4  124.20    5.53
  -4  -1  -5   92.73    5.98
  -4  -1  -5   99.74    5.95
  -4  -1  -5   88.57    5.51
  -4  -1  -5   92.73    5.98
  -4  -1  -5   99.74    5.95
  -4  -1  -5   88.57    5.51
  -4  -1  -6   75.81    6.24
  -4  -1  -6   68.10    5.95
  -4  -1  -6   59.62    5.66
  -4  -1  -6   75.81    6.24
  -4  -1  -6   68.10    5.95
  -4  -1  -6   59.62    5.66
  -4  -1  -7    1.27    3.46
  -4  -1  -7    2.06    3.25
  -4  -1  -7   -0.94    3.61
  -4  -1  -7    1.27    3.46
  -4  -1  -7    2.06    3.25
  -4  -1  -7   -0.94    3.61
  -4  -1  -8    4.45    3.60
  -4  -1  -8    2.06    1.72
  -4  -1  -8    0.33    3.92
  -4  -1  -8    4.45    3.60
  -4  -1  -8    2.06    1.72
  -4  -1  -8    0.33    3.92
  -4  -1  -9   -0.05    3.60
  -4  -1  -9   -0.60    2.04
  -4  -1  -9   -0.05    3.60
  -4  -1  -9   -0.60    2.04
  -4  -1 -10   12.96    4.32
  -4  -1 -10   13.27    2.73
  -4  -1 -10   12.96    4.32
  -4  -1 -10   13.27    2.73
  -4  -1 -11   57.29    6.04
  -4  -1 -11   52.11    4.51
  -4  -1 -11   57.29    6.04
  -4  -1 -11   52.11    4.51
  -4  -1 -12    9.99    4.76
  -4  -1 -12    4.09    3.24
  -4  -1 -12    9.99    4.76
  -4  -1 -12    4.09    3.24
  -4  -1 -13    0.34    4.60
  -4  -1 -13   -3.94    3.48
  -4  -1 -13    0.34    4.60
  -4  -1 -13   -3.94    3.48
  -4  -1 -14    7.26    4.96
  -4  -1 -14    8.82    4.02
  -4  -1 -14    7.26    4.96
  -4  -1 -14    8.82    4.02
   4   2 -12    4.37    5.24
   4   2 -12    3.63    5.36
   4   2 -12    4.37    5.24
   4   2 -12    3.63    5.36
   4   2 -11   -3.29    4.66
   4   2 -11    0.11    4.98
   4   2 -11   -3.29    4.66
   4   2 -11    0.11    4.98
  -4  -2  10    7.91    5.13
  -4  -2  10    7.91    5.13
   4   2 -10    7.51    4.94
   4   2 -10   13.91    5.15
   4   2 -10    7.51    4.94
   4   2 -10   13.91    5.15
  -4  -2   9  111.69    8.18
  -4  -2   9  111.69    8.18
   4   2  -9  107.95    7.82
   4   2  -9  113.38    7.98
   4   2  -9  107.95    7.82
   4   2  -9  113.38    7.98
  -4  -2   8   95.01    7.46
  -4  -2   8   95.01    7.46
   4   2  -8   83.35    7.40
   4   2  -8   89.38    6.56
   4   2  -8   83.35    7.40
   4   2  -8   89.38    6.56
  -4  -2   7   10.14    4.20
  -4  -2   7    4.48    3.86
  -4  -2   7   10.14    4.20
  -4  -2   7    4.48    3.86
   4   2  -7    4.34    4.24
   4   2  -7    5.93    3.68
   4   2  -7    4.34    4.24
   4   2  -7    5.93    3.68
  -4  -2   6    1.14    3.69
  -4  -2   6   -1.45    3.46
  -4  -2   6    1.14    3.69
  -4  -2   6   -1.45    3.46
   4   2  -6    0.81    3.77
   4   2  -6    0.85    3.25
   4   2  -6    0.81    3.77
   4   2  -6    0.85    3.25
  -4  -2   5   18.43    3.85
  -4  -2   5   21.44    3.94
  -4  -2   5   18.43    3.85
  -4  -2   5   21.44    3.94
   4   2  -5   15.78    3.96
   4   2  -5   15.24    3.78
   4   2  -5   15.78    3.96
   4   2  -5   15.24    3.78
  -4  -2   4    1.72    2.73
  -4  -2   4    6.06    3.22
  -4  -2   4    1.72    2.73
  -4  -2   4    6.06    3.22
   4   2  -4    3.90    3.37
   4   2  -4    3.00    3.04
   4   2  -4    3.90    3.37
   4   2  -4    3.00    3.04
  -4  -2   3    8.31    3.29
  -4  -2   3    6.21    2.77
  -4  -2   3    6.63    2.90
  -4  -2   3    8.31    3.29
  -4  -2   3    6.21    2.77
  -4  -2   3    6.63    2.90
   4   2  -3    8.72    2.92
   4   2  -3    6.62    2.84
   4   2  -3    8.72    2.92
   4   2  -3    6.62    2.84
  -4  -2   2   16.81    3.02
  -4  -2   2   20.35    3.49
  -4  -2   2   16.44    2.86
  -4  -2   2   15.21    2.86
  -4  -2   2   16.81    3.02
  -4  -2   2   20.35    3.49
  -4  -2   2   16.44    2.86
  -4  -2   2   15.21    2.86
   4   2  -2   14.83    3.02
   4   2  -2   20.93    2.87
   4   2  -2   14.83    3.02
   4   2  -2   20.93    2.87
  -4  -2   1    1.31    2.68
  -4  -2   1    2.80    2.98
  -4  -2   1    1.50    2.24
  -4  -2   1    2.71    2.34
  -4  -2   1    1.31    2.68
  -4  -2   1    2.80    2.98
  -4  -2   1    1.50    2.24
  -4  -2   1    2.71    2.34
   4   2  -1    4.50    2.55
   4   2  -1    4.50    2.55
  -4  -2   0  112.65    5.64
  -4  -2   0  112.94    4.96
  -4  -2   0  116.53    3.83
  -4  -2   0  112.82    4.29
  -4  -2   0  112.65    5.64
  -4  -2   0  112.94    4.96
  -4  -2   0  116.53    3.83
  -4  -2   0  112.82    4.29
   4   2   0  113.94    4.78
   4   2   0  113.94    4.78
  -4  -2  -1    1.47    2.73
  -4  -2  -1    1.01    2.69
  -4  -2  -1    0.04    1.17
  -4  -2  -1    1.22    1.85
  -4  -2  -1    0.60    2.60
  -4  -2  -1    1.47    2.73
  -4  -2  -1    1.01    2.69
  -4  -2  -1    0.04    1.17
  -4  -2  -1    1.22    1.85
  -4  -2  -1    0.60    2.60
  -4  -2  -2  315.70    7.36
  -4  -2  -2  308.64    6.74
  -4  -2  -2  328.53    4.46
  -4  -2  -2  283.08    6.80
  -4  -2  -2  315.70    7.36
  -4  -2  -2  308.64    6.74
  -4  -2  -2  328.53    4.46
  -4  -2  -2  283.08    6.80
  -4  -2  -3    1.50    2.65
  -4  -2  -3   -0.61    1.22
  -4  -2  -3    1.12    1.27
  -4  -2  -3   -0.40    2.62
  -4  -2  -3    1.50    2.65
  -4  -2  -3   -0.61    1.22
  -4  -2  -3    1.12    1.27
  -4  -2  -3   -0.40    2.62
  -4  -2  -4   21.53    3.30
  -4  -2  -4   19.24    3.01
  -4  -2  -4   18.52    3.31
  -4  -2  -4   21.53    3.30
  -4  -2  -4   19.24    3.01
  -4  -2  -4   18.52    3.31
  -4  -2  -5   55.78    4.99
  -4  -2  -5   49.59    5.17
  -4  -2  -5   50.33    5.03
  -4  -2  -5   55.78    4.99
  -4  -2  -5   49.59    5.17
  -4  -2  -5   50.33    5.03
  -4  -2  -6   32.22    4.11
  -4  -2  -6   42.08    4.10
  -4  -2  -6   34.91    4.13
  -4  -2  -6   32.22    4.11
  -4  -2  -6   42.08    4.10
  -4  -2  -6   34.91    4.13
  -4  -2  -7    7.01    3.63
  -4  -2  -7    6.79    3.31
  -4  -2  -7    6.00    1.57
  -4  -2  -7   10.59    3.84
  -4  -2  -7    7.01    3.63
  -4  -2  -7    6.79    3.31
  -4  -2  -7    6.00    1.57
  -4  -2  -7   10.59    3.84
  -4  -2  -8   25.79    4.10
  -4  -2  -8   28.59    2.93
  -4  -2  -8   21.25    4.50
  -4  -2  -8   25.79    4.10
  -4  -2  -8   28.59    2.93
  -4  -2  -8   21.25    4.50
  -4  -2  -9    3.85    3.57
  -4  -2  -9    7.30    2.42
  -4  -2  -9    1.25    4.07
  -4  -2  -9    3.85    3.57
  -4  -2  -9    7.30    2.42
  -4  -2  -9    1.25    4.07
  -4  -2 -10   96.47    7.39
  -4  -2 -10   96.47    7.39
  -4  -2 -11    2.31    3.93
  -4  -2 -11    3.06    2.96
  -4  -2 -11    2.31    3.93
  -4  -2 -11    3.06    2.96
  -4  -2 -12   12.67    4.61
  -4  -2 -12   12.67    4.61
  -4  -2 -13   14.29    4.53
  -4  -2 -13   45.42    5.56
  -4  -2 -13   14.29    4.53
  -4  -2 -13   45.42    5.56
  -4  -2 -14   46.36    5.69
  -4  -2 -14   46.36    5.69
   4   3 -12   16.37    5.10
   4   3 -12   15.86    5.76
   4   3 -12   16.25    5.93
   4   3 -12   16.37    5.10
   4   3 -12   15.86    5.76
   4   3 -12   16.25    5.93
   4   3 -11   24.73    5.23
   4   3 -11   23.52    5.36
   4   3 -11   25.55    5.97
   4   3 -11   24.73    5.23
   4   3 -11   23.52    5.36
   4   3 -11   25.55    5.97
  -4  -3  10   52.63    6.58
  -4  -3  10   52.63    6.58
   4   3 -10   44.33    6.25
   4   3 -10   48.03    6.42
   4   3 -10   44.33    6.25
   4   3 -10   48.03    6.42
  -4  -3   9   32.57    5.79
  -4  -3   9   32.57    5.79
   4   3  -9   23.68    5.04
   4   3  -9   30.66    5.61
   4   3  -9   23.68    5.04
   4   3  -9   30.66    5.61
  -4  -3   8  110.79    7.96
  -4  -3   8  110.79    7.96
   4   3  -8  107.96    7.72
   4   3  -8  100.27    7.54
   4   3  -8  107.96    7.72
   4   3  -8  100.27    7.54
  -4  -3   7  155.17    7.92
  -4  -3   7  157.36    7.37
  -4  -3   7  155.17    7.92
  -4  -3   7  157.36    7.37
   4   3  -7  161.98    8.14
   4   3  -7  152.25    7.80
   4   3  -7  161.98    8.14
   4   3  -7  152.25    7.80
  -4  -3   6   81.45    6.62
  -4  -3   6   93.33    6.32
  -4  -3   6   81.45    6.62
  -4  -3   6   93.33    6.32
   4   3  -6   84.15    6.22
   4   3  -6   79.21    6.46
   4   3  -6   84.15    6.22
   4   3  -6   79.21    6.46
  -4  -3   5    1.70    3.15
  -4  -3   5    6.65    3.52
  -4  -3   5    1.70    3.15
  -4  -3   5    6.65    3.52
   4   3  -5    2.43    3.42
   4   3  -5    3.92    3.24
   4   3  -5    2.43    3.42
   4   3  -5    3.92    3.24
  -4  -3   4  242.31    7.39
  -4  -3   4  229.30    7.06
  -4  -3   4  242.31    7.39
  -4  -3   4  229.30    7.06
   4   3  -4  244.34    7.39
   4   3  -4  235.85    7.20
   4   3  -4  244.34    7.39
   4   3  -4  235.85    7.20
  -4  -3   3  178.79    5.75
  -4  -3   3  175.48    6.15
  -4  -3   3  177.91    6.14
  -4  -3   3  178.79    5.75
  -4  -3   3  175.48    6.15
  -4  -3   3  177.91    6.14
   4   3  -3  183.67    6.83
   4   3  -3  176.64    6.15
   4   3  -3  183.67    6.83
   4   3  -3  176.64    6.15
  -4  -3   2   15.25    2.74
  -4  -3   2   15.24    3.08
  -4  -3   2   14.53    2.87
  -4  -3   2   10.38    2.62
  -4  -3   2   15.25    2.74
  -4  -3   2   15.24    3.08
  -4  -3   2   14.53    2.87
  -4  -3   2   10.38    2.62
   4   3  -2   13.90    3.11
   4   3  -2   14.55    2.87
   4   3  -2   13.90    3.11
   4   3  -2   14.55    2.87
  -4  -3   1  172.06    5.21
  -4  -3   1  169.22    5.38
  -4  -3   1  178.51    5.23
  -4  -3   1  165.20    5.17
  -4  -3   1  172.06    5.21
  -4  -3   1  169.22    5.38
  -4  -3   1  178.51    5.23
  -4  -3   1  165.20    5.17
   4   3  -1  179.21    5.75
   4   3  -1  175.61    5.18
   4   3  -1  179.21    5.75
   4   3  -1  175.61    5.18
  -4  -3   0    6.69    2.56
  -4  -3   0    5.39    2.72
  -4  -3   0    5.27    2.19
  -4  -3   0    5.41    2.33
  -4  -3   0    6.69    2.56
  -4  -3   0    5.39    2.72
  -4  -3   0    5.27    2.19
  -4  -3   0    5.41    2.33
   4   3   0    6.05    2.53
   4   3   0    6.05    2.53
  -4  -3  -1   19.83    3.04
  -4  -3  -1   25.31    2.78
  -4  -3  -1   19.04    2.51
  -4  -3  -1   19.83    3.04
  -4  -3  -1   25.31    2.78
  -4  -3  -1   19.04    2.51
  -4  -3  -2  155.06    5.56
  -4  -3  -2  158.79    4.11
  -4  -3  -2  155.06    5.56
  -4  -3  -2  158.79    4.11
  -4  -3  -3   -0.37    2.83
  -4  -3  -3    2.35    1.67
  -4  -3  -3   -0.52    2.68
  -4  -3  -3   -0.37    2.83
  -4  -3  -3    2.35    1.67
  -4  -3  -3   -0.52    2.68
  -4  -3  -4  348.27    7.59
  -4  -3  -4  369.37    4.46
  -4  -3  -4  312.84    7.49
  -4  -3  -4  348.27    7.59
  -4  -3  -4  369.37    4.46
  -4  -3  -4  312.84    7.49
  -4  -3  -5  847.90   11.72
  -4  -3  -5  872.74   11.03
  -4  -3  -5  881.97    6.23
  -4  -3  -5  901.38    6.18
  -4  -3  -5  804.32   11.22
  -4  -3  -5  847.90   11.72
  -4  -3  -5  872.74   11.03
  -4  -3  -5  881.97    6.23
  -4  -3  -5  901.38    6.18
  -4  -3  -5  804.32   11.22
  -4  -3  -6  234.62    7.88
  -4  -3  -6  247.79    7.30
  -4  -3  -6  246.21    4.10
  -4  -3  -6  233.87    7.61
  -4  -3  -6  234.62    7.88
  -4  -3  -6  247.79    7.30
  -4  -3  -6  246.21    4.10
  -4  -3  -6  233.87    7.61
  -4  -3  -7    5.78    3.06
  -4  -3  -7    0.62    1.97
  -4  -3  -7    1.30    3.50
  -4  -3  -7    5.78    3.06
  -4  -3  -7    0.62    1.97
  -4  -3  -7    1.30    3.50
  -4  -3  -8   28.92    3.96
  -4  -3  -8   26.46    2.79
  -4  -3  -8   26.18    4.41
  -4  -3  -8   28.92    3.96
  -4  -3  -8   26.46    2.79
  -4  -3  -8   26.18    4.41
  -4  -3  -9   28.47    4.15
  -4  -3  -9   25.71    3.03
  -4  -3  -9   19.61    4.56
  -4  -3  -9   28.47    4.15
  -4  -3  -9   25.71    3.03
  -4  -3  -9   19.61    4.56
  -4  -3 -10    2.84    3.43
  -4  -3 -10    3.38    2.75
  -4  -3 -10   -1.97    4.20
  -4  -3 -10    2.84    3.43
  -4  -3 -10    3.38    2.75
  -4  -3 -10   -1.97    4.20
  -4  -3 -11   16.90    4.03
  -4  -3 -11   25.06    3.76
  -4  -3 -11   32.92    5.47
  -4  -3 -11   16.90    4.03
  -4  -3 -11   25.06    3.76
  -4  -3 -11   32.92    5.47
  -4  -3 -12    4.39    3.62
  -4  -3 -12    9.78    3.62
  -4  -3 -12    4.39    3.62
  -4  -3 -12    9.78    3.62
  -4  -3 -14   59.74    6.20
  -4  -3 -14   59.74    6.20
   4   4 -12    2.33    4.66
   4   4 -12    0.26    5.39
   4   4 -12   -4.40    5.24
   4   4 -12    2.33    4.66
   4   4 -12    0.26    5.39
   4   4 -12   -4.40    5.24
   4   4 -11    0.51    4.51
   4   4 -11   -1.11    4.81
   4   4 -11   -1.89    5.13
   4   4 -11    0.51    4.51
   4   4 -11   -1.11    4.81
   4   4 -11   -1.89    5.13
  -4  -4  10    4.18    5.20
  -4  -4  10    4.18    5.20
   4   4 -10    5.54    4.59
   4   4 -10   10.84    5.23
   4   4 -10    1.17    5.02
   4   4 -10    5.54    4.59
   4   4 -10   10.84    5.23
   4   4 -10    1.17    5.02
  -4  -4   9   16.63    5.32
  -4  -4   9   16.63    5.32
   4   4  -9   19.93    4.77
   4   4  -9   18.23    5.32
   4   4  -9   16.33    5.22
   4   4  -9   19.93    4.77
   4   4  -9   18.23    5.32
   4   4  -9   16.33    5.22
  -4  -4   8   -3.22    4.31
  -4  -4   8   -3.22    4.31
   4   4  -8   -1.40    4.28
   4   4  -8    0.82    4.48
   4   4  -8   -1.40    4.28
   4   4  -8    0.82    4.48
  -4  -4   7   60.40    5.95
  -4  -4   7   60.40    5.95
   4   4  -7   68.17    7.12
   4   4  -7   66.04    6.87
   4   4  -7   68.17    7.12
   4   4  -7   66.04    6.87
  -4  -4   6   62.17    6.54
  -4  -4   6   55.81    5.91
  -4  -4   6   62.17    6.54
  -4  -4   6   55.81    5.91
   4   4  -6   61.17    6.89
   4   4  -6   65.68    6.51
   4   4  -6   61.17    6.89
   4   4  -6   65.68    6.51
  -4  -4   5   25.31    4.36
  -4  -4   5   22.74    4.18
  -4  -4   5   25.31    4.36
  -4  -4   5   22.74    4.18
   4   4  -5   27.30    4.59
   4   4  -5   26.84    4.44
   4   4  -5   27.30    4.59
   4   4  -5   26.84    4.44
  -4  -4   4    2.48    2.57
  -4  -4   4    3.17    3.25
  -4  -4   4   -0.43    3.16
  -4  -4   4    2.48    2.57
  -4  -4   4    3.17    3.25
  -4  -4   4   -0.43    3.16
   4   4  -4   -1.23    3.10
   4   4  -4   -1.25    3.26
   4   4  -4   -1.23    3.10
   4   4  -4   -1.25    3.26
  -4  -4   3  131.64    4.62
  -4  -4   3  128.94    5.69
  -4  -4   3  127.17    6.02
  -4  -4   3  137.46    5.98
  -4  -4   3  131.64    4.62
  -4  -4   3  128.94    5.69
  -4  -4   3  127.17    6.02
  -4  -4   3  137.46    5.98
   4   4  -3  135.38    6.62
   4   4  -3  135.01    6.09
   4   4  -3  135.38    6.62
   4   4  -3  135.01    6.09
  -4  -4   2   18.66    2.50
  -4  -4   2   17.72    2.98
  -4  -4   2   14.50    2.99
  -4  -4   2   18.22    3.31
  -4  -4   2   18.66    2.50
  -4  -4   2   17.72    2.98
  -4  -4   2   14.50    2.99
  -4  -4   2   18.22    3.31
   4   4  -2   17.81    3.41
   4   4  -2   20.01    3.24
   4   4  -2   17.81    3.41
   4   4  -2   20.01    3.24
  -4  -4   1  155.94    4.52
  -4  -4   1  150.44    4.95
  -4  -4   1  157.13    5.46
  -4  -4   1  152.64    5.39
  -4  -4   1  155.94    4.52
  -4  -4   1  150.44    4.95
  -4  -4   1  157.13    5.46
  -4  -4   1  152.64    5.39
   4   4  -1  164.96    5.98
   4   4  -1  150.39    5.14
   4   4  -1  164.96    5.98
   4   4  -1  150.39    5.14
  -4  -4   0  424.95    6.75
  -4  -4   0  433.67    6.72
  -4  -4   0  428.02    7.16
  -4  -4   0  424.95    6.75
  -4  -4   0  433.67    6.72
  -4  -4   0  428.02    7.16
   4   4   0  446.62    7.70
   4   4   0  446.62    7.70
  -4  -4  -1  211.84    5.59
  -4  -4  -1  223.33    5.30
  -4  -4  -1  211.84    5.59
  -4  -4  -1  223.33    5.30
   4   4   1  236.36    5.78
   4   4   1  236.36    5.78
  -4  -4  -2  132.64    5.65
  -4  -4  -2  134.15    4.37
  -4  -4  -2  132.64    5.65
  -4  -4  -2  134.15    4.37
   4   4   2  142.37    4.90
   4   4   2  142.37    4.90
  -4  -4  -3   -1.28    2.76
  -4  -4  -3    3.17    2.01
  -4  -4  -3   -1.28    2.76
  -4  -4  -3    3.17    2.01
  -4  -4  -4    4.66    3.13
  -4  -4  -4    2.52    2.02
  -4  -4  -4    4.66    3.13
  -4  -4  -4    2.52    2.02
  -4  -4  -5   63.28    5.74
  -4  -4  -5   64.42    2.79
  -4  -4  -5   64.34    3.48
  -4  -4  -5   42.93    5.15
  -4  -4  -5   63.28    5.74
  -4  -4  -5   64.42    2.79
  -4  -4  -5   64.34    3.48
  -4  -4  -5   42.93    5.15
  -4  -4  -6  205.80    7.08
  -4  -4  -6  215.43    3.23
  -4  -4  -6  209.93    4.97
  -4  -4  -6  180.20    7.09
  -4  -4  -6  205.80    7.08
  -4  -4  -6  215.43    3.23
  -4  -4  -6  209.93    4.97
  -4  -4  -6  180.20    7.09
  -4  -4  -7   29.93    3.62
  -4  -4  -7   26.08    2.96
  -4  -4  -7   29.60    4.49
  -4  -4  -7   29.93    3.62
  -4  -4  -7   26.08    2.96
  -4  -4  -7   29.60    4.49
  -4  -4  -8    9.71    3.13
  -4  -4  -8    7.83    2.80
  -4  -4  -8    4.68    3.89
  -4  -4  -8    9.71    3.13
  -4  -4  -8    7.83    2.80
  -4  -4  -8    4.68    3.89
  -4  -4  -9   98.30    6.20
  -4  -4  -9   94.34    5.12
  -4  -4  -9   81.17    6.35
  -4  -4  -9   98.30    6.20
  -4  -4  -9   94.34    5.12
  -4  -4  -9   81.17    6.35
  -4  -4 -10  152.84    7.00
  -4  -4 -10  257.24    6.94
  -4  -4 -10  214.82    8.42
  -4  -4 -10  152.84    7.00
  -4  -4 -10  257.24    6.94
  -4  -4 -10  214.82    8.42
  -4  -4 -11   41.67    5.09
  -4  -4 -11   43.86    5.96
  -4  -4 -11   41.67    5.09
  -4  -4 -11   43.86    5.96
  -4  -4 -12    3.01    3.76
  -4  -4 -12    3.01    3.76
  -4  -4 -13    2.12    3.97
  -4  -4 -13    2.12    3.97
  -4  -4 -14    1.12    4.17
  -4  -4 -14    1.12    4.17
   4   5 -12    0.97    4.82
   4   5 -12    2.13    5.38
   4   5 -12    2.42    5.78
   4   5 -12    0.97    4.82
   4   5 -12    2.13    5.38
   4   5 -12    2.42    5.78
   4   5 -11    2.19    4.58
   4   5 -11    8.17    5.21
   4   5 -11    7.41    5.60
   4   5 -11    2.19    4.58
   4   5 -11    8.17    5.21
   4   5 -11    7.41    5.60
   4   5 -10    7.45    4.49
   4   5 -10    2.44    4.93
   4   5 -10   10.73    5.60
   4   5 -10    7.45    4.49
   4   5 -10    2.44    4.93
   4   5 -10   10.73    5.60
  -4  -5   9    0.93    4.86
  -4  -5   9    0.93    4.86
   4   5  -9    6.97    4.33
   4   5  -9    4.12    4.80
   4   5  -9    0.78    4.90
   4   5  -9    6.97    4.33
   4   5  -9    4.12    4.80
   4   5  -9    0.78    4.90
  -4  -5   8    1.89    4.62
  -4  -5   8    1.89    4.62
   4   5  -8   -2.01    3.91
   4   5  -8    1.54    4.53
   4   5  -8   -4.27    4.53
   4   5  -8   -2.01    3.91
   4   5  -8    1.54    4.53
   4   5  -8   -4.27    4.53
  -4  -5   7    7.76    4.15
  -4  -5   7    7.76    4.15
   4   5  -7    5.26    3.96
   4   5  -7    7.14    4.64
   4   5  -7    0.44    4.34
   4   5  -7    5.26    3.96
   4   5  -7    7.14    4.64
   4   5  -7    0.44    4.34
  -4  -5   6    4.53    4.08
  -4  -5   6   -2.37    3.60
  -4  -5   6    4.53    4.08
  -4  -5   6   -2.37    3.60
   4   5  -6    1.33    3.73
   4   5  -6    2.41    3.81
   4   5  -6   -0.45    4.10
   4   5  -6    1.33    3.73
   4   5  -6    2.41    3.81
   4   5  -6   -0.45    4.10
  -4  -5   5    1.90    3.74
  -4  -5   5    1.59    3.59
  -4  -5   5    1.90    3.74
  -4  -5   5    1.59    3.59
   4   5  -5    3.84    3.71
   4   5  -5    5.04    4.07
   4   5  -5    0.68    3.82
   4   5  -5    3.84    3.71
   4   5  -5    5.04    4.07
   4   5  -5    0.68    3.82
  -4  -5   4   74.53    6.43
  -4  -5   4   61.30    5.70
  -4  -5   4   74.53    6.43
  -4  -5   4   61.30    5.70
   4   5  -4   73.79    5.37
   4   5  -4   63.91    6.62
   4   5  -4   67.98    6.18
   4   5  -4   73.79    5.37
   4   5  -4   63.91    6.62
   4   5  -4   67.98    6.18
  -4  -5   3    8.28    2.83
  -4  -5   3    9.52    3.16
  -4  -5   3    5.75    3.33
  -4  -5   3    8.28    2.83
  -4  -5   3    9.52    3.16
  -4  -5   3    5.75    3.33
   4   5  -3    9.71    3.47
   4   5  -3    6.02    3.62
   4   5  -3    7.51    3.47
   4   5  -3    9.71    3.47
   4   5  -3    6.02    3.62
   4   5  -3    7.51    3.47
  -4  -5   2    4.64    2.44
  -4  -5   2    5.76    3.11
  -4  -5   2    6.21    3.19
  -4  -5   2    4.64    2.44
  -4  -5   2    5.76    3.11
  -4  -5   2    6.21    3.19
   4   5  -2    4.13    3.03
   4   5  -2   -0.04    3.25
   4   5  -2    5.52    3.16
   4   5  -2    4.13    3.03
   4   5  -2   -0.04    3.25
   4   5  -2    5.52    3.16
  -4  -5   1   48.34    3.81
  -4  -5   1   50.58    4.68
  -4  -5   1   42.34    4.04
  -4  -5   1   48.34    3.81
  -4  -5   1   50.58    4.68
  -4  -5   1   42.34    4.04
   4   5  -1   45.76    4.69
   4   5  -1   43.97    5.33
   4   5  -1   49.24    4.69
   4   5  -1   45.76    4.69
   4   5  -1   43.97    5.33
   4   5  -1   49.24    4.69
  -4  -5   0    5.46    2.28
  -4  -5   0    5.58    2.52
  -4  -5   0    5.91    2.78
  -4  -5   0    5.46    2.28
  -4  -5   0    5.58    2.52
  -4  -5   0    5.91    2.78
   4   5   0    4.11    2.61
   4   5   0    4.57    2.93
   4   5   0    0.33    2.44
   4   5   0    4.11    2.61
   4   5   0    4.57    2.93
   4   5   0    0.33    2.44
  -4  -5  -1   61.06    4.64
  -4  -5  -1   59.81    4.21
  -4  -5  -1   61.06    4.64
  -4  -5  -1   59.81    4.21
   4   5   1   58.88    4.20
   4   5   1   61.02    4.79
   4   5   1   58.88    4.20
   4   5   1   61.02    4.79
  -4  -5  -2  183.31    6.46
  -4  -5  -2  210.36    5.75
  -4  -5  -2  183.31    6.46
  -4  -5  -2  210.36    5.75
   4   5   2  200.60    5.61
   4   5   2  208.06    5.90
   4   5   2  200.60    5.61
   4   5   2  208.06    5.90
  -4  -5  -3  210.41    6.82
  -4  -5  -3  214.30    5.39
  -4  -5  -3  210.41    6.82
  -4  -5  -3  214.30    5.39
  -4  -5  -4   -1.90    2.95
  -4  -5  -4    0.90    2.42
  -4  -5  -4   -1.90    2.95
  -4  -5  -4    0.90    2.42
  -4  -5  -5   63.81    5.81
  -4  -5  -5   69.33    3.84
  -4  -5  -5   66.58    4.17
  -4  -5  -5   63.81    5.81
  -4  -5  -5   69.33    3.84
  -4  -5  -5   66.58    4.17
  -4  -5  -6   57.81    6.08
  -4  -5  -6   61.53    3.94
  -4  -5  -6   51.76    4.16
  -4  -5  -6   38.87    4.52
  -4  -5  -6   57.81    6.08
  -4  -5  -6   61.53    3.94
  -4  -5  -6   51.76    4.16
  -4  -5  -6   38.87    4.52
  -4  -5  -7    2.83    2.11
  -4  -5  -7    1.64    2.86
  -4  -5  -7    2.84    3.76
  -4  -5  -7    2.83    2.11
  -4  -5  -7    1.64    2.86
  -4  -5  -7    2.84    3.76
  -4  -5  -8    9.19    2.18
  -4  -5  -8    7.88    2.99
  -4  -5  -8    1.31    3.96
  -4  -5  -8    9.19    2.18
  -4  -5  -8    7.88    2.99
  -4  -5  -8    1.31    3.96
  -4  -5  -9    7.31    1.93
  -4  -5  -9   15.95    3.45
  -4  -5  -9   19.05    4.72
  -4  -5  -9    7.31    1.93
  -4  -5  -9   15.95    3.45
  -4  -5  -9   19.05    4.72
  -4  -5 -10   22.61    4.07
  -4  -5 -10   23.50    4.91
  -4  -5 -10   22.61    4.07
  -4  -5 -10   23.50    4.91
  -4  -5 -11   71.69    6.03
  -4  -5 -11   59.61    6.80
  -4  -5 -11   71.69    6.03
  -4  -5 -11   59.61    6.80
  -4  -5 -12    9.28    4.04
  -4  -5 -12    9.28    4.04
  -4  -5 -13   15.40    4.71
  -4  -5 -13   15.40    4.71
   4   6 -11   15.36    5.13
   4   6 -11   10.83    5.84
   4   6 -11   18.55    6.21
   4   6 -11   15.36    5.13
   4   6 -11   10.83    5.84
   4   6 -11   18.55    6.21
   4   6 -10   32.03    5.55
   4   6 -10   27.63    6.04
   4   6 -10   34.89    6.52
   4   6 -10   32.03    5.55
   4   6 -10   27.63    6.04
   4   6 -10   34.89    6.52
  -4  -6   9  118.22    8.95
  -4  -6   9  118.22    8.95
   4   6  -9  117.74    7.40
   4   6  -9  102.77    8.32
   4   6  -9  115.67    8.80
   4   6  -9  117.74    7.40
   4   6  -9  102.77    8.32
   4   6  -9  115.67    8.80
  -4  -6   8   58.12    6.56
  -4  -6   8   58.12    6.56
   4   6  -8   57.17    6.88
   4   6  -8   63.55    6.83
   4   6  -8   47.42    6.27
   4   6  -8   57.17    6.88
   4   6  -8   63.55    6.83
   4   6  -8   47.42    6.27
  -4  -6   7   -2.07    4.29
  -4  -6   7   -2.07    4.29
   4   6  -7   -2.51    3.89
   4   6  -7   -0.88    4.39
   4   6  -7   -2.44    3.88
   4   6  -7   -2.51    3.89
   4   6  -7   -0.88    4.39
   4   6  -7   -2.44    3.88
  -4  -6   6   30.67    5.25
  -4  -6   6   30.67    5.25
   4   6  -6   30.72    4.78
   4   6  -6   30.89    5.07
   4   6  -6   32.29    5.22
   4   6  -6   30.72    4.78
   4   6  -6   30.89    5.07
   4   6  -6   32.29    5.22
  -4  -6   5  136.27    7.82
  -4  -6   5  132.36    7.14
  -4  -6   5  136.27    7.82
  -4  -6   5  132.36    7.14
   4   6  -5  147.61    7.24
   4   6  -5  142.27    7.51
   4   6  -5  135.01    7.70
   4   6  -5  147.61    7.24
   4   6  -5  142.27    7.51
   4   6  -5  135.01    7.70
  -4  -6   4    7.17    4.00
  -4  -6   4    9.03    3.90
  -4  -6   4    7.17    4.00
  -4  -6   4    9.03    3.90
   4   6  -4    6.11    3.78
   4   6  -4    7.67    3.89
   4   6  -4    6.54    3.99
   4   6  -4    6.11    3.78
   4   6  -4    7.67    3.89
   4   6  -4    6.54    3.99
  -4  -6   3   29.24    4.30
  -4  -6   3   36.37    4.60
  -4  -6   3   29.24    4.30
  -4  -6   3   36.37    4.60
   4   6  -3   30.94    4.05
   4   6  -3   31.63    4.75
   4   6  -3   30.56    4.51
   4   6  -3   30.94    4.05
   4   6  -3   31.63    4.75
   4   6  -3   30.56    4.51
  -4  -6   2   -2.18    2.80
  -4  -6   2   -1.81    3.25
  -4  -6   2   -2.18    2.80
  -4  -6   2   -1.81    3.25
   4   6  -2   -2.47    3.16
   4   6  -2    2.48    3.27
   4   6  -2   -0.35    3.28
   4   6  -2   -2.47    3.16
   4   6  -2    2.48    3.27
   4   6  -2   -0.35    3.28
  -4  -6   1  126.32    6.00
  -4  -6   1  115.99    5.52
  -4  -6   1  126.32    6.00
  -4  -6   1  115.99    5.52
   4   6  -1  117.01    5.97
   4   6  -1  124.13    6.11
   4   6  -1  106.24    5.77
   4   6  -1  117.01    5.97
   4   6  -1  124.13    6.11
   4   6  -1  106.24    5.77
  -4  -6   0  119.14    5.45
  -4  -6   0  124.93    5.76
  -4  -6   0  119.14    5.45
  -4  -6   0  124.93    5.76
   4   6   0  121.04    5.85
   4   6   0  126.84    6.47
   4   6   0  132.74    5.59
   4   6   0  121.04    5.85
   4   6   0  126.84    6.47
   4   6   0  132.74    5.59
  -4  -6  -1  139.71    5.29
  -4  -6  -1  140.98    5.73
  -4  -6  -1  139.71    5.29
  -4  -6  -1  140.98    5.73
   4   6   1  147.24    5.87
   4   6   1  147.24    5.87
  -4  -6  -2   -0.72    2.69
  -4  -6  -2    0.05    2.93
  -4  -6  -2   -0.72    2.69
  -4  -6  -2    0.05    2.93
   4   6   2    1.04    2.71
   4   6   2    1.04    2.71
  -4  -6  -3   16.65    3.27
  -4  -6  -3   15.05    3.27
  -4  -6  -3   16.65    3.27
  -4  -6  -3   15.05    3.27
  -4  -6  -4    3.40    3.16
  -4  -6  -4    2.72    2.98
  -4  -6  -4    3.40    3.16
  -4  -6  -4    2.72    2.98
  -4  -6  -5    4.35    3.68
  -4  -6  -5    0.80    2.69
  -4  -6  -5   -2.28    2.88
  -4  -6  -5    4.35    3.68
  -4  -6  -5    0.80    2.69
  -4  -6  -5   -2.28    2.88
  -4  -6  -6   16.60    3.18
  -4  -6  -6   19.33    3.52
  -4  -6  -6   16.60    3.18
  -4  -6  -6   19.33    3.52
  -4  -6  -7    3.29    2.62
  -4  -6  -7   -1.24    3.07
  -4  -6  -7   -3.75    3.68
  -4  -6  -7    3.29    2.62
  -4  -6  -7   -1.24    3.07
  -4  -6  -7   -3.75    3.68
  -4  -6  -8   16.25    2.90
  -4  -6  -8   16.62    3.71
  -4  -6  -8   17.23    4.62
  -4  -6  -8   16.25    2.90
  -4  -6  -8   16.62    3.71
  -4  -6  -8   17.23    4.62
  -4  -6  -9   59.54    4.41
  -4  -6  -9   53.67    5.37
  -4  -6  -9   51.88    5.82
  -4  -6  -9   59.54    4.41
  -4  -6  -9   53.67    5.37
  -4  -6  -9   51.88    5.82
  -4  -6 -10   11.63    2.65
  -4  -6 -10   20.00    4.24
  -4  -6 -10   19.60    5.08
  -4  -6 -10   11.63    2.65
  -4  -6 -10   20.00    4.24
  -4  -6 -10   19.60    5.08
  -4  -6 -11    5.37    4.00
  -4  -6 -11    5.37    4.00
  -4  -6 -12    3.13    4.33
  -4  -6 -12    3.13    4.33
  -4  -6 -13   -3.76    4.39
  -4  -6 -13   -3.76    4.39
  -4  -6 -14   15.33    5.22
  -4  -6 -14   15.33    5.22
   4   7 -11   -4.82    4.50
   4   7 -11   -0.18    5.17
   4   7 -11    1.28    5.77
   4   7 -11   -4.82    4.50
   4   7 -11   -0.18    5.17
   4   7 -11    1.28    5.77
   4   7 -10    2.88    4.68
   4   7 -10    1.91    5.20
   4   7 -10   -1.74    5.45
   4   7 -10    2.88    4.68
   4   7 -10    1.91    5.20
   4   7 -10   -1.74    5.45
   4   7  -9   14.08    5.05
   4   7  -9   14.36    5.53
   4   7  -9   21.77    6.04
   4   7  -9   14.08    5.05
   4   7  -9   14.36    5.53
   4   7  -9   21.77    6.04
  -4  -7   8   22.43    5.88
  -4  -7   8   22.43    5.88
   4   7  -8   17.78    4.85
   4   7  -8   22.17    5.74
   4   7  -8   20.58    5.84
   4   7  -8   17.78    4.85
   4   7  -8   22.17    5.74
   4   7  -8   20.58    5.84
  -4  -7   7   43.92    6.12
  -4  -7   7   43.92    6.12
   4   7  -7   42.81    5.56
   4   7  -7   47.68    6.32
   4   7  -7   42.02    6.17
   4   7  -7   42.81    5.56
   4   7  -7   47.68    6.32
   4   7  -7   42.02    6.17
  -4  -7   6    1.55    4.58
  -4  -7   6    1.55    4.58
   4   7  -6    2.57    4.14
   4   7  -6    5.52    4.36
   4   7  -6    1.29    4.49
   4   7  -6    2.57    4.14
   4   7  -6    5.52    4.36
   4   7  -6    1.29    4.49
  -4  -7   5  167.27    8.67
  -4  -7   5  163.49    7.89
  -4  -7   5  167.27    8.67
  -4  -7   5  163.49    7.89
   4   7  -5  168.53    7.77
   4   7  -5  166.61    8.80
   4   7  -5  159.49    8.44
   4   7  -5  168.53    7.77
   4   7  -5  166.61    8.80
   4   7  -5  159.49    8.44
  -4  -7   4  196.09    8.33
  -4  -7   4  177.29    7.83
  -4  -7   4  196.09    8.33
  -4  -7   4  177.29    7.83
   4   7  -4  188.94    7.84
   4   7  -4  184.74    8.06
   4   7  -4  196.70    8.51
   4   7  -4  188.94    7.84
   4   7  -4  184.74    8.06
   4   7  -4  196.70    8.51
  -4  -7   3    7.18    3.63
  -4  -7   3   12.04    4.06
  -4  -7   3    7.18    3.63
  -4  -7   3   12.04    4.06
   4   7  -3   10.90    3.96
   4   7  -3    8.50    4.31
   4   7  -3   11.50    4.24
   4   7  -3   10.90    3.96
   4   7  -3    8.50    4.31
   4   7  -3   11.50    4.24
  -4  -7   2   60.62    5.51
  -4  -7   2   48.42    5.72
  -4  -7   2   60.62    5.51
  -4  -7   2   48.42    5.72
   4   7  -2   54.40    5.87
   4   7  -2   55.07    5.83
   4   7  -2   51.36    6.04
   4   7  -2   54.40    5.87
   4   7  -2   55.07    5.83
   4   7  -2   51.36    6.04
  -4  -7   1   19.55    3.96
  -4  -7   1   18.42    4.04
  -4  -7   1   19.55    3.96
  -4  -7   1   18.42    4.04
   4   7  -1   20.18    3.82
   4   7  -1   13.25    4.19
   4   7  -1   17.90    3.96
   4   7  -1   20.18    3.82
   4   7  -1   13.25    4.19
   4   7  -1   17.90    3.96
  -4  -7   0    0.66    2.68
  -4  -7   0   -1.68    3.21
  -4  -7   0   -3.29    3.29
  -4  -7   0    0.66    2.68
  -4  -7   0   -1.68    3.21
  -4  -7   0   -3.29    3.29
   4   7   0    0.45    3.32
   4   7   0    1.64    3.30
   4   7   0    0.45    3.32
   4   7   0    1.64    3.30
  -4  -7  -1   38.25    3.72
  -4  -7  -1   36.08    4.33
  -4  -7  -1   38.25    3.72
  -4  -7  -1   36.08    4.33
   4   7   1   34.85    4.23
   4   7   1   34.85    4.23
  -4  -7  -2    1.04    2.88
  -4  -7  -2    1.31    3.21
  -4  -7  -2    1.04    2.88
  -4  -7  -2    1.31    3.21
   4   7   2    1.26    3.19
   4   7   2    1.26    3.19
  -4  -7  -3   15.52    3.42
  -4  -7  -3   15.83    3.69
  -4  -7  -3   15.52    3.42
  -4  -7  -3   15.83    3.69
  -4  -7  -4  178.24    6.45
  -4  -7  -4  180.68    6.66
  -4  -7  -4  178.24    6.45
  -4  -7  -4  180.68    6.66
  -4  -7  -5    2.65    3.23
  -4  -7  -5    2.65    3.23
  -4  -7  -6  131.57    5.98
  -4  -7  -6  132.04    6.51
  -4  -7  -6  131.57    5.98
  -4  -7  -6  132.04    6.51
  -4  -7  -7   65.79    5.16
  -4  -7  -7   67.43    5.40
  -4  -7  -7   65.79    5.16
  -4  -7  -7   67.43    5.40
  -4  -7  -8   23.86    3.60
  -4  -7  -8   23.76    4.15
  -4  -7  -8   18.09    4.75
  -4  -7  -8   23.86    3.60
  -4  -7  -8   23.76    4.15
  -4  -7  -8   18.09    4.75
  -4  -7  -9   25.88    3.74
  -4  -7  -9   21.65    4.46
  -4  -7  -9   16.97    5.10
  -4  -7  -9   25.88    3.74
  -4  -7  -9   21.65    4.46
  -4  -7  -9   16.97    5.10
  -4  -7 -10    1.69    3.00
  -4  -7 -10    0.65    3.97
  -4  -7 -10    0.65    4.76
  -4  -7 -10    1.69    3.00
  -4  -7 -10    0.65    3.97
  -4  -7 -10    0.65    4.76
  -4  -7 -11    3.15    2.79
  -4  -7 -11    2.15    4.23
  -4  -7 -11    3.15    2.79
  -4  -7 -11    2.15    4.23
  -4  -7 -12    2.82    4.39
  -4  -7 -12    2.82    4.39
  -4  -7 -13    9.19    4.89
  -4  -7 -13    9.19    4.89
   4   8 -10    2.48    4.84
   4   8 -10    5.83    5.54
   4   8 -10   -1.85    5.73
   4   8 -10    2.48    4.84
   4   8 -10    5.83    5.54
   4   8 -10   -1.85    5.73
   4   8  -9   31.92    5.75
   4   8  -9   27.99    6.24
   4   8  -9   24.91    6.46
   4   8  -9   31.92    5.75
   4   8  -9   27.99    6.24
   4   8  -9   24.91    6.46
  -4  -8   8   36.27    6.67
  -4  -8   8   36.27    6.67
   4   8  -8   28.85    5.58
   4   8  -8   33.66    6.26
   4   8  -8   31.51    6.47
   4   8  -8   28.85    5.58
   4   8  -8   33.66    6.26
   4   8  -8   31.51    6.47
  -4  -8   7    4.18    5.13
  -4  -8   7    4.18    5.13
   4   8  -7    4.78    4.71
   4   8  -7    5.97    4.78
   4   8  -7    0.08    5.16
   4   8  -7    4.78    4.71
   4   8  -7    5.97    4.78
   4   8  -7    0.08    5.16
  -4  -8   6    4.51    4.96
  -4  -8   6    4.51    4.96
   4   8  -6    4.16    4.39
   4   8  -6    3.50    4.41
   4   8  -6   -0.97    4.80
   4   8  -6    4.16    4.39
   4   8  -6    3.50    4.41
   4   8  -6   -0.97    4.80
  -4  -8   5    2.35    4.54
  -4  -8   5    2.35    4.54
   4   8  -5   -2.45    4.00
   4   8  -5   -3.17    4.54
   4   8  -5   -1.14    4.11
   4   8  -5   -2.45    4.00
   4   8  -5   -3.17    4.54
   4   8  -5   -1.14    4.11
  -4  -8   4  268.19    9.69
  -4  -8   4  264.39    9.38
  -4  -8   4  268.19    9.69
  -4  -8   4  264.39    9.38
   4   8  -4  258.70    9.07
   4   8  -4  270.51   10.08
   4   8  -4  259.66    9.71
   4   8  -4  258.70    9.07
   4   8  -4  270.51   10.08
   4   8  -4  259.66    9.71
  -4  -8   3   11.38    4.55
  -4  -8   3    7.38    4.30
  -4  -8   3   11.38    4.55
  -4  -8   3    7.38    4.30
   4   8  -3    9.07    4.26
   4   8  -3    4.91    4.37
   4   8  -3    9.07    4.26
   4   8  -3    4.91    4.37
  -4  -8   2   18.65    4.49
  -4  -8   2   24.78    4.63
  -4  -8   2   18.65    4.49
  -4  -8   2   24.78    4.63
   4   8  -2   23.64    4.49
   4   8  -2   26.95    4.78
   4   8  -2   23.64    4.49
   4   8  -2   26.95    4.78
  -4  -8   1  110.11    6.93
  -4  -8   1  122.85    6.48
  -4  -8   1  110.11    6.93
  -4  -8   1  122.85    6.48
   4   8  -1  112.83    6.91
   4   8  -1  112.83    6.91
  -4  -8   0  443.31   10.22
  -4  -8   0  443.31   10.22
   4   8   0  437.30   10.04
   4   8   0  437.30   10.04
  -4  -8  -1  362.72    9.31
  -4  -8  -1  362.72    9.31
   4   8   1  356.69    9.19
   4   8   1  356.69    9.19
  -4  -8  -2    9.37    3.80
  -4  -8  -2    9.37    3.80
   4   8   2    4.09    3.35
   4   8   2    4.09    3.35
  -4  -8  -3   22.05    3.54
  -4  -8  -3   26.08    4.39
  -4  -8  -3   22.05    3.54
  -4  -8  -3   26.08    4.39
  -4  -8  -4    5.68    3.72
  -4  -8  -4    5.68    3.72
  -4  -8  -5   -3.08    3.41
  -4  -8  -5   -3.08    3.41
  -4  -8  -6   63.19    5.85
  -4  -8  -6   71.50    5.97
  -4  -8  -6   63.19    5.85
  -4  -8  -6   71.50    5.97
  -4  -8  -7   35.45    4.59
  -4  -8  -7   25.40    4.67
  -4  -8  -7   35.45    4.59
  -4  -8  -7   25.40    4.67
  -4  -8  -8   49.49    5.59
  -4  -8  -8   47.21    5.41
  -4  -8  -8   49.49    5.59
  -4  -8  -8   47.21    5.41
  -4  -8  -9  142.45    7.00
  -4  -8  -9  129.51    7.42
  -4  -8  -9  113.43    7.86
  -4  -8  -9  142.45    7.00
  -4  -8  -9  129.51    7.42
  -4  -8  -9  113.43    7.86
  -4  -8 -10   22.11    4.16
  -4  -8 -10   28.04    5.19
  -4  -8 -10   22.11    4.16
  -4  -8 -10   28.04    5.19
  -4  -8 -11    3.85    3.59
  -4  -8 -11    2.31    4.55
  -4  -8 -11    3.85    3.59
  -4  -8 -11    2.31    4.55
  -4  -8 -12    7.62    3.34
  -4  -8 -12    6.07    4.62
  -4  -8 -12    7.62    3.34
  -4  -8 -12    6.07    4.62
  -4  -8 -13    7.87    5.12
  -4  -8 -13    7.87    5.12
   4   9  -9    2.98    4.97
   4   9  -9    1.69    5.78
   4   9  -9    2.98    4.97
   4   9  -9    1.69    5.78
   4   9  -8   23.12    5.58
   4   9  -8   30.46    6.65
   4   9  -8   23.12    5.58
   4   9  -8   30.46    6.65
  -4  -9   7   38.10    6.70
  -4  -9   7   38.10    6.70
   4   9  -7   40.96    6.09
   4   9  -7   47.56    7.02
   4   9  -7   40.96    6.09
   4   9  -7   47.56    7.02
  -4  -9   6    4.21    5.26
  -4  -9   6    4.21    5.26
   4   9  -6    3.45    4.49
   4   9  -6    0.37    5.13
   4   9  -6    3.45    4.49
   4   9  -6    0.37    5.13
  -4  -9   5   39.69    6.09
  -4  -9   5   39.69    6.09
   4   9  -5   46.13    5.84
   4   9  -5   39.77    6.27
   4   9  -5   46.13    5.84
   4   9  -5   39.77    6.27
  -4  -9   4   22.42    5.30
  -4  -9   4   22.42    5.30
   4   9  -4   19.84    4.89
   4   9  -4   22.25    5.43
   4   9  -4   19.84    4.89
   4   9  -4   22.25    5.43
  -4  -9   3    1.39    4.49
  -4  -9   3    8.33    4.53
  -4  -9   3    1.39    4.49
  -4  -9   3    8.33    4.53
   4   9  -3   -0.14    4.17
   4   9  -3    0.75    4.49
   4   9  -3   -0.14    4.17
   4   9  -3    0.75    4.49
  -4  -9   2    1.35    4.30
  -4  -9   2    3.79    4.44
  -4  -9   2    1.35    4.30
  -4  -9   2    3.79    4.44
   4   9  -2    6.45    4.36
   4   9  -2    6.45    4.36
  -4  -9   1    6.48    3.94
  -4  -9   1    6.48    3.94
   4   9  -1    6.71    4.39
   4   9  -1    6.71    4.39
  -4  -9   0   15.03    4.66
  -4  -9   0   15.03    4.66
   4   9   0   10.88    4.39
   4   9   0   10.88    4.39
  -4  -9  -1  153.58    7.19
  -4  -9  -1  153.58    7.19
   4   9   1  158.43    7.79
   4   9   1  158.43    7.79
  -4  -9  -2   90.41    6.83
  -4  -9  -2   90.41    6.83
   4   9   2   99.38    7.03
   4   9   2   99.38    7.03
  -4  -9  -3    1.28    4.03
  -4  -9  -3    1.28    4.03
  -4  -9  -4   54.96    6.70
  -4  -9  -4   54.96    6.70
  -4  -9  -5   29.25    4.92
  -4  -9  -5   29.25    4.92
  -4  -9  -6   92.57    6.50
  -4  -9  -6   95.48    6.82
  -4  -9  -6   92.57    6.50
  -4  -9  -6   95.48    6.82
  -4  -9  -7   18.95    4.55
  -4  -9  -7   22.92    4.83
  -4  -9  -7   18.95    4.55
  -4  -9  -7   22.92    4.83
  -4  -9  -8    4.42    4.10
  -4  -9  -8    6.26    4.38
  -4  -9  -8    4.42    4.10
  -4  -9  -8    6.26    4.38
  -4  -9  -9    7.15    4.11
  -4  -9  -9    5.34    4.75
  -4  -9  -9    1.81    4.80
  -4  -9  -9    7.15    4.11
  -4  -9  -9    5.34    4.75
  -4  -9  -9    1.81    4.80
  -4  -9 -10   29.54    4.94
  -4  -9 -10   20.08    5.12
  -4  -9 -10   29.54    4.94
  -4  -9 -10   20.08    5.12
  -4  -9 -11    5.06    4.15
  -4  -9 -11    1.21    4.56
  -4  -9 -11    5.06    4.15
  -4  -9 -11    1.21    4.56
  -4  -9 -12    3.29    3.59
  -4  -9 -12    4.11    5.09
  -4  -9 -12    3.29    3.59
  -4  -9 -12    4.11    5.09
   4  10  -8    8.25    5.29
   4  10  -8    7.16    6.11
   4  10  -8    8.25    5.29
   4  10  -8    7.16    6.11
  -4 -10   7    7.02    5.92
  -4 -10   7    7.02    5.92
   4  10  -7   -1.13    4.68
   4  10  -7   -1.85    5.63
   4  10  -7   -1.13    4.68
   4  10  -7   -1.85    5.63
  -4 -10   6   29.60    6.46
  -4 -10   6   29.60    6.46
   4  10  -6   23.09    5.42
   4  10  -6   28.19    6.37
   4  10  -6   23.09    5.42
   4  10  -6   28.19    6.37
  -4 -10   5   -1.38    5.04
  -4 -10   5   -1.38    5.04
   4  10  -5    3.60    4.65
   4  10  -5    3.60    4.65
  -4 -10   4    9.41    5.36
  -4 -10   4    9.41    5.36
   4  10  -4    0.86    4.58
   4  10  -4    0.86    4.58
  -4 -10   3    9.90    5.10
  -4 -10   3    9.90    5.10
   4  10  -3   13.02    4.97
   4  10  -3   13.02    4.97
  -4 -10   2    0.80    4.57
  -4 -10   2    0.80    4.57
   4  10  -2    3.34    4.58
   4  10  -2    3.34    4.58
  -4 -10   1   -3.01    4.33
  -4 -10   1   -3.01    4.33
   4  10  -1    1.37    4.45
   4  10  -1    1.37    4.45
  -4 -10   0   34.96    5.58
  -4 -10   0   34.96    5.58
   4  10   0   27.97    5.40
   4  10   0   27.97    5.40
  -4 -10  -1   12.77    4.83
  -4 -10  -1   12.77    4.83
   4  10   1   18.47    4.93
   4  10   1   18.47    4.93
  -4 -10  -2    1.21    4.43
  -4 -10  -2    1.21    4.43
   4  10   2    0.99    4.41
   4  10   2    0.99    4.41
  -4 -10  -3    0.47    4.27
  -4 -10  -3    0.47    4.27
  -4 -10  -4   24.74    5.22
  -4 -10  -4   24.74    5.22
  -4 -10  -5   16.85    5.04
  -4 -10  -5   16.85    5.04
  -4 -10  -6   97.05    7.48
  -4 -10  -6   93.91    7.32
  -4 -10  -6   97.05    7.48
  -4 -10  -6   93.91    7.32
  -4 -10  -7   43.01    5.50
  -4 -10  -7   46.01    6.03
  -4 -10  -7   43.01    5.50
  -4 -10  -7   46.01    6.03
  -4 -10  -8   -2.03    4.26
  -4 -10  -8    0.19    4.79
  -4 -10  -8   -2.03    4.26
  -4 -10  -8    0.19    4.79
  -4 -10  -9   22.20    5.04
  -4 -10  -9   16.62    5.43
  -4 -10  -9   22.20    5.04
  -4 -10  -9   16.62    5.43
  -4 -10 -10   10.31    4.62
  -4 -10 -10   10.39    5.17
  -4 -10 -10   10.31    4.62
  -4 -10 -10   10.39    5.17
  -4 -10 -11    3.78    4.51
  -4 -10 -11    1.91    5.25
  -4 -10 -11    3.78    4.51
  -4 -10 -11    1.91    5.25
   4  11  -7   -1.12    5.12
   4  11  -7   -1.12    5.12
  -4 -11   6   13.58    6.30
  -4 -11   6   13.58    6.30
   4  11  -6   15.19    5.69
   4  11  -6   15.19    5.69
  -4 -11   5   51.71    7.31
  -4 -11   5   51.71    7.31
   4  11  -5   47.25    6.50
   4  11  -5   47.25    6.50
  -4 -11   4   26.94    6.39
  -4 -11   4   26.94    6.39
   4  11  -4   28.77    6.10
   4  11  -4   28.77    6.10
   4  11  -3   -3.01    4.69
   4  11  -3   -3.01    4.69
   4  11  -2    7.21    5.04
   4  11  -2    7.21    5.04
  -4 -11   1    7.14    5.15
  -4 -11   1    7.14    5.15
   4  11  -1    7.69    5.02
   4  11  -1    7.69    5.02
  -4 -11   0    0.62    4.87
  -4 -11   0    0.62    4.87
   4  11   0    5.64    4.86
   4  11   0    5.64    4.86
  -4 -11  -1   11.40    5.18
  -4 -11  -1   11.40    5.18
   4  11   1    7.71    5.04
   4  11   1    7.71    5.04
  -4 -11  -2   16.41    5.33
  -4 -11  -2   16.41    5.33
   4  11   2   12.00    4.78
   4  11   2   12.00    4.78
  -4 -11  -3    2.10    4.77
  -4 -11  -3    2.10    4.77
  -4 -11  -4   -1.87    4.73
  -4 -11  -4   -1.87    4.73
  -4 -11  -5   12.20    5.25
  -4 -11  -5   12.20    5.25
  -4 -11  -6    8.81    4.80
  -4 -11  -6    5.00    4.99
  -4 -11  -6    8.81    4.80
  -4 -11  -6    5.00    4.99
  -4 -11  -7   10.50    4.97
  -4 -11  -7   11.98    5.33
  -4 -11  -7   10.50    4.97
  -4 -11  -7   11.98    5.33
  -4 -11  -8    7.85    5.03
  -4 -11  -8   11.21    5.32
  -4 -11  -8    7.85    5.03
  -4 -11  -8   11.21    5.32
  -4 -11  -9   -2.37    4.67
  -4 -11  -9   -1.56    5.02
  -4 -11  -9   -2.37    4.67
  -4 -11  -9   -1.56    5.02
  -4 -11 -10   18.10    5.42
  -4 -11 -10   21.28    6.02
  -4 -11 -10   18.10    5.42
  -4 -11 -10   21.28    6.02
  -4 -12   5    7.13    6.54
  -4 -12   5    7.13    6.54
   4  12  -5    9.01    5.67
   4  12  -5    9.01    5.67
   4  12  -4   20.77    6.12
   4  12  -4   20.77    6.12
   4  12  -3   48.96    6.93
   4  12  -3   48.96    6.93
   4  12  -2    0.49    4.97
   4  12  -2    0.49    4.97
   4  12  -1   49.27    6.68
   4  12  -1   49.27    6.68
   4  12   0   66.64    7.73
   4  12   0   66.64    7.73
  -4 -12  -1    2.43    5.30
  -4 -12  -1    2.43    5.30
   4  12   1    1.52    5.02
   4  12   1    1.52    5.02
  -4 -12  -2    7.12    5.43
  -4 -12  -2    7.12    5.43
   4  12   2   13.55    5.57
   4  12   2   13.55    5.57
  -4 -12  -3   56.16    7.06
  -4 -12  -3   56.16    7.06
  -4 -12  -4   15.92    5.72
  -4 -12  -4   15.92    5.72
  -4 -12  -5    4.45    5.39
  -4 -12  -5    4.45    5.39
  -4 -12  -6   16.19    5.64
  -4 -12  -6   19.87    6.21
  -4 -12  -6   16.19    5.64
  -4 -12  -6   19.87    6.21
  -4 -12  -7    7.63    5.40
  -4 -12  -7    3.30    5.38
  -4 -12  -7    7.63    5.40
  -4 -12  -7    3.30    5.38
  -4 -12  -8    3.32    4.93
  -4 -12  -8    2.20    5.44
  -4 -12  -8    3.32    4.93
  -4 -12  -8    2.20    5.44
   4  13  -2    2.74    5.78
   4  13  -2    2.74    5.78
   4  13  -1    2.11    5.62
   4  13  -1    2.11    5.62
   4  13   0   36.49    6.73
   4  13   0   36.49    6.73
   4  13   1    6.72    5.71
   4  13   1    6.72    5.71
   4  13   2    0.07    5.57
   4  13   2    0.07    5.57
  -4 -13  -3   19.24    6.31
  -4 -13  -3   19.24    6.31
  -4 -13  -4   69.12    8.64
  -4 -13  -4   69.12    8.64
  -4 -13  -5   39.83    6.85
  -4 -13  -5   35.94    7.34
  -4 -13  -5   39.83    6.85
  -4 -13  -5   35.94    7.34
  -5   8   4   -9.49    6.69
  -5   8   4    2.08    4.68
  -5   8   4    5.88    5.75
  -5   8   4   -9.49    6.69
  -5   8   4    2.08    4.68
  -5   8   4    5.88    5.75
  -5   8   3   25.08    7.32
  -5   8   3   26.67    5.27
  -5   8   3   33.46    6.69
  -5   8   3   25.08    7.32
  -5   8   3   26.67    5.27
  -5   8   3   33.46    6.69
  -5   8   2   62.30    8.13
  -5   8   2   53.21    6.55
  -5   8   2   51.87    7.13
  -5   8   2   62.30    8.13
  -5   8   2   53.21    6.55
  -5   8   2   51.87    7.13
  -5   8   1   65.03    7.91
  -5   8   1   43.37    5.38
  -5   8   1   50.92    6.87
  -5   8   1   65.03    7.91
  -5   8   1   43.37    5.38
  -5   8   1   50.92    6.87
  -5   8   0   21.73    6.53
  -5   8   0   11.82    4.07
  -5   8   0    5.69    5.14
  -5   8   0   21.73    6.53
  -5   8   0   11.82    4.07
  -5   8   0    5.69    5.14
  -5   8  -1    4.49    5.11
  -5   8  -1    4.34    3.20
  -5   8  -1    4.45    5.26
  -5   8  -1    4.49    5.11
  -5   8  -1    4.34    3.20
  -5   8  -1    4.45    5.26
  -5   8  -2    1.12    4.78
  -5   8  -2   -0.38    4.68
  -5   8  -2    1.12    4.78
  -5   8  -2   -0.38    4.68
  -5   8  -3    4.99    4.82
  -5   8  -3    4.99    4.82
  -5   8  -4    2.11    4.93
  -5   8  -4    2.11    4.93
  -5   8  -5    4.14    4.84
  -5   8  -5    5.57    5.04
  -5   8  -5    4.14    4.84
  -5   8  -5    5.57    5.04
  -5   7   6   29.06    7.80
  -5   7   6   39.06    6.15
  -5   7   6   29.06    7.80
  -5   7   6   39.06    6.15
   5  -7  -6   40.91    7.12
   5  -7  -6   40.91    7.12
  -5   7   5   -8.41    7.05
  -5   7   5   -0.23    6.52
  -5   7   5    5.09    4.65
  -5   7   5    8.82    5.72
  -5   7   5   -8.41    7.05
  -5   7   5   -0.23    6.52
  -5   7   5    5.09    4.65
  -5   7   5    8.82    5.72
  -5   7   4    5.08    6.95
  -5   7   4   15.36    6.17
  -5   7   4   17.29    5.07
  -5   7   4   12.39    5.73
  -5   7   4    5.08    6.95
  -5   7   4   15.36    6.17
  -5   7   4   17.29    5.07
  -5   7   4   12.39    5.73
  -5   7   3    4.31    6.55
  -5   7   3    6.11    4.78
  -5   7   3    6.41    4.45
  -5   7   3   -0.31    5.02
  -5   7   3    4.31    6.55
  -5   7   3    6.11    4.78
  -5   7   3    6.41    4.45
  -5   7   3   -0.31    5.02
  -5   7   2   42.23    7.32
  -5   7   2   32.42    5.33
  -5   7   2   41.38    5.32
  -5   7   2   50.91    6.61
  -5   7   2   42.23    7.32
  -5   7   2   32.42    5.33
  -5   7   2   41.38    5.32
  -5   7   2   50.91    6.61
  -5   7   1   71.57    8.28
  -5   7   1   56.53    6.21
  -5   7   1   62.67    5.99
  -5   7   1   59.40    7.05
  -5   7   1   71.57    8.28
  -5   7   1   56.53    6.21
  -5   7   1   62.67    5.99
  -5   7   1   59.40    7.05
  -5   7   0   23.44    6.29
  -5   7   0   22.10    4.18
  -5   7   0   19.36    3.96
  -5   7   0   17.15    5.44
  -5   7   0   23.44    6.29
  -5   7   0   22.10    4.18
  -5   7   0   19.36    3.96
  -5   7   0   17.15    5.44
  -5   7  -1    3.89    5.27
  -5   7  -1    0.59    2.96
  -5   7  -1    1.72    4.78
  -5   7  -1    3.89    5.27
  -5   7  -1    0.59    2.96
  -5   7  -1    1.72    4.78
  -5   7  -2   48.06    6.56
  -5   7  -2   45.18    5.86
  -5   7  -2   48.06    6.56
  -5   7  -2   45.18    5.86
  -5   7  -3   30.60    5.66
  -5   7  -3   37.39    5.51
  -5   7  -3   30.60    5.66
  -5   7  -3   37.39    5.51
  -5   7  -4   21.32    5.03
  -5   7  -4   27.99    5.37
  -5   7  -4   24.52    5.31
  -5   7  -4   21.32    5.03
  -5   7  -4   27.99    5.37
  -5   7  -4   24.52    5.31
  -5   7  -5   -0.28    4.71
  -5   7  -5    1.69    4.11
  -5   7  -5    3.07    4.27
  -5   7  -5   -0.28    4.71
  -5   7  -5    1.69    4.11
  -5   7  -5    3.07    4.27
  -5   7  -6    1.03    5.04
  -5   7  -6   -1.99    4.10
  -5   7  -6    1.03    5.04
  -5   7  -6   -1.99    4.10
  -5   7  -7   -0.32    5.19
  -5   7  -7    3.19    4.39
  -5   7  -7   -0.32    5.19
  -5   7  -7    3.19    4.39
  -5   7  -8   31.96    6.73
  -5   7  -8   34.37    5.66
  -5   7  -8   31.96    6.73
  -5   7  -8   34.37    5.66
  -5   6   8    5.38    5.33
  -5   6   8    5.38    5.33
   5  -6  -8    6.94    6.29
   5  -6  -8    6.94    6.29
  -5   6   7    0.69    4.88
  -5   6   7    0.69    4.88
   5  -6  -7    4.66    6.12
   5  -6  -7    4.66    6.12
  -5   6   6   35.51    5.97
  -5   6   6   41.55    6.68
  -5   6   6   35.51    5.97
  -5   6   6   41.55    6.68
   5  -6  -6   37.90    6.99
   5  -6  -6   37.90    6.99
  -5   6   5   19.97    7.31
  -5   6   5   26.14    5.45
  -5   6   5   29.88    6.07
  -5   6   5   19.97    7.31
  -5   6   5   26.14    5.45
  -5   6   5   29.88    6.07
   5  -6  -5   25.43    6.27
   5  -6  -5   25.43    6.27
  -5   6   4   16.69    7.11
  -5   6   4   26.40    6.77
  -5   6   4   28.67    5.11
  -5   6   4   33.91    6.05
  -5   6   4   16.69    7.11
  -5   6   4   26.40    6.77
  -5   6   4   28.67    5.11
  -5   6   4   33.91    6.05
  -5   6   3    7.84    6.34
  -5   6   3   10.09    5.49
  -5   6   3    3.57    4.18
  -5   6   3    9.73    5.03
  -5   6   3    7.84    6.34
  -5   6   3   10.09    5.49
  -5   6   3    3.57    4.18
  -5   6   3    9.73    5.03
  -5   6   2   -0.71    5.83
  -5   6   2    6.52    4.95
  -5   6   2    4.45    4.06
  -5   6   2    6.03    4.70
  -5   6   2   -0.71    5.83
  -5   6   2    6.52    4.95
  -5   6   2    4.45    4.06
  -5   6   2    6.03    4.70
  -5   6   1   -1.50    5.40
  -5   6   1    2.47    4.43
  -5   6   1    2.31    3.63
  -5   6   1   -4.11    4.16
  -5   6   1   -1.50    5.40
  -5   6   1    2.47    4.43
  -5   6   1    2.31    3.63
  -5   6   1   -4.11    4.16
  -5   6   0    4.33    5.24
  -5   6   0    4.96    4.22
  -5   6   0    2.58    3.41
  -5   6   0    2.27    4.26
  -5   6   0    4.33    5.24
  -5   6   0    4.96    4.22
  -5   6   0    2.58    3.41
  -5   6   0    2.27    4.26
  -5   6  -1   22.59    5.88
  -5   6  -1   13.28    4.18
  -5   6  -1   17.79    3.17
  -5   6  -1   22.24    4.83
  -5   6  -1   22.59    5.88
  -5   6  -1   13.28    4.18
  -5   6  -1   17.79    3.17
  -5   6  -1   22.24    4.83
  -5   6  -2   17.90    5.36
  -5   6  -2   10.58    3.91
  -5   6  -2   14.14    4.44
  -5   6  -2   17.90    5.36
  -5   6  -2   10.58    3.91
  -5   6  -2   14.14    4.44
  -5   6  -3   79.89    8.12
  -5   6  -3   80.27    7.93
  -5   6  -3   48.98    5.94
  -5   6  -3   76.29    6.20
  -5   6  -3   79.89    8.12
  -5   6  -3   80.27    7.93
  -5   6  -3   48.98    5.94
  -5   6  -3   76.29    6.20
  -5   6  -4   41.12    5.67
  -5   6  -4   44.66    5.98
  -5   6  -4   48.21    5.67
  -5   6  -4   40.63    5.36
  -5   6  -4   41.12    5.67
  -5   6  -4   44.66    5.98
  -5   6  -4   48.21    5.67
  -5   6  -4   40.63    5.36
  -5   6  -5   -0.91    4.46
  -5   6  -5    0.38    3.92
  -5   6  -5    5.32    4.12
  -5   6  -5   -0.91    4.46
  -5   6  -5    0.38    3.92
  -5   6  -5    5.32    4.12
  -5   6  -6   17.61    5.33
  -5   6  -6   17.50    4.62
  -5   6  -6   17.61    5.33
  -5   6  -6   17.50    4.62
  -5   6  -7   20.08    5.80
  -5   6  -7   24.33    4.67
  -5   6  -7   20.08    5.80
  -5   6  -7   24.33    4.67
  -5   6  -8   11.46    5.67
  -5   6  -8   11.34    4.36
  -5   6  -8   11.46    5.67
  -5   6  -8   11.34    4.36
  -5   6  -9    8.78    5.83
  -5   6  -9   10.68    4.55
  -5   6  -9    8.78    5.83
  -5   6  -9   10.68    4.55
  -5   5   9   12.22    5.60
  -5   5   9   12.22    5.60
   5  -5  -9    3.85    5.94
   5  -5  -9    3.85    5.94
  -5   5   8    6.47    5.13
  -5   5   8    6.47    5.13
   5  -5  -8    8.62    5.52
   5  -5  -8    8.62    5.52
  -5   5   7   14.34    5.15
  -5   5   7   14.34    5.15
   5  -5  -7   19.23    6.14
   5  -5  -7   19.23    6.14
  -5   5   6    4.19    4.79
  -5   5   6    8.55    5.19
  -5   5   6    4.19    4.79
  -5   5   6    8.55    5.19
   5  -5  -6   -0.99    5.31
   5  -5  -6   -0.99    5.31
  -5   5   5    3.52    4.53
  -5   5   5    2.92    4.73
  -5   5   5    3.52    4.53
  -5   5   5    2.92    4.73
   5  -5  -5    4.72    4.84
   5  -5  -5    4.72    4.84
  -5   5   4    8.04    6.57
  -5   5   4   10.50    6.27
  -5   5   4   15.80    4.61
  -5   5   4   17.74    5.18
  -5   5   4    8.04    6.57
  -5   5   4   10.50    6.27
  -5   5   4   15.80    4.61
  -5   5   4   17.74    5.18
   5  -5  -4   19.07    5.56
   5  -5  -4   19.07    5.56
  -5   5   3   34.76    6.83
  -5   5   3   44.01    6.68
  -5   5   3   46.11    5.46
  -5   5   3   36.61    5.62
  -5   5   3   34.76    6.83
  -5   5   3   44.01    6.68
  -5   5   3   46.11    5.46
  -5   5   3   36.61    5.62
  -5   5   2   49.06    7.03
  -5   5   2   46.36    6.16
  -5   5   2   52.17    5.60
  -5   5   2   51.05    6.34
  -5   5   2   49.06    7.03
  -5   5   2   46.36    6.16
  -5   5   2   52.17    5.60
  -5   5   2   51.05    6.34
  -5   5   1   74.76    8.00
  -5   5   1   75.42    6.47
  -5   5   1   85.38    5.96
  -5   5   1   79.53    6.55
  -5   5   1   74.76    8.00
  -5   5   1   75.42    6.47
  -5   5   1   85.38    5.96
  -5   5   1   79.53    6.55
  -5   5   0   70.77    7.76
  -5   5   0   71.54    6.18
  -5   5   0   58.05    5.10
  -5   5   0   63.99    6.50
  -5   5   0   70.77    7.76
  -5   5   0   71.54    6.18
  -5   5   0   58.05    5.10
  -5   5   0   63.99    6.50
  -5   5  -1    7.60    5.19
  -5   5  -1    6.30    4.22
  -5   5  -1    6.06    2.73
  -5   5  -1    7.33    3.84
  -5   5  -1    7.60    5.19
  -5   5  -1    6.30    4.22
  -5   5  -1    6.06    2.73
  -5   5  -1    7.33    3.84
  -5   5  -2   12.92    4.14
  -5   5  -2   14.72    5.29
  -5   5  -2   11.87    4.37
  -5   5  -2   14.62    4.22
  -5   5  -2   12.92    4.14
  -5   5  -2   14.72    5.29
  -5   5  -2   11.87    4.37
  -5   5  -2   14.62    4.22
  -5   5  -3   19.79    4.63
  -5   5  -3   18.43    5.13
  -5   5  -3   21.10    4.62
  -5   5  -3   18.65    4.30
  -5   5  -3   23.62    4.42
  -5   5  -3   19.79    4.63
  -5   5  -3   18.43    5.13
  -5   5  -3   21.10    4.62
  -5   5  -3   18.65    4.30
  -5   5  -3   23.62    4.42
  -5   5  -4    3.15    4.15
  -5   5  -4    7.48    4.64
  -5   5  -4    5.13    3.77
  -5   5  -4    7.34    3.87
  -5   5  -4    6.14    3.84
  -5   5  -4    3.15    4.15
  -5   5  -4    7.48    4.64
  -5   5  -4    5.13    3.77
  -5   5  -4    7.34    3.87
  -5   5  -4    6.14    3.84
  -5   5  -5   65.26    7.80
  -5   5  -5   59.86    6.84
  -5   5  -5   57.67    5.37
  -5   5  -5   65.26    7.80
  -5   5  -5   59.86    6.84
  -5   5  -5   57.67    5.37
  -5   5  -6    3.24    4.57
  -5   5  -6   -1.38    3.44
  -5   5  -6    3.24    4.57
  -5   5  -6   -1.38    3.44
  -5   5  -7    7.59    4.90
  -5   5  -7    6.22    3.64
  -5   5  -7    7.59    4.90
  -5   5  -7    6.22    3.64
  -5   5  -8   65.72    7.27
  -5   5  -8   56.90    5.59
  -5   5  -8   65.72    7.27
  -5   5  -8   56.90    5.59
  -5   5  -9   61.85    7.45
  -5   5  -9   62.42    6.38
  -5   5  -9   61.85    7.45
  -5   5  -9   62.42    6.38
  -5   5 -10   30.04    6.50
  -5   5 -10   25.74    4.92
  -5   5 -10   30.04    6.50
  -5   5 -10   25.74    4.92
  -5   4  10    9.04    5.70
  -5   4  10    9.04    5.70
   5  -4 -10    3.97    5.88
   5  -4 -10    3.97    5.88
  -5   4   9    1.14    5.35
  -5   4   9    1.14    5.35
   5  -4  -9    1.44    5.63
   5  -4  -9    1.44    5.63
  -5   4   8    9.92    5.36
  -5   4   8    9.92    5.36
   5  -4  -8    8.82    5.71
   5  -4  -8    8.82    5.71
  -5   4   7    9.92    4.88
  -5   4   7    9.08    5.15
  -5   4   7    9.92    4.88
  -5   4   7    9.08    5.15
   5  -4  -7    5.09    5.49
   5  -4  -7    5.09    5.49
  -5   4   6   22.30    5.24
  -5   4   6   26.74    5.26
  -5   4   6   22.30    5.24
  -5   4   6   26.74    5.26
   5  -4  -6   25.93    5.58
   5  -4  -6   25.93    5.58
  -5   4   5    4.87    4.20
  -5   4   5   11.20    4.85
  -5   4   5    4.87    4.20
  -5   4   5   11.20    4.85
   5  -4  -5    5.38    5.03
   5  -4  -5    5.38    5.03
  -5   4   4    3.16    3.79
  -5   4   4    1.11    4.28
  -5   4   4    3.16    3.79
  -5   4   4    1.11    4.28
   5  -4  -4   -4.36    3.98
   5  -4  -4   -4.36    3.98
  -5   4   3  146.31    9.41
  -5   4   3  156.92    8.74
  -5   4   3  161.21    6.92
  -5   4   3  166.26    7.95
  -5   4   3  146.31    9.41
  -5   4   3  156.92    8.74
  -5   4   3  161.21    6.92
  -5   4   3  166.26    7.95
  -5   4   2  158.23    9.23
  -5   4   2  146.67    8.26
  -5   4   2  151.16    6.69
  -5   4   2  148.57    7.43
  -5   4   2  158.23    9.23
  -5   4   2  146.67    8.26
  -5   4   2  151.16    6.69
  -5   4   2  148.57    7.43
  -5   4   1   11.26    5.37
  -5   4   1   16.16    4.62
  -5   4   1   14.00    3.38
  -5   4   1   20.11    4.35
  -5   4   1   11.26    5.37
  -5   4   1   16.16    4.62
  -5   4   1   14.00    3.38
  -5   4   1   20.11    4.35
  -5   4   0   22.10    5.45
  -5   4   0   17.71    4.79
  -5   4   0   20.97    3.28
  -5   4   0   21.07    4.14
  -5   4   0   22.10    5.45
  -5   4   0   17.71    4.79
  -5   4   0   20.97    3.28
  -5   4   0   21.07    4.14
  -5   4  -1   21.12    3.53
  -5   4  -1   43.05    5.95
  -5   4  -1   49.79    5.63
  -5   4  -1   51.10    3.70
  -5   4  -1   47.54    5.17
  -5   4  -1   21.12    3.53
  -5   4  -1   43.05    5.95
  -5   4  -1   49.79    5.63
  -5   4  -1   51.10    3.70
  -5   4  -1   47.54    5.17
  -5   4  -2   -0.75    2.51
  -5   4  -2   -2.67    3.41
  -5   4  -2    3.69    4.14
  -5   4  -2   -1.56    3.89
  -5   4  -2    1.16    3.23
  -5   4  -2   -0.75    2.51
  -5   4  -2   -2.67    3.41
  -5   4  -2    3.69    4.14
  -5   4  -2   -1.56    3.89
  -5   4  -2    1.16    3.23
  -5   4  -3    2.48    2.58
  -5   4  -3   42.27    5.16
  -5   4  -3   45.06    5.68
  -5   4  -3   46.12    5.39
  -5   4  -3   35.51    4.38
  -5   4  -3   43.89    5.08
  -5   4  -3    2.48    2.58
  -5   4  -3   42.27    5.16
  -5   4  -3   45.06    5.68
  -5   4  -3   46.12    5.39
  -5   4  -3   35.51    4.38
  -5   4  -3   43.89    5.08
  -5   4  -4  157.99    8.52
  -5   4  -4  146.06    7.96
  -5   4  -4  163.19    7.72
  -5   4  -4  151.01    6.38
  -5   4  -4  157.99    8.52
  -5   4  -4  146.06    7.96
  -5   4  -4  163.19    7.72
  -5   4  -4  151.01    6.38
  -5   4  -5   13.80    4.53
  -5   4  -5   17.38    5.16
  -5   4  -5   21.83    3.66
  -5   4  -5   13.80    4.53
  -5   4  -5   17.38    5.16
  -5   4  -5   21.83    3.66
  -5   4  -6   16.62    4.82
  -5   4  -6   14.21    3.55
  -5   4  -6   16.62    4.82
  -5   4  -6   14.21    3.55
  -5   4  -7    1.11    4.46
  -5   4  -7    1.66    3.23
  -5   4  -7    1.11    4.46
  -5   4  -7    1.66    3.23
  -5   4  -8   -2.21    4.50
  -5   4  -8    3.12    3.47
  -5   4  -8   -2.21    4.50
  -5   4  -8    3.12    3.47
  -5   4  -9   35.82    6.24
  -5   4  -9   43.12    4.82
  -5   4  -9   35.82    6.24
  -5   4  -9   43.12    4.82
  -5   4 -10   45.73    6.78
  -5   4 -10   43.15    4.88
  -5   4 -10   45.73    6.78
  -5   4 -10   43.15    4.88
  -5   4 -11    3.40    5.38
  -5   4 -11    0.08    3.99
  -5   4 -11    3.40    5.38
  -5   4 -11    0.08    3.99
  -5   3  10   74.35    8.73
  -5   3  10   74.35    8.73
   5  -3 -10   60.58    7.77
   5  -3 -10   60.58    7.77
  -5   3   9   21.89    5.73
  -5   3   9   21.89    5.73
   5  -3  -9   21.36    6.22
   5  -3  -9   21.36    6.22
  -5   3   8    4.85    4.81
  -5   3   8    4.85    4.81
   5  -3  -8    1.56    5.37
   5  -3  -8    1.56    5.37
  -5   3   7   30.50    5.52
  -5   3   7   48.32    6.28
  -5   3   7   30.50    5.52
  -5   3   7   48.32    6.28
   5  -3  -7   41.14    6.40
   5  -3  -7   41.14    6.40
  -5   3   6   21.40    4.81
  -5   3   6   16.88    4.99
  -5   3   6   21.40    4.81
  -5   3   6   16.88    4.99
   5  -3  -6    8.79    4.74
   5  -3  -6    8.79    4.74
  -5   3   5    6.78    4.09
  -5   3   5    9.13    4.51
  -5   3   5    6.78    4.09
  -5   3   5    9.13    4.51
   5  -3  -5    4.56    4.68
   5  -3  -5    4.56    4.68
  -5   3   4    1.39    3.78
  -5   3   4    5.57    4.22
  -5   3   4    1.39    3.78
  -5   3   4    5.57    4.22
   5  -3  -4    0.51    4.25
   5  -3  -4    0.51    4.25
  -5   3   3   -1.38    4.71
  -5   3   3    6.16    5.34
  -5   3   3    0.73    3.30
  -5   3   3   -2.03    3.65
  -5   3   3   -1.38    4.71
  -5   3   3    6.16    5.34
  -5   3   3    0.73    3.30
  -5   3   3   -2.03    3.65
   5  -3  -3    4.38    4.16
   5  -3  -3    4.38    4.16
  -5   3   2   30.21    5.40
  -5   3   2   33.15    5.62
  -5   3   2   31.25    3.99
  -5   3   2   35.92    4.63
  -5   3   2   30.21    5.40
  -5   3   2   33.15    5.62
  -5   3   2   31.25    3.99
  -5   3   2   35.92    4.63
   5  -3  -2   35.07    4.86
   5  -3  -2   35.07    4.86
  -5   3   1   18.91    5.26
  -5   3   1   17.15    4.54
  -5   3   1   23.25    3.37
  -5   3   1   21.18    4.05
  -5   3   1   18.91    5.26
  -5   3   1   17.15    4.54
  -5   3   1   23.25    3.37
  -5   3   1   21.18    4.05
  -5   3   0    5.31    4.27
  -5   3   0    3.99    4.30
  -5   3   0    4.57    2.63
  -5   3   0    4.00    3.45
  -5   3   0    5.31    4.27
  -5   3   0    3.99    4.30
  -5   3   0    4.57    2.63
  -5   3   0    4.00    3.45
  -5   3  -1   12.74    4.43
  -5   3  -1   15.65    4.48
  -5   3  -1   12.25    2.12
  -5   3  -1   11.69    3.53
  -5   3  -1   12.74    4.43
  -5   3  -1   15.65    4.48
  -5   3  -1   12.25    2.12
  -5   3  -1   11.69    3.53
  -5   3  -2   14.41    3.54
  -5   3  -2   11.61    3.81
  -5   3  -2   14.22    4.72
  -5   3  -2   10.53    3.92
  -5   3  -2   16.62    3.46
  -5   3  -2   14.41    3.54
  -5   3  -2   11.61    3.81
  -5   3  -2   14.22    4.72
  -5   3  -2   10.53    3.92
  -5   3  -2   16.62    3.46
  -5   3  -3   -0.19    3.28
  -5   3  -3    1.69    3.48
  -5   3  -3   -0.31    4.25
  -5   3  -3    0.17    3.52
  -5   3  -3    1.45    2.94
  -5   3  -3    0.32    2.90
  -5   3  -3   -0.19    3.28
  -5   3  -3    1.69    3.48
  -5   3  -3   -0.31    4.25
  -5   3  -3    0.17    3.52
  -5   3  -3    1.45    2.94
  -5   3  -3    0.32    2.90
  -5   3  -4   28.80    4.14
  -5   3  -4   19.58    4.32
  -5   3  -4   25.43    5.05
  -5   3  -4   22.82    4.65
  -5   3  -4   27.70    3.49
  -5   3  -4   28.80    4.14
  -5   3  -4   19.58    4.32
  -5   3  -4   25.43    5.05
  -5   3  -4   22.82    4.65
  -5   3  -4   27.70    3.49
  -5   3  -5  125.07    6.66
  -5   3  -5  127.36    8.02
  -5   3  -5  127.68    5.14
  -5   3  -5  125.07    6.66
  -5   3  -5  127.36    8.02
  -5   3  -5  127.68    5.14
  -5   3  -6   14.88    3.84
  -5   3  -6   26.54    4.96
  -5   3  -6   26.45    3.47
  -5   3  -6   14.88    3.84
  -5   3  -6   26.54    4.96
  -5   3  -6   26.45    3.47
  -5   3  -7   -1.34    3.18
  -5   3  -7    1.25    4.22
  -5   3  -7    5.14    2.99
  -5   3  -7   -1.34    3.18
  -5   3  -7    1.25    4.22
  -5   3  -7    5.14    2.99
  -5   3  -8    4.65    4.54
  -5   3  -8    5.79    3.17
  -5   3  -8    4.65    4.54
  -5   3  -8    5.79    3.17
  -5   3  -9   18.66    5.33
  -5   3  -9   13.64    3.51
  -5   3  -9   18.66    5.33
  -5   3  -9   13.64    3.51
  -5   3 -10    7.01    4.88
  -5   3 -10    1.90    3.51
  -5   3 -10    7.01    4.88
  -5   3 -10    1.90    3.51
  -5   3 -11    3.69    5.21
  -5   3 -11    6.20    3.72
  -5   3 -11    3.69    5.21
  -5   3 -11    6.20    3.72
  -5   3 -12    1.03    5.28
  -5   3 -12    1.43    3.83
  -5   3 -12    1.03    5.28
  -5   3 -12    1.43    3.83
  -5   2  11   -4.14    5.26
  -5   2  11   -4.14    5.26
   5  -2 -11   -1.35    5.49
   5  -2 -11   -1.35    5.49
  -5   2  10   -1.34    5.13
  -5   2  10   -1.34    5.13
   5  -2 -10    3.21    5.47
   5  -2 -10    3.21    5.47
  -5   2   9    4.45    5.01
  -5   2   9    4.45    5.01
   5  -2  -9    4.41    4.91
   5  -2  -9    4.41    4.91
  -5   2   8    6.82    4.69
  -5   2   8    6.82    4.69
   5  -2  -8   -1.08    4.92
   5  -2  -8   -1.08    4.92
  -5   2   7   44.20    5.70
  -5   2   7   44.02    5.91
  -5   2   7   44.20    5.70
  -5   2   7   44.02    5.91
   5  -2  -7   38.21    6.16
   5  -2  -7   38.21    6.16
  -5   2   6   50.25    5.57
  -5   2   6   45.01    5.70
  -5   2   6   50.25    5.57
  -5   2   6   45.01    5.70
   5  -2  -6   44.67    6.05
   5  -2  -6   44.67    6.05
  -5   2   5   31.15    4.85
  -5   2   5   25.94    4.93
  -5   2   5   31.15    4.85
  -5   2   5   25.94    4.93
   5  -2  -5   28.85    5.22
   5  -2  -5   28.85    5.22
  -5   2   4    6.30    3.54
  -5   2   4    3.64    3.83
  -5   2   4    6.30    3.54
  -5   2   4    3.64    3.83
   5  -2  -4    1.95    4.12
   5  -2  -4    1.95    4.12
  -5   2   3   23.82    5.62
  -5   2   3   29.86    4.14
  -5   2   3   28.95    4.49
  -5   2   3   23.82    5.62
  -5   2   3   29.86    4.14
  -5   2   3   28.95    4.49
   5  -2  -3   30.16    4.67
   5  -2  -3   30.16    4.67
  -5   2   2   90.20    7.89
  -5   2   2  103.29    7.34
  -5   2   2  103.29    5.66
  -5   2   2  102.72    6.01
  -5   2   2   90.20    7.89
  -5   2   2  103.29    7.34
  -5   2   2  103.29    5.66
  -5   2   2  102.72    6.01
   5  -2  -2  106.27    6.69
   5  -2  -2  106.27    6.69
  -5   2   1   33.40    5.34
  -5   2   1   38.31    4.99
  -5   2   1   38.84    3.66
  -5   2   1   35.82    4.17
  -5   2   1   33.40    5.34
  -5   2   1   38.31    4.99
  -5   2   1   38.84    3.66
  -5   2   1   35.82    4.17
   5  -2  -1   38.91    4.47
   5  -2  -1   38.91    4.47
  -5   2   0   -0.87    3.93
  -5   2   0    2.66    3.83
  -5   2   0    3.18    2.36
  -5   2   0    2.63    3.15
  -5   2   0   -0.87    3.93
  -5   2   0    2.66    3.83
  -5   2   0    3.18    2.36
  -5   2   0    2.63    3.15
  -5   2  -1   33.29    5.19
  -5   2  -1   32.89    4.83
  -5   2  -1   36.81    2.51
  -5   2  -1   35.04    3.81
  -5   2  -1   33.29    5.19
  -5   2  -1   32.89    4.83
  -5   2  -1   36.81    2.51
  -5   2  -1   35.04    3.81
  -5   2  -2   34.94    4.17
  -5   2  -2   27.73    4.14
  -5   2  -2   28.76    4.92
  -5   2  -2   35.46    4.87
  -5   2  -2   30.58    3.55
  -5   2  -2   34.94    4.17
  -5   2  -2   27.73    4.14
  -5   2  -2   28.76    4.92
  -5   2  -2   35.46    4.87
  -5   2  -2   30.58    3.55
  -5   2  -3   78.89    5.89
  -5   2  -3   94.35    6.81
  -5   2  -3   87.13    7.06
  -5   2  -3   79.90    6.08
  -5   2  -3   85.87    4.38
  -5   2  -3   78.89    5.89
  -5   2  -3   94.35    6.81
  -5   2  -3   87.13    7.06
  -5   2  -3   79.90    6.08
  -5   2  -3   85.87    4.38
  -5   2  -4   35.89    4.32
  -5   2  -4   36.46    4.73
  -5   2  -4   38.23    5.30
  -5   2  -4   39.26    5.06
  -5   2  -4   37.53    3.47
  -5   2  -4   35.89    4.32
  -5   2  -4   36.46    4.73
  -5   2  -4   38.23    5.30
  -5   2  -4   39.26    5.06
  -5   2  -4   37.53    3.47
  -5   2  -5    0.43    3.39
  -5   2  -5    4.91    3.71
  -5   2  -5   -0.29    2.38
  -5   2  -5    0.43    3.39
  -5   2  -5    4.91    3.71
  -5   2  -5   -0.29    2.38
  -5   2  -6   45.67    4.88
  -5   2  -6   38.82    5.07
  -5   2  -6   46.02    3.85
  -5   2  -6   45.67    4.88
  -5   2  -6   38.82    5.07
  -5   2  -6   46.02    3.85
  -5   2  -7   56.36    6.52
  -5   2  -7   57.81    6.93
  -5   2  -7   63.80    4.15
  -5   2  -7   56.36    6.52
  -5   2  -7   57.81    6.93
  -5   2  -7   63.80    4.15
  -5   2  -8   10.20    4.50
  -5   2  -8   10.91    2.79
  -5   2  -8   10.20    4.50
  -5   2  -8   10.91    2.79
  -5   2  -9    3.49    4.50
  -5   2  -9    3.99    2.83
  -5   2  -9    3.49    4.50
  -5   2  -9    3.99    2.83
  -5   2 -10   21.89    5.45
  -5   2 -10   19.08    3.45
  -5   2 -10   21.89    5.45
  -5   2 -10   19.08    3.45
  -5   2 -11    5.19    5.00
  -5   2 -11   -1.92    3.14
  -5   2 -11    5.19    5.00
  -5   2 -11   -1.92    3.14
  -5   2 -12   23.46    6.08
  -5   2 -12   17.91    3.85
  -5   2 -12   23.46    6.08
  -5   2 -12   17.91    3.85
  -5   2 -13   26.63    6.55
  -5   2 -13   37.44    4.77
  -5   2 -13   26.63    6.55
  -5   2 -13   37.44    4.77
  -5   1  11   18.38    6.13
  -5   1  11   18.38    6.13
   5  -1 -11   22.16    6.33
   5  -1 -11   22.16    6.33
  -5   1  10   44.58    6.67
  -5   1  10   44.58    6.67
   5  -1 -10   48.26    6.66
   5  -1 -10   48.26    6.66
  -5   1   9   45.07    6.35
  -5   1   9   45.07    6.35
   5  -1  -9   42.33    6.57
   5  -1  -9   42.33    6.57
  -5   1   8   14.41    5.06
  -5   1   8   14.41    5.06
   5  -1  -8   10.45    5.27
   5  -1  -8   10.45    5.27
  -5   1   7    2.99    4.21
  -5   1   7    3.47    4.47
  -5   1   7    2.99    4.21
  -5   1   7    3.47    4.47
   5  -1  -7    2.49    4.67
   5  -1  -7    2.49    4.67
  -5   1   6    1.63    3.96
  -5   1   6   -0.60    4.04
  -5   1   6    1.63    3.96
  -5   1   6   -0.60    4.04
   5  -1  -6   -0.11    3.96
   5  -1  -6   -0.11    3.96
  -5   1   5   29.73    4.48
  -5   1   5   35.53    4.99
  -5   1   5   29.73    4.48
  -5   1   5   35.53    4.99
   5  -1  -5   33.80    5.21
   5  -1  -5   33.80    5.21
  -5   1   4   12.31    3.67
  -5   1   4   10.53    3.88
  -5   1   4   12.31    3.67
  -5   1   4   10.53    3.88
   5  -1  -4   10.11    4.15
   5  -1  -4   10.11    4.15
  -5   1   3   20.18    5.21
  -5   1   3   17.00    3.73
  -5   1   3   24.58    4.14
  -5   1   3   20.18    5.21
  -5   1   3   17.00    3.73
  -5   1   3   24.58    4.14
   5  -1  -3   19.64    4.23
   5  -1  -3   19.64    4.23
  -5   1   2  209.04    8.79
  -5   1   2  209.50    8.79
  -5   1   2  221.70    6.61
  -5   1   2  215.35    7.01
  -5   1   2  209.04    8.79
  -5   1   2  209.50    8.79
  -5   1   2  221.70    6.61
  -5   1   2  215.35    7.01
   5  -1  -2  225.92    7.70
   5  -1  -2  225.92    7.70
  -5   1   1  486.86   10.36
  -5   1   1  504.18   10.50
  -5   1   1  516.22    7.66
  -5   1   1  516.21    9.03
  -5   1   1  486.86   10.36
  -5   1   1  504.18   10.50
  -5   1   1  516.22    7.66
  -5   1   1  516.21    9.03
   5  -1  -1  520.78    9.47
   5  -1  -1  520.78    9.47
  -5   1   0   78.13    7.01
  -5   1   0   81.48    6.03
  -5   1   0   77.77    3.77
  -5   1   0   86.22    4.71
  -5   1   0   78.13    7.01
  -5   1   0   81.48    6.03
  -5   1   0   77.77    3.77
  -5   1   0   86.22    4.71
  -5   1  -1   12.48    3.86
  -5   1  -1   13.74    4.07
  -5   1  -1   10.70    2.82
  -5   1  -1   12.48    3.86
  -5   1  -1   13.74    4.07
  -5   1  -1   10.70    2.82
  -5   1  -2   21.85    3.93
  -5   1  -2   19.45    4.42
  -5   1  -2   22.39    4.28
  -5   1  -2   20.58    2.86
  -5   1  -2   21.85    3.93
  -5   1  -2   19.45    4.42
  -5   1  -2   22.39    4.28
  -5   1  -2   20.58    2.86
  -5   1  -3    0.95    3.31
  -5   1  -3   -1.71    3.06
  -5   1  -3    4.70    4.02
  -5   1  -3    4.73    3.76
  -5   1  -3    3.42    2.29
  -5   1  -3    0.95    3.31
  -5   1  -3   -1.71    3.06
  -5   1  -3    4.70    4.02
  -5   1  -3    4.73    3.76
  -5   1  -3    3.42    2.29
  -5   1  -4   43.81    4.59
  -5   1  -4   50.12    6.12
  -5   1  -4   50.21    5.44
  -5   1  -4   54.04    6.29
  -5   1  -4   50.91    3.14
  -5   1  -4   43.81    4.59
  -5   1  -4   50.12    6.12
  -5   1  -4   50.21    5.44
  -5   1  -4   54.04    6.29
  -5   1  -4   50.91    3.14
  -5   1  -5   31.48    4.41
  -5   1  -5   36.50    4.70
  -5   1  -5   31.80    2.94
  -5   1  -5   31.48    4.41
  -5   1  -5   36.50    4.70
  -5   1  -5   31.80    2.94
  -5   1  -6    8.09    3.96
  -5   1  -6   10.30    3.95
  -5   1  -6    9.67    2.04
  -5   1  -6    8.09    3.96
  -5   1  -6   10.30    3.95
  -5   1  -6    9.67    2.04
  -5   1  -7   26.84    4.66
  -5   1  -7   26.42    4.67
  -5   1  -7   29.42    3.19
  -5   1  -7   26.84    4.66
  -5   1  -7   26.42    4.67
  -5   1  -7   29.42    3.19
  -5   1  -8   32.84    5.15
  -5   1  -8   40.65    3.37
  -5   1  -8   32.84    5.15
  -5   1  -8   40.65    3.37
  -5   1  -9   18.40    5.00
  -5   1  -9   20.62    2.68
  -5   1  -9   18.40    5.00
  -5   1  -9   20.62    2.68
  -5   1 -10    3.29    4.43
  -5   1 -10   -1.41    2.51
  -5   1 -10    3.29    4.43
  -5   1 -10   -1.41    2.51
  -5   1 -11   15.27    5.31
  -5   1 -11   14.18    3.20
  -5   1 -11   15.27    5.31
  -5   1 -11   14.18    3.20
  -5   1 -12    2.81    5.06
  -5   1 -12    2.66    3.14
  -5   1 -12    2.81    5.06
  -5   1 -12    2.66    3.14
  -5   1 -13    3.56    5.47
  -5   1 -13    2.31    3.45
  -5   1 -13    3.56    5.47
  -5   1 -13    2.31    3.45
  -5   0  11    0.30    5.42
  -5   0  11    0.30    5.42
   5   0 -11    6.47    5.51
   5   0 -11    6.47    5.51
  -5   0  10    1.96    5.10
  -5   0  10    1.96    5.10
   5   0 -10    7.37    5.40
   5   0 -10    7.37    5.40
  -5   0   9   74.46    7.61
  -5   0   9   74.46    7.61
   5   0  -9   66.82    7.88
   5   0  -9   66.82    7.88
  -5   0   8   14.86    4.93
  -5   0   8   14.86    4.93
   5   0  -8   16.68    5.04
   5   0  -8   16.68    5.04
  -5   0   7   33.78    5.27
  -5   0   7   40.47    5.50
  -5   0   7   33.78    5.27
  -5   0   7   40.47    5.50
   5   0  -7   37.07    5.69
   5   0  -7   37.07    5.69
  -5   0   6  108.77    7.00
  -5   0   6  108.85    7.05
  -5   0   6  108.77    7.00
  -5   0   6  108.85    7.05
   5   0  -6  108.65    7.87
   5   0  -6  108.65    7.87
  -5   0   5  108.68    6.61
  -5   0   5  107.55    6.69
  -5   0   5  108.68    6.61
  -5   0   5  107.55    6.69
   5   0  -5  106.31    6.74
   5   0  -5  106.31    6.74
  -5   0   4    2.81    3.33
  -5   0   4    5.91    3.64
  -5   0   4    2.81    3.33
  -5   0   4    5.91    3.64
   5   0  -4    2.72    3.48
   5   0  -4    2.72    3.48
  -5   0   3   37.37    5.30
  -5   0   3   42.40    4.87
  -5   0   3   42.87    5.12
  -5   0   3   37.37    5.30
  -5   0   3   42.40    4.87
  -5   0   3   42.87    5.12
   5   0  -3   41.87    4.67
   5   0  -3   41.87    4.67
  -5   0   2   13.81    4.33
  -5   0   2   13.12    4.42
  -5   0   2   13.26    3.08
  -5   0   2   12.01    3.25
  -5   0   2   13.55    2.59
  -5   0   2   13.81    4.33
  -5   0   2   13.12    4.42
  -5   0   2   13.26    3.08
  -5   0   2   12.01    3.25
  -5   0   2   13.55    2.59
   5   0  -2   17.66    3.60
   5   0  -2   17.66    3.60
  -5   0   1   66.89    6.56
  -5   0   1   73.76    6.83
  -5   0   1   75.25    4.51
  -5   0   1   75.37    4.70
  -5   0   1   72.22    4.43
  -5   0   1   66.89    6.56
  -5   0   1   73.76    6.83
  -5   0   1   75.25    4.51
  -5   0   1   75.37    4.70
  -5   0   1   72.22    4.43
   5   0  -1   73.40    5.18
   5   0  -1   73.40    5.18
  -5   0   0  409.29    9.54
  -5   0   0  419.30    9.18
  -5   0   0  437.38    5.73
  -5   0   0  424.64    7.54
  -5   0   0  414.29    7.67
  -5   0   0  409.29    9.54
  -5   0   0  419.30    9.18
  -5   0   0  437.38    5.73
  -5   0   0  424.64    7.54
  -5   0   0  414.29    7.67
   5   0   0  420.94    7.67
   5   0   0  420.94    7.67
  -5   0  -1   40.90    4.75
  -5   0  -1   39.63    4.67
  -5   0  -1   42.60    3.76
  -5   0  -1   45.51    4.85
  -5   0  -1   40.90    4.75
  -5   0  -1   39.63    4.67
  -5   0  -1   42.60    3.76
  -5   0  -1   45.51    4.85
  -5   0  -2   21.55    3.89
  -5   0  -2   28.22    4.35
  -5   0  -2   19.37    3.87
  -5   0  -2   22.84    2.67
  -5   0  -2   22.80    3.67
  -5   0  -2   21.55    3.89
  -5   0  -2   28.22    4.35
  -5   0  -2   19.37    3.87
  -5   0  -2   22.84    2.67
  -5   0  -2   22.80    3.67
  -5   0  -3  275.16    7.98
  -5   0  -3  275.83    8.14
  -5   0  -3  295.35    8.68
  -5   0  -3  293.27    8.63
  -5   0  -3  292.02    4.87
  -5   0  -3  250.24    7.43
  -5   0  -3  275.16    7.98
  -5   0  -3  275.83    8.14
  -5   0  -3  295.35    8.68
  -5   0  -3  293.27    8.63
  -5   0  -3  292.02    4.87
  -5   0  -3  250.24    7.43
  -5   0  -4  176.47    7.31
  -5   0  -4  183.98    7.50
  -5   0  -4  179.23    3.46
  -5   0  -4  167.77    7.05
  -5   0  -4  176.47    7.31
  -5   0  -4  183.98    7.50
  -5   0  -4  179.23    3.46
  -5   0  -4  167.77    7.05
  -5   0  -5   36.28    4.58
  -5   0  -5   29.02    4.36
  -5   0  -5   31.88    2.14
  -5   0  -5   32.62    4.76
  -5   0  -5   36.28    4.58
  -5   0  -5   29.02    4.36
  -5   0  -5   31.88    2.14
  -5   0  -5   32.62    4.76
  -5   0  -6    1.60    3.82
  -5   0  -6    0.78    3.52
  -5   0  -6    1.60    3.82
  -5   0  -6    0.78    3.52
  -5   0  -7   10.38    4.27
  -5   0  -7    5.56    3.88
  -5   0  -7   10.38    4.27
  -5   0  -7    5.56    3.88
  -5   0  -8   16.75    4.68
  -5   0  -8   14.93    4.36
  -5   0  -8   21.63    2.28
  -5   0  -8   16.75    4.68
  -5   0  -8   14.93    4.36
  -5   0  -8   21.63    2.28
  -5   0  -9    3.14    4.18
  -5   0  -9    5.64    1.94
  -5   0  -9    3.14    4.18
  -5   0  -9    5.64    1.94
  -5   0 -10   20.46    5.11
  -5   0 -10   24.44    2.69
  -5   0 -10   20.46    5.11
  -5   0 -10   24.44    2.69
  -5   0 -11   54.47    6.42
  -5   0 -11   53.52    4.24
  -5   0 -11   54.47    6.42
  -5   0 -11   53.52    4.24
  -5   0 -12   91.51    8.61
  -5   0 -12   99.61    5.10
  -5   0 -12   91.51    8.61
  -5   0 -12   99.61    5.10
  -5   0 -13   74.12    8.93
  -5   0 -13   70.61    5.27
  -5   0 -13   74.12    8.93
  -5   0 -13   70.61    5.27
  -5   0 -14   18.00    6.02
  -5   0 -14   24.62    4.08
  -5   0 -14   18.00    6.02
  -5   0 -14   24.62    4.08
  -5  -1  12    7.23    5.84
  -5  -1  12    7.23    5.84
   5   1 -12   -1.73    5.41
   5   1 -12   -1.73    5.41
  -5  -1  11   22.87    6.32
  -5  -1  11   22.87    6.32
   5   1 -11   22.95    6.15
   5   1 -11   22.95    6.15
  -5  -1  10   -3.44    4.95
  -5  -1  10   -3.44    4.95
   5   1 -10    2.08    5.12
   5   1 -10    2.08    5.12
  -5  -1   9    8.68    5.02
  -5  -1   9    8.68    5.02
   5   1  -9    1.25    4.86
   5   1  -9    1.25    4.86
  -5  -1   8   80.05    7.41
  -5  -1   8   80.05    7.41
   5   1  -8   69.72    7.58
   5   1  -8   82.24    7.63
   5   1  -8   69.72    7.58
   5   1  -8   82.24    7.63
  -5  -1   7    9.50    4.54
  -5  -1   7   15.16    4.62
  -5  -1   7    9.50    4.54
  -5  -1   7   15.16    4.62
   5   1  -7   13.89    4.90
   5   1  -7   11.31    4.54
   5   1  -7   13.89    4.90
   5   1  -7   11.31    4.54
  -5  -1   6    0.86    3.81
  -5  -1   6    2.03    3.94
  -5  -1   6    0.86    3.81
  -5  -1   6    2.03    3.94
   5   1  -6   -2.64    4.07
   5   1  -6   -0.07    3.84
   5   1  -6   -2.64    4.07
   5   1  -6   -0.07    3.84
  -5  -1   5   15.46    3.95
  -5  -1   5   15.11    4.21
  -5  -1   5   15.46    3.95
  -5  -1   5   15.11    4.21
   5   1  -5   13.01    4.00
   5   1  -5   14.21    3.99
   5   1  -5   13.01    4.00
   5   1  -5   14.21    3.99
  -5  -1   4   94.21    5.95
  -5  -1   4   96.69    6.12
  -5  -1   4   94.21    5.95
  -5  -1   4   96.69    6.12
   5   1  -4   99.51    6.96
   5   1  -4   99.51    6.96
  -5  -1   3   43.29    4.89
  -5  -1   3   42.70    5.34
  -5  -1   3   42.82    4.92
  -5  -1   3   43.29    4.89
  -5  -1   3   42.70    5.34
  -5  -1   3   42.82    4.92
   5   1  -3   43.03    4.99
   5   1  -3   43.03    4.99
  -5  -1   2    0.61    3.62
  -5  -1   2    1.53    3.56
  -5  -1   2   -0.19    2.68
  -5  -1   2    3.27    2.92
  -5  -1   2    2.34    2.27
  -5  -1   2    0.61    3.62
  -5  -1   2    1.53    3.56
  -5  -1   2   -0.19    2.68
  -5  -1   2    3.27    2.92
  -5  -1   2    2.34    2.27
   5   1  -2    2.35    3.08
   5   1  -2    2.35    3.08
  -5  -1   1   17.64    3.60
  -5  -1   1   18.61    3.77
  -5  -1   1   18.03    2.84
  -5  -1   1   18.22    3.21
  -5  -1   1   16.87    2.90
  -5  -1   1   17.64    3.60
  -5  -1   1   18.61    3.77
  -5  -1   1   18.03    2.84
  -5  -1   1   18.22    3.21
  -5  -1   1   16.87    2.90
   5   1  -1   15.23    3.19
   5   1  -1   15.23    3.19
  -5  -1   0   16.50    3.85
  -5  -1   0   20.82    3.78
  -5  -1   0   22.52    2.30
  -5  -1   0   21.11    2.99
  -5  -1   0   15.54    3.02
  -5  -1   0   16.50    3.85
  -5  -1   0   20.82    3.78
  -5  -1   0   22.52    2.30
  -5  -1   0   21.11    2.99
  -5  -1   0   15.54    3.02
   5   1   0   22.90    3.16
   5   1   0   22.90    3.16
  -5  -1  -1   -1.60    3.30
  -5  -1  -1    1.22    3.30
  -5  -1  -1   -1.17    2.21
  -5  -1  -1    3.17    2.79
  -5  -1  -1   -1.60    3.30
  -5  -1  -1    1.22    3.30
  -5  -1  -1   -1.17    2.21
  -5  -1  -1    3.17    2.79
  -5  -1  -2    7.35    3.40
  -5  -1  -2    8.31    3.35
  -5  -1  -2    0.91    3.35
  -5  -1  -2    7.12    2.06
  -5  -1  -2    9.04    3.14
  -5  -1  -2    7.35    3.40
  -5  -1  -2    8.31    3.35
  -5  -1  -2    0.91    3.35
  -5  -1  -2    7.12    2.06
  -5  -1  -2    9.04    3.14
  -5  -1  -3   15.93    3.83
  -5  -1  -3   17.06    3.71
  -5  -1  -3   17.13    3.84
  -5  -1  -3   19.16    1.86
  -5  -1  -3   17.61    1.99
  -5  -1  -3   14.46    3.48
  -5  -1  -3   15.93    3.83
  -5  -1  -3   17.06    3.71
  -5  -1  -3   17.13    3.84
  -5  -1  -3   19.16    1.86
  -5  -1  -3   17.61    1.99
  -5  -1  -3   14.46    3.48
  -5  -1  -4  201.29    7.61
  -5  -1  -4  204.85    7.74
  -5  -1  -4  208.54    2.93
  -5  -1  -4  204.06    2.92
  -5  -1  -4  181.75    6.88
  -5  -1  -4  201.29    7.61
  -5  -1  -4  204.85    7.74
  -5  -1  -4  208.54    2.93
  -5  -1  -4  204.06    2.92
  -5  -1  -4  181.75    6.88
  -5  -1  -5  225.66    7.53
  -5  -1  -5  245.17    8.15
  -5  -1  -5  229.54    7.86
  -5  -1  -5  225.66    7.53
  -5  -1  -5  245.17    8.15
  -5  -1  -5  229.54    7.86
  -5  -1  -6    4.68    3.88
  -5  -1  -6    3.98    3.54
  -5  -1  -6    2.55    3.86
  -5  -1  -6    4.68    3.88
  -5  -1  -6    3.98    3.54
  -5  -1  -6    2.55    3.86
  -5  -1  -7   82.68    6.31
  -5  -1  -7   94.35    7.23
  -5  -1  -7   77.13    6.74
  -5  -1  -7   82.68    6.31
  -5  -1  -7   94.35    7.23
  -5  -1  -7   77.13    6.74
  -5  -1  -8  156.55    7.49
  -5  -1  -8  180.14    8.45
  -5  -1  -8  153.79    8.08
  -5  -1  -8  156.55    7.49
  -5  -1  -8  180.14    8.45
  -5  -1  -8  153.79    8.08
  -5  -1  -9   95.30    7.82
  -5  -1  -9   95.30    7.82
  -5  -1 -10   10.69    4.62
  -5  -1 -10   12.73    2.38
  -5  -1 -10   10.69    4.62
  -5  -1 -10   12.73    2.38
  -5  -1 -11   15.57    4.99
  -5  -1 -11   12.99    2.78
  -5  -1 -11   15.57    4.99
  -5  -1 -11   12.99    2.78
  -5  -1 -12   13.17    5.19
  -5  -1 -12   16.44    3.28
  -5  -1 -12   13.17    5.19
  -5  -1 -12   16.44    3.28
  -5  -1 -13   37.12    6.27
  -5  -1 -13   32.81    4.02
  -5  -1 -13   37.12    6.27
  -5  -1 -13   32.81    4.02
  -5  -1 -14   49.93    7.08
  -5  -1 -14   40.07    4.54
  -5  -1 -14   49.93    7.08
  -5  -1 -14   40.07    4.54
   5   2 -12   20.56    6.22
   5   2 -12   20.56    6.22
  -5  -2  11   21.75    6.26
  -5  -2  11   21.75    6.26
   5   2 -11   22.27    6.07
   5   2 -11   22.27    6.07
  -5  -2  10    6.44    5.55
  -5  -2  10    6.44    5.55
   5   2 -10    8.09    5.37
   5   2 -10   14.30    5.43
   5   2 -10    8.09    5.37
   5   2 -10   14.30    5.43
  -5  -2   9    4.07    5.00
  -5  -2   9    4.07    5.00
   5   2  -9    5.07    5.06
   5   2  -9    1.58    4.68
   5   2  -9    5.07    5.06
   5   2  -9    1.58    4.68
  -5  -2   8    3.92    4.57
  -5  -2   8    3.92    4.57
   5   2  -8    2.51    4.68
   5   2  -8    7.10    4.65
   5   2  -8    2.51    4.68
   5   2  -8    7.10    4.65
  -5  -2   7   47.43    5.66
  -5  -2   7   44.37    5.53
  -5  -2   7   47.43    5.66
  -5  -2   7   44.37    5.53
   5   2  -7   48.13    5.96
   5   2  -7   46.50    5.64
   5   2  -7   48.13    5.96
   5   2  -7   46.50    5.64
  -5  -2   6   20.54    4.48
  -5  -2   6   21.98    4.65
  -5  -2   6   20.54    4.48
  -5  -2   6   21.98    4.65
   5   2  -6   20.63    4.88
   5   2  -6   23.22    4.62
   5   2  -6   20.63    4.88
   5   2  -6   23.22    4.62
  -5  -2   5   21.69    4.20
  -5  -2   5   24.07    4.39
  -5  -2   5   21.69    4.20
  -5  -2   5   24.07    4.39
   5   2  -5   24.07    4.38
   5   2  -5   20.90    4.18
   5   2  -5   24.07    4.38
   5   2  -5   20.90    4.18
  -5  -2   4    1.48    3.80
  -5  -2   4    1.36    3.30
  -5  -2   4    1.48    3.47
  -5  -2   4    1.48    3.80
  -5  -2   4    1.36    3.30
  -5  -2   4    1.48    3.47
   5   2  -4    3.65    3.73
   5   2  -4    1.88    3.33
   5   2  -4    3.65    3.73
   5   2  -4    1.88    3.33
  -5  -2   3   34.73    4.29
  -5  -2   3   38.43    4.94
  -5  -2   3   42.37    4.90
  -5  -2   3   37.63    4.22
  -5  -2   3   31.27    3.57
  -5  -2   3   34.73    4.29
  -5  -2   3   38.43    4.94
  -5  -2   3   42.37    4.90
  -5  -2   3   37.63    4.22
  -5  -2   3   31.27    3.57
   5   2  -3   34.97    4.11
   5   2  -3   36.51    4.02
   5   2  -3   34.97    4.11
   5   2  -3   36.51    4.02
  -5  -2   2    1.53    3.27
  -5  -2   2    2.63    3.65
  -5  -2   2    0.57    2.60
  -5  -2   2    1.10    2.86
  -5  -2   2   -0.21    2.47
  -5  -2   2    1.53    3.27
  -5  -2   2    2.63    3.65
  -5  -2   2    0.57    2.60
  -5  -2   2    1.10    2.86
  -5  -2   2   -0.21    2.47
   5   2  -2    1.60    2.73
   5   2  -2    1.60    2.73
  -5  -2   1   54.44    5.45
  -5  -2   1   54.50    5.07
  -5  -2   1   58.71    4.49
  -5  -2   1   54.58    4.30
  -5  -2   1   43.71    4.26
  -5  -2   1   54.44    5.45
  -5  -2   1   54.50    5.07
  -5  -2   1   58.71    4.49
  -5  -2   1   54.58    4.30
  -5  -2   1   43.71    4.26
   5   2  -1   56.62    4.84
   5   2  -1   56.62    4.84
  -5  -2   0   76.74    5.57
  -5  -2   0   81.75    5.88
  -5  -2   0   79.81    3.67
  -5  -2   0   82.29    4.44
  -5  -2   0   73.71    4.74
  -5  -2   0   76.74    5.57
  -5  -2   0   81.75    5.88
  -5  -2   0   79.81    3.67
  -5  -2   0   82.29    4.44
  -5  -2   0   73.71    4.74
   5   2   0   79.45    4.54
   5   2   0   79.45    4.54
  -5  -2  -1   23.24    3.74
  -5  -2  -1   19.25    3.66
  -5  -2  -1   18.87    2.67
  -5  -2  -1   24.68    3.49
  -5  -2  -1   23.24    3.74
  -5  -2  -1   19.25    3.66
  -5  -2  -1   18.87    2.67
  -5  -2  -1   24.68    3.49
  -5  -2  -2    7.73    3.41
  -5  -2  -2    8.07    3.35
  -5  -2  -2    5.03    3.01
  -5  -2  -2    5.60    2.02
  -5  -2  -2    7.95    3.06
  -5  -2  -2    7.73    3.41
  -5  -2  -2    8.07    3.35
  -5  -2  -2    5.03    3.01
  -5  -2  -2    5.60    2.02
  -5  -2  -2    7.95    3.06
  -5  -2  -3   60.72    5.95
  -5  -2  -3   68.40    5.84
  -5  -2  -3   67.09    2.95
  -5  -2  -3   61.09    5.35
  -5  -2  -3   60.72    5.95
  -5  -2  -3   68.40    5.84
  -5  -2  -3   67.09    2.95
  -5  -2  -3   61.09    5.35
  -5  -2  -4   71.50    6.26
  -5  -2  -4   85.59    2.53
  -5  -2  -4   86.93    2.47
  -5  -2  -4   86.74    6.22
  -5  -2  -4   71.50    6.26
  -5  -2  -4   85.59    2.53
  -5  -2  -4   86.93    2.47
  -5  -2  -4   86.74    6.22
  -5  -2  -5    1.22    3.25
  -5  -2  -5    0.39    3.07
  -5  -2  -5    0.45    3.37
  -5  -2  -5    1.22    3.25
  -5  -2  -5    0.39    3.07
  -5  -2  -5    0.45    3.37
  -5  -2  -6    8.89    4.08
  -5  -2  -6    6.01    3.46
  -5  -2  -6    5.56    3.75
  -5  -2  -6    8.89    4.08
  -5  -2  -6    6.01    3.46
  -5  -2  -6    5.56    3.75
  -5  -2  -7   21.63    4.69
  -5  -2  -7   25.11    4.26
  -5  -2  -7   19.74    4.43
  -5  -2  -7   21.63    4.69
  -5  -2  -7   25.11    4.26
  -5  -2  -7   19.74    4.43
  -5  -2  -8   83.91    7.29
  -5  -2  -8   78.48    6.84
  -5  -2  -8   74.61    7.06
  -5  -2  -8   83.91    7.29
  -5  -2  -8   78.48    6.84
  -5  -2  -8   74.61    7.06
  -5  -2  -9  164.33    8.18
  -5  -2  -9  154.92    3.80
  -5  -2  -9  135.31    8.11
  -5  -2  -9  164.33    8.18
  -5  -2  -9  154.92    3.80
  -5  -2  -9  135.31    8.11
  -5  -2 -10  176.43    8.53
  -5  -2 -10  176.43    8.53
  -5  -2 -11    5.34    4.26
  -5  -2 -11    1.75    2.55
  -5  -2 -11    5.34    4.26
  -5  -2 -11    1.75    2.55
  -5  -2 -12   19.43    5.06
  -5  -2 -12   19.43    5.06
  -5  -2 -13   47.46    6.28
  -5  -2 -13   42.58    4.99
  -5  -2 -13   47.46    6.28
  -5  -2 -13   42.58    4.99
  -5  -2 -14    4.20    4.50
  -5  -2 -14    3.48    3.59
  -5  -2 -14    4.20    4.50
  -5  -2 -14    3.48    3.59
   5   3 -12   12.25    6.08
   5   3 -12   12.25    6.08
  -5  -3  11   71.18    8.53
  -5  -3  11   71.18    8.53
   5   3 -11   83.52    8.46
   5   3 -11   83.52    8.46
  -5  -3  10   72.67    8.13
  -5  -3  10   72.67    8.13
   5   3 -10   54.41    7.04
   5   3 -10   64.72    8.04
   5   3 -10   54.41    7.04
   5   3 -10   64.72    8.04
  -5  -3   9    0.64    4.70
  -5  -3   9    0.64    4.70
   5   3  -9   -2.94    4.69
   5   3  -9    5.23    4.98
   5   3  -9   -2.94    4.69
   5   3  -9    5.23    4.98
  -5  -3   8   12.89    4.90
  -5  -3   8   12.89    4.90
   5   3  -8   14.54    4.75
   5   3  -8   15.36    5.06
   5   3  -8   14.54    4.75
   5   3  -8   15.36    5.06
  -5  -3   7    5.46    4.45
  -5  -3   7   15.15    4.73
  -5  -3   7    5.46    4.45
  -5  -3   7   15.15    4.73
   5   3  -7    8.97    4.43
   5   3  -7   11.49    4.67
   5   3  -7    8.97    4.43
   5   3  -7   11.49    4.67
  -5  -3   6   23.67    4.69
  -5  -3   6   29.31    4.86
  -5  -3   6   23.67    4.69
  -5  -3   6   29.31    4.86
   5   3  -6   18.39    4.50
   5   3  -6   28.73    4.82
   5   3  -6   18.39    4.50
   5   3  -6   28.73    4.82
  -5  -3   5   26.66    4.50
  -5  -3   5   32.14    4.54
  -5  -3   5   32.94    4.61
  -5  -3   5   26.66    4.50
  -5  -3   5   32.14    4.54
  -5  -3   5   32.94    4.61
   5   3  -5   32.64    4.97
   5   3  -5   39.43    4.88
   5   3  -5   32.64    4.97
   5   3  -5   39.43    4.88
  -5  -3   4   54.81    5.92
  -5  -3   4   47.86    5.56
  -5  -3   4   45.98    5.62
  -5  -3   4   54.81    5.92
  -5  -3   4   47.86    5.56
  -5  -3   4   45.98    5.62
   5   3  -4   48.98    5.54
   5   3  -4   47.23    4.75
   5   3  -4   48.98    5.54
   5   3  -4   47.23    4.75
  -5  -3   3   53.50    5.11
  -5  -3   3   50.84    5.91
  -5  -3   3   60.45    5.23
  -5  -3   3   51.22    5.20
  -5  -3   3   53.50    5.11
  -5  -3   3   50.84    5.91
  -5  -3   3   60.45    5.23
  -5  -3   3   51.22    5.20
   5   3  -3   53.62    5.22
   5   3  -3   53.69    5.19
   5   3  -3   53.62    5.22
   5   3  -3   53.69    5.19
  -5  -3   2  130.98    6.15
  -5  -3   2  129.85    6.49
  -5  -3   2  131.15    5.71
  -5  -3   2  133.94    5.84
  -5  -3   2  130.98    6.15
  -5  -3   2  129.85    6.49
  -5  -3   2  131.15    5.71
  -5  -3   2  133.94    5.84
   5   3  -2  127.57    6.30
   5   3  -2  133.41    5.82
   5   3  -2  127.57    6.30
   5   3  -2  133.41    5.82
  -5  -3   1   67.00    5.39
  -5  -3   1   68.76    5.53
  -5  -3   1   66.87    4.44
  -5  -3   1   67.96    4.62
  -5  -3   1   67.00    5.39
  -5  -3   1   68.76    5.53
  -5  -3   1   66.87    4.44
  -5  -3   1   67.96    4.62
   5   3  -1   66.40    5.10
   5   3  -1   66.40    5.10
  -5  -3   0   11.32    3.25
  -5  -3   0    7.45    3.21
  -5  -3   0   10.89    2.31
  -5  -3   0   12.44    2.83
  -5  -3   0   11.32    3.25
  -5  -3   0    7.45    3.21
  -5  -3   0   10.89    2.31
  -5  -3   0   12.44    2.83
   5   3   0    8.53    2.72
   5   3   0    8.53    2.72
  -5  -3  -1   90.38    5.38
  -5  -3  -1   95.04    5.72
  -5  -3  -1  102.28    4.34
  -5  -3  -1   72.52    5.05
  -5  -3  -1   90.38    5.38
  -5  -3  -1   95.04    5.72
  -5  -3  -1  102.28    4.34
  -5  -3  -1   72.52    5.05
   5   3   1   98.25    4.71
   5   3   1   98.25    4.71
  -5  -3  -2   36.28    4.15
  -5  -3  -2   42.71    5.31
  -5  -3  -2   40.08    3.44
  -5  -3  -2   38.51    4.03
  -5  -3  -2   36.28    4.15
  -5  -3  -2   42.71    5.31
  -5  -3  -2   40.08    3.44
  -5  -3  -2   38.51    4.03
  -5  -3  -3    5.59    3.39
  -5  -3  -3    8.58    1.30
  -5  -3  -3    8.47    2.06
  -5  -3  -3    5.76    3.22
  -5  -3  -3    5.59    3.39
  -5  -3  -3    8.58    1.30
  -5  -3  -3    8.47    2.06
  -5  -3  -3    5.76    3.22
  -5  -3  -4   55.73    5.20
  -5  -3  -4   65.00    3.12
  -5  -3  -4   54.71    5.60
  -5  -3  -4   55.73    5.20
  -5  -3  -4   65.00    3.12
  -5  -3  -4   54.71    5.60
  -5  -3  -5   33.03    4.53
  -5  -3  -5   37.09    2.55
  -5  -3  -5   31.66    4.30
  -5  -3  -5   33.03    4.53
  -5  -3  -5   37.09    2.55
  -5  -3  -5   31.66    4.30
  -5  -3  -6    5.53    3.94
  -5  -3  -6    6.89    3.44
  -5  -3  -6    7.47    1.61
  -5  -3  -6    4.03    3.88
  -5  -3  -6    5.53    3.94
  -5  -3  -6    6.89    3.44
  -5  -3  -6    7.47    1.61
  -5  -3  -6    4.03    3.88
  -5  -3  -7    6.36    3.86
  -5  -3  -7    8.53    3.59
  -5  -3  -7    5.34    1.72
  -5  -3  -7    8.63    4.05
  -5  -3  -7    6.36    3.86
  -5  -3  -7    8.53    3.59
  -5  -3  -7    5.34    1.72
  -5  -3  -7    8.63    4.05
  -5  -3  -8    1.18    4.19
  -5  -3  -8    1.54    3.44
  -5  -3  -8   -0.07    1.87
  -5  -3  -8    3.92    4.02
  -5  -3  -8    1.18    4.19
  -5  -3  -8    1.54    3.44
  -5  -3  -8   -0.07    1.87
  -5  -3  -8    3.92    4.02
  -5  -3  -9    1.12    3.59
  -5  -3  -9    2.02    2.21
  -5  -3  -9    2.72    4.31
  -5  -3  -9    1.12    3.59
  -5  -3  -9    2.02    2.21
  -5  -3  -9    2.72    4.31
  -5  -3 -10    4.66    3.86
  -5  -3 -10    4.21    2.60
  -5  -3 -10    4.45    4.74
  -5  -3 -10    4.66    3.86
  -5  -3 -10    4.21    2.60
  -5  -3 -10    4.45    4.74
  -5  -3 -11    2.78    4.06
  -5  -3 -11    3.23    2.85
  -5  -3 -11    0.24    4.94
  -5  -3 -11    2.78    4.06
  -5  -3 -11    3.23    2.85
  -5  -3 -11    0.24    4.94
  -5  -3 -12    3.46    3.88
  -5  -3 -12    6.79    3.31
  -5  -3 -12    3.46    3.88
  -5  -3 -12    6.79    3.31
  -5  -3 -13   17.12    4.71
  -5  -3 -13   17.12    4.71
  -5  -3 -14   26.02    4.45
  -5  -3 -14   26.02    4.45
  -5  -4  11   56.07    7.47
  -5  -4  11   56.07    7.47
   5   4 -11   43.55    6.40
   5   4 -11   50.92    7.18
   5   4 -11   53.53    7.52
   5   4 -11   43.55    6.40
   5   4 -11   50.92    7.18
   5   4 -11   53.53    7.52
  -5  -4  10   36.41    6.49
  -5  -4  10   36.41    6.49
   5   4 -10   36.48    6.47
   5   4 -10   36.87    6.54
   5   4 -10   36.48    6.47
   5   4 -10   36.87    6.54
  -5  -4   9   46.18    6.38
  -5  -4   9   46.18    6.38
   5   4  -9   49.08    6.35
   5   4  -9   51.97    6.75
   5   4  -9   49.08    6.35
   5   4  -9   51.97    6.75
  -5  -4   8   -2.08    4.52
  -5  -4   8   -2.08    4.52
   5   4  -8    2.51    4.42
   5   4  -8    4.30    4.76
   5   4  -8    2.51    4.42
   5   4  -8    4.30    4.76
  -5  -4   7   81.75    7.21
  -5  -4   7   82.69    6.93
  -5  -4   7   81.75    7.21
  -5  -4   7   82.69    6.93
   5   4  -7   83.10    7.78
   5   4  -7   77.96    7.48
   5   4  -7   83.10    7.78
   5   4  -7   77.96    7.48
  -5  -4   6  147.59    7.68
  -5  -4   6  144.66    7.58
  -5  -4   6  147.59    7.68
  -5  -4   6  144.66    7.58
   5   4  -6  158.44    8.58
   5   4  -6  141.82    7.84
   5   4  -6  158.44    8.58
   5   4  -6  141.82    7.84
  -5  -4   5  228.05    8.27
  -5  -4   5  226.00    8.23
  -5  -4   5  228.05    8.27
  -5  -4   5  226.00    8.23
   5   4  -5  223.02    8.90
   5   4  -5  220.04    8.27
   5   4  -5  223.02    8.90
   5   4  -5  220.04    8.27
  -5  -4   4    3.38    3.17
  -5  -4   4    4.25    4.24
  -5  -4   4    5.34    3.56
  -5  -4   4    3.48    3.69
  -5  -4   4    3.38    3.17
  -5  -4   4    4.25    4.24
  -5  -4   4    5.34    3.56
  -5  -4   4    3.48    3.69
   5   4  -4    7.91    3.72
   5   4  -4    8.43    3.96
   5   4  -4    7.91    3.72
   5   4  -4    8.43    3.96
  -5  -4   3   27.49    3.40
  -5  -4   3   26.65    4.23
  -5  -4   3   21.98    3.76
  -5  -4   3   23.49    3.98
  -5  -4   3   27.49    3.40
  -5  -4   3   26.65    4.23
  -5  -4   3   21.98    3.76
  -5  -4   3   23.49    3.98
   5   4  -3   27.49    4.43
   5   4  -3   22.86    4.11
   5   4  -3   27.49    4.43
   5   4  -3   22.86    4.11
  -5  -4   2    4.57    2.81
  -5  -4   2    2.99    3.07
  -5  -4   2    0.34    2.82
  -5  -4   2    2.39    3.07
  -5  -4   2    4.57    2.81
  -5  -4   2    2.99    3.07
  -5  -4   2    0.34    2.82
  -5  -4   2    2.39    3.07
   5   4  -2    6.86    3.14
   5   4  -2    4.85    3.20
   5   4  -2    6.86    3.14
   5   4  -2    4.85    3.20
  -5  -4   1  132.71    5.38
  -5  -4   1  141.68    5.82
  -5  -4   1  136.65    5.44
  -5  -4   1  140.78    5.71
  -5  -4   1  132.71    5.38
  -5  -4   1  141.68    5.82
  -5  -4   1  136.65    5.44
  -5  -4   1  140.78    5.71
   5   4  -1  139.53    6.24
   5   4  -1  139.53    6.24
  -5  -4   0  120.47    5.17
  -5  -4   0  131.84    5.65
  -5  -4   0  134.13    4.63
  -5  -4   0  129.78    5.16
  -5  -4   0  120.47    5.17
  -5  -4   0  131.84    5.65
  -5  -4   0  134.13    4.63
  -5  -4   0  129.78    5.16
   5   4   0  129.70    5.69
   5   4   0  129.70    5.69
  -5  -4  -1   89.43    5.30
  -5  -4  -1   87.90    4.61
  -5  -4  -1   89.43    5.30
  -5  -4  -1   87.90    4.61
   5   4   1   85.82    4.71
   5   4   1   85.82    4.71
  -5  -4  -2   50.25    5.61
  -5  -4  -2   50.29    3.81
  -5  -4  -2   50.25    5.61
  -5  -4  -2   50.29    3.81
   5   4   2   54.65    4.32
   5   4   2   54.65    4.32
  -5  -4  -3  145.65    6.80
  -5  -4  -3  163.70    4.74
  -5  -4  -3  145.65    6.80
  -5  -4  -3  163.70    4.74
  -5  -4  -4   74.99    6.06
  -5  -4  -4   75.49    3.81
  -5  -4  -4   75.45    5.83
  -5  -4  -4   74.99    6.06
  -5  -4  -4   75.49    3.81
  -5  -4  -4   75.45    5.83
  -5  -4  -5   16.83    3.82
  -5  -4  -5   19.15    2.46
  -5  -4  -5   15.42    3.94
  -5  -4  -5   16.83    3.82
  -5  -4  -5   19.15    2.46
  -5  -4  -5   15.42    3.94
  -5  -4  -6   17.78    4.31
  -5  -4  -6   15.05    2.37
  -5  -4  -6   13.88    4.23
  -5  -4  -6   17.78    4.31
  -5  -4  -6   15.05    2.37
  -5  -4  -6   13.88    4.23
  -5  -4  -7   -2.04    3.56
  -5  -4  -7    0.33    2.13
  -5  -4  -7    1.68    3.84
  -5  -4  -7   -2.04    3.56
  -5  -4  -7    0.33    2.13
  -5  -4  -7    1.68    3.84
  -5  -4  -8    7.03    3.49
  -5  -4  -8    7.94    2.53
  -5  -4  -8    9.75    4.37
  -5  -4  -8    7.03    3.49
  -5  -4  -8    7.94    2.53
  -5  -4  -8    9.75    4.37
  -5  -4  -9   42.22    4.79
  -5  -4  -9   50.80    4.12
  -5  -4  -9   47.11    5.78
  -5  -4  -9   42.22    4.79
  -5  -4  -9   50.80    4.12
  -5  -4  -9   47.11    5.78
  -5  -4 -10    9.90    3.84
  -5  -4 -10    7.71    2.94
  -5  -4 -10   13.35    4.95
  -5  -4 -10    9.90    3.84
  -5  -4 -10    7.71    2.94
  -5  -4 -10   13.35    4.95
  -5  -4 -11   -0.55    3.21
  -5  -4 -11   -0.99    3.00
  -5  -4 -11    1.48    4.91
  -5  -4 -11   -0.55    3.21
  -5  -4 -11   -0.99    3.00
  -5  -4 -11    1.48    4.91
  -5  -4 -12   16.96    3.84
  -5  -4 -12   20.70    5.83
  -5  -4 -12   16.96    3.84
  -5  -4 -12   20.70    5.83
  -5  -4 -13   -1.73    3.63
  -5  -4 -13   -1.73    3.63
  -5  -4 -14    0.59    3.89
  -5  -4 -14    0.59    3.89
   5   5 -11   -0.89    4.63
   5   5 -11    8.43    5.69
   5   5 -11   -0.89    4.63
   5   5 -11    8.43    5.69
  -5  -5  10    0.35    5.39
  -5  -5  10    0.35    5.39
   5   5 -10    0.55    4.59
   5   5 -10    8.93    5.39
   5   5 -10    4.54    5.45
   5   5 -10    0.55    4.59
   5   5 -10    8.93    5.39
   5   5 -10    4.54    5.45
  -5  -5   9    1.00    4.99
  -5  -5   9    1.00    4.99
   5   5  -9    1.61    4.50
   5   5  -9   -1.99    4.98
   5   5  -9    8.36    5.47
   5   5  -9    1.61    4.50
   5   5  -9   -1.99    4.98
   5   5  -9    8.36    5.47
  -5  -5   8    0.05    4.69
  -5  -5   8    0.05    4.69
   5   5  -8    0.74    4.36
   5   5  -8    3.15    4.55
   5   5  -8    4.30    4.96
   5   5  -8    0.74    4.36
   5   5  -8    3.15    4.55
   5   5  -8    4.30    4.96
  -5  -5   7   11.23    4.81
  -5  -5   7   11.23    4.81
   5   5  -7   16.76    5.21
   5   5  -7   16.09    5.16
   5   5  -7   16.76    5.21
   5   5  -7   16.09    5.16
  -5  -5   6   34.80    5.19
  -5  -5   6   29.17    5.11
  -5  -5   6   34.80    5.19
  -5  -5   6   29.17    5.11
   5   5  -6   36.08    5.62
   5   5  -6   30.91    4.90
   5   5  -6   36.08    5.62
   5   5  -6   30.91    4.90
  -5  -5   5  261.77    8.79
  -5  -5   5  261.77    8.36
  -5  -5   5  261.77    8.79
  -5  -5   5  261.77    8.36
   5   5  -5  263.86    9.04
   5   5  -5  268.58    9.09
   5   5  -5  263.86    9.04
   5   5  -5  268.58    9.09
  -5  -5   4  152.18    6.20
  -5  -5   4  160.03    7.45
  -5  -5   4  155.15    7.20
  -5  -5   4  152.18    6.20
  -5  -5   4  160.03    7.45
  -5  -5   4  155.15    7.20
   5   5  -4  149.84    8.02
   5   5  -4  160.00    7.40
   5   5  -4  149.84    8.02
   5   5  -4  160.00    7.40
  -5  -5   3   11.65    3.46
  -5  -5   3    7.72    3.55
  -5  -5   3   11.15    3.53
  -5  -5   3   11.65    3.46
  -5  -5   3    7.72    3.55
  -5  -5   3   11.15    3.53
   5   5  -3    7.60    3.69
   5   5  -3    6.85    3.69
   5   5  -3    7.60    3.69
   5   5  -3    6.85    3.69
  -5  -5   2   16.28    2.90
  -5  -5   2   20.35    3.42
  -5  -5   2   15.96    3.53
  -5  -5   2   17.18    3.54
  -5  -5   2   16.28    2.90
  -5  -5   2   20.35    3.42
  -5  -5   2   15.96    3.53
  -5  -5   2   17.18    3.54
   5   5  -2   17.47    3.71
   5   5  -2   17.47    3.71
  -5  -5   1  270.05    6.71
  -5  -5   1  262.54    7.02
  -5  -5   1  250.01    7.15
  -5  -5   1  270.05    6.71
  -5  -5   1  262.54    7.02
  -5  -5   1  250.01    7.15
   5   5  -1  268.75    8.02
   5   5  -1  268.75    8.02
  -5  -5   0   19.67    3.26
  -5  -5   0   23.38    3.13
  -5  -5   0   21.12    3.42
  -5  -5   0   19.67    3.26
  -5  -5   0   23.38    3.13
  -5  -5   0   21.12    3.42
   5   5   0   19.82    3.55
   5   5   0   19.82    3.55
  -5  -5  -1   61.14    5.56
  -5  -5  -1   67.15    4.87
  -5  -5  -1   61.14    5.56
  -5  -5  -1   67.15    4.87
   5   5   1   66.22    5.13
   5   5   1   66.22    5.13
  -5  -5  -2    2.54    3.25
  -5  -5  -2    1.63    2.63
  -5  -5  -2    2.54    3.25
  -5  -5  -2    1.63    2.63
   5   5   2   -3.50    2.52
   5   5   2   -3.50    2.52
  -5  -5  -3   68.02    6.02
  -5  -5  -3   73.29    4.39
  -5  -5  -3   68.02    6.02
  -5  -5  -3   73.29    4.39
  -5  -5  -4  349.86    8.84
  -5  -5  -4  351.71    6.68
  -5  -5  -4  349.86    8.84
  -5  -5  -4  351.71    6.68
  -5  -5  -5   -1.28    3.68
  -5  -5  -5    0.14    1.80
  -5  -5  -5   -0.02    2.48
  -5  -5  -5   -1.55    3.62
  -5  -5  -5   -1.28    3.68
  -5  -5  -5    0.14    1.80
  -5  -5  -5   -0.02    2.48
  -5  -5  -5   -1.55    3.62
  -5  -5  -6    1.35    3.99
  -5  -5  -6    1.97    1.41
  -5  -5  -6    1.86    2.65
  -5  -5  -6    3.61    4.00
  -5  -5  -6    1.35    3.99
  -5  -5  -6    1.97    1.41
  -5  -5  -6    1.86    2.65
  -5  -5  -6    3.61    4.00
  -5  -5  -7  562.30   11.85
  -5  -5  -7  577.86    8.21
  -5  -5  -7  486.28   10.96
  -5  -5  -7  562.30   11.85
  -5  -5  -7  577.86    8.21
  -5  -5  -7  486.28   10.96
  -5  -5  -8  168.72    5.66
  -5  -5  -8  150.08    8.13
  -5  -5  -8  168.72    5.66
  -5  -5  -8  150.08    8.13
  -5  -5  -9   16.77    3.40
  -5  -5  -9   20.13    5.17
  -5  -5  -9   16.77    3.40
  -5  -5  -9   20.13    5.17
  -5  -5 -10   25.62    3.76
  -5  -5 -10   34.51    5.64
  -5  -5 -10   25.62    3.76
  -5  -5 -10   34.51    5.64
  -5  -5 -11   21.38    4.05
  -5  -5 -11   22.32    5.46
  -5  -5 -11   21.38    4.05
  -5  -5 -11   22.32    5.46
  -5  -5 -12    1.74    3.63
  -5  -5 -12  -11.21    4.93
  -5  -5 -12    1.74    3.63
  -5  -5 -12  -11.21    4.93
  -5  -5 -13    9.13    4.10
  -5  -5 -13    9.13    4.10
   5   6 -11   18.69    5.45
   5   6 -11   12.95    6.14
   5   6 -11   18.69    5.45
   5   6 -11   12.95    6.14
  -5  -6  10    3.06    5.50
  -5  -6  10    3.06    5.50
   5   6 -10    7.61    4.95
   5   6 -10    2.20    5.45
   5   6 -10    0.95    5.61
   5   6 -10    7.61    4.95
   5   6 -10    2.20    5.45
   5   6 -10    0.95    5.61
  -5  -6   9    4.64    5.28
  -5  -6   9    4.64    5.28
   5   6  -9    6.51    4.79
   5   6  -9    8.66    5.62
   5   6  -9    7.32    5.54
   5   6  -9    6.51    4.79
   5   6  -9    8.66    5.62
   5   6  -9    7.32    5.54
  -5  -6   8    0.31    4.83
  -5  -6   8    0.31    4.83
   5   6  -8    3.06    4.45
   5   6  -8    4.76    5.08
   5   6  -8    3.55    5.18
   5   6  -8    3.06    4.45
   5   6  -8    4.76    5.08
   5   6  -8    3.55    5.18
  -5  -6   7    2.13    4.66
  -5  -6   7    2.13    4.66
   5   6  -7    0.96    4.32
   5   6  -7   -0.66    4.75
   5   6  -7    1.37    4.79
   5   6  -7    0.96    4.32
   5   6  -7   -0.66    4.75
   5   6  -7    1.37    4.79
  -5  -6   6   12.30    4.75
  -5  -6   6    8.07    4.49
  -5  -6   6   12.30    4.75
  -5  -6   6    8.07    4.49
   5   6  -6    7.13    4.32
   5   6  -6    1.28    4.68
   5   6  -6    7.07    4.71
   5   6  -6    7.13    4.32
   5   6  -6    1.28    4.68
   5   6  -6    7.07    4.71
  -5  -6   5    4.81    3.85
  -5  -6   5    1.22    4.09
  -5  -6   5    4.81    3.85
  -5  -6   5    1.22    4.09
   5   6  -5    4.67    4.17
   5   6  -5    0.80    4.42
   5   6  -5    0.93    4.28
   5   6  -5    4.67    4.17
   5   6  -5    0.80    4.42
   5   6  -5    0.93    4.28
  -5  -6   4   57.18    6.43
  -5  -6   4   56.10    6.10
  -5  -6   4   57.18    6.43
  -5  -6   4   56.10    6.10
   5   6  -4   54.79    6.13
   5   6  -4   62.70    6.46
   5   6  -4   64.76    6.70
   5   6  -4   54.79    6.13
   5   6  -4   62.70    6.46
   5   6  -4   64.76    6.70
  -5  -6   3  190.11    7.61
  -5  -6   3  190.90    7.63
  -5  -6   3  190.11    7.61
  -5  -6   3  190.90    7.63
   5   6  -3  190.71    7.65
   5   6  -3  200.54    8.62
   5   6  -3  190.71    7.65
   5   6  -3  200.54    8.62
  -5  -6   2   79.09    5.97
  -5  -6   2   78.88    5.97
  -5  -6   2   79.09    5.97
  -5  -6   2   78.88    5.97
   5   6  -2   82.88    6.15
   5   6  -2   77.33    6.19
   5   6  -2   82.88    6.15
   5   6  -2   77.33    6.19
  -5  -6   1  286.98    6.43
  -5  -6   1  281.36    7.51
  -5  -6   1  279.62    7.94
  -5  -6   1  286.98    6.43
  -5  -6   1  281.36    7.51
  -5  -6   1  279.62    7.94
   5   6  -1  293.02    7.73
   5   6  -1  302.28    8.37
   5   6  -1  293.02    7.73
   5   6  -1  302.28    8.37
  -5  -6   0  266.97    7.09
  -5  -6   0  271.12    7.56
  -5  -6   0  266.97    7.09
  -5  -6   0  271.12    7.56
   5   6   0  279.74    7.63
   5   6   0  288.90    8.34
   5   6   0  279.74    7.63
   5   6   0  288.90    8.34
  -5  -6  -1   72.95    6.16
  -5  -6  -1   72.48    5.53
  -5  -6  -1   72.95    6.16
  -5  -6  -1   72.48    5.53
   5   6   1   77.43    5.89
   5   6   1   77.43    5.89
  -5  -6  -2   21.70    3.85
  -5  -6  -2   15.84    3.29
  -5  -6  -2   21.70    3.85
  -5  -6  -2   15.84    3.29
   5   6   2   22.01    3.62
   5   6   2   22.01    3.62
  -5  -6  -3   46.88    5.51
  -5  -6  -3   48.91    4.81
  -5  -6  -3   46.88    5.51
  -5  -6  -3   48.91    4.81
  -5  -6  -4    2.94    3.61
  -5  -6  -4    3.12    3.02
  -5  -6  -4    2.94    3.61
  -5  -6  -4    3.12    3.02
  -5  -6  -5   50.45    6.12
  -5  -6  -5   49.55    4.62
  -5  -6  -5   50.45    6.12
  -5  -6  -5   49.55    4.62
  -5  -6  -6   -0.82    3.82
  -5  -6  -6   -0.15    2.18
  -5  -6  -6    2.84    3.08
  -5  -6  -6   -0.08    3.84
  -5  -6  -6   -0.82    3.82
  -5  -6  -6   -0.15    2.18
  -5  -6  -6    2.84    3.08
  -5  -6  -6   -0.08    3.84
  -5  -6  -7   13.02    2.32
  -5  -6  -7   12.25    3.42
  -5  -6  -7   13.74    4.60
  -5  -6  -7   13.02    2.32
  -5  -6  -7   12.25    3.42
  -5  -6  -7   13.74    4.60
  -5  -6  -8   79.41    3.19
  -5  -6  -8  167.18    6.30
  -5  -6  -8  138.75    8.04
  -5  -6  -8   79.41    3.19
  -5  -6  -8  167.18    6.30
  -5  -6  -8  138.75    8.04
  -5  -6  -9  113.03    6.00
  -5  -6  -9  103.84    7.87
  -5  -6  -9  113.03    6.00
  -5  -6  -9  103.84    7.87
  -5  -6 -10    3.95    3.64
  -5  -6 -10    7.64    5.13
  -5  -6 -10    3.95    3.64
  -5  -6 -10    7.64    5.13
  -5  -6 -11   -0.98    3.50
  -5  -6 -11    0.27    4.90
  -5  -6 -11   -0.98    3.50
  -5  -6 -11    0.27    4.90
  -5  -6 -12   16.17    4.43
  -5  -6 -12   11.88    5.48
  -5  -6 -12   16.17    4.43
  -5  -6 -12   11.88    5.48
  -5  -6 -13    7.45    4.48
  -5  -6 -13    7.45    4.48
  -5  -6 -14    0.78    4.55
  -5  -6 -14    0.78    4.55
  -5  -7  10   -5.44    5.55
  -5  -7  10   -5.44    5.55
   5   7 -10    5.01    5.21
   5   7 -10    0.29    5.44
   5   7 -10    5.01    5.21
   5   7 -10    0.29    5.44
  -5  -7   9    4.07    5.63
  -5  -7   9    4.07    5.63
   5   7  -9   -1.44    4.62
   5   7  -9    1.19    5.37
   5   7  -9   -1.44    4.62
   5   7  -9    1.19    5.37
  -5  -7   8    5.02    5.45
  -5  -7   8    5.02    5.45
   5   7  -8    2.06    4.59
   5   7  -8    3.97    5.25
   5   7  -8   14.78    5.74
   5   7  -8    2.06    4.59
   5   7  -8    3.97    5.25
   5   7  -8   14.78    5.74
  -5  -7   7    1.51    5.01
  -5  -7   7    1.51    5.01
   5   7  -7    9.41    4.82
   5   7  -7    3.86    5.11
   5   7  -7    7.19    5.34
   5   7  -7    9.41    4.82
   5   7  -7    3.86    5.11
   5   7  -7    7.19    5.34
  -5  -7   6    7.91    4.84
  -5  -7   6    7.91    4.84
   5   7  -6    8.09    4.56
   5   7  -6    3.54    4.90
   5   7  -6    4.57    4.93
   5   7  -6    8.09    4.56
   5   7  -6    3.54    4.90
   5   7  -6    4.57    4.93
  -5  -7   5  101.04    7.97
  -5  -7   5   98.19    7.47
  -5  -7   5  101.04    7.97
  -5  -7   5   98.19    7.47
   5   7  -5  104.07    7.23
   5   7  -5  102.95    8.46
   5   7  -5   91.55    7.88
   5   7  -5  104.07    7.23
   5   7  -5  102.95    8.46
   5   7  -5   91.55    7.88
  -5  -7   4   39.17    5.27
  -5  -7   4   41.40    5.40
  -5  -7   4   39.17    5.27
  -5  -7   4   41.40    5.40
   5   7  -4   38.64    5.22
   5   7  -4   52.30    6.18
   5   7  -4   38.64    5.22
   5   7  -4   52.30    6.18
  -5  -7   3    2.34    3.81
  -5  -7   3    0.79    3.51
  -5  -7   3    2.34    3.81
  -5  -7   3    0.79    3.51
   5   7  -3    5.09    4.01
   5   7  -3    0.20    4.22
   5   7  -3    5.09    4.01
   5   7  -3    0.20    4.22
  -5  -7   2   21.26    4.20
  -5  -7   2   24.83    4.58
  -5  -7   2   21.26    4.20
  -5  -7   2   24.83    4.58
   5   7  -2   20.59    4.41
   5   7  -2   21.36    4.72
   5   7  -2   20.59    4.41
   5   7  -2   21.36    4.72
  -5  -7   1   18.33    3.90
  -5  -7   1   19.03    4.23
  -5  -7   1   18.33    3.90
  -5  -7   1   19.03    4.23
   5   7  -1   21.25    4.17
   5   7  -1   17.22    4.46
   5   7  -1   21.25    4.17
   5   7  -1   17.22    4.46
  -5  -7   0    0.33    3.18
  -5  -7   0    2.29    3.42
  -5  -7   0    2.70    3.58
  -5  -7   0    0.33    3.18
  -5  -7   0    2.29    3.42
  -5  -7   0    2.70    3.58
   5   7   0   -2.88    3.36
   5   7   0   -0.43    3.67
   5   7   0   -2.88    3.36
   5   7   0   -0.43    3.67
  -5  -7  -1   63.92    6.03
  -5  -7  -1   70.46    5.56
  -5  -7  -1   63.92    6.03
  -5  -7  -1   70.46    5.56
  -5  -7  -2   31.62    4.28
  -5  -7  -2   34.04    4.23
  -5  -7  -2   31.62    4.28
  -5  -7  -2   34.04    4.23
  -5  -7  -3    8.24    3.54
  -5  -7  -3    8.81    3.35
  -5  -7  -3    8.24    3.54
  -5  -7  -3    8.81    3.35
  -5  -7  -4   41.38    4.58
  -5  -7  -4   35.03    4.28
  -5  -7  -4   41.38    4.58
  -5  -7  -4   35.03    4.28
  -5  -7  -5   33.28    4.65
  -5  -7  -5   38.22    4.32
  -5  -7  -5   33.28    4.65
  -5  -7  -5   38.22    4.32
  -5  -7  -6  101.82    6.87
  -5  -7  -6  122.19    5.39
  -5  -7  -6  108.52    6.02
  -5  -7  -6  101.82    6.87
  -5  -7  -6  122.19    5.39
  -5  -7  -6  108.52    6.02
  -5  -7  -7   31.40    3.38
  -5  -7  -7   33.71    4.31
  -5  -7  -7   21.36    4.79
  -5  -7  -7   31.40    3.38
  -5  -7  -7   33.71    4.31
  -5  -7  -7   21.36    4.79
  -5  -7  -8   26.87    3.12
  -5  -7  -8   21.46    4.09
  -5  -7  -8   28.24    5.50
  -5  -7  -8   26.87    3.12
  -5  -7  -8   21.46    4.09
  -5  -7  -8   28.24    5.50
  -5  -7  -9   -0.07    2.17
  -5  -7  -9    2.13    3.64
  -5  -7  -9    2.40    4.86
  -5  -7  -9   -0.07    2.17
  -5  -7  -9    2.13    3.64
  -5  -7  -9    2.40    4.86
  -5  -7 -10    2.25    3.79
  -5  -7 -10   -2.65    4.92
  -5  -7 -10    2.25    3.79
  -5  -7 -10   -2.65    4.92
  -5  -7 -11   -0.93    3.82
  -5  -7 -11    0.30    5.25
  -5  -7 -11   -0.93    3.82
  -5  -7 -11    0.30    5.25
  -5  -7 -12   10.08    4.57
  -5  -7 -12   10.08    4.57
  -5  -7 -13   13.51    4.82
  -5  -7 -13   13.51    4.82
  -5  -8   9   26.77    6.78
  -5  -8   9   26.77    6.78
   5   8  -9   19.54    5.52
   5   8  -9   27.46    6.41
   5   8  -9   19.54    5.52
   5   8  -9   27.46    6.41
  -5  -8   8   -4.30    5.29
  -5  -8   8   -4.30    5.29
   5   8  -8    4.61    4.81
   5   8  -8    3.82    5.38
   5   8  -8    4.61    4.81
   5   8  -8    3.82    5.38
  -5  -8   7   81.06    8.77
  -5  -8   7   81.06    8.77
   5   8  -7   86.01    7.40
   5   8  -7   76.71    7.46
   5   8  -7   86.01    7.40
   5   8  -7   76.71    7.46
  -5  -8   6  118.73    8.81
  -5  -8   6  118.73    8.81
   5   8  -6  108.20    8.13
   5   8  -6  109.67    8.69
   5   8  -6  108.20    8.13
   5   8  -6  109.67    8.69
  -5  -8   5   -3.35    4.35
  -5  -8   5   -3.35    4.35
   5   8  -5    1.85    4.01
   5   8  -5    6.83    4.98
   5   8  -5    1.85    4.01
   5   8  -5    6.83    4.98
  -5  -8   4   69.35    7.32
  -5  -8   4   55.31    6.83
  -5  -8   4   69.35    7.32
  -5  -8   4   55.31    6.83
   5   8  -4   52.16    5.87
   5   8  -4   52.14    6.07
   5   8  -4   52.16    5.87
   5   8  -4   52.14    6.07
  -5  -8   3   68.15    6.98
  -5  -8   3   52.70    6.53
  -5  -8   3   68.15    6.98
  -5  -8   3   52.70    6.53
   5   8  -3   58.06    6.68
   5   8  -3   60.44    6.82
   5   8  -3   58.06    6.68
   5   8  -3   60.44    6.82
  -5  -8   2    2.63    3.94
  -5  -8   2    5.93    4.19
  -5  -8   2    2.63    3.94
  -5  -8   2    5.93    4.19
   5   8  -2    6.02    3.79
   5   8  -2    2.10    4.05
   5   8  -2    6.02    3.79
   5   8  -2    2.10    4.05
  -5  -8   1   31.67    4.60
  -5  -8   1   30.53    4.86
  -5  -8   1   31.67    4.60
  -5  -8   1   30.53    4.86
   5   8  -1   33.21    4.88
   5   8  -1   32.17    5.21
   5   8  -1   33.21    4.88
   5   8  -1   32.17    5.21
  -5  -8   0   91.27    5.97
  -5  -8   0   82.15    6.34
  -5  -8   0   91.27    5.97
  -5  -8   0   82.15    6.34
   5   8   0   93.41    6.71
   5   8   0   93.41    6.71
  -5  -8  -1    0.46    3.27
  -5  -8  -1    0.97    3.72
  -5  -8  -1    0.46    3.27
  -5  -8  -1    0.97    3.72
  -5  -8  -2   59.57    5.70
  -5  -8  -2   65.40    5.83
  -5  -8  -2   59.57    5.70
  -5  -8  -2   65.40    5.83
  -5  -8  -3   26.13    4.10
  -5  -8  -3   16.00    3.99
  -5  -8  -3   26.13    4.10
  -5  -8  -3   16.00    3.99
  -5  -8  -4   12.27    3.81
  -5  -8  -4   11.31    3.81
  -5  -8  -4   12.27    3.81
  -5  -8  -4   11.31    3.81
  -5  -8  -5   11.95    4.07
  -5  -8  -5   16.58    3.93
  -5  -8  -5   11.95    4.07
  -5  -8  -5   16.58    3.93
  -5  -8  -6   25.79    3.94
  -5  -8  -6   31.63    4.66
  -5  -8  -6   25.79    3.94
  -5  -8  -6   31.63    4.66
  -5  -8  -7    4.12    3.34
  -5  -8  -7    4.89    3.70
  -5  -8  -7    4.12    3.34
  -5  -8  -7    4.89    3.70
  -5  -8  -8  100.02    5.69
  -5  -8  -8  101.27    6.26
  -5  -8  -8  100.02    5.69
  -5  -8  -8  101.27    6.26
  -5  -8  -9   77.47    5.25
  -5  -8  -9   76.53    6.38
  -5  -8  -9   78.76    7.89
  -5  -8  -9   77.47    5.25
  -5  -8  -9   76.53    6.38
  -5  -8  -9   78.76    7.89
  -5  -8 -10   12.63    2.97
  -5  -8 -10   13.57    4.57
  -5  -8 -10   14.55    5.69
  -5  -8 -10   12.63    2.97
  -5  -8 -10   13.57    4.57
  -5  -8 -10   14.55    5.69
  -5  -8 -11    3.13    4.32
  -5  -8 -11   -3.62    5.30
  -5  -8 -11    3.13    4.32
  -5  -8 -11   -3.62    5.30
  -5  -8 -12   16.76    4.97
  -5  -8 -12   16.76    4.97
  -5  -8 -13    1.42    4.63
  -5  -8 -13    1.42    4.63
  -5  -9   9   10.75    6.16
  -5  -9   9   10.75    6.16
   5   9  -9    6.66    5.11
   5   9  -9    9.36    6.05
   5   9  -9    6.66    5.11
   5   9  -9    9.36    6.05
  -5  -9   8    1.81    5.78
  -5  -9   8    1.81    5.78
   5   9  -8    0.97    4.80
   5   9  -8   -2.18    5.40
   5   9  -8    0.97    4.80
   5   9  -8   -2.18    5.40
  -5  -9   7   31.22    6.36
  -5  -9   7   31.22    6.36
   5   9  -7   36.61    6.02
   5   9  -7   31.07    6.50
   5   9  -7   36.61    6.02
   5   9  -7   31.07    6.50
  -5  -9   6   52.55    6.92
  -5  -9   6   52.55    6.92
   5   9  -6   46.27    6.15
   5   9  -6   45.87    6.88
   5   9  -6   46.27    6.15
   5   9  -6   45.87    6.88
  -5  -9   5   52.32    6.50
  -5  -9   5   52.32    6.50
   5   9  -5   54.47    6.37
   5   9  -5   59.62    7.14
   5   9  -5   54.47    6.37
   5   9  -5   59.62    7.14
  -5  -9   4   -0.45    4.57
  -5  -9   4    0.57    4.63
  -5  -9   4   -0.45    4.57
  -5  -9   4    0.57    4.63
   5   9  -4    7.10    4.69
   5   9  -4    3.37    5.07
   5   9  -4    7.10    4.69
   5   9  -4    3.37    5.07
  -5  -9   3   34.81    5.53
  -5  -9   3   32.46    5.61
  -5  -9   3   34.81    5.53
  -5  -9   3   32.46    5.61
   5   9  -3   30.12    5.43
   5   9  -3   30.12    5.43
  -5  -9   2   69.29    7.51
  -5  -9   2   72.04    7.10
  -5  -9   2   69.29    7.51
  -5  -9   2   72.04    7.10
   5   9  -2   66.64    6.92
   5   9  -2   66.64    6.92
  -5  -9   1   29.07    4.92
  -5  -9   1   35.08    5.38
  -5  -9   1   29.07    4.92
  -5  -9   1   35.08    5.38
   5   9  -1   27.54    5.07
   5   9  -1   27.54    5.07
  -5  -9   0   -0.31    4.13
  -5  -9   0   -0.31    4.13
   5   9   0   -2.28    4.05
   5   9   0   -2.28    4.05
  -5  -9  -1    2.91    4.03
  -5  -9  -1    2.91    4.03
  -5  -9  -2   -0.60    3.88
  -5  -9  -2   -0.60    3.88
  -5  -9  -3   48.28    6.00
  -5  -9  -3   48.28    6.00
  -5  -9  -4    9.82    4.23
  -5  -9  -4    9.82    4.23
  -5  -9  -5   31.85    5.07
  -5  -9  -5   31.85    5.07
  -5  -9  -6   10.92    4.04
  -5  -9  -6   11.60    4.54
  -5  -9  -6   10.92    4.04
  -5  -9  -6   11.60    4.54
  -5  -9  -7    5.93    3.93
  -5  -9  -7    4.84    4.34
  -5  -9  -7    5.93    3.93
  -5  -9  -7    4.84    4.34
  -5  -9  -8    0.31    3.66
  -5  -9  -8    2.62    4.33
  -5  -9  -8    0.31    3.66
  -5  -9  -8    2.62    4.33
  -5  -9  -9   31.86    4.43
  -5  -9  -9   35.35    5.30
  -5  -9  -9   20.93    5.92
  -5  -9  -9   31.86    4.43
  -5  -9  -9   35.35    5.30
  -5  -9  -9   20.93    5.92
  -5  -9 -10   51.95    5.59
  -5  -9 -10   66.94    6.46
  -5  -9 -10   64.61    7.58
  -5  -9 -10   51.95    5.59
  -5  -9 -10   66.94    6.46
  -5  -9 -10   64.61    7.58
  -5  -9 -11   22.02    5.35
  -5  -9 -11   22.02    5.35
  -5  -9 -12    5.27    4.90
  -5  -9 -12    5.27    4.90
  -5 -10   8   21.33    6.73
  -5 -10   8   21.33    6.73
   5  10  -8   13.96    5.82
   5  10  -8   13.96    5.82
  -5 -10   7    2.03    5.69
  -5 -10   7    2.03    5.69
   5  10  -7    3.37    5.29
   5  10  -7    3.37    5.29
  -5 -10   6   -0.71    5.35
  -5 -10   6   -0.71    5.35
   5  10  -6    4.42    5.02
   5  10  -6    4.42    5.02
  -5 -10   5    4.18    5.41
  -5 -10   5    4.18    5.41
   5  10  -5   -5.31    4.59
   5  10  -5   -5.31    4.59
  -5 -10   4   -1.95    4.79
  -5 -10   4   -1.95    4.79
   5  10  -4    2.39    4.78
   5  10  -4    2.39    4.78
  -5 -10   3    8.70    5.09
  -5 -10   3   11.78    5.23
  -5 -10   3    8.70    5.09
  -5 -10   3   11.78    5.23
   5  10  -3    4.40    4.85
   5  10  -3    4.40    4.85
  -5 -10   2   32.67    5.70
  -5 -10   2   38.96    5.99
  -5 -10   2   32.67    5.70
  -5 -10   2   38.96    5.99
   5  10  -2   34.06    5.71
   5  10  -2   34.06    5.71
  -5 -10   1   84.59    7.59
  -5 -10   1   84.59    7.59
   5  10  -1   84.21    7.48
   5  10  -1   84.21    7.48
  -5 -10   0   84.64    7.37
  -5 -10   0   84.64    7.37
   5  10   0   83.31    7.51
   5  10   0   83.31    7.51
  -5 -10  -1    1.58    4.38
  -5 -10  -1    1.58    4.38
  -5 -10  -2   38.41    5.65
  -5 -10  -2   38.41    5.65
  -5 -10  -3   83.17    7.06
  -5 -10  -3   83.17    7.06
  -5 -10  -4   -0.50    4.29
  -5 -10  -4   -0.50    4.29
  -5 -10  -5   50.83    5.99
  -5 -10  -5   50.83    5.99
  -5 -10  -6   62.56    6.57
  -5 -10  -6   66.08    6.68
  -5 -10  -6   62.56    6.57
  -5 -10  -6   66.08    6.68
  -5 -10  -7    3.33    4.19
  -5 -10  -7    1.99    4.70
  -5 -10  -7    3.33    4.19
  -5 -10  -7    1.99    4.70
  -5 -10  -8   19.21    4.79
  -5 -10  -8   18.45    5.27
  -5 -10  -8   19.21    4.79
  -5 -10  -8   18.45    5.27
  -5 -10  -9    8.05    4.16
  -5 -10  -9   12.29    5.19
  -5 -10  -9    7.07    5.40
  -5 -10  -9    8.05    4.16
  -5 -10  -9   12.29    5.19
  -5 -10  -9    7.07    5.40
  -5 -10 -10    0.19    3.86
  -5 -10 -10    3.47    4.66
  -5 -10 -10    2.24    5.80
  -5 -10 -10    0.19    3.86
  -5 -10 -10    3.47    4.66
  -5 -10 -10    2.24    5.80
  -5 -10 -11   34.57    4.54
  -5 -10 -11   42.45    6.20
  -5 -10 -11   34.57    4.54
  -5 -10 -11   42.45    6.20
  -5 -11   6   22.73    6.65
  -5 -11   6   22.73    6.65
   5  11  -6   25.70    5.97
   5  11  -6   25.70    5.97
  -5 -11   5   62.14    7.59
  -5 -11   5   62.14    7.59
   5  11  -5   49.79    6.75
   5  11  -5   49.79    6.75
  -5 -11   4   10.26    5.66
  -5 -11   4   10.26    5.66
   5  11  -4    6.23    5.29
   5  11  -4    6.23    5.29
  -5 -11   3   -1.04    5.09
  -5 -11   3   -1.04    5.09
   5  11  -3    3.86    5.10
   5  11  -3    3.86    5.10
   5  11  -2   10.27    4.89
   5  11  -2   10.27    4.89
  -5 -11   1   -2.59    4.81
  -5 -11   1   -2.59    4.81
   5  11  -1   -0.42    4.89
   5  11  -1   -0.42    4.89
  -5 -11   0    4.46    5.09
  -5 -11   0    4.46    5.09
   5  11   0   11.78    5.26
   5  11   0   11.78    5.26
  -5 -11  -1   10.28    5.16
  -5 -11  -1   10.28    5.16
  -5 -11  -2    9.67    5.05
  -5 -11  -2    9.67    5.05
  -5 -11  -3   58.54    6.71
  -5 -11  -3   58.54    6.71
  -5 -11  -4   63.21    7.20
  -5 -11  -4   63.21    7.20
  -5 -11  -5   16.14    5.36
  -5 -11  -5   16.14    5.36
  -5 -11  -6    0.47    4.54
  -5 -11  -6    1.57    4.76
  -5 -11  -6    0.47    4.54
  -5 -11  -6    1.57    4.76
  -5 -11  -7    0.13    4.46
  -5 -11  -7    1.85    5.09
  -5 -11  -7    0.13    4.46
  -5 -11  -7    1.85    5.09
  -5 -11  -8    1.42    4.44
  -5 -11  -8   -0.73    5.06
  -5 -11  -8    1.42    4.44
  -5 -11  -8   -0.73    5.06
  -5 -11  -9    0.02    4.30
  -5 -11  -9    3.23    5.28
  -5 -11  -9    0.02    4.30
  -5 -11  -9    3.23    5.28
  -5 -11 -10    0.14    4.13
  -5 -11 -10    4.34    5.11
  -5 -11 -10    0.14    4.13
  -5 -11 -10    4.34    5.11
   5  12  -4   35.48    6.46
   5  12  -4   35.48    6.46
   5  12  -3   15.63    5.82
   5  12  -3   15.63    5.82
   5  12  -2    2.87    5.42
   5  12  -2    2.87    5.42
   5  12  -1   26.61    6.23
   5  12  -1   26.61    6.23
  -5 -12   0   24.73    6.17
  -5 -12   0   24.73    6.17
   5  12   0   30.34    6.30
   5  12   0   30.34    6.30
  -5 -12  -1   19.26    5.90
  -5 -12  -1   19.26    5.90
  -5 -12  -2   13.32    5.77
  -5 -12  -2   13.32    5.77
  -5 -12  -3    5.76    5.23
  -5 -12  -3    5.76    5.23
  -5 -12  -4   10.96    5.48
  -5 -12  -4   10.96    5.48
  -5 -12  -5   18.81    5.92
  -5 -12  -5   18.81    5.92
  -5 -12  -6    2.48    4.83
  -5 -12  -6    3.92    5.29
  -5 -12  -6    2.48    4.83
  -5 -12  -6    3.92    5.29
  -5 -12  -7    1.45    4.72
  -5 -12  -7    2.14    5.53
  -5 -12  -7    1.45    4.72
  -5 -12  -7    2.14    5.53
  -5 -12  -8   21.14    5.61
  -5 -12  -8   16.77    6.16
  -5 -12  -8   21.14    5.61
  -5 -12  -8   16.77    6.16
   5  13  -1    4.68    5.67
   5  13  -1    4.68    5.67
   5  13   0   58.45    7.59
   5  13   0   58.45    7.59
  -5 -13  -2    4.19    5.77
  -5 -13  -2    4.19    5.77
  -5 -13  -3   21.23    6.39
  -5 -13  -3   21.23    6.39
  -5 -13  -4   47.29    7.54
  -5 -13  -4   47.29    7.54
  -5 -13  -5    9.81    5.85
  -5 -13  -5    9.81    5.85
  -6   7   3    1.89    6.66
  -6   7   3    0.76    4.19
  -6   7   3   -1.02    5.27
  -6   7   3    1.89    6.66
  -6   7   3    0.76    4.19
  -6   7   3   -1.02    5.27
  -6   7   2   48.76    8.07
  -6   7   2   30.55    5.91
  -6   7   2   53.20    6.09
  -6   7   2   42.13    6.80
  -6   7   2   48.76    8.07
  -6   7   2   30.55    5.91
  -6   7   2   53.20    6.09
  -6   7   2   42.13    6.80
  -6   7   1   25.65    7.10
  -6   7   1   20.31    4.95
  -6   7   1   23.53    4.35
  -6   7   1   20.95    5.85
  -6   7   1   25.65    7.10
  -6   7   1   20.31    4.95
  -6   7   1   23.53    4.35
  -6   7   1   20.95    5.85
  -6   7   0    7.02    6.25
  -6   7   0    2.73    2.77
  -6   7   0   -2.23    5.10
  -6   7   0    7.02    6.25
  -6   7   0    2.73    2.77
  -6   7   0   -2.23    5.10
  -6   7  -1    8.74    6.07
  -6   7  -1    9.98    5.43
  -6   7  -1    8.74    6.07
  -6   7  -1    9.98    5.43
  -6   7  -2   21.09    6.41
  -6   7  -2   20.68    5.39
  -6   7  -2   21.09    6.41
  -6   7  -2   20.68    5.39
  -6   7  -3    3.23    4.86
  -6   7  -3    0.13    4.44
  -6   7  -3    3.23    4.86
  -6   7  -3    0.13    4.44
  -6   7  -4    1.97    4.77
  -6   7  -4    2.59    4.81
  -6   7  -4    1.97    4.77
  -6   7  -4    2.59    4.81
  -6   7  -5   41.14    6.08
  -6   7  -5   41.14    6.08
  -6   6   6    1.57    7.55
  -6   6   6    1.64    7.37
  -6   6   6    5.60    4.84
  -6   6   6    0.68    5.60
  -6   6   6    1.57    7.55
  -6   6   6    1.64    7.37
  -6   6   6    5.60    4.84
  -6   6   6    0.68    5.60
  -6   6   5   32.44    8.09
  -6   6   5   23.89    6.86
  -6   6   5   27.81    5.53
  -6   6   5   38.27    6.81
  -6   6   5   32.44    8.09
  -6   6   5   23.89    6.86
  -6   6   5   27.81    5.53
  -6   6   5   38.27    6.81
  -6   6   4   11.30    7.04
  -6   6   4   30.63    6.79
  -6   6   4   17.31    5.07
  -6   6   4   20.01    6.20
  -6   6   4   11.30    7.04
  -6   6   4   30.63    6.79
  -6   6   4   17.31    5.07
  -6   6   4   20.01    6.20
  -6   6   3   61.61    8.38
  -6   6   3   53.96    7.26
  -6   6   3   59.19    6.53
  -6   6   3   64.53    7.64
  -6   6   3   61.61    8.38
  -6   6   3   53.96    7.26
  -6   6   3   59.19    6.53
  -6   6   3   64.53    7.64
  -6   6   2   20.26    6.84
  -6   6   2   16.08    5.63
  -6   6   2   21.72    4.56
  -6   6   2   15.16    5.38
  -6   6   2   20.26    6.84
  -6   6   2   16.08    5.63
  -6   6   2   21.72    4.56
  -6   6   2   15.16    5.38
  -6   6   1   -4.82    5.94
  -6   6   1    5.46    5.09
  -6   6   1    2.97    3.62
  -6   6   1   -2.24    4.48
  -6   6   1   -4.82    5.94
  -6   6   1    5.46    5.09
  -6   6   1    2.97    3.62
  -6   6   1   -2.24    4.48
  -6   6   0    9.42    6.11
  -6   6   0    9.62    4.89
  -6   6   0    5.87    3.02
  -6   6   0   -1.12    4.46
  -6   6   0    9.42    6.11
  -6   6   0    9.62    4.89
  -6   6   0    5.87    3.02
  -6   6   0   -1.12    4.46
  -6   6  -1    4.22    5.61
  -6   6  -1    7.46    4.35
  -6   6  -1    7.75    4.61
  -6   6  -1    4.22    5.61
  -6   6  -1    7.46    4.35
  -6   6  -1    7.75    4.61
  -6   6  -2    1.44    5.37
  -6   6  -2    3.10    4.16
  -6   6  -2    1.69    4.21
  -6   6  -2    1.44    5.37
  -6   6  -2    3.10    4.16
  -6   6  -2    1.69    4.21
  -6   6  -3   -2.35    5.25
  -6   6  -3    0.27    3.98
  -6   6  -3   -1.63    4.03
  -6   6  -3   -2.35    5.25
  -6   6  -3    0.27    3.98
  -6   6  -3   -1.63    4.03
  -6   6  -4    8.90    5.19
  -6   6  -4   15.04    5.57
  -6   6  -4   11.48    4.68
  -6   6  -4    8.90    5.19
  -6   6  -4   15.04    5.57
  -6   6  -4   11.48    4.68
  -6   6  -5   -1.56    4.79
  -6   6  -5    5.47    5.00
  -6   6  -5   -4.99    4.11
  -6   6  -5   -1.56    4.79
  -6   6  -5    5.47    5.00
  -6   6  -5   -4.99    4.11
  -6   6  -6   13.44    5.54
  -6   6  -6    8.86    4.57
  -6   6  -6    8.81    4.76
  -6   6  -6   13.44    5.54
  -6   6  -6    8.86    4.57
  -6   6  -6    8.81    4.76
  -6   6  -7    6.28    5.53
  -6   6  -7   -0.96    4.12
  -6   6  -7    6.28    5.53
  -6   6  -7   -0.96    4.12
  -6   6  -8   12.20    5.98
  -6   6  -8    9.22    4.51
  -6   6  -8   12.20    5.98
  -6   6  -8    9.22    4.51
  -6   5   7  103.37   10.87
  -6   5   7  133.62    8.45
  -6   5   7  103.37   10.87
  -6   5   7  133.62    8.45
   6  -5  -7  145.20   10.90
   6  -5  -7  145.20   10.90
  -6   5   6   35.17    8.52
  -6   5   6   25.86    8.29
  -6   5   6   41.63    6.08
  -6   5   6   42.09    6.93
  -6   5   6   35.17    8.52
  -6   5   6   25.86    8.29
  -6   5   6   41.63    6.08
  -6   5   6   42.09    6.93
  -6   5   5    0.10    6.82
  -6   5   5   -3.08    5.91
  -6   5   5    3.42    4.58
  -6   5   5    1.08    5.04
  -6   5   5    0.10    6.82
  -6   5   5   -3.08    5.91
  -6   5   5    3.42    4.58
  -6   5   5    1.08    5.04
  -6   5   4    8.66    5.99
  -6   5   4   -0.64    5.46
  -6   5   4    4.34    4.31
  -6   5   4    9.08    5.23
  -6   5   4    8.66    5.99
  -6   5   4   -0.64    5.46
  -6   5   4    4.34    4.31
  -6   5   4    9.08    5.23
  -6   5   3   -3.02    5.94
  -6   5   3   -0.48    5.47
  -6   5   3    1.43    3.93
  -6   5   3   -3.62    4.61
  -6   5   3   -3.02    5.94
  -6   5   3   -0.48    5.47
  -6   5   3    1.43    3.93
  -6   5   3   -3.62    4.61
  -6   5   2   19.51    5.99
  -6   5   2   23.83    5.94
  -6   5   2   20.12    4.32
  -6   5   2   24.05    5.49
  -6   5   2   19.51    5.99
  -6   5   2   23.83    5.94
  -6   5   2   20.12    4.32
  -6   5   2   24.05    5.49
  -6   5   1   17.71    6.28
  -6   5   1   14.38    5.38
  -6   5   1   10.74    3.68
  -6   5   1   12.78    4.80
  -6   5   1   17.71    6.28
  -6   5   1   14.38    5.38
  -6   5   1   10.74    3.68
  -6   5   1   12.78    4.80
  -6   5   0    0.42    5.56
  -6   5   0    0.54    4.66
  -6   5   0    0.52    2.80
  -6   5   0    1.28    4.20
  -6   5   0    0.42    5.56
  -6   5   0    0.54    4.66
  -6   5   0    0.52    2.80
  -6   5   0    1.28    4.20
  -6   5  -1   25.60    6.16
  -6   5  -1   25.13    5.50
  -6   5  -1   27.52    5.14
  -6   5  -1   25.60    6.16
  -6   5  -1   25.13    5.50
  -6   5  -1   27.52    5.14
  -6   5  -2   13.04    5.73
  -6   5  -2   14.96    5.05
  -6   5  -2   19.69    4.78
  -6   5  -2   13.04    5.73
  -6   5  -2   14.96    5.05
  -6   5  -2   19.69    4.78
  -6   5  -3    0.89    4.31
  -6   5  -3    2.64    5.25
  -6   5  -3    6.29    4.53
  -6   5  -3   -3.08    3.95
  -6   5  -3    0.89    4.31
  -6   5  -3    2.64    5.25
  -6   5  -3    6.29    4.53
  -6   5  -3   -3.08    3.95
  -6   5  -4   21.71    5.40
  -6   5  -4   24.15    5.89
  -6   5  -4   21.09    4.88
  -6   5  -4   20.50    4.59
  -6   5  -4   21.71    5.40
  -6   5  -4   24.15    5.89
  -6   5  -4   21.09    4.88
  -6   5  -4   20.50    4.59
  -6   5  -5   53.66    6.49
  -6   5  -5   59.88    7.46
  -6   5  -5   49.05    5.87
  -6   5  -5   50.46    5.79
  -6   5  -5   53.66    6.49
  -6   5  -5   59.88    7.46
  -6   5  -5   49.05    5.87
  -6   5  -5   50.46    5.79
  -6   5  -6   -4.92    4.59
  -6   5  -6    3.54    3.87
  -6   5  -6    1.32    3.98
  -6   5  -6   -4.92    4.59
  -6   5  -6    3.54    3.87
  -6   5  -6    1.32    3.98
  -6   5  -7    2.02    5.06
  -6   5  -7    0.52    3.74
  -6   5  -7    2.02    5.06
  -6   5  -7    0.52    3.74
  -6   5  -8   13.78    5.82
  -6   5  -8   17.51    4.31
  -6   5  -8   13.78    5.82
  -6   5  -8   17.51    4.31
  -6   5  -9    8.19    5.73
  -6   5  -9    5.66    4.08
  -6   5  -9    8.19    5.73
  -6   5  -9    5.66    4.08
  -6   4   8    0.20    5.01
  -6   4   8    0.20    5.01
   6  -4  -8    1.65    5.49
   6  -4  -8    1.65    5.49
  -6   4   7   60.14    7.43
  -6   4   7   59.16    7.34
  -6   4   7   60.14    7.43
  -6   4   7   59.16    7.34
   6  -4  -7   56.08    7.69
   6  -4  -7   56.08    7.69
  -6   4   6   28.85    8.05
  -6   4   6   37.00    5.62
  -6   4   6   38.02    6.47
  -6   4   6   28.85    8.05
  -6   4   6   37.00    5.62
  -6   4   6   38.02    6.47
   6  -4  -6   41.24    6.88
   6  -4  -6   41.24    6.88
  -6   4   5   -4.52    6.29
  -6   4   5   -1.02    6.06
  -6   4   5    4.02    4.41
  -6   4   5    4.83    4.96
  -6   4   5   -4.52    6.29
  -6   4   5   -1.02    6.06
  -6   4   5    4.02    4.41
  -6   4   5    4.83    4.96
  -6   4   4   48.18    7.64
  -6   4   4   41.67    7.30
  -6   4   4   54.45    6.23
  -6   4   4   59.51    7.05
  -6   4   4   48.18    7.64
  -6   4   4   41.67    7.30
  -6   4   4   54.45    6.23
  -6   4   4   59.51    7.05
  -6   4   3   82.95    8.93
  -6   4   3   88.91    8.84
  -6   4   3   82.95    6.29
  -6   4   3   85.03    7.23
  -6   4   3   82.95    8.93
  -6   4   3   88.91    8.84
  -6   4   3   82.95    6.29
  -6   4   3   85.03    7.23
  -6   4   2   61.64    7.40
  -6   4   2   65.56    7.59
  -6   4   2   63.83    5.52
  -6   4   2   59.30    6.50
  -6   4   2   61.64    7.40
  -6   4   2   65.56    7.59
  -6   4   2   63.83    5.52
  -6   4   2   59.30    6.50
  -6   4   1    4.26    5.52
  -6   4   1    2.38    4.61
  -6   4   1    1.09    3.21
  -6   4   1   -5.00    4.09
  -6   4   1    4.26    5.52
  -6   4   1    2.38    4.61
  -6   4   1    1.09    3.21
  -6   4   1   -5.00    4.09
  -6   4   0   12.22    5.63
  -6   4   0   13.19    5.10
  -6   4   0   12.61    2.89
  -6   4   0   11.12    4.43
  -6   4   0   12.22    5.63
  -6   4   0   13.19    5.10
  -6   4   0   12.61    2.89
  -6   4   0   11.12    4.43
  -6   4  -1    2.25    5.11
  -6   4  -1    3.02    4.54
  -6   4  -1   -0.41    3.66
  -6   4  -1    2.25    5.11
  -6   4  -1    3.02    4.54
  -6   4  -1   -0.41    3.66
  -6   4  -2    7.30    5.32
  -6   4  -2    9.02    4.78
  -6   4  -2    8.30    3.81
  -6   4  -2    7.30    5.32
  -6   4  -2    9.02    4.78
  -6   4  -2    8.30    3.81
  -6   4  -3   18.53    4.78
  -6   4  -3   19.51    5.53
  -6   4  -3   18.38    5.01
  -6   4  -3   14.63    4.10
  -6   4  -3   18.53    4.78
  -6   4  -3   19.51    5.53
  -6   4  -3   18.38    5.01
  -6   4  -3   14.63    4.10
  -6   4  -4    3.43    4.37
  -6   4  -4    3.35    5.07
  -6   4  -4    4.27    4.58
  -6   4  -4    3.56    3.62
  -6   4  -4    3.43    4.37
  -6   4  -4    3.35    5.07
  -6   4  -4    4.27    4.58
  -6   4  -4    3.56    3.62
  -6   4  -5   64.58    6.69
  -6   4  -5   72.41    7.58
  -6   4  -5   66.05    5.50
  -6   4  -5   62.83    5.73
  -6   4  -5   64.58    6.69
  -6   4  -5   72.41    7.58
  -6   4  -5   66.05    5.50
  -6   4  -5   62.83    5.73
  -6   4  -6  107.10    8.53
  -6   4  -6   90.93    5.59
  -6   4  -6  107.10    8.53
  -6   4  -6   90.93    5.59
  -6   4  -7   40.32    6.23
  -6   4  -7   46.40    4.79
  -6   4  -7   40.32    6.23
  -6   4  -7   46.40    4.79
  -6   4  -8    6.27    5.08
  -6   4  -8   -0.87    3.42
  -6   4  -8    6.27    5.08
  -6   4  -8   -0.87    3.42
  -6   4  -9    0.44    5.12
  -6   4  -9    0.40    3.52
  -6   4  -9    0.44    5.12
  -6   4  -9    0.40    3.52
  -6   4 -10    0.06    5.36
  -6   4 -10   -1.21    3.88
  -6   4 -10    0.06    5.36
  -6   4 -10   -1.21    3.88
  -6   3   9    8.52    5.43
  -6   3   9    8.52    5.43
   6  -3  -9    5.75    6.08
   6  -3  -9    5.75    6.08
  -6   3   8   19.77    5.79
  -6   3   8   19.77    5.79
   6  -3  -8   14.37    5.82
   6  -3  -8   14.37    5.82
  -6   3   7   -1.14    4.52
  -6   3   7    0.12    4.97
  -6   3   7   -1.14    4.52
  -6   3   7    0.12    4.97
   6  -3  -7   -1.06    5.42
   6  -3  -7   -1.06    5.42
  -6   3   6    9.82    4.64
  -6   3   6    0.04    4.84
  -6   3   6    9.82    4.64
  -6   3   6    0.04    4.84
   6  -3  -6    5.22    4.95
   6  -3  -6    5.22    4.95
  -6   3   5   -5.85    5.46
  -6   3   5   -8.48    6.20
  -6   3   5   -2.51    4.10
  -6   3   5    1.89    4.50
  -6   3   5   -5.85    5.46
  -6   3   5   -8.48    6.20
  -6   3   5   -2.51    4.10
  -6   3   5    1.89    4.50
   6  -3  -5    0.54    5.01
   6  -3  -5    0.54    5.01
  -6   3   4   -0.79    5.25
  -6   3   4   -5.01    5.11
  -6   3   4    0.49    3.94
  -6   3   4    2.69    4.37
  -6   3   4   -0.79    5.25
  -6   3   4   -5.01    5.11
  -6   3   4    0.49    3.94
  -6   3   4    2.69    4.37
  -6   3   3   18.21    5.54
  -6   3   3   20.19    5.66
  -6   3   3   22.96    4.29
  -6   3   3   20.94    4.79
  -6   3   3   18.21    5.54
  -6   3   3   20.19    5.66
  -6   3   3   22.96    4.29
  -6   3   3   20.94    4.79
  -6   3   2   67.86    7.38
  -6   3   2   65.50    7.01
  -6   3   2   70.17    5.39
  -6   3   2   74.41    6.44
  -6   3   2   67.86    7.38
  -6   3   2   65.50    7.01
  -6   3   2   70.17    5.39
  -6   3   2   74.41    6.44
  -6   3   1  119.74    8.64
  -6   3   1  123.95    7.67
  -6   3   1  132.94    5.79
  -6   3   1  129.29    6.99
  -6   3   1  119.74    8.64
  -6   3   1  123.95    7.67
  -6   3   1  132.94    5.79
  -6   3   1  129.29    6.99
  -6   3   0   -1.15    5.07
  -6   3   0   -1.72    4.22
  -6   3   0    0.09    2.39
  -6   3   0   -0.78    3.67
  -6   3   0   -1.15    5.07
  -6   3   0   -1.72    4.22
  -6   3   0    0.09    2.39
  -6   3   0   -0.78    3.67
  -6   3  -1   25.15    5.59
  -6   3  -1   21.86    4.88
  -6   3  -1   26.25    4.36
  -6   3  -1   25.15    5.59
  -6   3  -1   21.86    4.88
  -6   3  -1   26.25    4.36
  -6   3  -2  126.22    7.15
  -6   3  -2  115.93    7.48
  -6   3  -2  116.08    7.68
  -6   3  -2  119.07    6.26
  -6   3  -2  126.22    7.15
  -6   3  -2  115.93    7.48
  -6   3  -2  116.08    7.68
  -6   3  -2  119.07    6.26
  -6   3  -3   43.23    4.85
  -6   3  -3   52.33    5.65
  -6   3  -3   48.83    6.29
  -6   3  -3   52.25    6.05
  -6   3  -3   47.63    5.03
  -6   3  -3   43.23    4.85
  -6   3  -3   52.33    5.65
  -6   3  -3   48.83    6.29
  -6   3  -3   52.25    6.05
  -6   3  -3   47.63    5.03
  -6   3  -4    3.73    3.46
  -6   3  -4    1.12    4.02
  -6   3  -4   -2.90    4.68
  -6   3  -4    2.18    4.36
  -6   3  -4    2.61    3.11
  -6   3  -4    3.73    3.46
  -6   3  -4    1.12    4.02
  -6   3  -4   -2.90    4.68
  -6   3  -4    2.18    4.36
  -6   3  -4    2.61    3.11
  -6   3  -5    0.00    3.44
  -6   3  -5    7.29    4.40
  -6   3  -5    2.76    4.86
  -6   3  -5    4.84    3.11
  -6   3  -5    4.53    3.22
  -6   3  -5    0.00    3.44
  -6   3  -5    7.29    4.40
  -6   3  -5    2.76    4.86
  -6   3  -5    4.84    3.11
  -6   3  -5    4.53    3.22
  -6   3  -6    0.34    3.66
  -6   3  -6   -1.53    4.26
  -6   3  -6    0.32    2.92
  -6   3  -6    0.34    3.66
  -6   3  -6   -1.53    4.26
  -6   3  -6    0.32    2.92
  -6   3  -7   49.74    5.62
  -6   3  -7   77.90    7.77
  -6   3  -7   68.16    4.82
  -6   3  -7   49.74    5.62
  -6   3  -7   77.90    7.77
  -6   3  -7   68.16    4.82
  -6   3  -8   75.42    7.95
  -6   3  -8   69.24    4.79
  -6   3  -8   75.42    7.95
  -6   3  -8   69.24    4.79
  -6   3  -9   13.44    5.35
  -6   3  -9   12.82    3.60
  -6   3  -9   13.44    5.35
  -6   3  -9   12.82    3.60
  -6   3 -10   12.16    5.60
  -6   3 -10   11.25    3.59
  -6   3 -10   12.16    5.60
  -6   3 -10   11.25    3.59
  -6   3 -11   57.45    7.47
  -6   3 -11   74.55    5.78
  -6   3 -11   57.45    7.47
  -6   3 -11   74.55    5.78
  -6   2  10   -4.80    5.13
  -6   2  10   -4.80    5.13
   6  -2 -10    1.88    5.91
   6  -2 -10    1.88    5.91
  -6   2   9   16.35    5.70
  -6   2   9   16.35    5.70
   6  -2  -9   15.55    6.27
   6  -2  -9   15.55    6.27
  -6   2   8   -0.96    4.74
  -6   2   8   -0.96    4.74
   6  -2  -8   -4.57    4.80
   6  -2  -8   -4.57    4.80
  -6   2   7   30.34    5.52
  -6   2   7   35.99    6.15
  -6   2   7   30.34    5.52
  -6   2   7   35.99    6.15
   6  -2  -7   34.78    6.40
   6  -2  -7   34.78    6.40
  -6   2   6   27.23    5.09
  -6   2   6   25.78    5.50
  -6   2   6   27.23    5.09
  -6   2   6   25.78    5.50
   6  -2  -6   28.46    5.98
   6  -2  -6   28.46    5.98
  -6   2   5    6.37    5.69
  -6   2   5   12.58    4.25
  -6   2   5    9.89    4.70
  -6   2   5    6.37    5.69
  -6   2   5   12.58    4.25
  -6   2   5    9.89    4.70
   6  -2  -5    7.50    5.03
   6  -2  -5    7.50    5.03
  -6   2   4    7.01    5.70
  -6   2   4    2.24    5.78
  -6   2   4    5.57    3.97
  -6   2   4    8.23    4.38
  -6   2   4    7.01    5.70
  -6   2   4    2.24    5.78
  -6   2   4    5.57    3.97
  -6   2   4    8.23    4.38
   6  -2  -4    3.32    4.54
   6  -2  -4    3.32    4.54
  -6   2   3   31.65    6.16
  -6   2   3   29.80    6.12
  -6   2   3   29.69    4.33
  -6   2   3   37.70    5.05
  -6   2   3   31.65    6.16
  -6   2   3   29.80    6.12
  -6   2   3   29.69    4.33
  -6   2   3   37.70    5.05
  -6   2   2    5.96    4.69
  -6   2   2    5.78    4.60
  -6   2   2    3.93    3.17
  -6   2   2    4.78    3.88
  -6   2   2    5.96    4.69
  -6   2   2    5.78    4.60
  -6   2   2    3.93    3.17
  -6   2   2    4.78    3.88
  -6   2   1   20.42    4.96
  -6   2   1   16.78    4.84
  -6   2   1   18.99    3.27
  -6   2   1   17.70    4.03
  -6   2   1   20.42    4.96
  -6   2   1   16.78    4.84
  -6   2   1   18.99    3.27
  -6   2   1   17.70    4.03
  -6   2   0   45.82    6.02
  -6   2   0   51.55    6.07
  -6   2   0   49.09    3.65
  -6   2   0   43.52    5.02
  -6   2   0   45.82    6.02
  -6   2   0   51.55    6.07
  -6   2   0   49.09    3.65
  -6   2   0   43.52    5.02
  -6   2  -1   31.98    5.18
  -6   2  -1   30.55    5.34
  -6   2  -1   27.76    4.05
  -6   2  -1   31.98    5.18
  -6   2  -1   30.55    5.34
  -6   2  -1   27.76    4.05
  -6   2  -2   41.94    5.04
  -6   2  -2   38.30    5.72
  -6   2  -2   39.88    5.59
  -6   2  -2   40.68    4.70
  -6   2  -2   41.94    5.04
  -6   2  -2   38.30    5.72
  -6   2  -2   39.88    5.59
  -6   2  -2   40.68    4.70
  -6   2  -3  295.50    8.89
  -6   2  -3  284.27    9.49
  -6   2  -3  286.00    9.94
  -6   2  -3  274.48    9.04
  -6   2  -3  292.56    7.01
  -6   2  -3  295.50    8.89
  -6   2  -3  284.27    9.49
  -6   2  -3  286.00    9.94
  -6   2  -3  274.48    9.04
  -6   2  -3  292.56    7.01
  -6   2  -4   78.31    6.63
  -6   2  -4   70.90    7.35
  -6   2  -4   58.61    6.36
  -6   2  -4   67.61    7.00
  -6   2  -4   60.19    4.61
  -6   2  -4   78.31    6.63
  -6   2  -4   70.90    7.35
  -6   2  -4   58.61    6.36
  -6   2  -4   67.61    7.00
  -6   2  -4   60.19    4.61
  -6   2  -5   -3.16    3.63
  -6   2  -5   -0.70    4.00
  -6   2  -5   -1.84    2.56
  -6   2  -5   -0.59    2.69
  -6   2  -5   -3.16    3.63
  -6   2  -5   -0.70    4.00
  -6   2  -5   -1.84    2.56
  -6   2  -5   -0.59    2.69
  -6   2  -6   21.68    4.54
  -6   2  -6   23.08    5.04
  -6   2  -6   19.62    2.91
  -6   2  -6   21.68    4.54
  -6   2  -6   23.08    5.04
  -6   2  -6   19.62    2.91
  -6   2  -7   12.87    4.62
  -6   2  -7   17.73    4.98
  -6   2  -7   13.14    2.88
  -6   2  -7   12.87    4.62
  -6   2  -7   17.73    4.98
  -6   2  -7   13.14    2.88
  -6   2  -8    5.70    4.58
  -6   2  -8    0.28    4.43
  -6   2  -8    3.41    2.76
  -6   2  -8    5.70    4.58
  -6   2  -8    0.28    4.43
  -6   2  -8    3.41    2.76
  -6   2  -9    1.56    4.66
  -6   2  -9    1.04    2.76
  -6   2  -9    1.56    4.66
  -6   2  -9    1.04    2.76
  -6   2 -10    2.93    4.87
  -6   2 -10   -1.16    2.75
  -6   2 -10    2.93    4.87
  -6   2 -10   -1.16    2.75
  -6   2 -11   51.12    4.96
  -6   2 -11   51.12    4.96
  -6   2 -12   77.63    8.89
  -6   2 -12   65.43    5.24
  -6   2 -12   77.63    8.89
  -6   2 -12   65.43    5.24
  -6   1  10    0.14    5.32
  -6   1  10    0.14    5.32
   6  -1 -10    5.14    5.79
   6  -1 -10    5.14    5.79
  -6   1   9   25.04    5.93
  -6   1   9   25.04    5.93
   6  -1  -9   14.99    5.67
   6  -1  -9   14.99    5.67
  -6   1   8   73.35    7.84
  -6   1   8   73.35    7.84
   6  -1  -8   85.27    7.91
   6  -1  -8   85.27    7.91
  -6   1   7   -0.21    4.68
  -6   1   7    8.42    4.91
  -6   1   7   -0.21    4.68
  -6   1   7    8.42    4.91
   6  -1  -7    1.88    5.10
   6  -1  -7    1.88    5.10
  -6   1   6    9.95    4.67
  -6   1   6    3.11    4.58
  -6   1   6    9.95    4.67
  -6   1   6    3.11    4.58
   6  -1  -6   14.84    5.30
   6  -1  -6   14.84    5.30
  -6   1   5   17.86    6.12
  -6   1   5   13.65    4.23
  -6   1   5   13.31    4.65
  -6   1   5   17.86    6.12
  -6   1   5   13.65    4.23
  -6   1   5   13.31    4.65
   6  -1  -5   17.17    5.10
   6  -1  -5   17.17    5.10
  -6   1   4   24.86    6.07
  -6   1   4   24.76    5.81
  -6   1   4   26.68    4.46
  -6   1   4   27.64    4.80
  -6   1   4   24.86    6.07
  -6   1   4   24.76    5.81
  -6   1   4   26.68    4.46
  -6   1   4   27.64    4.80
   6  -1  -4   30.63    5.00
   6  -1  -4   30.63    5.00
  -6   1   3    4.20    5.02
  -6   1   3    3.37    4.66
  -6   1   3   -0.88    3.31
  -6   1   3   -0.26    3.68
  -6   1   3    4.20    5.02
  -6   1   3    3.37    4.66
  -6   1   3   -0.88    3.31
  -6   1   3   -0.26    3.68
   6  -1  -3   -2.93    3.43
   6  -1  -3   -2.93    3.43
  -6   1   2    6.46    4.40
  -6   1   2    6.37    4.80
  -6   1   2    8.02    3.16
  -6   1   2   10.47    3.73
  -6   1   2    6.46    4.40
  -6   1   2    6.37    4.80
  -6   1   2    8.02    3.16
  -6   1   2   10.47    3.73
  -6   1   1    6.95    4.79
  -6   1   1    7.14    4.29
  -6   1   1    6.64    2.87
  -6   1   1    8.26    3.45
  -6   1   1    6.95    4.79
  -6   1   1    7.14    4.29
  -6   1   1    6.64    2.87
  -6   1   1    8.26    3.45
  -6   1   0    6.47    4.61
  -6   1   0    3.94    4.11
  -6   1   0    4.06    2.04
  -6   1   0    4.73    3.12
  -6   1   0    6.47    4.61
  -6   1   0    3.94    4.11
  -6   1   0    4.06    2.04
  -6   1   0    4.73    3.12
  -6   1  -1   35.09    5.43
  -6   1  -1   35.06    5.32
  -6   1  -1   33.14    3.85
  -6   1  -1   35.09    5.43
  -6   1  -1   35.06    5.32
  -6   1  -1   33.14    3.85
  -6   1  -2   17.28    4.24
  -6   1  -2   16.77    4.91
  -6   1  -2   13.65    4.31
  -6   1  -2   16.24    3.30
  -6   1  -2   17.28    4.24
  -6   1  -2   16.77    4.91
  -6   1  -2   13.65    4.31
  -6   1  -2   16.24    3.30
  -6   1  -3    9.13    4.03
  -6   1  -3   13.47    4.45
  -6   1  -3   15.25    4.70
  -6   1  -3   16.26    3.02
  -6   1  -3    9.13    4.03
  -6   1  -3   13.47    4.45
  -6   1  -3   15.25    4.70
  -6   1  -3   16.26    3.02
  -6   1  -4   15.35    4.28
  -6   1  -4   11.15    4.10
  -6   1  -4   16.40    4.94
  -6   1  -4   16.07    4.75
  -6   1  -4   17.92    2.84
  -6   1  -4   15.35    4.28
  -6   1  -4   11.15    4.10
  -6   1  -4   16.40    4.94
  -6   1  -4   16.07    4.75
  -6   1  -4   17.92    2.84
  -6   1  -5    2.53    3.88
  -6   1  -5   -0.36    3.75
  -6   1  -5    4.10    2.29
  -6   1  -5    1.48    2.28
  -6   1  -5    2.53    3.88
  -6   1  -5   -0.36    3.75
  -6   1  -5    4.10    2.29
  -6   1  -5    1.48    2.28
  -6   1  -6   37.81    5.07
  -6   1  -6   39.48    5.33
  -6   1  -6   32.06    2.95
  -6   1  -6   37.81    5.07
  -6   1  -6   39.48    5.33
  -6   1  -6   32.06    2.95
  -6   1  -7   47.34    5.57
  -6   1  -7   50.67    5.84
  -6   1  -7   47.18    3.15
  -6   1  -7   47.34    5.57
  -6   1  -7   50.67    5.84
  -6   1  -7   47.18    3.15
  -6   1  -8   37.52    5.51
  -6   1  -8   30.43    5.33
  -6   1  -8   17.89    2.45
  -6   1  -8   37.52    5.51
  -6   1  -8   30.43    5.33
  -6   1  -8   17.89    2.45
  -6   1  -9   22.24    5.26
  -6   1  -9   18.89    2.56
  -6   1  -9   22.24    5.26
  -6   1  -9   18.89    2.56
  -6   1 -10    9.70    5.00
  -6   1 -10    0.57    2.29
  -6   1 -10    9.70    5.00
  -6   1 -10    0.57    2.29
  -6   1 -11    4.79    5.08
  -6   1 -11    4.48    2.58
  -6   1 -11    4.79    5.08
  -6   1 -11    4.48    2.58
  -6   1 -12   -2.70    4.98
  -6   1 -12    1.44    2.71
  -6   1 -12   -2.70    4.98
  -6   1 -12    1.44    2.71
  -6   1 -13    0.79    5.49
  -6   1 -13    4.39    2.96
  -6   1 -13    0.79    5.49
  -6   1 -13    4.39    2.96
  -6   0  10    5.40    5.47
  -6   0  10    5.40    5.47
   6   0 -10    1.48    5.59
   6   0 -10    1.48    5.59
  -6   0   9    3.15    5.10
  -6   0   9    3.15    5.10
   6   0  -9    4.89    5.52
   6   0  -9    4.89    5.52
  -6   0   8   -0.14    4.71
  -6   0   8   -0.14    4.71
   6   0  -8   -4.27    4.98
   6   0  -8   -4.27    4.98
  -6   0   7   35.48    5.72
  -6   0   7   32.68    5.65
  -6   0   7   35.48    5.72
  -6   0   7   32.68    5.65
   6   0  -7   37.01    5.97
   6   0  -7   37.01    5.97
  -6   0   6   15.40    4.58
  -6   0   6   18.49    4.99
  -6   0   6   15.40    4.58
  -6   0   6   18.49    4.99
   6   0  -6   16.57    5.36
   6   0  -6   16.57    5.36
  -6   0   5    0.48    5.28
  -6   0   5    5.00    4.12
  -6   0   5    2.49    4.13
  -6   0   5    0.48    5.28
  -6   0   5    5.00    4.12
  -6   0   5    2.49    4.13
   6   0  -5    7.09    4.72
   6   0  -5    7.09    4.72
  -6   0   4   23.21    5.53
  -6   0   4   26.23    5.73
  -6   0   4   30.80    4.46
  -6   0   4   33.44    4.92
  -6   0   4   23.21    5.53
  -6   0   4   26.23    5.73
  -6   0   4   30.80    4.46
  -6   0   4   33.44    4.92
   6   0  -4   28.76    5.10
   6   0  -4   28.76    5.10
  -6   0   3  121.65    8.26
  -6   0   3  123.15    8.34
  -6   0   3  128.00    6.37
  -6   0   3  122.10    6.69
  -6   0   3  121.65    8.26
  -6   0   3  123.15    8.34
  -6   0   3  128.00    6.37
  -6   0   3  122.10    6.69
   6   0  -3  127.97    7.53
   6   0  -3  127.97    7.53
  -6   0   2   17.64    5.04
  -6   0   2   14.65    4.94
  -6   0   2   15.70    3.34
  -6   0   2   16.45    3.82
  -6   0   2   17.64    5.04
  -6   0   2   14.65    4.94
  -6   0   2   15.70    3.34
  -6   0   2   16.45    3.82
  -6   0   1   37.17    5.01
  -6   0   1   36.60    5.37
  -6   0   1   33.92    4.09
  -6   0   1   37.22    4.25
  -6   0   1   36.61    3.82
  -6   0   1   37.17    5.01
  -6   0   1   36.60    5.37
  -6   0   1   33.92    4.09
  -6   0   1   37.22    4.25
  -6   0   1   36.61    3.82
  -6   0   0   50.86    5.36
  -6   0   0   57.30    6.33
  -6   0   0   60.02    3.42
  -6   0   0   64.75    5.09
  -6   0   0   59.74    5.14
  -6   0   0   50.86    5.36
  -6   0   0   57.30    6.33
  -6   0   0   60.02    3.42
  -6   0   0   64.75    5.09
  -6   0   0   59.74    5.14
  -6   0  -1    2.66    3.91
  -6   0  -1    1.68    3.79
  -6   0  -1    2.85    2.83
  -6   0  -1    6.03    3.49
  -6   0  -1    2.66    3.91
  -6   0  -1    1.68    3.79
  -6   0  -1    2.85    2.83
  -6   0  -1    6.03    3.49
  -6   0  -2   16.10    4.26
  -6   0  -2   16.20    4.67
  -6   0  -2   20.76    4.78
  -6   0  -2   17.57    3.09
  -6   0  -2   13.62    3.94
  -6   0  -2   16.10    4.26
  -6   0  -2   16.20    4.67
  -6   0  -2   20.76    4.78
  -6   0  -2   17.57    3.09
  -6   0  -2   13.62    3.94
  -6   0  -3  145.18    7.55
  -6   0  -3  133.90    7.12
  -6   0  -3  140.42    8.05
  -6   0  -3  146.87    4.88
  -6   0  -3  125.36    6.90
  -6   0  -3  145.18    7.55
  -6   0  -3  133.90    7.12
  -6   0  -3  140.42    8.05
  -6   0  -3  146.87    4.88
  -6   0  -3  125.36    6.90
  -6   0  -4   64.52    5.92
  -6   0  -4   64.78    6.98
  -6   0  -4   66.11    6.28
  -6   0  -4   68.08    7.00
  -6   0  -4   71.37    3.82
  -6   0  -4   56.42    6.15
  -6   0  -4   64.52    5.92
  -6   0  -4   64.78    6.98
  -6   0  -4   66.11    6.28
  -6   0  -4   68.08    7.00
  -6   0  -4   71.37    3.82
  -6   0  -4   56.42    6.15
  -6   0  -5    6.17    4.06
  -6   0  -5    7.45    3.87
  -6   0  -5    6.51    2.01
  -6   0  -5    6.17    4.06
  -6   0  -5    7.45    3.87
  -6   0  -5    6.51    2.01
  -6   0  -6   28.58    4.94
  -6   0  -6   24.53    4.67
  -6   0  -6   32.45    2.33
  -6   0  -6   28.58    4.94
  -6   0  -6   24.53    4.67
  -6   0  -6   32.45    2.33
  -6   0  -7    4.99    4.42
  -6   0  -7    2.55    4.05
  -6   0  -7    1.54    1.44
  -6   0  -7    4.99    4.42
  -6   0  -7    2.55    4.05
  -6   0  -7    1.54    1.44
  -6   0  -8   19.00    5.01
  -6   0  -8   20.26    4.89
  -6   0  -8   19.00    5.01
  -6   0  -8   20.26    4.89
  -6   0  -9   35.06    5.61
  -6   0  -9    5.60    1.63
  -6   0  -9   35.06    5.61
  -6   0  -9    5.60    1.63
  -6   0 -10   16.49    5.21
  -6   0 -10    5.12    1.84
  -6   0 -10   16.49    5.21
  -6   0 -10    5.12    1.84
  -6   0 -11   43.80    6.42
  -6   0 -11   43.80    6.42
  -6   0 -12   93.07    8.92
  -6   0 -12   93.07    8.92
  -6   0 -13   66.73    7.78
  -6   0 -13   66.73    7.78
  -6  -1  11   56.73    7.65
  -6  -1  11   56.73    7.65
   6   1 -11   55.14    7.81
   6   1 -11   55.14    7.81
  -6  -1  10   12.45    5.83
  -6  -1  10   12.45    5.83
   6   1 -10   13.99    6.01
   6   1 -10   13.99    6.01
  -6  -1   9   18.45    5.59
  -6  -1   9   18.45    5.59
   6   1  -9   15.42    5.83
   6   1  -9   15.42    5.83
  -6  -1   8   47.16    6.12
  -6  -1   8   47.16    6.12
   6   1  -8   50.67    6.91
   6   1  -8   50.67    6.91
  -6  -1   7   40.30    5.81
  -6  -1   7   30.59    5.59
  -6  -1   7   40.30    5.81
  -6  -1   7   30.59    5.59
   6   1  -7   35.67    6.13
   6   1  -7   35.67    6.13
  -6  -1   6   -1.82    5.37
  -6  -1   6    7.39    4.24
  -6  -1   6    6.27    4.53
  -6  -1   6   -1.82    5.37
  -6  -1   6    7.39    4.24
  -6  -1   6    6.27    4.53
   6   1  -6    5.61    4.35
   6   1  -6    5.61    4.35
  -6  -1   5    1.54    4.87
  -6  -1   5    5.18    3.93
  -6  -1   5    5.15    4.16
  -6  -1   5    1.54    4.87
  -6  -1   5    5.18    3.93
  -6  -1   5    5.15    4.16
   6   1  -5    4.58    4.47
   6   1  -5    4.58    4.47
  -6  -1   4    5.15    4.63
  -6  -1   4   -2.67    5.03
  -6  -1   4    3.82    3.69
  -6  -1   4   -0.48    3.76
  -6  -1   4    5.15    4.63
  -6  -1   4   -2.67    5.03
  -6  -1   4    3.82    3.69
  -6  -1   4   -0.48    3.76
   6   1  -4    2.00    4.11
   6   1  -4    2.00    4.11
  -6  -1   3  145.02    8.06
  -6  -1   3  157.62    8.50
  -6  -1   3  166.78    6.80
  -6  -1   3  161.57    7.00
  -6  -1   3  145.02    8.06
  -6  -1   3  157.62    8.50
  -6  -1   3  166.78    6.80
  -6  -1   3  161.57    7.00
   6   1  -3  167.04    7.81
   6   1  -3  167.04    7.81
  -6  -1   2  183.39    7.60
  -6  -1   2  172.19    7.93
  -6  -1   2  189.29    6.28
  -6  -1   2  185.87    6.90
  -6  -1   2   59.13    3.94
  -6  -1   2  183.39    7.60
  -6  -1   2  172.19    7.93
  -6  -1   2  189.29    6.28
  -6  -1   2  185.87    6.90
  -6  -1   2   59.13    3.94
   6   1  -2  187.27    7.54
   6   1  -2  187.27    7.54
  -6  -1   1   31.55    4.60
  -6  -1   1   26.86    4.96
  -6  -1   1   29.66    3.25
  -6  -1   1   27.68    3.91
  -6  -1   1   36.54    3.82
  -6  -1   1   31.55    4.60
  -6  -1   1   26.86    4.96
  -6  -1   1   29.66    3.25
  -6  -1   1   27.68    3.91
  -6  -1   1   36.54    3.82
  -6  -1   0   94.94    7.11
  -6  -1   0   90.35    6.60
  -6  -1   0   96.61    3.71
  -6  -1   0   87.77    5.21
  -6  -1   0   74.40    5.10
  -6  -1   0   94.94    7.11
  -6  -1   0   90.35    6.60
  -6  -1   0   96.61    3.71
  -6  -1   0   87.77    5.21
  -6  -1   0   74.40    5.10
  -6  -1  -1  271.51    8.98
  -6  -1  -1  262.27    9.08
  -6  -1  -1  297.74    6.67
  -6  -1  -1  251.60    7.34
  -6  -1  -1  271.51    8.98
  -6  -1  -1  262.27    9.08
  -6  -1  -1  297.74    6.67
  -6  -1  -1  251.60    7.34
  -6  -1  -2   75.09    6.09
  -6  -1  -2   77.50    6.29
  -6  -1  -2   72.87    4.29
  -6  -1  -2   74.69    5.62
  -6  -1  -2   75.09    6.09
  -6  -1  -2   77.50    6.29
  -6  -1  -2   72.87    4.29
  -6  -1  -2   74.69    5.62
  -6  -1  -3    0.90    3.86
  -6  -1  -3    1.00    3.69
  -6  -1  -3    0.50    3.65
  -6  -1  -3    0.05    2.26
  -6  -1  -3    4.10    3.67
  -6  -1  -3    0.90    3.86
  -6  -1  -3    1.00    3.69
  -6  -1  -3    0.50    3.65
  -6  -1  -3    0.05    2.26
  -6  -1  -3    4.10    3.67
  -6  -1  -4  122.76    6.75
  -6  -1  -4  130.92    3.90
  -6  -1  -4  109.39    6.86
  -6  -1  -4  122.76    6.75
  -6  -1  -4  130.92    3.90
  -6  -1  -4  109.39    6.86
  -6  -1  -5    6.70    3.84
  -6  -1  -5    4.31    3.75
  -6  -1  -5    6.92    1.68
  -6  -1  -5    9.53    4.30
  -6  -1  -5    6.70    3.84
  -6  -1  -5    4.31    3.75
  -6  -1  -5    6.92    1.68
  -6  -1  -5    9.53    4.30
  -6  -1  -6   31.42    5.09
  -6  -1  -6   35.58    4.94
  -6  -1  -6   28.57    5.05
  -6  -1  -6   31.42    5.09
  -6  -1  -6   35.58    4.94
  -6  -1  -6   28.57    5.05
  -6  -1  -7  118.73    7.76
  -6  -1  -7  124.18    7.84
  -6  -1  -7  112.26    7.70
  -6  -1  -7  118.73    7.76
  -6  -1  -7  124.18    7.84
  -6  -1  -7  112.26    7.70
  -6  -1  -8   12.75    4.47
  -6  -1  -8    8.45    4.38
  -6  -1  -8   12.75    4.47
  -6  -1  -8    8.45    4.38
  -6  -1  -9   -0.17    4.21
  -6  -1  -9   -0.17    4.21
  -6  -1 -10   26.38    5.48
  -6  -1 -10   26.38    5.48
  -6  -1 -11   -1.35    4.50
  -6  -1 -11   -1.35    4.50
  -6  -1 -12   17.71    5.54
  -6  -1 -12   17.71    5.54
  -6  -1 -13   24.88    6.19
  -6  -1 -13   24.88    6.19
  -6  -2  11   26.05    6.58
  -6  -2  11   26.05    6.58
   6   2 -11   17.84    6.41
   6   2 -11   17.84    6.41
  -6  -2  10    1.21    5.19
  -6  -2  10    1.21    5.19
   6   2 -10   -3.11    4.79
   6   2 -10   -3.11    4.79
  -6  -2   9    3.02    4.96
  -6  -2   9    3.02    4.96
   6   2  -9    8.77    5.59
   6   2  -9    8.77    5.59
  -6  -2   8   48.70    6.39
  -6  -2   8   48.70    6.39
   6   2  -8   52.50    6.81
   6   2  -8   52.50    6.81
  -6  -2   7  125.39    7.76
  -6  -2   7  124.92    8.05
  -6  -2   7  125.39    7.76
  -6  -2   7  124.92    8.05
   6   2  -7  128.70    8.11
   6   2  -7  128.70    8.11
  -6  -2   6   88.57    7.94
  -6  -2   6   96.31    7.03
  -6  -2   6   85.32    7.04
  -6  -2   6   88.57    7.94
  -6  -2   6   96.31    7.03
  -6  -2   6   85.32    7.04
   6   2  -6   90.58    7.88
   6   2  -6   90.58    7.88
  -6  -2   5  105.81    7.56
  -6  -2   5  103.80    6.67
  -6  -2   5  100.36    6.95
  -6  -2   5  105.81    7.56
  -6  -2   5  103.80    6.67
  -6  -2   5  100.36    6.95
   6   2  -5  109.42    7.15
   6   2  -5  109.42    7.15
  -6  -2   4   11.29    4.40
  -6  -2   4    5.93    4.93
  -6  -2   4   11.45    3.72
  -6  -2   4    7.93    4.03
  -6  -2   4   11.29    4.40
  -6  -2   4    5.93    4.93
  -6  -2   4   11.45    3.72
  -6  -2   4    7.93    4.03
   6   2  -4    8.69    4.22
   6   2  -4    8.69    4.22
  -6  -2   3   26.66    4.88
  -6  -2   3   33.66    5.34
  -6  -2   3   36.25    4.26
  -6  -2   3   32.53    4.44
  -6  -2   3   26.66    4.88
  -6  -2   3   33.66    5.34
  -6  -2   3   36.25    4.26
  -6  -2   3   32.53    4.44
   6   2  -3   33.98    4.50
   6   2  -3   33.98    4.50
  -6  -2   2   15.12    4.30
  -6  -2   2   13.58    4.64
  -6  -2   2   10.72    3.23
  -6  -2   2   10.02    3.50
  -6  -2   2   10.31    2.93
  -6  -2   2   15.12    4.30
  -6  -2   2   13.58    4.64
  -6  -2   2   10.72    3.23
  -6  -2   2   10.02    3.50
  -6  -2   2   10.31    2.93
   6   2  -2   14.18    3.90
   6   2  -2   14.18    3.90
  -6  -2   1   18.77    4.38
  -6  -2   1   20.40    4.53
  -6  -2   1   19.15    3.04
  -6  -2   1   18.55    3.55
  -6  -2   1   11.86    3.28
  -6  -2   1   18.77    4.38
  -6  -2   1   20.40    4.53
  -6  -2   1   19.15    3.04
  -6  -2   1   18.55    3.55
  -6  -2   1   11.86    3.28
   6   2  -1   18.43    3.71
   6   2  -1   18.43    3.71
  -6  -2   0    3.12    3.79
  -6  -2   0    1.89    3.62
  -6  -2   0    0.16    1.97
  -6  -2   0    1.68    2.72
  -6  -2   0   -0.37    2.99
  -6  -2   0    3.12    3.79
  -6  -2   0    1.89    3.62
  -6  -2   0    0.16    1.97
  -6  -2   0    1.68    2.72
  -6  -2   0   -0.37    2.99
  -6  -2  -1    6.49    3.90
  -6  -2  -1    6.61    3.63
  -6  -2  -1    8.01    2.77
  -6  -2  -1    7.13    3.34
  -6  -2  -1    6.49    3.90
  -6  -2  -1    6.61    3.63
  -6  -2  -1    8.01    2.77
  -6  -2  -1    7.13    3.34
  -6  -2  -2  170.57    7.75
  -6  -2  -2  170.11    7.60
  -6  -2  -2  163.48    7.77
  -6  -2  -2  180.73    5.19
  -6  -2  -2  142.54    6.56
  -6  -2  -2  170.57    7.75
  -6  -2  -2  170.11    7.60
  -6  -2  -2  163.48    7.77
  -6  -2  -2  180.73    5.19
  -6  -2  -2  142.54    6.56
  -6  -2  -3  169.31    7.22
  -6  -2  -3  185.61    7.52
  -6  -2  -3  178.37    4.74
  -6  -2  -3  150.70    6.85
  -6  -2  -3  169.31    7.22
  -6  -2  -3  185.61    7.52
  -6  -2  -3  178.37    4.74
  -6  -2  -3  150.70    6.85
  -6  -2  -4   45.70    5.23
  -6  -2  -4   46.91    3.15
  -6  -2  -4   46.81    5.75
  -6  -2  -4   45.70    5.23
  -6  -2  -4   46.91    3.15
  -6  -2  -4   46.81    5.75
  -6  -2  -5    3.64    4.11
  -6  -2  -5    2.27    1.52
  -6  -2  -5    1.65    3.76
  -6  -2  -5    3.64    4.11
  -6  -2  -5    2.27    1.52
  -6  -2  -5    1.65    3.76
  -6  -2  -6   44.09    5.36
  -6  -2  -6   34.31    4.79
  -6  -2  -6   31.52    4.86
  -6  -2  -6   44.09    5.36
  -6  -2  -6   34.31    4.79
  -6  -2  -6   31.52    4.86
  -6  -2  -7    2.60    3.91
  -6  -2  -7    0.30    3.74
  -6  -2  -7    7.31    4.50
  -6  -2  -7    2.60    3.91
  -6  -2  -7    0.30    3.74
  -6  -2  -7    7.31    4.50
  -6  -2  -8    4.70    4.49
  -6  -2  -8    4.02    4.05
  -6  -2  -8   10.00    4.72
  -6  -2  -8    4.70    4.49
  -6  -2  -8    4.02    4.05
  -6  -2  -8   10.00    4.72
  -6  -2  -9   23.56    5.39
  -6  -2  -9   26.42    5.09
  -6  -2  -9   23.17    5.63
  -6  -2  -9   23.56    5.39
  -6  -2  -9   26.42    5.09
  -6  -2  -9   23.17    5.63
  -6  -2 -10    0.72    4.29
  -6  -2 -10   -1.07    1.49
  -6  -2 -10    0.72    4.29
  -6  -2 -10   -1.07    1.49
  -6  -2 -11    8.16    4.76
  -6  -2 -11    3.43    1.99
  -6  -2 -11    8.16    4.76
  -6  -2 -11    3.43    1.99
  -6  -2 -12   34.19    6.08
  -6  -2 -12   28.33    3.00
  -6  -2 -12   34.19    6.08
  -6  -2 -12   28.33    3.00
  -6  -2 -13    2.23    4.92
  -6  -2 -13   -0.76    2.58
  -6  -2 -13    2.23    4.92
  -6  -2 -13   -0.76    2.58
  -6  -2 -14   10.62    5.37
  -6  -2 -14    7.42    3.12
  -6  -2 -14   10.62    5.37
  -6  -2 -14    7.42    3.12
  -6  -3  11   16.99    6.22
  -6  -3  11   16.99    6.22
   6   3 -11   14.54    6.36
   6   3 -11   14.54    6.36
  -6  -3  10    9.06    5.60
  -6  -3  10    9.06    5.60
   6   3 -10    9.47    5.67
   6   3 -10    9.47    5.67
  -6  -3   9   -3.70    4.85
  -6  -3   9   -3.70    4.85
   6   3  -9    0.48    5.14
   6   3  -9    0.48    5.14
  -6  -3   8    4.04    4.77
  -6  -3   8    4.04    4.77
   6   3  -8   -0.39    5.03
   6   3  -8   -0.39    5.03
  -6  -3   7    2.38    4.41
  -6  -3   7   -3.60    4.37
  -6  -3   7    2.38    4.41
  -6  -3   7   -3.60    4.37
   6   3  -7   -1.06    4.74
   6   3  -7   -1.06    4.74
  -6  -3   6   34.93    5.38
  -6  -3   6   44.83    5.51
  -6  -3   6   45.50    5.75
  -6  -3   6   34.93    5.38
  -6  -3   6   44.83    5.51
  -6  -3   6   45.50    5.75
   6   3  -6   40.20    5.91
   6   3  -6   40.20    5.91
  -6  -3   5  107.44    6.85
  -6  -3   5  119.02    7.00
  -6  -3   5  127.81    7.39
  -6  -3   5  107.44    6.85
  -6  -3   5  119.02    7.00
  -6  -3   5  127.81    7.39
   6   3  -5  120.74    7.37
   6   3  -5  120.74    7.37
  -6  -3   4   20.75    4.29
  -6  -3   4   19.52    5.03
  -6  -3   4   20.18    4.02
  -6  -3   4   20.56    4.45
  -6  -3   4   20.75    4.29
  -6  -3   4   19.52    5.03
  -6  -3   4   20.18    4.02
  -6  -3   4   20.56    4.45
   6   3  -4   20.80    4.36
   6   3  -4   20.80    4.36
  -6  -3   3   39.65    4.81
  -6  -3   3   32.24    5.04
  -6  -3   3   42.41    5.08
  -6  -3   3   38.44    4.44
  -6  -3   3   14.92    2.74
  -6  -3   3   39.65    4.81
  -6  -3   3   32.24    5.04
  -6  -3   3   42.41    5.08
  -6  -3   3   38.44    4.44
  -6  -3   3   14.92    2.74
   6   3  -3   41.15    5.02
   6   3  -3   41.15    5.02
  -6  -3   2   17.38    4.01
  -6  -3   2   17.19    4.40
  -6  -3   2   16.22    3.44
  -6  -3   2   12.95    3.84
  -6  -3   2   18.18    3.40
  -6  -3   2   17.38    4.01
  -6  -3   2   17.19    4.40
  -6  -3   2   16.22    3.44
  -6  -3   2   12.95    3.84
  -6  -3   2   18.18    3.40
   6   3  -2   18.63    4.06
   6   3  -2   18.63    4.06
  -6  -3   1  161.93    6.97
  -6  -3   1  154.71    6.94
  -6  -3   1  165.87    5.73
  -6  -3   1  173.43    6.37
  -6  -3   1  155.13    6.01
  -6  -3   1  161.93    6.97
  -6  -3   1  154.71    6.94
  -6  -3   1  165.87    5.73
  -6  -3   1  173.43    6.37
  -6  -3   1  155.13    6.01
   6   3  -1  180.57    6.96
   6   3  -1  180.57    6.96
  -6  -3   0    8.62    3.71
  -6  -3   0    6.44    3.59
  -6  -3   0    6.83    2.36
  -6  -3   0    6.33    3.10
  -6  -3   0    5.24    3.32
  -6  -3   0    8.62    3.71
  -6  -3   0    6.44    3.59
  -6  -3   0    6.83    2.36
  -6  -3   0    6.33    3.10
  -6  -3   0    5.24    3.32
  -6  -3  -1   34.59    4.57
  -6  -3  -1   34.73    4.58
  -6  -3  -1   34.94    3.53
  -6  -3  -1   36.94    4.36
  -6  -3  -1   34.59    4.57
  -6  -3  -1   34.73    4.58
  -6  -3  -1   34.94    3.53
  -6  -3  -1   36.94    4.36
  -6  -3  -2    1.89    3.81
  -6  -3  -2    5.49    3.80
  -6  -3  -2    2.58    2.40
  -6  -3  -2    3.42    3.55
  -6  -3  -2    1.89    3.81
  -6  -3  -2    5.49    3.80
  -6  -3  -2    2.58    2.40
  -6  -3  -2    3.42    3.55
  -6  -3  -3   -1.87    3.30
  -6  -3  -3    2.31    3.35
  -6  -3  -3    1.32    2.29
  -6  -3  -3    1.31    3.57
  -6  -3  -3   -1.87    3.30
  -6  -3  -3    2.31    3.35
  -6  -3  -3    1.32    2.29
  -6  -3  -3    1.31    3.57
  -6  -3  -4    2.99    3.54
  -6  -3  -4    6.73    2.19
  -6  -3  -4    3.43    3.73
  -6  -3  -4    2.99    3.54
  -6  -3  -4    6.73    2.19
  -6  -3  -4    3.43    3.73
  -6  -3  -5  160.20    7.35
  -6  -3  -5  172.70    3.89
  -6  -3  -5  158.45    8.00
  -6  -3  -5  160.20    7.35
  -6  -3  -5  172.70    3.89
  -6  -3  -5  158.45    8.00
  -6  -3  -6   29.17    4.68
  -6  -3  -6   31.37    2.47
  -6  -3  -6   28.97    4.80
  -6  -3  -6   29.17    4.68
  -6  -3  -6   31.37    2.47
  -6  -3  -6   28.97    4.80
  -6  -3  -7  476.67   11.67
  -6  -3  -7  526.59   11.74
  -6  -3  -7  460.62   11.23
  -6  -3  -7  476.67   11.67
  -6  -3  -7  526.59   11.74
  -6  -3  -7  460.62   11.23
  -6  -3  -8   42.31    5.67
  -6  -3  -8   49.01    5.44
  -6  -3  -8   50.71    6.05
  -6  -3  -8   42.31    5.67
  -6  -3  -8   49.01    5.44
  -6  -3  -8   50.71    6.05
  -6  -3  -9    0.70    3.96
  -6  -3  -9    2.16    1.67
  -6  -3  -9   -1.60    4.62
  -6  -3  -9    0.70    3.96
  -6  -3  -9    2.16    1.67
  -6  -3  -9   -1.60    4.62
  -6  -3 -10   44.20    5.68
  -6  -3 -10   30.86    3.04
  -6  -3 -10   40.56    6.24
  -6  -3 -10   44.20    5.68
  -6  -3 -10   30.86    3.04
  -6  -3 -10   40.56    6.24
  -6  -3 -11   26.77    5.34
  -6  -3 -11   16.88    2.59
  -6  -3 -11   20.29    6.03
  -6  -3 -11   26.77    5.34
  -6  -3 -11   16.88    2.59
  -6  -3 -11   20.29    6.03
  -6  -3 -12    0.25    4.44
  -6  -3 -12   -0.89    2.44
  -6  -3 -12    0.25    4.44
  -6  -3 -12   -0.89    2.44
  -6  -3 -13   -0.64    4.18
  -6  -3 -13    0.84    2.73
  -6  -3 -13   -0.64    4.18
  -6  -3 -13    0.84    2.73
  -6  -3 -14   13.90    3.44
  -6  -3 -14   13.90    3.44
  -6  -4  10   13.71    5.75
  -6  -4  10   13.71    5.75
   6   4 -10   10.06    5.85
   6   4 -10   10.06    5.85
  -6  -4   9    5.81    5.25
  -6  -4   9    5.81    5.25
   6   4  -9    8.84    5.69
   6   4  -9    8.84    5.69
  -6  -4   8    3.18    4.83
  -6  -4   8    3.18    4.83
   6   4  -8    3.75    5.24
   6   4  -8    3.75    5.24
  -6  -4   7   29.00    5.41
  -6  -4   7   33.95    5.71
  -6  -4   7   29.00    5.41
  -6  -4   7   33.95    5.71
   6   4  -7   27.50    5.78
   6   4  -7   27.50    5.78
  -6  -4   6   35.02    5.29
  -6  -4   6   46.16    5.79
  -6  -4   6   35.02    5.29
  -6  -4   6   46.16    5.79
   6   4  -6   40.56    5.97
   6   4  -6   40.56    5.97
  -6  -4   5   -2.57    4.52
  -6  -4   5    4.06    3.98
  -6  -4   5   -0.67    4.00
  -6  -4   5   -2.57    4.52
  -6  -4   5    4.06    3.98
  -6  -4   5   -0.67    4.00
   6   4  -5    2.58    4.09
   6   4  -5    2.58    4.09
  -6  -4   4   61.42    6.44
  -6  -4   4   63.25    7.09
  -6  -4   4   74.18    6.08
  -6  -4   4   59.30    6.16
  -6  -4   4   61.42    6.44
  -6  -4   4   63.25    7.09
  -6  -4   4   74.18    6.08
  -6  -4   4   59.30    6.16
   6   4  -4   71.26    6.40
   6   4  -4   71.26    6.40
  -6  -4   3  110.26    6.23
  -6  -4   3  114.71    7.04
  -6  -4   3  125.63    6.32
  -6  -4   3  115.60    6.63
  -6  -4   3  110.26    6.23
  -6  -4   3  114.71    7.04
  -6  -4   3  125.63    6.32
  -6  -4   3  115.60    6.63
   6   4  -3  113.88    6.57
   6   4  -3  113.88    6.57
  -6  -4   2   18.22    3.84
  -6  -4   2   18.04    4.13
  -6  -4   2   17.70    3.63
  -6  -4   2   20.39    3.92
  -6  -4   2   18.22    3.84
  -6  -4   2   18.04    4.13
  -6  -4   2   17.70    3.63
  -6  -4   2   20.39    3.92
   6   4  -2   19.32    4.24
   6   4  -2   19.32    4.24
  -6  -4   1   87.71    6.16
  -6  -4   1   86.41    6.37
  -6  -4   1   83.89    5.39
  -6  -4   1   83.96    5.52
  -6  -4   1   87.71    6.16
  -6  -4   1   86.41    6.37
  -6  -4   1   83.89    5.39
  -6  -4   1   83.96    5.52
   6   4  -1   96.19    6.29
   6   4  -1   96.19    6.29
  -6  -4   0   19.13    3.76
  -6  -4   0   15.02    3.95
  -6  -4   0   16.10    2.83
  -6  -4   0   12.65    3.28
  -6  -4   0   19.13    3.76
  -6  -4   0   15.02    3.95
  -6  -4   0   16.10    2.83
  -6  -4   0   12.65    3.28
  -6  -4  -1   60.88    5.99
  -6  -4  -1   67.62    4.84
  -6  -4  -1   45.42    5.20
  -6  -4  -1   60.88    5.99
  -6  -4  -1   67.62    4.84
  -6  -4  -1   45.42    5.20
  -6  -4  -2  312.65    8.55
  -6  -4  -2  313.53    8.69
  -6  -4  -2  316.37    6.86
  -6  -4  -2  273.56    8.20
  -6  -4  -2  312.65    8.55
  -6  -4  -2  313.53    8.69
  -6  -4  -2  316.37    6.86
  -6  -4  -2  273.56    8.20
  -6  -4  -3  201.87    8.14
  -6  -4  -3  208.51    5.53
  -6  -4  -3  193.50    7.66
  -6  -4  -3  201.87    8.14
  -6  -4  -3  208.51    5.53
  -6  -4  -3  193.50    7.66
  -6  -4  -4   14.72    4.27
  -6  -4  -4   17.24    2.70
  -6  -4  -4   17.56    4.32
  -6  -4  -4   14.72    4.27
  -6  -4  -4   17.24    2.70
  -6  -4  -4   17.56    4.32
  -6  -4  -5  140.41    7.68
  -6  -4  -5  149.64    4.42
  -6  -4  -5  130.16    7.53
  -6  -4  -5  140.41    7.68
  -6  -4  -5  149.64    4.42
  -6  -4  -5  130.16    7.53
  -6  -4  -6   16.76    4.67
  -6  -4  -6   16.58    2.36
  -6  -4  -6   14.76    4.47
  -6  -4  -6   16.76    4.67
  -6  -4  -6   16.58    2.36
  -6  -4  -6   14.76    4.47
  -6  -4  -7   27.78    5.19
  -6  -4  -7   26.50    3.12
  -6  -4  -7   12.25    4.63
  -6  -4  -7   27.78    5.19
  -6  -4  -7   26.50    3.12
  -6  -4  -7   12.25    4.63
  -6  -4  -8   91.88    6.92
  -6  -4  -8  100.40    3.85
  -6  -4  -8   78.49    7.08
  -6  -4  -8   91.88    6.92
  -6  -4  -8  100.40    3.85
  -6  -4  -8   78.49    7.08
  -6  -4  -9   10.78    4.18
  -6  -4  -9   13.61    2.61
  -6  -4  -9    9.52    4.85
  -6  -4  -9   10.78    4.18
  -6  -4  -9   13.61    2.61
  -6  -4  -9    9.52    4.85
  -6  -4 -10   12.45    4.44
  -6  -4 -10   13.00    2.76
  -6  -4 -10   10.28    5.29
  -6  -4 -10   12.45    4.44
  -6  -4 -10   13.00    2.76
  -6  -4 -10   10.28    5.29
  -6  -4 -11    4.76    4.14
  -6  -4 -11    8.35    2.94
  -6  -4 -11    2.63    5.36
  -6  -4 -11    4.76    4.14
  -6  -4 -11    8.35    2.94
  -6  -4 -11    2.63    5.36
  -6  -4 -12   10.66    4.38
  -6  -4 -12   20.22    3.58
  -6  -4 -12   15.03    5.92
  -6  -4 -12   10.66    4.38
  -6  -4 -12   20.22    3.58
  -6  -4 -12   15.03    5.92
  -6  -4 -13   11.93    3.59
  -6  -4 -13   11.93    3.59
  -6  -4 -14    2.22    3.46
  -6  -4 -14    2.22    3.46
  -6  -5  10    3.57    5.57
  -6  -5  10    3.57    5.57
   6   5 -10    3.84    5.10
   6   5 -10    6.58    5.87
   6   5 -10    3.84    5.10
   6   5 -10    6.58    5.87
  -6  -5   9    1.44    5.18
  -6  -5   9    1.44    5.18
   6   5  -9    2.08    5.38
   6   5  -9    2.08    5.38
  -6  -5   8   20.77    5.65
  -6  -5   8   20.77    5.65
   6   5  -8   17.60    5.96
   6   5  -8   17.60    5.96
  -6  -5   7   -1.65    4.48
  -6  -5   7   -1.65    4.48
   6   5  -7    0.26    4.94
   6   5  -7    0.26    4.94
  -6  -5   6   34.20    5.36
  -6  -5   6   35.08    5.59
  -6  -5   6   34.20    5.36
  -6  -5   6   35.08    5.59
   6   5  -6   32.77    5.57
   6   5  -6   32.77    5.57
  -6  -5   5   88.58    7.30
  -6  -5   5   86.19    6.81
  -6  -5   5   92.73    7.10
  -6  -5   5   88.58    7.30
  -6  -5   5   86.19    6.81
  -6  -5   5   92.73    7.10
   6   5  -5   99.12    8.18
   6   5  -5   99.12    8.18
  -6  -5   4    4.72    4.13
  -6  -5   4   -2.32    3.60
  -6  -5   4   -1.40    3.95
  -6  -5   4    4.72    4.13
  -6  -5   4   -2.32    3.60
  -6  -5   4   -1.40    3.95
   6   5  -4   -0.74    3.84
   6   5  -4   -0.74    3.84
  -6  -5   3   76.17    6.04
  -6  -5   3   72.39    6.40
  -6  -5   3   69.40    6.12
  -6  -5   3   76.17    6.04
  -6  -5   3   72.39    6.40
  -6  -5   3   69.40    6.12
   6   5  -3   76.14    6.43
   6   5  -3   76.14    6.43
  -6  -5   2   29.72    3.69
  -6  -5   2   32.21    4.37
  -6  -5   2   28.46    3.96
  -6  -5   2   28.16    4.33
  -6  -5   2   29.72    3.69
  -6  -5   2   32.21    4.37
  -6  -5   2   28.46    3.96
  -6  -5   2   28.16    4.33
   6   5  -2   28.40    4.34
   6   5  -2   28.40    4.34
  -6  -5   1   70.78    5.73
  -6  -5   1   72.30    5.29
  -6  -5   1   66.08    5.49
  -6  -5   1   70.78    5.73
  -6  -5   1   72.30    5.29
  -6  -5   1   66.08    5.49
   6   5  -1   75.18    6.36
   6   5  -1   75.18    6.36
  -6  -5   0   15.23    3.69
  -6  -5   0   14.52    3.11
  -6  -5   0   17.44    3.73
  -6  -5   0   15.23    3.69
  -6  -5   0   14.52    3.11
  -6  -5   0   17.44    3.73
  -6  -5  -1   95.26    6.57
  -6  -5  -1   91.67    5.21
  -6  -5  -1   95.26    6.57
  -6  -5  -1   91.67    5.21
  -6  -5  -2    4.52    3.90
  -6  -5  -2    0.04    2.86
  -6  -5  -2    4.52    3.90
  -6  -5  -2    0.04    2.86
  -6  -5  -3  139.09    6.88
  -6  -5  -3  144.44    5.60
  -6  -5  -3  139.09    6.88
  -6  -5  -3  144.44    5.60
  -6  -5  -4  135.90    7.47
  -6  -5  -4  130.44    5.13
  -6  -5  -4  119.13    7.11
  -6  -5  -4  135.90    7.47
  -6  -5  -4  130.44    5.13
  -6  -5  -4  119.13    7.11
  -6  -5  -5   34.56    4.76
  -6  -5  -5   33.79    3.38
  -6  -5  -5   32.68    4.98
  -6  -5  -5   34.56    4.76
  -6  -5  -5   33.79    3.38
  -6  -5  -5   32.68    4.98
  -6  -5  -6   10.07    4.49
  -6  -5  -6   14.40    2.82
  -6  -5  -6   13.63    4.54
  -6  -5  -6   10.07    4.49
  -6  -5  -6   14.40    2.82
  -6  -5  -6   13.63    4.54
  -6  -5  -7  157.61    8.38
  -6  -5  -7  173.39    5.31
  -6  -5  -7  146.11    8.21
  -6  -5  -7  157.61    8.38
  -6  -5  -7  173.39    5.31
  -6  -5  -7  146.11    8.21
  -6  -5  -8   41.12    5.56
  -6  -5  -8   46.14    4.19
  -6  -5  -8   46.49    6.00
  -6  -5  -8   41.12    5.56
  -6  -5  -8   46.14    4.19
  -6  -5  -8   46.49    6.00
  -6  -5  -9    0.12    2.74
  -6  -5  -9    3.83    4.64
  -6  -5  -9    0.12    2.74
  -6  -5  -9    3.83    4.64
  -6  -5 -10    0.77    2.85
  -6  -5 -10    2.55    4.98
  -6  -5 -10    0.77    2.85
  -6  -5 -10    2.55    4.98
  -6  -5 -11    2.22    3.15
  -6  -5 -11   -1.16    5.06
  -6  -5 -11    2.22    3.15
  -6  -5 -11   -1.16    5.06
  -6  -5 -12    7.54    3.51
  -6  -5 -12    0.96    5.51
  -6  -5 -12    7.54    3.51
  -6  -5 -12    0.96    5.51
  -6  -5 -13    5.22    3.75
  -6  -5 -13   11.12    6.09
  -6  -5 -13    5.22    3.75
  -6  -5 -13   11.12    6.09
  -6  -6  10   13.85    6.18
  -6  -6  10   13.85    6.18
   6   6 -10   14.27    5.53
   6   6 -10   12.45    6.25
   6   6 -10   14.27    5.53
   6   6 -10   12.45    6.25
  -6  -6   9    0.62    5.26
  -6  -6   9    0.62    5.26
   6   6  -9    2.53    5.07
   6   6  -9    1.86    5.58
   6   6  -9    2.53    5.07
   6   6  -9    1.86    5.58
  -6  -6   8   23.56    5.79
  -6  -6   8   23.56    5.79
   6   6  -8   26.45    5.82
   6   6  -8   22.44    6.16
   6   6  -8   26.45    5.82
   6   6  -8   22.44    6.16
  -6  -6   7   86.48    7.66
  -6  -6   7   86.48    7.66
   6   6  -7   86.31    7.63
   6   6  -7   90.76    7.98
   6   6  -7   86.31    7.63
   6   6  -7   90.76    7.98
  -6  -6   6   70.47    7.50
  -6  -6   6   59.90    7.04
  -6  -6   6   70.47    7.50
  -6  -6   6   59.90    7.04
   6   6  -6   63.98    7.11
   6   6  -6   56.76    6.49
   6   6  -6   63.98    7.11
   6   6  -6   56.76    6.49
  -6  -6   5   12.21    4.67
  -6  -6   5    8.91    4.64
  -6  -6   5   12.21    4.67
  -6  -6   5    8.91    4.64
   6   6  -5   11.55    4.75
   6   6  -5   11.55    4.75
  -6  -6   4   51.59    5.53
  -6  -6   4   58.79    6.36
  -6  -6   4   51.59    5.53
  -6  -6   4   58.79    6.36
   6   6  -4   54.52    6.23
   6   6  -4   54.52    6.23
  -6  -6   3   42.96    5.05
  -6  -6   3   43.22    5.22
  -6  -6   3   42.96    5.05
  -6  -6   3   43.22    5.22
   6   6  -3   46.36    5.69
   6   6  -3   46.36    5.69
  -6  -6   2   17.49    3.78
  -6  -6   2   10.27    3.82
  -6  -6   2   11.27    4.13
  -6  -6   2   17.49    3.78
  -6  -6   2   10.27    3.82
  -6  -6   2   11.27    4.13
   6   6  -2   10.52    4.01
   6   6  -2   10.52    4.01
  -6  -6   1   20.83    3.70
  -6  -6   1   18.64    3.76
  -6  -6   1   19.13    4.11
  -6  -6   1   20.83    3.70
  -6  -6   1   18.64    3.76
  -6  -6   1   19.13    4.11
   6   6  -1   24.23    4.25
   6   6  -1   24.23    4.25
  -6  -6   0   58.52    5.08
  -6  -6   0   59.07    4.88
  -6  -6   0   56.61    5.70
  -6  -6   0   58.52    5.08
  -6  -6   0   59.07    4.88
  -6  -6   0   56.61    5.70
   6   6   0   59.84    6.24
   6   6   0   59.84    6.24
  -6  -6  -1   25.60    4.51
  -6  -6  -1   25.60    4.02
  -6  -6  -1   25.60    4.51
  -6  -6  -1   25.60    4.02
  -6  -6  -2  128.62    7.31
  -6  -6  -2  139.68    5.90
  -6  -6  -2  128.62    7.31
  -6  -6  -2  139.68    5.90
  -6  -6  -3   32.82    4.74
  -6  -6  -3   30.92    3.85
  -6  -6  -3   32.82    4.74
  -6  -6  -3   30.92    3.85
  -6  -6  -4   20.30    4.54
  -6  -6  -4   27.44    3.64
  -6  -6  -4   20.30    4.54
  -6  -6  -4   27.44    3.64
  -6  -6  -5   38.02    5.15
  -6  -6  -5   34.33    3.31
  -6  -6  -5   32.85    3.83
  -6  -6  -5   19.04    4.57
  -6  -6  -5   38.02    5.15
  -6  -6  -5   34.33    3.31
  -6  -6  -5   32.85    3.83
  -6  -6  -5   19.04    4.57
  -6  -6  -6   43.12    5.43
  -6  -6  -6   14.26    1.65
  -6  -6  -6   38.36    4.56
  -6  -6  -6   31.97    5.38
  -6  -6  -6   43.12    5.43
  -6  -6  -6   14.26    1.65
  -6  -6  -6   38.36    4.56
  -6  -6  -6   31.97    5.38
  -6  -6  -7   19.31    4.92
  -6  -6  -7   25.21    3.59
  -6  -6  -7   20.05    5.15
  -6  -6  -7   19.31    4.92
  -6  -6  -7   25.21    3.59
  -6  -6  -7   20.05    5.15
  -6  -6  -8  176.22    8.90
  -6  -6  -8  172.41    6.23
  -6  -6  -8  143.78    8.58
  -6  -6  -8  176.22    8.90
  -6  -6  -8  172.41    6.23
  -6  -6  -8  143.78    8.58
  -6  -6  -9   54.94    5.09
  -6  -6  -9   57.53    6.80
  -6  -6  -9   54.94    5.09
  -6  -6  -9   57.53    6.80
  -6  -6 -10    0.09    3.30
  -6  -6 -10   -1.49    4.89
  -6  -6 -10    0.09    3.30
  -6  -6 -10   -1.49    4.89
  -6  -6 -11   24.67    4.28
  -6  -6 -11   25.26    6.15
  -6  -6 -11   24.67    4.28
  -6  -6 -11   25.26    6.15
  -6  -6 -12    2.40    3.70
  -6  -6 -12    2.81    5.51
  -6  -6 -12    2.40    3.70
  -6  -6 -12    2.81    5.51
  -6  -6 -13    5.23    4.07
  -6  -6 -13    4.24    6.00
  -6  -6 -13    5.23    4.07
  -6  -6 -13    4.24    6.00
  -6  -7   9    8.95    5.93
  -6  -7   9    8.95    5.93
   6   7  -9    7.75    5.17
   6   7  -9   11.26    6.27
   6   7  -9    7.75    5.17
   6   7  -9   11.26    6.27
  -6  -7   8    4.21    5.36
  -6  -7   8    4.21    5.36
   6   7  -8    1.99    4.92
   6   7  -8    4.07    5.22
   6   7  -8    1.99    4.92
   6   7  -8    4.07    5.22
  -6  -7   7    8.44    5.31
  -6  -7   7    8.44    5.31
   6   7  -7    8.60    4.99
   6   7  -7    9.06    5.67
   6   7  -7    8.60    4.99
   6   7  -7    9.06    5.67
  -6  -7   6    1.66    4.70
  -6  -7   6    2.93    4.88
  -6  -7   6    1.66    4.70
  -6  -7   6    2.93    4.88
   6   7  -6    2.69    4.69
   6   7  -6    2.96    4.74
   6   7  -6    2.69    4.69
   6   7  -6    2.96    4.74
  -6  -7   5    1.55    4.37
  -6  -7   5    0.87    4.10
  -6  -7   5    1.55    4.37
  -6  -7   5    0.87    4.10
   6   7  -5    3.12    4.52
   6   7  -5    0.02    4.93
   6   7  -5    3.12    4.52
   6   7  -5    0.02    4.93
  -6  -7   4   30.02    5.04
  -6  -7   4   39.69    5.50
  -6  -7   4   30.02    5.04
  -6  -7   4   39.69    5.50
   6   7  -4   37.73    5.53
   6   7  -4   40.13    6.06
   6   7  -4   37.73    5.53
   6   7  -4   40.13    6.06
  -6  -7   3  111.66    7.15
  -6  -7   3  112.47    7.26
  -6  -7   3  111.66    7.15
  -6  -7   3  112.47    7.26
   6   7  -3  112.10    6.85
   6   7  -3  135.16    8.73
   6   7  -3  112.10    6.85
   6   7  -3  135.16    8.73
  -6  -7   2  100.53    6.45
  -6  -7   2  106.24    6.99
  -6  -7   2  100.53    6.45
  -6  -7   2  106.24    6.99
   6   7  -2  107.07    7.16
   6   7  -2  110.31    7.22
   6   7  -2  107.07    7.16
   6   7  -2  110.31    7.22
  -6  -7   1   46.26    5.24
  -6  -7   1   50.39    5.86
  -6  -7   1   46.26    5.24
  -6  -7   1   50.39    5.86
   6   7  -1   50.19    5.59
   6   7  -1   50.19    5.59
  -6  -7   0   -1.77    3.28
  -6  -7   0    2.82    3.55
  -6  -7   0   -1.77    3.28
  -6  -7   0    2.82    3.55
   6   7   0    0.66    3.83
   6   7   0    0.66    3.83
  -6  -7  -1    1.62    3.76
  -6  -7  -1   -2.82    3.35
  -6  -7  -1    1.62    3.76
  -6  -7  -1   -2.82    3.35
  -6  -7  -2    0.51    3.71
  -6  -7  -2   -1.17    3.23
  -6  -7  -2    0.51    3.71
  -6  -7  -2   -1.17    3.23
  -6  -7  -3    6.74    4.22
  -6  -7  -3   12.14    3.56
  -6  -7  -3    6.74    4.22
  -6  -7  -3   12.14    3.56
  -6  -7  -4   -1.26    4.03
  -6  -7  -4    3.70    3.40
  -6  -7  -4   -1.26    4.03
  -6  -7  -4    3.70    3.40
  -6  -7  -5    2.11    4.06
  -6  -7  -5    0.68    3.31
  -6  -7  -5    2.11    4.06
  -6  -7  -5    0.68    3.31
  -6  -7  -6   59.21    6.69
  -6  -7  -6   63.87    4.22
  -6  -7  -6   66.14    5.32
  -6  -7  -6   59.21    6.69
  -6  -7  -6   63.87    4.22
  -6  -7  -6   66.14    5.32
  -6  -7  -7    7.75    4.67
  -6  -7  -7    7.43    2.04
  -6  -7  -7   14.43    3.72
  -6  -7  -7   20.37    5.31
  -6  -7  -7    7.75    4.67
  -6  -7  -7    7.43    2.04
  -6  -7  -7   14.43    3.72
  -6  -7  -7   20.37    5.31
  -6  -7  -8    2.28    3.61
  -6  -7  -8    3.40    4.87
  -6  -7  -8    2.28    3.61
  -6  -7  -8    3.40    4.87
  -6  -7  -9   24.90    4.30
  -6  -7  -9   26.68    5.98
  -6  -7  -9   24.90    4.30
  -6  -7  -9   26.68    5.98
  -6  -7 -10   19.87    4.27
  -6  -7 -10   18.86    5.97
  -6  -7 -10   19.87    4.27
  -6  -7 -10   18.86    5.97
  -6  -7 -11   -2.75    3.80
  -6  -7 -11    2.67    5.37
  -6  -7 -11   -2.75    3.80
  -6  -7 -11    2.67    5.37
  -6  -7 -12   14.52    4.45
  -6  -7 -12   11.06    6.03
  -6  -7 -12   14.52    4.45
  -6  -7 -12   11.06    6.03
  -6  -7 -13   84.82    6.84
  -6  -7 -13   84.82    6.84
  -6  -8   9   15.87    6.61
  -6  -8   9   15.87    6.61
   6   8  -9   14.60    5.99
   6   8  -9   15.63    6.45
   6   8  -9   14.60    5.99
   6   8  -9   15.63    6.45
  -6  -8   8    9.97    5.93
  -6  -8   8    9.97    5.93
   6   8  -8   11.84    5.48
   6   8  -8   12.16    6.21
   6   8  -8   11.84    5.48
   6   8  -8   12.16    6.21
  -6  -8   7   30.65    6.31
  -6  -8   7   30.65    6.31
   6   8  -7   31.91    5.90
   6   8  -7   29.52    6.20
   6   8  -7   31.91    5.90
   6   8  -7   29.52    6.20
  -6  -8   6   32.96    6.05
  -6  -8   6   32.96    6.05
   6   8  -6   29.35    5.73
   6   8  -6   29.58    6.47
   6   8  -6   29.35    5.73
   6   8  -6   29.58    6.47
  -6  -8   5   15.48    5.41
  -6  -8   5   19.42    5.41
  -6  -8   5   15.48    5.41
  -6  -8   5   19.42    5.41
   6   8  -5   12.55    5.14
   6   8  -5   16.56    5.36
   6   8  -5   12.55    5.14
   6   8  -5   16.56    5.36
  -6  -8   4   15.31    4.94
  -6  -8   4   15.13    5.07
  -6  -8   4   15.31    4.94
  -6  -8   4   15.13    5.07
   6   8  -4   12.24    4.86
   6   8  -4   16.65    5.66
   6   8  -4   12.24    4.86
   6   8  -4   16.65    5.66
  -6  -8   3    4.66    4.28
  -6  -8   3    6.37    4.55
  -6  -8   3    4.66    4.28
  -6  -8   3    6.37    4.55
   6   8  -3    4.80    4.17
   6   8  -3    2.52    4.46
   6   8  -3    4.80    4.17
   6   8  -3    2.52    4.46
  -6  -8   2   72.97    6.48
  -6  -8   2   74.38    6.78
  -6  -8   2   72.97    6.48
  -6  -8   2   74.38    6.78
   6   8  -2   79.51    7.07
   6   8  -2   80.44    7.98
   6   8  -2   79.51    7.07
   6   8  -2   80.44    7.98
  -6  -8   1   38.83    4.74
  -6  -8   1   32.46    5.14
  -6  -8   1   38.83    4.74
  -6  -8   1   32.46    5.14
   6   8  -1   41.17    5.72
   6   8  -1   41.17    5.72
  -6  -8   0    2.29    3.97
  -6  -8   0    6.51    4.10
  -6  -8   0    2.29    3.97
  -6  -8   0    6.51    4.10
   6   8   0    2.21    3.91
   6   8   0    2.21    3.91
  -6  -8  -1   41.14    4.94
  -6  -8  -1   41.75    5.05
  -6  -8  -1   41.14    4.94
  -6  -8  -1   41.75    5.05
  -6  -8  -2   52.22    6.02
  -6  -8  -2   50.28    5.64
  -6  -8  -2   52.22    6.02
  -6  -8  -2   50.28    5.64
  -6  -8  -3   55.00    5.99
  -6  -8  -3   48.96    5.92
  -6  -8  -3   55.00    5.99
  -6  -8  -3   48.96    5.92
  -6  -8  -4    2.34    4.12
  -6  -8  -4    2.37    3.72
  -6  -8  -4    2.34    4.12
  -6  -8  -4    2.37    3.72
  -6  -8  -5   25.54    4.85
  -6  -8  -5   27.00    4.49
  -6  -8  -5   25.54    4.85
  -6  -8  -5   27.00    4.49
  -6  -8  -6    8.37    4.53
  -6  -8  -6   11.10    3.21
  -6  -8  -6   14.07    4.13
  -6  -8  -6    8.37    4.53
  -6  -8  -6   11.10    3.21
  -6  -8  -6   14.07    4.13
  -6  -8  -7   -2.36    2.63
  -6  -8  -7    0.01    3.69
  -6  -8  -7   -1.30    4.60
  -6  -8  -7   -2.36    2.63
  -6  -8  -7    0.01    3.69
  -6  -8  -7   -1.30    4.60
  -6  -8  -8    7.41    2.50
  -6  -8  -8   12.93    4.18
  -6  -8  -8   11.08    5.48
  -6  -8  -8    7.41    2.50
  -6  -8  -8   12.93    4.18
  -6  -8  -8   11.08    5.48
  -6  -8  -9    3.07    4.15
  -6  -8  -9    5.89    5.47
  -6  -8  -9    3.07    4.15
  -6  -8  -9    5.89    5.47
  -6  -8 -10    5.21    4.09
  -6  -8 -10   -1.75    5.46
  -6  -8 -10    5.21    4.09
  -6  -8 -10   -1.75    5.46
  -6  -8 -11   23.45    4.82
  -6  -8 -11   12.49    6.08
  -6  -8 -11   23.45    4.82
  -6  -8 -11   12.49    6.08
  -6  -8 -12   -0.64    4.54
  -6  -8 -12   -0.25    5.69
  -6  -8 -12   -0.64    4.54
  -6  -8 -12   -0.25    5.69
  -6  -9   8   -0.57    5.67
  -6  -9   8   -0.57    5.67
   6   9  -8    4.18    5.62
   6   9  -8    0.44    5.69
   6   9  -8    4.18    5.62
   6   9  -8    0.44    5.69
  -6  -9   7   66.09    7.57
  -6  -9   7   66.09    7.57
   6   9  -7   62.99    7.67
   6   9  -7   73.30    8.26
   6   9  -7   62.99    7.67
   6   9  -7   73.30    8.26
  -6  -9   6   41.64    6.57
  -6  -9   6   41.64    6.57
   6   9  -6   45.71    6.45
   6   9  -6   39.41    6.66
   6   9  -6   45.71    6.45
   6   9  -6   39.41    6.66
  -6  -9   5   65.03    7.79
  -6  -9   5   65.03    7.79
   6   9  -5   49.91    6.50
   6   9  -5   50.20    6.80
   6   9  -5   49.91    6.50
   6   9  -5   50.20    6.80
  -6  -9   4    4.02    5.09
  -6  -9   4   -0.18    4.86
  -6  -9   4    4.02    5.09
  -6  -9   4   -0.18    4.86
   6   9  -4    1.85    4.76
   6   9  -4    1.25    4.81
   6   9  -4    1.85    4.76
   6   9  -4    1.25    4.81
  -6  -9   3   49.19    5.96
  -6  -9   3   61.42    7.23
  -6  -9   3   49.19    5.96
  -6  -9   3   61.42    7.23
   6   9  -3   55.64    6.37
   6   9  -3   61.95    7.16
   6   9  -3   55.64    6.37
   6   9  -3   61.95    7.16
  -6  -9   2   75.32    7.36
  -6  -9   2   87.95    7.39
  -6  -9   2   75.32    7.36
  -6  -9   2   87.95    7.39
   6   9  -2   89.74    7.65
   6   9  -2   81.31    7.38
   6   9  -2   89.74    7.65
   6   9  -2   81.31    7.38
  -6  -9   1    7.75    4.49
  -6  -9   1   12.86    4.84
  -6  -9   1    7.75    4.49
  -6  -9   1   12.86    4.84
  -6  -9   0   10.18    4.52
  -6  -9   0   10.18    4.52
  -6  -9  -1   13.98    4.65
  -6  -9  -1   13.98    4.65
  -6  -9  -2   11.20    4.47
  -6  -9  -2   11.20    4.47
  -6  -9  -3   92.89    6.66
  -6  -9  -3   92.89    6.66
  -6  -9  -4   59.91    6.71
  -6  -9  -4   68.66    6.14
  -6  -9  -4   59.91    6.71
  -6  -9  -4   68.66    6.14
  -6  -9  -5    1.87    4.31
  -6  -9  -5   -0.58    3.82
  -6  -9  -5    1.87    4.31
  -6  -9  -5   -0.58    3.82
  -6  -9  -6   36.55    4.36
  -6  -9  -6   41.02    5.32
  -6  -9  -6   36.55    4.36
  -6  -9  -6   41.02    5.32
  -6  -9  -7   37.33    4.26
  -6  -9  -7   36.59    5.20
  -6  -9  -7   37.33    4.26
  -6  -9  -7   36.59    5.20
  -6  -9  -8    8.99    3.26
  -6  -9  -8    9.04    4.45
  -6  -9  -8    0.28    5.13
  -6  -9  -8    8.99    3.26
  -6  -9  -8    9.04    4.45
  -6  -9  -8    0.28    5.13
  -6  -9  -9    6.26    4.37
  -6  -9  -9    6.61    5.70
  -6  -9  -9    6.26    4.37
  -6  -9  -9    6.61    5.70
  -6  -9 -10   -0.01    4.27
  -6  -9 -10    1.04    5.72
  -6  -9 -10   -0.01    4.27
  -6  -9 -10    1.04    5.72
  -6  -9 -11    3.22    4.55
  -6  -9 -11   -1.34    5.91
  -6  -9 -11    3.22    4.55
  -6  -9 -11   -1.34    5.91
  -6  -9 -12   21.71    5.59
  -6  -9 -12   21.71    5.59
  -6 -10   7    6.31    5.87
  -6 -10   7    6.31    5.87
   6  10  -7    6.29    5.48
   6  10  -7   13.81    6.50
   6  10  -7    6.29    5.48
   6  10  -7   13.81    6.50
  -6 -10   6    1.64    5.45
  -6 -10   6    1.64    5.45
   6  10  -6    4.45    5.28
   6  10  -6   -0.08    5.86
   6  10  -6    4.45    5.28
   6  10  -6   -0.08    5.86
  -6 -10   5   25.85    6.03
  -6 -10   5   25.85    6.03
   6  10  -5   16.87    5.71
   6  10  -5   16.87    5.71
  -6 -10   4   48.39    6.44
  -6 -10   4   48.39    6.44
   6  10  -4   45.08    6.53
   6  10  -4   45.08    6.53
  -6 -10   3   -2.20    4.60
  -6 -10   3    2.43    5.01
  -6 -10   3   -2.20    4.60
  -6 -10   3    2.43    5.01
   6  10  -3    1.49    4.84
   6  10  -3    1.49    4.84
  -6 -10   2   40.37    6.06
  -6 -10   2   39.07    6.14
  -6 -10   2   40.37    6.06
  -6 -10   2   39.07    6.14
   6  10  -2   43.13    6.20
   6  10  -2   43.13    6.20
  -6 -10   1  130.37    8.36
  -6 -10   1  130.37    8.36
  -6 -10   0   24.07    5.36
  -6 -10   0   24.07    5.36
  -6 -10  -1   -1.47    4.46
  -6 -10  -1   -1.47    4.46
  -6 -10  -2    5.61    4.59
  -6 -10  -2    5.61    4.59
  -6 -10  -3   11.21    4.66
  -6 -10  -3   11.21    4.66
  -6 -10  -4   19.84    4.99
  -6 -10  -4   19.84    4.99
  -6 -10  -5   20.82    5.00
  -6 -10  -5   20.82    5.00
  -6 -10  -6    6.85    4.09
  -6 -10  -6    5.25    4.41
  -6 -10  -6    6.85    4.09
  -6 -10  -6    5.25    4.41
  -6 -10  -7   60.22    6.25
  -6 -10  -7   63.01    6.41
  -6 -10  -7   60.22    6.25
  -6 -10  -7   63.01    6.41
  -6 -10  -8  101.33    6.51
  -6 -10  -8   94.34    7.41
  -6 -10  -8  101.33    6.51
  -6 -10  -8   94.34    7.41
  -6 -10  -9    7.47    3.51
  -6 -10  -9   18.27    5.22
  -6 -10  -9   10.16    6.15
  -6 -10  -9    7.47    3.51
  -6 -10  -9   18.27    5.22
  -6 -10  -9   10.16    6.15
  -6 -10 -10    5.42    4.84
  -6 -10 -10    2.65    6.00
  -6 -10 -10    5.42    4.84
  -6 -10 -10    2.65    6.00
  -6 -10 -11   41.54    6.16
  -6 -10 -11   30.79    7.22
  -6 -10 -11   41.54    6.16
  -6 -10 -11   30.79    7.22
  -6 -11   5   -0.16    5.49
  -6 -11   5   -0.16    5.49
   6  11  -5   -2.00    5.23
   6  11  -5   -2.00    5.23
  -6 -11   4    9.43    5.57
  -6 -11   4    9.43    5.57
   6  11  -4    8.04    5.52
   6  11  -4    8.04    5.52
  -6 -11   3   16.76    5.75
  -6 -11   3   16.76    5.75
   6  11  -3   14.18    5.64
   6  11  -3   14.18    5.64
  -6 -11   2    8.35    5.39
  -6 -11   2    8.35    5.39
   6  11  -2    7.60    5.41
   6  11  -2    7.60    5.41
  -6 -11   1    2.23    5.16
  -6 -11   1    2.23    5.16
  -6 -11   0    9.29    5.28
  -6 -11   0    9.29    5.28
  -6 -11  -1    0.06    4.72
  -6 -11  -1    0.06    4.72
  -6 -11  -2   13.83    5.50
  -6 -11  -2   13.83    5.50
  -6 -11  -3   75.99    7.35
  -6 -11  -3   75.99    7.35
  -6 -11  -4   90.02    7.56
  -6 -11  -4   90.02    7.56
  -6 -11  -5    9.34    4.99
  -6 -11  -5    9.34    4.99
  -6 -11  -6    3.45    4.39
  -6 -11  -6    1.49    5.00
  -6 -11  -6    3.45    4.39
  -6 -11  -6    1.49    5.00
  -6 -11  -7   -0.53    4.29
  -6 -11  -7    0.24    4.68
  -6 -11  -7   -0.53    4.29
  -6 -11  -7    0.24    4.68
  -6 -11  -8   10.63    4.58
  -6 -11  -8   13.74    5.43
  -6 -11  -8   10.63    4.58
  -6 -11  -8   13.74    5.43
  -6 -11  -9   16.26    4.39
  -6 -11  -9   18.73    5.69
  -6 -11  -9    4.76    5.85
  -6 -11  -9   16.26    4.39
  -6 -11  -9   18.73    5.69
  -6 -11  -9    4.76    5.85
  -6 -12   4    0.50    5.59
  -6 -12   4    0.50    5.59
   6  12  -4    1.38    5.49
   6  12  -4    1.38    5.49
   6  12  -3    6.82    5.60
   6  12  -3    6.82    5.60
   6  12  -2    7.42    5.70
   6  12  -2    7.42    5.70
  -6 -12   1    7.09    5.70
  -6 -12   1    7.09    5.70
   6  12  -1   -2.95    5.31
   6  12  -1   -2.95    5.31
  -6 -12   0   -0.05    5.24
  -6 -12   0   -0.05    5.24
  -6 -12  -1   -0.20    5.19
  -6 -12  -1   -0.20    5.19
  -6 -12  -2    4.91    5.30
  -6 -12  -2    4.91    5.30
  -6 -12  -3   12.13    5.61
  -6 -12  -3   12.13    5.61
  -6 -12  -4   20.79    5.86
  -6 -12  -4   20.79    5.86
  -6 -12  -5   52.58    6.91
  -6 -12  -5   52.58    6.91
  -6 -12  -6    3.99    4.89
  -6 -12  -6   11.66    5.51
  -6 -12  -6    3.99    4.89
  -6 -12  -6   11.66    5.51
  -6 -12  -7   -0.07    4.59
  -6 -12  -7   -1.15    5.06
  -6 -12  -7   -0.07    4.59
  -6 -12  -7   -1.15    5.06
  -6 -12  -8   13.30    4.91
  -6 -12  -8   15.48    6.01
  -6 -12  -8   13.30    4.91
  -6 -12  -8   15.48    6.01
  -6 -13  -1   -2.41    5.47
  -6 -13  -1   -2.41    5.47
  -6 -13  -2   12.42    6.31
  -6 -13  -2   12.42    6.31
  -6 -13  -3   19.81    6.56
  -6 -13  -3   19.81    6.56
  -6 -13  -4   -3.11    5.40
  -6 -13  -4   -3.11    5.40
  -6 -13  -5   -1.35    5.49
  -6 -13  -5   -1.35    5.49
  -7   6   2   11.75    7.16
  -7   6   2   18.95    6.18
  -7   6   2   15.40    4.08
  -7   6   2   13.57    6.03
  -7   6   2   11.75    7.16
  -7   6   2   18.95    6.18
  -7   6   2   15.40    4.08
  -7   6   2   13.57    6.03
  -7   6   1    6.04    6.62
  -7   6   1    7.54    5.48
  -7   6   1    2.14    5.12
  -7   6   1    6.04    6.62
  -7   6   1    7.54    5.48
  -7   6   1    2.14    5.12
  -7   6   0   22.62    7.05
  -7   6   0   11.02    5.19
  -7   6   0   13.98    5.51
  -7   6   0   22.62    7.05
  -7   6   0   11.02    5.19
  -7   6   0   13.98    5.51
  -7   6  -1    3.89    6.19
  -7   6  -1    2.99    4.52
  -7   6  -1   -0.54    4.66
  -7   6  -1    3.89    6.19
  -7   6  -1    2.99    4.52
  -7   6  -1   -0.54    4.66
  -7   6  -2    6.13    6.28
  -7   6  -2    2.94    4.63
  -7   6  -2    1.46    4.78
  -7   6  -2    6.13    6.28
  -7   6  -2    2.94    4.63
  -7   6  -2    1.46    4.78
  -7   6  -3    5.52    5.96
  -7   6  -3   -1.11    4.65
  -7   6  -3    5.52    5.96
  -7   6  -3   -1.11    4.65
  -7   6  -4   30.03    6.78
  -7   6  -4   15.66    5.17
  -7   6  -4   30.03    6.78
  -7   6  -4   15.66    5.17
  -7   6  -5   57.49    6.71
  -7   6  -5   57.49    6.71
  -7   5   5    3.91    6.29
  -7   5   5    4.74    6.73
  -7   5   5   -0.40    4.48
  -7   5   5    3.30    5.57
  -7   5   5    3.91    6.29
  -7   5   5    4.74    6.73
  -7   5   5   -0.40    4.48
  -7   5   5    3.30    5.57
  -7   5   4    2.90    6.62
  -7   5   4    6.71    6.32
  -7   5   4    3.16    4.55
  -7   5   4    1.95    5.42
  -7   5   4    2.90    6.62
  -7   5   4    6.71    6.32
  -7   5   4    3.16    4.55
  -7   5   4    1.95    5.42
  -7   5   3    7.39    6.72
  -7   5   3   10.61    6.10
  -7   5   3    6.72    4.23
  -7   5   3    3.73    5.29
  -7   5   3    7.39    6.72
  -7   5   3   10.61    6.10
  -7   5   3    6.72    4.23
  -7   5   3    3.73    5.29
  -7   5   2    6.19    5.95
  -7   5   2    9.31    5.86
  -7   5   2    3.16    3.65
  -7   5   2    6.18    5.18
  -7   5   2    6.19    5.95
  -7   5   2    9.31    5.86
  -7   5   2    3.16    3.65
  -7   5   2    6.18    5.18
  -7   5   1    7.24    6.57
  -7   5   1    8.31    5.61
  -7   5   1    5.22    2.92
  -7   5   1    6.40    4.88
  -7   5   1    7.24    6.57
  -7   5   1    8.31    5.61
  -7   5   1    5.22    2.92
  -7   5   1    6.40    4.88
  -7   5   0   22.70    6.87
  -7   5   0   34.53    6.48
  -7   5   0   27.55    5.77
  -7   5   0   22.70    6.87
  -7   5   0   34.53    6.48
  -7   5   0   27.55    5.77
  -7   5  -1   16.84    6.43
  -7   5  -1   15.07    5.66
  -7   5  -1   10.86    5.02
  -7   5  -1   16.84    6.43
  -7   5  -1   15.07    5.66
  -7   5  -1   10.86    5.02
  -7   5  -2   25.29    6.77
  -7   5  -2   22.20    5.73
  -7   5  -2   28.21    5.42
  -7   5  -2   25.29    6.77
  -7   5  -2   22.20    5.73
  -7   5  -2   28.21    5.42
  -7   5  -3   11.51    5.98
  -7   5  -3    9.76    5.22
  -7   5  -3    9.74    4.60
  -7   5  -3   11.51    5.98
  -7   5  -3    9.76    5.22
  -7   5  -3    9.74    4.60
  -7   5  -4    6.88    5.85
  -7   5  -4    1.89    4.75
  -7   5  -4    0.60    4.26
  -7   5  -4    6.88    5.85
  -7   5  -4    1.89    4.75
  -7   5  -4    0.60    4.26
  -7   5  -5    3.73    5.18
  -7   5  -5    4.33    5.54
  -7   5  -5   -1.17    4.07
  -7   5  -5    3.73    5.18
  -7   5  -5    4.33    5.54
  -7   5  -5   -1.17    4.07
  -7   5  -6   -1.86    5.08
  -7   5  -6   -1.16    4.21
  -7   5  -6   -1.86    5.08
  -7   5  -6   -1.16    4.21
  -7   5  -7    7.57    5.71
  -7   5  -7    7.45    4.49
  -7   5  -7    7.57    5.71
  -7   5  -7    7.45    4.49
  -7   4   6   10.03    6.72
  -7   4   6   -2.22    6.37
  -7   4   6    5.22    4.81
  -7   4   6    1.91    5.58
  -7   4   6   10.03    6.72
  -7   4   6   -2.22    6.37
  -7   4   6    5.22    4.81
  -7   4   6    1.91    5.58
  -7   4   5   -0.45    6.54
  -7   4   5    5.16    6.74
  -7   4   5   -0.75    4.33
  -7   4   5    2.34    5.35
  -7   4   5   -0.45    6.54
  -7   4   5    5.16    6.74
  -7   4   5   -0.75    4.33
  -7   4   5    2.34    5.35
  -7   4   4   13.99    6.87
  -7   4   4   20.92    6.38
  -7   4   4   24.34    5.04
  -7   4   4   20.53    5.79
  -7   4   4   13.99    6.87
  -7   4   4   20.92    6.38
  -7   4   4   24.34    5.04
  -7   4   4   20.53    5.79
  -7   4   3   25.13    6.96
  -7   4   3   18.19    6.02
  -7   4   3   26.44    4.76
  -7   4   3   24.85    5.73
  -7   4   3   25.13    6.96
  -7   4   3   18.19    6.02
  -7   4   3   26.44    4.76
  -7   4   3   24.85    5.73
  -7   4   2    3.58    6.05
  -7   4   2    1.44    5.03
  -7   4   2    4.62    3.62
  -7   4   2    3.90    4.73
  -7   4   2    3.58    6.05
  -7   4   2    1.44    5.03
  -7   4   2    4.62    3.62
  -7   4   2    3.90    4.73
  -7   4   1   15.34    6.30
  -7   4   1   11.97    5.67
  -7   4   1   16.47    3.25
  -7   4   1    7.15    4.99
  -7   4   1   15.34    6.30
  -7   4   1   11.97    5.67
  -7   4   1   16.47    3.25
  -7   4   1    7.15    4.99
  -7   4   0   11.07    6.01
  -7   4   0   12.92    5.19
  -7   4   0   14.77    4.68
  -7   4   0   11.07    6.01
  -7   4   0   12.92    5.19
  -7   4   0   14.77    4.68
  -7   4  -1   23.76    6.00
  -7   4  -1   23.04    5.83
  -7   4  -1   20.22    4.72
  -7   4  -1   23.76    6.00
  -7   4  -1   23.04    5.83
  -7   4  -1   20.22    4.72
  -7   4  -2    3.43    5.82
  -7   4  -2    9.17    4.91
  -7   4  -2    9.52    4.43
  -7   4  -2    3.43    5.82
  -7   4  -2    9.17    4.91
  -7   4  -2    9.52    4.43
  -7   4  -3   75.77    8.33
  -7   4  -3   65.13    7.42
  -7   4  -3   67.84    6.16
  -7   4  -3   75.77    8.33
  -7   4  -3   65.13    7.42
  -7   4  -3   67.84    6.16
  -7   4  -4    1.68    5.32
  -7   4  -4   -1.80    4.50
  -7   4  -4    4.49    4.14
  -7   4  -4    1.68    5.32
  -7   4  -4   -1.80    4.50
  -7   4  -4    4.49    4.14
  -7   4  -5   25.46    5.78
  -7   4  -5   21.64    6.26
  -7   4  -5   26.98    4.56
  -7   4  -5   25.46    5.78
  -7   4  -5   21.64    6.26
  -7   4  -5   26.98    4.56
  -7   4  -6   47.81    6.87
  -7   4  -6   51.22    5.71
  -7   4  -6   47.81    6.87
  -7   4  -6   51.22    5.71
  -7   4  -7   40.01    6.73
  -7   4  -7   36.17    4.62
  -7   4  -7   30.34    4.75
  -7   4  -7   40.01    6.73
  -7   4  -7   36.17    4.62
  -7   4  -7   30.34    4.75
  -7   4  -8    5.27    5.49
  -7   4  -8    4.24    3.66
  -7   4  -8    8.78    4.05
  -7   4  -8    5.27    5.49
  -7   4  -8    4.24    3.66
  -7   4  -8    8.78    4.05
  -7   4  -9   24.14    6.41
  -7   4  -9   21.24    4.13
  -7   4  -9   24.14    6.41
  -7   4  -9   21.24    4.13
  -7   3   7    2.49    7.24
  -7   3   7   -7.59    6.93
  -7   3   7    5.80    5.09
  -7   3   7    1.70    5.51
  -7   3   7    2.49    7.24
  -7   3   7   -7.59    6.93
  -7   3   7    5.80    5.09
  -7   3   7    1.70    5.51
  -7   3   6   19.42    7.47
  -7   3   6   15.27    6.95
  -7   3   6   27.54    5.42
  -7   3   6   26.79    6.16
  -7   3   6   19.42    7.47
  -7   3   6   15.27    6.95
  -7   3   6   27.54    5.42
  -7   3   6   26.79    6.16
  -7   3   5   46.79    7.95
  -7   3   5   50.76    8.10
  -7   3   5   42.56    5.57
  -7   3   5   54.63    6.80
  -7   3   5   46.79    7.95
  -7   3   5   50.76    8.10
  -7   3   5   42.56    5.57
  -7   3   5   54.63    6.80
  -7   3   4   42.67    7.38
  -7   3   4   35.38    7.15
  -7   3   4   31.52    5.14
  -7   3   4   35.29    5.94
  -7   3   4   42.67    7.38
  -7   3   4   35.38    7.15
  -7   3   4   31.52    5.14
  -7   3   4   35.29    5.94
  -7   3   3    8.66    6.07
  -7   3   3   12.31    5.61
  -7   3   3    7.18    3.98
  -7   3   3    6.96    5.04
  -7   3   3    8.66    6.07
  -7   3   3   12.31    5.61
  -7   3   3    7.18    3.98
  -7   3   3    6.96    5.04
  -7   3   2   43.88    7.12
  -7   3   2   53.11    6.77
  -7   3   2   49.72    5.20
  -7   3   2   44.59    5.76
  -7   3   2   43.88    7.12
  -7   3   2   53.11    6.77
  -7   3   2   49.72    5.20
  -7   3   2   44.59    5.76
  -7   3   1   11.88    5.45
  -7   3   1   12.10    5.28
  -7   3   1   20.80    3.27
  -7   3   1   19.51    4.77
  -7   3   1   11.88    5.45
  -7   3   1   12.10    5.28
  -7   3   1   20.80    3.27
  -7   3   1   19.51    4.77
  -7   3   0    9.84    5.86
  -7   3   0   20.34    5.77
  -7   3   0   12.45    4.34
  -7   3   0    9.84    5.86
  -7   3   0   20.34    5.77
  -7   3   0   12.45    4.34
  -7   3  -1    3.46    3.94
  -7   3  -1   10.22    5.53
  -7   3  -1    5.29    4.73
  -7   3  -1    6.51    4.15
  -7   3  -1    3.46    3.94
  -7   3  -1   10.22    5.53
  -7   3  -1    5.29    4.73
  -7   3  -1    6.51    4.15
  -7   3  -2    8.71    3.88
  -7   3  -2    2.57    5.47
  -7   3  -2    7.22    4.75
  -7   3  -2    8.56    4.04
  -7   3  -2    8.71    3.88
  -7   3  -2    2.57    5.47
  -7   3  -2    7.22    4.75
  -7   3  -2    8.56    4.04
  -7   3  -3   -0.09    3.43
  -7   3  -3    2.11    5.17
  -7   3  -3    5.10    4.97
  -7   3  -3    4.91    3.74
  -7   3  -3   -0.09    3.43
  -7   3  -3    2.11    5.17
  -7   3  -3    5.10    4.97
  -7   3  -3    4.91    3.74
  -7   3  -4   17.49    4.32
  -7   3  -4   25.45    6.12
  -7   3  -4   11.51    5.26
  -7   3  -4   12.78    4.02
  -7   3  -4   17.49    4.32
  -7   3  -4   25.45    6.12
  -7   3  -4   11.51    5.26
  -7   3  -4   12.78    4.02
  -7   3  -5    1.68    4.66
  -7   3  -5    3.96    3.54
  -7   3  -5    1.68    4.66
  -7   3  -5    3.96    3.54
  -7   3  -6   61.24    7.05
  -7   3  -6   64.98    5.29
  -7   3  -6   61.24    7.05
  -7   3  -6   64.98    5.29
  -7   3  -7   68.84    8.21
  -7   3  -7   67.82    4.91
  -7   3  -7   71.32    5.36
  -7   3  -7   68.84    8.21
  -7   3  -7   67.82    4.91
  -7   3  -7   71.32    5.36
  -7   3  -8   16.41    5.83
  -7   3  -8   15.48    3.43
  -7   3  -8   16.41    5.83
  -7   3  -8   15.48    3.43
  -7   3  -9   -4.24    4.99
  -7   3  -9    1.96    3.11
  -7   3  -9   -4.24    4.99
  -7   3  -9    1.96    3.11
  -7   3 -10   16.59    6.12
  -7   3 -10   12.67    3.31
  -7   3 -10   16.59    6.12
  -7   3 -10   12.67    3.31
  -7   2   8  -14.51    7.08
  -7   2   8    1.49    4.92
  -7   2   8  -14.51    7.08
  -7   2   8    1.49    4.92
   7  -2  -8   -3.66    5.76
   7  -2  -8   -3.66    5.76
  -7   2   7    6.95    7.07
  -7   2   7   -7.98    7.41
  -7   2   7    7.94    5.05
  -7   2   7    6.20    5.77
  -7   2   7    6.95    7.07
  -7   2   7   -7.98    7.41
  -7   2   7    7.94    5.05
  -7   2   7    6.20    5.77
  -7   2   6   -2.15    6.40
  -7   2   6   -4.09    6.58
  -7   2   6   -0.35    4.48
  -7   2   6    7.55    5.38
  -7   2   6   -2.15    6.40
  -7   2   6   -4.09    6.58
  -7   2   6   -0.35    4.48
  -7   2   6    7.55    5.38
  -7   2   5    2.98    6.27
  -7   2   5    1.60    5.82
  -7   2   5    4.55    4.35
  -7   2   5    8.21    5.05
  -7   2   5    2.98    6.27
  -7   2   5    1.60    5.82
  -7   2   5    4.55    4.35
  -7   2   5    8.21    5.05
  -7   2   4   32.48    6.82
  -7   2   4   47.57    7.20
  -7   2   4   46.62    5.37
  -7   2   4   34.68    5.73
  -7   2   4   32.48    6.82
  -7   2   4   47.57    7.20
  -7   2   4   46.62    5.37
  -7   2   4   34.68    5.73
  -7   2   3   35.22    6.66
  -7   2   3   41.17    6.90
  -7   2   3   33.85    4.48
  -7   2   3   43.74    5.75
  -7   2   3   35.22    6.66
  -7   2   3   41.17    6.90
  -7   2   3   33.85    4.48
  -7   2   3   43.74    5.75
  -7   2   2    4.92    5.50
  -7   2   2    3.49    4.91
  -7   2   2    0.22    3.31
  -7   2   2    2.07    4.35
  -7   2   2    4.92    5.50
  -7   2   2    3.49    4.91
  -7   2   2    0.22    3.31
  -7   2   2    2.07    4.35
  -7   2   1   42.17    6.61
  -7   2   1   42.21    6.17
  -7   2   1   39.49    4.21
  -7   2   1   31.53    4.91
  -7   2   1   42.17    6.61
  -7   2   1   42.21    6.17
  -7   2   1   39.49    4.21
  -7   2   1   31.53    4.91
  -7   2   0   17.56    5.70
  -7   2   0   16.31    5.16
  -7   2   0   16.08    4.18
  -7   2   0   17.56    5.70
  -7   2   0   16.31    5.16
  -7   2   0   16.08    4.18
  -7   2  -1    6.20    5.16
  -7   2  -1    7.65    5.11
  -7   2  -1   -1.17    3.65
  -7   2  -1    6.20    5.16
  -7   2  -1    7.65    5.11
  -7   2  -1   -1.17    3.65
  -7   2  -2   16.82    4.61
  -7   2  -2   12.36    5.41
  -7   2  -2   13.84    5.24
  -7   2  -2   18.39    4.02
  -7   2  -2   16.82    4.61
  -7   2  -2   12.36    5.41
  -7   2  -2   13.84    5.24
  -7   2  -2   18.39    4.02
  -7   2  -3   39.98    5.49
  -7   2  -3   40.31    6.34
  -7   2  -3   46.32    6.34
  -7   2  -3   38.84    4.39
  -7   2  -3   39.98    5.49
  -7   2  -3   40.31    6.34
  -7   2  -3   46.32    6.34
  -7   2  -3   38.84    4.39
  -7   2  -4    2.45    4.10
  -7   2  -4    2.57    5.13
  -7   2  -4    6.14    4.98
  -7   2  -4    2.26    3.27
  -7   2  -4    2.45    4.10
  -7   2  -4    2.57    5.13
  -7   2  -4    6.14    4.98
  -7   2  -4    2.26    3.27
  -7   2  -5   52.76    5.78
  -7   2  -5   50.05    6.19
  -7   2  -5   48.33    4.85
  -7   2  -5   52.76    5.78
  -7   2  -5   50.05    6.19
  -7   2  -5   48.33    4.85
  -7   2  -6   27.99    5.27
  -7   2  -6   33.75    5.80
  -7   2  -6   34.49    4.30
  -7   2  -6   27.99    5.27
  -7   2  -6   33.75    5.80
  -7   2  -6   34.49    4.30
  -7   2  -7    4.53    4.32
  -7   2  -7    2.41    4.76
  -7   2  -7    6.07    2.91
  -7   2  -7    4.08    2.95
  -7   2  -7    4.53    4.32
  -7   2  -7    2.41    4.76
  -7   2  -7    6.07    2.91
  -7   2  -7    4.08    2.95
  -7   2  -8    3.34    4.09
  -7   2  -8   17.33    5.54
  -7   2  -8   14.96    3.01
  -7   2  -8    3.34    4.09
  -7   2  -8   17.33    5.54
  -7   2  -8   14.96    3.01
  -7   2  -9   14.51    5.61
  -7   2  -9   10.02    2.74
  -7   2  -9   14.51    5.61
  -7   2  -9   10.02    2.74
  -7   2 -10   -0.09    5.10
  -7   2 -10   -3.12    2.45
  -7   2 -10   -0.09    5.10
  -7   2 -10   -3.12    2.45
  -7   2 -11   87.38    9.28
  -7   2 -11   87.38    9.28
  -7   1   9  -16.33    7.51
  -7   1   9   10.30    5.76
  -7   1   9  -16.33    7.51
  -7   1   9   10.30    5.76
   7  -1  -9    8.40    6.17
   7  -1  -9    8.40    6.17
  -7   1   8   -2.30    7.23
  -7   1   8    6.01    5.28
  -7   1   8   -2.30    7.23
  -7   1   8    6.01    5.28
   7  -1  -8   12.41    6.32
   7  -1  -8   12.41    6.32
  -7   1   7   -0.12    6.55
  -7   1   7    6.88    4.74
  -7   1   7    8.62    5.41
  -7   1   7   -0.12    6.55
  -7   1   7    6.88    4.74
  -7   1   7    8.62    5.41
   7  -1  -7    8.87    5.91
   7  -1  -7    8.87    5.91
  -7   1   6   -6.05    6.01
  -7   1   6   -5.94    6.59
  -7   1   6   -3.83    4.32
  -7   1   6    3.78    5.03
  -7   1   6   -6.05    6.01
  -7   1   6   -5.94    6.59
  -7   1   6   -3.83    4.32
  -7   1   6    3.78    5.03
  -7   1   5    0.37    5.78
  -7   1   5    2.57    5.67
  -7   1   5    2.14    4.13
  -7   1   5    2.92    4.67
  -7   1   5    0.37    5.78
  -7   1   5    2.57    5.67
  -7   1   5    2.14    4.13
  -7   1   5    2.92    4.67
  -7   1   4    6.29    5.68
  -7   1   4    5.98    5.69
  -7   1   4    8.57    4.07
  -7   1   4    3.37    4.49
  -7   1   4    6.29    5.68
  -7   1   4    5.98    5.69
  -7   1   4    8.57    4.07
  -7   1   4    3.37    4.49
  -7   1   3    8.58    5.63
  -7   1   3   14.32    5.40
  -7   1   3   10.64    3.76
  -7   1   3    9.18    4.62
  -7   1   3    8.58    5.63
  -7   1   3   14.32    5.40
  -7   1   3   10.64    3.76
  -7   1   3    9.18    4.62
  -7   1   2    2.82    5.29
  -7   1   2   -0.82    5.07
  -7   1   2    5.81    3.40
  -7   1   2   -1.64    4.06
  -7   1   2    2.82    5.29
  -7   1   2   -0.82    5.07
  -7   1   2    5.81    3.40
  -7   1   2   -1.64    4.06
  -7   1   1   30.18    6.04
  -7   1   1   29.55    5.64
  -7   1   1   30.99    3.30
  -7   1   1   27.17    4.70
  -7   1   1   30.18    6.04
  -7   1   1   29.55    5.64
  -7   1   1   30.99    3.30
  -7   1   1   27.17    4.70
  -7   1   0  109.08    7.76
  -7   1   0  115.91    7.89
  -7   1   0  116.00    6.58
  -7   1   0  109.08    7.76
  -7   1   0  115.91    7.89
  -7   1   0  116.00    6.58
  -7   1  -1  131.40    8.71
  -7   1  -1  145.03    8.07
  -7   1  -1  140.63    6.59
  -7   1  -1  131.40    8.71
  -7   1  -1  145.03    8.07
  -7   1  -1  140.63    6.59
  -7   1  -2   39.46    5.41
  -7   1  -2   28.50    5.73
  -7   1  -2   39.94    5.98
  -7   1  -2   36.35    4.36
  -7   1  -2   39.46    5.41
  -7   1  -2   28.50    5.73
  -7   1  -2   39.94    5.98
  -7   1  -2   36.35    4.36
  -7   1  -3    5.81    4.54
  -7   1  -3    9.31    4.72
  -7   1  -3    8.29    4.98
  -7   1  -3    6.32    3.29
  -7   1  -3    5.81    4.54
  -7   1  -3    9.31    4.72
  -7   1  -3    8.29    4.98
  -7   1  -3    6.32    3.29
  -7   1  -4   27.45    5.03
  -7   1  -4   28.19    5.49
  -7   1  -4   28.63    5.61
  -7   1  -4   26.16    3.54
  -7   1  -4   27.45    5.03
  -7   1  -4   28.19    5.49
  -7   1  -4   28.63    5.61
  -7   1  -4   26.16    3.54
  -7   1  -5   -1.71    4.13
  -7   1  -5   -0.32    4.25
  -7   1  -5    0.72    2.76
  -7   1  -5   -1.71    4.13
  -7   1  -5   -0.32    4.25
  -7   1  -5    0.72    2.76
  -7   1  -6   12.01    4.60
  -7   1  -6   10.62    4.76
  -7   1  -6   10.99    2.80
  -7   1  -6   12.01    4.60
  -7   1  -6   10.62    4.76
  -7   1  -6   10.99    2.80
  -7   1  -7   27.19    5.28
  -7   1  -7   35.26    5.78
  -7   1  -7   27.53    3.24
  -7   1  -7   28.49    3.04
  -7   1  -7   27.19    5.28
  -7   1  -7   35.26    5.78
  -7   1  -7   27.53    3.24
  -7   1  -7   28.49    3.04
  -7   1  -8    0.47    4.60
  -7   1  -8    1.73    4.67
  -7   1  -8    0.77    1.99
  -7   1  -8    0.47    4.60
  -7   1  -8    1.73    4.67
  -7   1  -8    0.77    1.99
  -7   1  -9    9.41    5.14
  -7   1  -9    8.64    5.15
  -7   1  -9   -0.34    1.95
  -7   1  -9    9.41    5.14
  -7   1  -9    8.64    5.15
  -7   1  -9   -0.34    1.95
  -7   1 -10   56.97    7.18
  -7   1 -10   56.97    7.18
  -7   1 -11   12.93    5.80
  -7   1 -11   12.93    5.80
  -7   1 -12    1.16    5.51
  -7   1 -12    1.16    5.51
  -7   0   9    0.62    5.49
  -7   0   9    0.62    5.49
   7   0  -9    1.39    5.84
   7   0  -9    1.39    5.84
  -7   0   8   32.29    7.74
  -7   0   8   42.32    6.38
  -7   0   8   32.29    7.74
  -7   0   8   42.32    6.38
   7   0  -8   49.46    7.36
   7   0  -8   49.46    7.36
  -7   0   7   72.24    8.61
  -7   0   7   82.83    7.29
  -7   0   7   80.20    7.92
  -7   0   7   72.24    8.61
  -7   0   7   82.83    7.29
  -7   0   7   80.20    7.92
   7   0  -7   78.17    7.94
   7   0  -7   78.17    7.94
  -7   0   6   12.46    6.26
  -7   0   6    6.88    6.80
  -7   0   6   17.36    4.80
  -7   0   6   12.72    5.31
  -7   0   6   12.46    6.26
  -7   0   6    6.88    6.80
  -7   0   6   17.36    4.80
  -7   0   6   12.72    5.31
   7   0  -6   12.46    5.57
   7   0  -6   12.46    5.57
  -7   0   5    5.64    5.49
  -7   0   5   -0.94    5.80
  -7   0   5   -2.00    4.07
  -7   0   5    0.48    4.47
  -7   0   5    5.64    5.49
  -7   0   5   -0.94    5.80
  -7   0   5   -2.00    4.07
  -7   0   5    0.48    4.47
  -7   0   4  146.44    9.42
  -7   0   4  141.68    8.66
  -7   0   4  161.71    7.38
  -7   0   4  171.22    8.23
  -7   0   4  146.44    9.42
  -7   0   4  141.68    8.66
  -7   0   4  161.71    7.38
  -7   0   4  171.22    8.23
  -7   0   3   10.84    5.48
  -7   0   3   15.03    5.32
  -7   0   3   10.89    3.87
  -7   0   3   13.38    4.47
  -7   0   3   10.84    5.48
  -7   0   3   15.03    5.32
  -7   0   3   10.89    3.87
  -7   0   3   13.38    4.47
  -7   0   2   67.47    8.26
  -7   0   2   78.57    8.27
  -7   0   2   71.71    5.36
  -7   0   2   68.03    6.01
  -7   0   2   67.47    8.26
  -7   0   2   78.57    8.27
  -7   0   2   71.71    5.36
  -7   0   2   68.03    6.01
  -7   0   1    7.02    5.10
  -7   0   1   -1.17    4.37
  -7   0   1    0.94    2.60
  -7   0   1    0.07    3.42
  -7   0   1    7.02    5.10
  -7   0   1   -1.17    4.37
  -7   0   1    0.94    2.60
  -7   0   1    0.07    3.42
  -7   0   0   43.48    5.64
  -7   0   0   49.11    6.19
  -7   0   0   49.17    5.02
  -7   0   0   43.48    5.64
  -7   0   0   49.11    6.19
  -7   0   0   49.17    5.02
  -7   0  -1   74.16    7.78
  -7   0  -1   79.86    7.04
  -7   0  -1   74.81    5.36
  -7   0  -1   74.16    7.78
  -7   0  -1   79.86    7.04
  -7   0  -1   74.81    5.36
  -7   0  -2  157.89    8.16
  -7   0  -2  145.50    7.85
  -7   0  -2  159.09    8.82
  -7   0  -2  159.99    6.20
  -7   0  -2  157.89    8.16
  -7   0  -2  145.50    7.85
  -7   0  -2  159.09    8.82
  -7   0  -2  159.99    6.20
  -7   0  -3   41.06    5.49
  -7   0  -3   43.51    5.63
  -7   0  -3   46.36    5.65
  -7   0  -3   50.17    4.71
  -7   0  -3   41.06    5.49
  -7   0  -3   43.51    5.63
  -7   0  -3   46.36    5.65
  -7   0  -3   50.17    4.71
  -7   0  -4    0.97    4.21
  -7   0  -4   -1.02    4.20
  -7   0  -4   -1.33    4.09
  -7   0  -4    4.42    2.65
  -7   0  -4    0.97    4.21
  -7   0  -4   -1.02    4.20
  -7   0  -4   -1.33    4.09
  -7   0  -4    4.42    2.65
  -7   0  -5   11.45    4.58
  -7   0  -5   13.45    2.65
  -7   0  -5   11.45    4.58
  -7   0  -5   13.45    2.65
  -7   0  -6   35.53    5.53
  -7   0  -6   44.71    5.80
  -7   0  -6   40.40    3.50
  -7   0  -6   35.53    5.53
  -7   0  -6   44.71    5.80
  -7   0  -6   40.40    3.50
  -7   0  -7    4.76    4.54
  -7   0  -7    2.51    4.30
  -7   0  -7    3.08    1.83
  -7   0  -7    4.76    4.54
  -7   0  -7    2.51    4.30
  -7   0  -7    3.08    1.83
  -7   0  -8   -0.10    4.67
  -7   0  -8    0.75    4.48
  -7   0  -8   -0.10    4.67
  -7   0  -8    0.75    4.48
  -7   0  -9    4.57    5.03
  -7   0  -9    4.14    4.73
  -7   0  -9    4.57    5.03
  -7   0  -9    4.14    4.73
  -7   0 -10    5.42    5.07
  -7   0 -10    5.42    5.07
  -7   0 -11    6.03    5.28
  -7   0 -11    6.03    5.28
  -7   0 -12   -1.59    5.19
  -7   0 -12   -1.59    5.19
  -7  -1   9    5.61    5.56
  -7  -1   9    5.61    5.56
   7   1  -9   10.42    6.19
   7   1  -9   10.42    6.19
  -7  -1   8   -7.63    6.41
  -7  -1   8   -2.56    4.68
  -7  -1   8   -7.63    6.41
  -7  -1   8   -2.56    4.68
   7   1  -8    4.15    5.58
   7   1  -8    4.15    5.58
  -7  -1   7   -0.02    6.13
  -7  -1   7    3.26    4.58
  -7  -1   7    4.31    5.03
  -7  -1   7   -0.02    6.13
  -7  -1   7    3.26    4.58
  -7  -1   7    4.31    5.03
   7   1  -7    2.41    5.31
   7   1  -7    2.41    5.31
  -7  -1   6   41.03    6.85
  -7  -1   6   29.32    7.22
  -7  -1   6   47.11    5.80
  -7  -1   6   47.18    6.29
  -7  -1   6   41.03    6.85
  -7  -1   6   29.32    7.22
  -7  -1   6   47.11    5.80
  -7  -1   6   47.18    6.29
   7   1  -6   48.73    6.66
   7   1  -6   48.73    6.66
  -7  -1   5   35.48    6.21
  -7  -1   5   38.63    6.85
  -7  -1   5   39.12    5.09
  -7  -1   5   44.47    5.92
  -7  -1   5   35.48    6.21
  -7  -1   5   38.63    6.85
  -7  -1   5   39.12    5.09
  -7  -1   5   44.47    5.92
   7   1  -5   43.20    5.88
   7   1  -5   43.20    5.88
  -7  -1   4   22.68    5.55
  -7  -1   4   18.50    5.81
  -7  -1   4   19.15    4.33
  -7  -1   4   20.48    4.84
  -7  -1   4   22.68    5.55
  -7  -1   4   18.50    5.81
  -7  -1   4   19.15    4.33
  -7  -1   4   20.48    4.84
  -7  -1   3  138.97    8.66
  -7  -1   3  133.16    9.29
  -7  -1   3  154.14    6.72
  -7  -1   3  143.64    7.35
  -7  -1   3  138.97    8.66
  -7  -1   3  133.16    9.29
  -7  -1   3  154.14    6.72
  -7  -1   3  143.64    7.35
  -7  -1   2   33.20    5.69
  -7  -1   2   40.43    6.08
  -7  -1   2   37.96    3.99
  -7  -1   2   38.33    4.90
  -7  -1   2   33.20    5.69
  -7  -1   2   40.43    6.08
  -7  -1   2   37.96    3.99
  -7  -1   2   38.33    4.90
  -7  -1   1   60.13    7.33
  -7  -1   1   63.00    7.69
  -7  -1   1   65.17    4.49
  -7  -1   1   62.67    5.78
  -7  -1   1   33.30    3.71
  -7  -1   1   60.13    7.33
  -7  -1   1   63.00    7.69
  -7  -1   1   65.17    4.49
  -7  -1   1   62.67    5.78
  -7  -1   1   33.30    3.71
  -7  -1   0   17.26    5.07
  -7  -1   0   19.23    4.75
  -7  -1   0   20.55    3.88
  -7  -1   0   18.41    3.82
  -7  -1   0   17.26    5.07
  -7  -1   0   19.23    4.75
  -7  -1   0   20.55    3.88
  -7  -1   0   18.41    3.82
  -7  -1  -1   79.85    7.55
  -7  -1  -1   76.78    6.84
  -7  -1  -1   83.33    5.28
  -7  -1  -1   75.58    5.69
  -7  -1  -1   79.85    7.55
  -7  -1  -1   76.78    6.84
  -7  -1  -1   83.33    5.28
  -7  -1  -1   75.58    5.69
  -7  -1  -2   15.94    4.74
  -7  -1  -2   11.99    4.79
  -7  -1  -2   14.77    4.57
  -7  -1  -2   13.80    3.12
  -7  -1  -2   12.34    4.04
  -7  -1  -2   15.94    4.74
  -7  -1  -2   11.99    4.79
  -7  -1  -2   14.77    4.57
  -7  -1  -2   13.80    3.12
  -7  -1  -2   12.34    4.04
  -7  -1  -3    1.19    3.87
  -7  -1  -3    1.40    4.55
  -7  -1  -3    6.25    4.51
  -7  -1  -3    1.79    2.63
  -7  -1  -3    1.60    3.90
  -7  -1  -3    1.19    3.87
  -7  -1  -3    1.40    4.55
  -7  -1  -3    6.25    4.51
  -7  -1  -3    1.79    2.63
  -7  -1  -3    1.60    3.90
  -7  -1  -4    2.04    4.28
  -7  -1  -4    1.73    4.07
  -7  -1  -4   -0.12    2.43
  -7  -1  -4   -1.68    3.96
  -7  -1  -4    2.04    4.28
  -7  -1  -4    1.73    4.07
  -7  -1  -4   -0.12    2.43
  -7  -1  -4   -1.68    3.96
  -7  -1  -5  121.46    7.80
  -7  -1  -5  119.03    4.13
  -7  -1  -5   94.33    7.34
  -7  -1  -5  121.46    7.80
  -7  -1  -5  119.03    4.13
  -7  -1  -5   94.33    7.34
  -7  -1  -6   -0.66    4.43
  -7  -1  -6    2.13    1.80
  -7  -1  -6    2.77    4.66
  -7  -1  -6   -0.66    4.43
  -7  -1  -6    2.13    1.80
  -7  -1  -6    2.77    4.66
  -7  -1  -7  124.45    8.12
  -7  -1  -7  122.90    8.16
  -7  -1  -7  111.94    8.20
  -7  -1  -7  124.45    8.12
  -7  -1  -7  122.90    8.16
  -7  -1  -7  111.94    8.20
  -7  -1  -8   17.91    5.37
  -7  -1  -8   21.10    5.27
  -7  -1  -8   17.91    5.37
  -7  -1  -8   21.10    5.27
  -7  -1  -9   46.85    6.50
  -7  -1  -9   50.33    6.40
  -7  -1  -9   46.85    6.50
  -7  -1  -9   50.33    6.40
  -7  -1 -10   86.93    8.28
  -7  -1 -10   86.93    8.28
  -7  -1 -11   54.85    7.01
  -7  -1 -11   54.85    7.01
  -7  -1 -12   11.37    5.70
  -7  -1 -12   11.37    5.70
  -7  -1 -13   13.71    6.01
  -7  -1 -13   13.71    6.01
  -7  -2   9    7.80    5.32
  -7  -2   9    7.80    5.32
   7   2  -9   11.78    6.18
   7   2  -9   11.78    6.18
  -7  -2   8    1.76    5.09
  -7  -2   8    1.76    5.09
   7   2  -8   -0.78    5.47
   7   2  -8   -0.78    5.47
  -7  -2   7   21.55    6.28
  -7  -2   7   11.89    5.22
  -7  -2   7   19.23    5.51
  -7  -2   7   21.55    6.28
  -7  -2   7   11.89    5.22
  -7  -2   7   19.23    5.51
   7   2  -7   11.83    5.72
   7   2  -7   11.83    5.72
  -7  -2   6   25.04    6.02
  -7  -2   6   13.38    6.46
  -7  -2   6   27.68    5.31
  -7  -2   6   25.24    5.41
  -7  -2   6   25.04    6.02
  -7  -2   6   13.38    6.46
  -7  -2   6   27.68    5.31
  -7  -2   6   25.24    5.41
   7   2  -6   26.37    5.63
   7   2  -6   26.37    5.63
  -7  -2   5    4.76    5.02
  -7  -2   5    3.94    5.51
  -7  -2   5    3.76    3.90
  -7  -2   5    4.41    4.50
  -7  -2   5    4.76    5.02
  -7  -2   5    3.94    5.51
  -7  -2   5    3.76    3.90
  -7  -2   5    4.41    4.50
   7   2  -5    3.62    4.82
   7   2  -5    3.62    4.82
  -7  -2   4   97.01    8.51
  -7  -2   4   89.35    7.25
  -7  -2   4   93.55    6.20
  -7  -2   4   96.73    7.03
  -7  -2   4   97.01    8.51
  -7  -2   4   89.35    7.25
  -7  -2   4   93.55    6.20
  -7  -2   4   96.73    7.03
   7   2  -4   95.23    7.93
   7   2  -4   95.23    7.93
  -7  -2   3    9.89    4.77
  -7  -2   3    9.96    5.18
  -7  -2   3   14.04    3.82
  -7  -2   3   11.54    4.21
  -7  -2   3    9.89    4.77
  -7  -2   3    9.96    5.18
  -7  -2   3   14.04    3.82
  -7  -2   3   11.54    4.21
  -7  -2   2    3.31    4.37
  -7  -2   2    1.54    4.69
  -7  -2   2    6.02    3.26
  -7  -2   2    3.11    3.62
  -7  -2   2    3.31    4.37
  -7  -2   2    1.54    4.69
  -7  -2   2    6.02    3.26
  -7  -2   2    3.11    3.62
  -7  -2   1   28.18    5.08
  -7  -2   1   22.18    4.91
  -7  -2   1   25.59    3.21
  -7  -2   1   29.13    4.32
  -7  -2   1   22.81    3.64
  -7  -2   1   28.18    5.08
  -7  -2   1   22.18    4.91
  -7  -2   1   25.59    3.21
  -7  -2   1   29.13    4.32
  -7  -2   1   22.81    3.64
  -7  -2   0    1.35    4.24
  -7  -2   0    5.83    4.45
  -7  -2   0   -0.12    1.68
  -7  -2   0   -0.74    3.24
  -7  -2   0   -1.42    3.13
  -7  -2   0    1.35    4.24
  -7  -2   0    5.83    4.45
  -7  -2   0   -0.12    1.68
  -7  -2   0   -0.74    3.24
  -7  -2   0   -1.42    3.13
  -7  -2  -1  128.92    7.78
  -7  -2  -1  122.70    7.25
  -7  -2  -1  130.92    5.72
  -7  -2  -1  104.80    5.96
  -7  -2  -1  128.92    7.78
  -7  -2  -1  122.70    7.25
  -7  -2  -1  130.92    5.72
  -7  -2  -1  104.80    5.96
  -7  -2  -2  373.47   10.54
  -7  -2  -2  383.71   10.57
  -7  -2  -2  374.71   10.76
  -7  -2  -2  380.73    7.62
  -7  -2  -2  326.67    8.91
  -7  -2  -2  373.47   10.54
  -7  -2  -2  383.71   10.57
  -7  -2  -2  374.71   10.76
  -7  -2  -2  380.73    7.62
  -7  -2  -2  326.67    8.91
  -7  -2  -3  128.64    7.23
  -7  -2  -3  117.91    7.39
  -7  -2  -3  139.46    5.00
  -7  -2  -3  124.79    7.02
  -7  -2  -3  128.64    7.23
  -7  -2  -3  117.91    7.39
  -7  -2  -3  139.46    5.00
  -7  -2  -3  124.79    7.02
  -7  -2  -4    9.58    4.52
  -7  -2  -4   13.53    2.61
  -7  -2  -4   14.41    4.41
  -7  -2  -4    9.58    4.52
  -7  -2  -4   13.53    2.61
  -7  -2  -4   14.41    4.41
  -7  -2  -5    2.16    3.94
  -7  -2  -5    1.28    2.04
  -7  -2  -5   -1.74    4.08
  -7  -2  -5    2.16    3.94
  -7  -2  -5    1.28    2.04
  -7  -2  -5   -1.74    4.08
  -7  -2  -6   72.04    6.59
  -7  -2  -6   69.14    2.94
  -7  -2  -6   68.43    7.13
  -7  -2  -6   72.04    6.59
  -7  -2  -6   69.14    2.94
  -7  -2  -6   68.43    7.13
  -7  -2  -7   -2.54    4.40
  -7  -2  -7   -0.28    4.79
  -7  -2  -7   -2.54    4.40
  -7  -2  -7   -0.28    4.79
  -7  -2  -8   38.77    5.70
  -7  -2  -8   46.46    5.87
  -7  -2  -8   45.91    6.51
  -7  -2  -8   38.77    5.70
  -7  -2  -8   46.46    5.87
  -7  -2  -8   45.91    6.51
  -7  -2  -9    2.03    4.89
  -7  -2  -9    2.64    4.58
  -7  -2  -9    0.17    5.29
  -7  -2  -9    2.03    4.89
  -7  -2  -9    2.64    4.58
  -7  -2  -9    0.17    5.29
  -7  -2 -10   82.04    8.20
  -7  -2 -10   82.04    8.20
  -7  -2 -11   88.33    8.75
  -7  -2 -11   88.33    8.75
  -7  -2 -12   60.78    7.32
  -7  -2 -12   60.78    7.32
  -7  -2 -13    5.66    5.53
  -7  -2 -13    5.66    5.53
  -7  -3   9    8.82    5.72
  -7  -3   9    8.82    5.72
   7   3  -9   14.09    6.29
   7   3  -9   14.09    6.29
  -7  -3   8   30.08    5.86
  -7  -3   8   30.08    5.86
   7   3  -8   31.09    6.57
   7   3  -8   31.09    6.57
  -7  -3   7  -11.43    6.05
  -7  -3   7    7.39    4.99
  -7  -3   7    0.66    4.92
  -7  -3   7  -11.43    6.05
  -7  -3   7    7.39    4.99
  -7  -3   7    0.66    4.92
   7   3  -7    6.08    5.40
   7   3  -7    6.08    5.40
  -7  -3   6    0.45    5.65
  -7  -3   6   10.66    4.56
  -7  -3   6    3.17    4.70
  -7  -3   6    0.45    5.65
  -7  -3   6   10.66    4.56
  -7  -3   6    3.17    4.70
   7   3  -6    7.58    5.19
   7   3  -6    7.58    5.19
  -7  -3   5    5.72    4.51
  -7  -3   5    5.57    5.27
  -7  -3   5    7.26    4.16
  -7  -3   5    6.50    4.59
  -7  -3   5    5.72    4.51
  -7  -3   5    5.57    5.27
  -7  -3   5    7.26    4.16
  -7  -3   5    6.50    4.59
   7   3  -5    6.78    4.54
   7   3  -5    6.78    4.54
  -7  -3   4   42.12    5.68
  -7  -3   4   36.92    5.58
  -7  -3   4   42.85    5.00
  -7  -3   4   40.68    5.38
  -7  -3   4   42.12    5.68
  -7  -3   4   36.92    5.58
  -7  -3   4   42.85    5.00
  -7  -3   4   40.68    5.38
   7   3  -4   44.02    5.56
   7   3  -4   44.02    5.56
  -7  -3   3   69.45    6.96
  -7  -3   3   73.08    7.76
  -7  -3   3   68.11    5.88
  -7  -3   3   64.36    6.21
  -7  -3   3   69.45    6.96
  -7  -3   3   73.08    7.76
  -7  -3   3   68.11    5.88
  -7  -3   3   64.36    6.21
  -7  -3   2    2.04    4.27
  -7  -3   2    3.93    4.54
  -7  -3   2   -0.20    3.19
  -7  -3   2   -1.22    3.49
  -7  -3   2    0.76    2.54
  -7  -3   2    2.04    4.27
  -7  -3   2    3.93    4.54
  -7  -3   2   -0.20    3.19
  -7  -3   2   -1.22    3.49
  -7  -3   2    0.76    2.54
  -7  -3   1   -4.09    3.83
  -7  -3   1    3.08    4.30
  -7  -3   1    1.39    2.78
  -7  -3   1    1.29    3.27
  -7  -3   1    2.86    3.30
  -7  -3   1   -4.09    3.83
  -7  -3   1    3.08    4.30
  -7  -3   1    1.39    2.78
  -7  -3   1    1.29    3.27
  -7  -3   1    2.86    3.30
  -7  -3   0   74.80    7.19
  -7  -3   0   74.43    6.48
  -7  -3   0   70.13    3.57
  -7  -3   0   70.44    5.16
  -7  -3   0   48.38    5.20
  -7  -3   0   74.80    7.19
  -7  -3   0   74.43    6.48
  -7  -3   0   70.13    3.57
  -7  -3   0   70.44    5.16
  -7  -3   0   48.38    5.20
  -7  -3  -1   49.94    5.38
  -7  -3  -1   56.20    6.98
  -7  -3  -1   59.50    4.99
  -7  -3  -1   46.26    5.48
  -7  -3  -1   49.94    5.38
  -7  -3  -1   56.20    6.98
  -7  -3  -1   59.50    4.99
  -7  -3  -1   46.26    5.48
  -7  -3  -2   10.01    4.44
  -7  -3  -2    9.71    4.13
  -7  -3  -2   10.46    3.13
  -7  -3  -2    6.40    3.77
  -7  -3  -2   10.01    4.44
  -7  -3  -2    9.71    4.13
  -7  -3  -2   10.46    3.13
  -7  -3  -2    6.40    3.77
  -7  -3  -3  112.96    7.03
  -7  -3  -3  121.23    7.85
  -7  -3  -3  118.10    4.90
  -7  -3  -3   89.32    6.55
  -7  -3  -3  112.96    7.03
  -7  -3  -3  121.23    7.85
  -7  -3  -3  118.10    4.90
  -7  -3  -3   89.32    6.55
  -7  -3  -4   13.49    4.70
  -7  -3  -4   11.30    2.65
  -7  -3  -4    6.63    4.17
  -7  -3  -4   13.49    4.70
  -7  -3  -4   11.30    2.65
  -7  -3  -4    6.63    4.17
  -7  -3  -5   13.67    4.32
  -7  -3  -5   18.72    2.53
  -7  -3  -5   19.58    4.79
  -7  -3  -5   13.67    4.32
  -7  -3  -5   18.72    2.53
  -7  -3  -5   19.58    4.79
  -7  -3  -6   21.37    4.73
  -7  -3  -6   27.57    2.90
  -7  -3  -6   20.98    5.11
  -7  -3  -6   21.37    4.73
  -7  -3  -6   27.57    2.90
  -7  -3  -6   20.98    5.11
  -7  -3  -7  195.23    9.16
  -7  -3  -7  107.86    3.00
  -7  -3  -7  190.40    9.08
  -7  -3  -7  195.23    9.16
  -7  -3  -7  107.86    3.00
  -7  -3  -7  190.40    9.08
  -7  -3  -8    8.90    5.09
  -7  -3  -8    9.73    5.07
  -7  -3  -8    8.90    5.09
  -7  -3  -8    9.73    5.07
  -7  -3  -9   17.78    5.09
  -7  -3  -9   14.07    4.90
  -7  -3  -9   15.63    5.80
  -7  -3  -9   17.78    5.09
  -7  -3  -9   14.07    4.90
  -7  -3  -9   15.63    5.80
  -7  -3 -10    2.97    4.61
  -7  -3 -10    6.85    5.71
  -7  -3 -10    2.97    4.61
  -7  -3 -10    6.85    5.71
  -7  -3 -11    1.12    4.75
  -7  -3 -11   -3.93    5.53
  -7  -3 -11    1.12    4.75
  -7  -3 -11   -3.93    5.53
  -7  -3 -12    7.40    5.19
  -7  -3 -12    7.40    5.19
  -7  -3 -13   -5.60    4.80
  -7  -3 -13   -5.60    4.80
  -7  -4   9   38.75    6.50
  -7  -4   9   38.75    6.50
   7   4  -9   36.38    7.18
   7   4  -9   36.38    7.18
  -7  -4   8    5.20    6.86
  -7  -4   8   31.46    5.95
  -7  -4   8    5.20    6.86
  -7  -4   8   31.46    5.95
   7   4  -8   20.63    6.30
   7   4  -8   20.63    6.30
  -7  -4   7    7.06    6.16
  -7  -4   7   21.30    5.32
  -7  -4   7   23.36    5.71
  -7  -4   7    7.06    6.16
  -7  -4   7   21.30    5.32
  -7  -4   7   23.36    5.71
   7   4  -7   29.08    6.24
   7   4  -7   29.08    6.24
  -7  -4   6   -6.44    5.06
  -7  -4   6    1.33    4.20
  -7  -4   6    6.07    4.84
  -7  -4   6   -6.44    5.06
  -7  -4   6    1.33    4.20
  -7  -4   6    6.07    4.84
   7   4  -6    1.59    5.13
   7   4  -6    1.59    5.13
  -7  -4   5   33.01    5.87
  -7  -4   5   35.54    5.27
  -7  -4   5   33.27    5.48
  -7  -4   5   33.01    5.87
  -7  -4   5   35.54    5.27
  -7  -4   5   33.27    5.48
   7   4  -5   35.09    5.98
   7   4  -5   35.09    5.98
  -7  -4   4   27.06    5.49
  -7  -4   4   21.87    4.55
  -7  -4   4   25.44    5.01
  -7  -4   4   27.06    5.49
  -7  -4   4   21.87    4.55
  -7  -4   4   25.44    5.01
   7   4  -4   24.47    5.36
   7   4  -4   24.47    5.36
  -7  -4   3   22.46    4.63
  -7  -4   3   21.99    4.95
  -7  -4   3   18.57    3.96
  -7  -4   3   25.55    4.72
  -7  -4   3   22.46    4.63
  -7  -4   3   21.99    4.95
  -7  -4   3   18.57    3.96
  -7  -4   3   25.55    4.72
   7   4  -3   25.19    4.73
   7   4  -3   25.19    4.73
  -7  -4   2   -1.07    3.90
  -7  -4   2   -1.60    4.04
  -7  -4   2   -0.44    3.19
  -7  -4   2    5.21    3.77
  -7  -4   2    0.85    2.85
  -7  -4   2   -1.07    3.90
  -7  -4   2   -1.60    4.04
  -7  -4   2   -0.44    3.19
  -7  -4   2    5.21    3.77
  -7  -4   2    0.85    2.85
  -7  -4   1    7.46    3.93
  -7  -4   1    8.23    4.33
  -7  -4   1    9.62    3.18
  -7  -4   1    8.22    3.63
  -7  -4   1    7.53    3.57
  -7  -4   1    7.46    3.93
  -7  -4   1    8.23    4.33
  -7  -4   1    9.62    3.18
  -7  -4   1    8.22    3.63
  -7  -4   1    7.53    3.57
  -7  -4   0    9.18    4.02
  -7  -4   0   13.82    4.39
  -7  -4   0    7.41    2.46
  -7  -4   0   11.42    3.51
  -7  -4   0   11.65    3.88
  -7  -4   0    9.18    4.02
  -7  -4   0   13.82    4.39
  -7  -4   0    7.41    2.46
  -7  -4   0   11.42    3.51
  -7  -4   0   11.65    3.88
  -7  -4  -1    6.36    3.82
  -7  -4  -1   10.07    3.35
  -7  -4  -1    3.03    3.72
  -7  -4  -1    6.36    3.82
  -7  -4  -1   10.07    3.35
  -7  -4  -1    3.03    3.72
  -7  -4  -2    9.67    4.13
  -7  -4  -2   12.27    4.05
  -7  -4  -2    8.82    3.10
  -7  -4  -2   14.38    4.27
  -7  -4  -2    9.67    4.13
  -7  -4  -2   12.27    4.05
  -7  -4  -2    8.82    3.10
  -7  -4  -2   14.38    4.27
  -7  -4  -3   -1.21    4.12
  -7  -4  -3    0.27    2.72
  -7  -4  -3   -2.06    3.74
  -7  -4  -3   -1.21    4.12
  -7  -4  -3    0.27    2.72
  -7  -4  -3   -2.06    3.74
  -7  -4  -4    9.88    4.51
  -7  -4  -4    4.77    2.68
  -7  -4  -4    1.09    4.01
  -7  -4  -4    9.88    4.51
  -7  -4  -4    4.77    2.68
  -7  -4  -4    1.09    4.01
  -7  -4  -5   -3.28    3.75
  -7  -4  -5    0.61    2.38
  -7  -4  -5   -2.08    4.08
  -7  -4  -5   -3.28    3.75
  -7  -4  -5    0.61    2.38
  -7  -4  -5   -2.08    4.08
  -7  -4  -6    9.96    4.63
  -7  -4  -6   12.53    2.49
  -7  -4  -6    3.93    4.46
  -7  -4  -6    9.96    4.63
  -7  -4  -6   12.53    2.49
  -7  -4  -6    3.93    4.46
  -7  -4  -7    1.32    4.52
  -7  -4  -7    2.85    2.12
  -7  -4  -7    1.54    4.39
  -7  -4  -7    1.32    4.52
  -7  -4  -7    2.85    2.12
  -7  -4  -7    1.54    4.39
  -7  -4  -8   38.76    5.66
  -7  -4  -8   26.01    2.93
  -7  -4  -8   50.36    6.50
  -7  -4  -8   38.76    5.66
  -7  -4  -8   26.01    2.93
  -7  -4  -8   50.36    6.50
  -7  -4  -9    2.74    4.94
  -7  -4  -9    6.61    2.03
  -7  -4  -9    0.41    4.97
  -7  -4  -9    2.74    4.94
  -7  -4  -9    6.61    2.03
  -7  -4  -9    0.41    4.97
  -7  -4 -10    0.59    2.06
  -7  -4 -10   -0.36    5.39
  -7  -4 -10    0.59    2.06
  -7  -4 -10   -0.36    5.39
  -7  -4 -11    9.29    5.96
  -7  -4 -11    9.29    5.96
  -7  -4 -12   10.15    4.92
  -7  -4 -12   -0.41    5.87
  -7  -4 -12   10.15    4.92
  -7  -4 -12   -0.41    5.87
  -7  -4 -13   15.03    5.04
  -7  -4 -13   15.03    5.04
  -7  -5   9    7.96    5.56
  -7  -5   9    7.96    5.56
   7   5  -9   11.23    6.17
   7   5  -9   11.23    6.17
  -7  -5   8   52.69    6.69
  -7  -5   8   52.69    6.69
   7   5  -8   57.41    7.79
   7   5  -8   57.41    7.79
  -7  -5   7   -1.02    4.68
  -7  -5   7    3.88    5.02
  -7  -5   7   -1.02    4.68
  -7  -5   7    3.88    5.02
   7   5  -7    1.59    5.46
   7   5  -7    1.59    5.46
  -7  -5   6    3.35    4.69
  -7  -5   6    3.47    4.84
  -7  -5   6    3.35    4.69
  -7  -5   6    3.47    4.84
   7   5  -6   -0.61    5.02
   7   5  -6   -0.61    5.02
  -7  -5   5    3.67    4.63
  -7  -5   5    1.83    4.20
  -7  -5   5   -3.24    4.41
  -7  -5   5    3.67    4.63
  -7  -5   5    1.83    4.20
  -7  -5   5   -3.24    4.41
   7   5  -5    0.15    4.86
   7   5  -5    0.15    4.86
  -7  -5   4   62.87    6.96
  -7  -5   4   61.33    6.63
  -7  -5   4   58.73    6.58
  -7  -5   4   62.87    6.96
  -7  -5   4   61.33    6.63
  -7  -5   4   58.73    6.58
   7   5  -4   71.65    8.01
   7   5  -4   71.65    8.01
  -7  -5   3  191.21    8.73
  -7  -5   3  173.46    7.19
  -7  -5   3  180.99    8.09
  -7  -5   3  191.21    8.73
  -7  -5   3  173.46    7.19
  -7  -5   3  180.99    8.09
   7   5  -3  185.06    9.16
   7   5  -3  185.06    9.16
  -7  -5   2   83.28    6.81
  -7  -5   2   85.32    5.98
  -7  -5   2   92.68    6.48
  -7  -5   2   83.28    6.81
  -7  -5   2   85.32    5.98
  -7  -5   2   92.68    6.48
  -7  -5   1    0.42    3.65
  -7  -5   1   -3.35    3.69
  -7  -5   1   -3.36    2.86
  -7  -5   1    3.76    3.59
  -7  -5   1    0.42    3.65
  -7  -5   1   -3.35    3.69
  -7  -5   1   -3.36    2.86
  -7  -5   1    3.76    3.59
  -7  -5   0   89.60    6.85
  -7  -5   0   87.94    4.68
  -7  -5   0   90.96    5.78
  -7  -5   0   89.60    6.85
  -7  -5   0   87.94    4.68
  -7  -5   0   90.96    5.78
  -7  -5  -1  104.53    7.00
  -7  -5  -1  101.66    5.94
  -7  -5  -1   91.98    6.39
  -7  -5  -1  104.53    7.00
  -7  -5  -1  101.66    5.94
  -7  -5  -1   91.98    6.39
  -7  -5  -2   38.15    5.34
  -7  -5  -2   47.45    4.91
  -7  -5  -2   32.48    4.89
  -7  -5  -2   38.15    5.34
  -7  -5  -2   47.45    4.91
  -7  -5  -2   32.48    4.89
  -7  -5  -3   -1.36    3.78
  -7  -5  -3    1.68    2.88
  -7  -5  -3    3.64    4.07
  -7  -5  -3   -1.36    3.78
  -7  -5  -3    1.68    2.88
  -7  -5  -3    3.64    4.07
  -7  -5  -4    6.77    4.46
  -7  -5  -4    8.71    3.01
  -7  -5  -4    5.26    4.35
  -7  -5  -4    6.77    4.46
  -7  -5  -4    8.71    3.01
  -7  -5  -4    5.26    4.35
  -7  -5  -5    4.08    4.35
  -7  -5  -5    1.22    2.62
  -7  -5  -5    1.34    4.18
  -7  -5  -5    4.08    4.35
  -7  -5  -5    1.22    2.62
  -7  -5  -5    1.34    4.18
  -7  -5  -6   94.89    7.61
  -7  -5  -6   99.56    4.79
  -7  -5  -6   82.93    7.56
  -7  -5  -6   94.89    7.61
  -7  -5  -6   99.56    4.79
  -7  -5  -6   82.93    7.56
  -7  -5  -7    2.97    4.35
  -7  -5  -7    5.76    2.72
  -7  -5  -7    5.55    4.74
  -7  -5  -7    2.97    4.35
  -7  -5  -7    5.76    2.72
  -7  -5  -7    5.55    4.74
  -7  -5  -8   -0.74    4.88
  -7  -5  -8    2.69    2.62
  -7  -5  -8   -1.05    4.77
  -7  -5  -8   -0.74    4.88
  -7  -5  -8    2.69    2.62
  -7  -5  -8   -1.05    4.77
  -7  -5  -9   39.81    6.36
  -7  -5  -9   50.02    4.05
  -7  -5  -9   34.38    6.10
  -7  -5  -9   39.81    6.36
  -7  -5  -9   50.02    4.05
  -7  -5  -9   34.38    6.10
  -7  -5 -10    7.16    2.90
  -7  -5 -10   11.60    5.65
  -7  -5 -10    7.16    2.90
  -7  -5 -10   11.60    5.65
  -7  -5 -11    2.28    2.77
  -7  -5 -11   -0.12    5.55
  -7  -5 -11    2.28    2.77
  -7  -5 -11   -0.12    5.55
  -7  -5 -12   10.90    3.06
  -7  -5 -12   12.46    6.32
  -7  -5 -12   10.90    3.06
  -7  -5 -12   12.46    6.32
  -7  -5 -13   29.99    3.86
  -7  -5 -13   27.85    7.09
  -7  -5 -13   29.99    3.86
  -7  -5 -13   27.85    7.09
  -7  -6   9    6.87    5.65
  -7  -6   9    6.87    5.65
   7   6  -9   12.77    5.69
   7   6  -9    5.96    6.21
   7   6  -9   12.77    5.69
   7   6  -9    5.96    6.21
  -7  -6   8   93.40    8.32
  -7  -6   8   93.40    8.32
   7   6  -8   94.25    8.36
   7   6  -8   97.04    9.36
   7   6  -8   94.25    8.36
   7   6  -8   97.04    9.36
  -7  -6   7   63.62    7.57
  -7  -6   7   63.62    7.57
   7   6  -7   64.27    7.75
   7   6  -7   64.27    7.75
  -7  -6   6    9.81    4.95
  -7  -6   6    3.68    5.01
  -7  -6   6    9.81    4.95
  -7  -6   6    3.68    5.01
   7   6  -6    6.21    5.10
   7   6  -6    6.21    5.10
  -7  -6   5    6.58    4.46
  -7  -6   5    3.01    4.71
  -7  -6   5    6.58    4.46
  -7  -6   5    3.01    4.71
   7   6  -5    8.41    5.35
   7   6  -5    8.41    5.35
  -7  -6   4    6.00    4.11
  -7  -6   4    7.82    4.66
  -7  -6   4    6.00    4.11
  -7  -6   4    7.82    4.66
   7   6  -4    7.75    4.97
   7   6  -4    7.75    4.97
  -7  -6   3    0.47    3.87
  -7  -6   3    3.09    3.87
  -7  -6   3    0.47    3.87
  -7  -6   3    3.09    3.87
   7   6  -3    3.38    4.59
   7   6  -3    3.38    4.59
  -7  -6   2   47.62    5.05
  -7  -6   2   53.65    5.89
  -7  -6   2   54.39    6.14
  -7  -6   2   47.62    5.05
  -7  -6   2   53.65    5.89
  -7  -6   2   54.39    6.14
  -7  -6   1   -0.93    3.75
  -7  -6   1   -4.34    3.29
  -7  -6   1   -0.85    3.69
  -7  -6   1   -0.93    3.75
  -7  -6   1   -4.34    3.29
  -7  -6   1   -0.85    3.69
  -7  -6   0   64.05    6.09
  -7  -6   0   70.12    5.13
  -7  -6   0   69.46    5.74
  -7  -6   0   64.05    6.09
  -7  -6   0   70.12    5.13
  -7  -6   0   69.46    5.74
  -7  -6  -1  235.98    8.94
  -7  -6  -1  237.88    8.02
  -7  -6  -1  253.90    8.00
  -7  -6  -1  235.98    8.94
  -7  -6  -1  237.88    8.02
  -7  -6  -1  253.90    8.00
  -7  -6  -2  104.52    7.50
  -7  -6  -2  109.99    6.09
  -7  -6  -2  104.52    7.50
  -7  -6  -2  109.99    6.09
  -7  -6  -3    2.19    4.31
  -7  -6  -3    9.56    3.46
  -7  -6  -3    2.19    4.31
  -7  -6  -3    9.56    3.46
  -7  -6  -4   45.85    5.53
  -7  -6  -4   47.01    4.73
  -7  -6  -4   30.54    5.24
  -7  -6  -4   45.85    5.53
  -7  -6  -4   47.01    4.73
  -7  -6  -4   30.54    5.24
  -7  -6  -5   67.41    7.16
  -7  -6  -5   77.21    5.21
  -7  -6  -5   73.85    7.23
  -7  -6  -5   67.41    7.16
  -7  -6  -5   77.21    5.21
  -7  -6  -5   73.85    7.23
  -7  -6  -6   -0.28    4.06
  -7  -6  -6    0.56    2.94
  -7  -6  -6    1.02    4.48
  -7  -6  -6   -0.28    4.06
  -7  -6  -6    0.56    2.94
  -7  -6  -6    1.02    4.48
  -7  -6  -7    3.96    4.86
  -7  -6  -7   11.20    3.23
  -7  -6  -7   10.29    4.90
  -7  -6  -7    3.96    4.86
  -7  -6  -7   11.20    3.23
  -7  -6  -7   10.29    4.90
  -7  -6  -8   10.87    5.26
  -7  -6  -8   14.78    3.35
  -7  -6  -8   12.51    5.28
  -7  -6  -8   10.87    5.26
  -7  -6  -8   14.78    3.35
  -7  -6  -8   12.51    5.28
  -7  -6  -9    4.29    4.79
  -7  -6  -9    2.42    3.15
  -7  -6  -9    1.99    5.20
  -7  -6  -9    4.29    4.79
  -7  -6  -9    2.42    3.15
  -7  -6  -9    1.99    5.20
  -7  -6 -10    6.01    3.26
  -7  -6 -10    7.07    5.54
  -7  -6 -10    6.01    3.26
  -7  -6 -10    7.07    5.54
  -7  -6 -11   34.31    4.19
  -7  -6 -11   34.16    6.65
  -7  -6 -11   34.31    4.19
  -7  -6 -11   34.16    6.65
  -7  -6 -12    2.28    3.58
  -7  -6 -12   -0.69    5.64
  -7  -6 -12    2.28    3.58
  -7  -6 -12   -0.69    5.64
  -7  -6 -13   -1.00    3.66
  -7  -6 -13   -1.89    6.01
  -7  -6 -13   -1.00    3.66
  -7  -6 -13   -1.89    6.01
  -7  -7   8   -0.02    5.33
  -7  -7   8   -0.02    5.33
   7   7  -8    2.06    5.29
   7   7  -8    1.08    5.83
   7   7  -8    2.06    5.29
   7   7  -8    1.08    5.83
  -7  -7   7   11.08    5.48
  -7  -7   7   11.08    5.48
   7   7  -7   10.42    5.43
   7   7  -7   11.46    6.19
   7   7  -7   10.42    5.43
   7   7  -7   11.46    6.19
  -7  -7   6    5.15    4.91
  -7  -7   6   -1.56    4.96
  -7  -7   6    5.15    4.91
  -7  -7   6   -1.56    4.96
   7   7  -6    0.88    4.93
   7   7  -6    3.61    5.08
   7   7  -6    0.88    4.93
   7   7  -6    3.61    5.08
  -7  -7   5    1.74    4.59
  -7  -7   5   -3.40    4.72
  -7  -7   5    1.74    4.59
  -7  -7   5   -3.40    4.72
   7   7  -5    3.65    4.42
   7   7  -5    1.33    4.78
   7   7  -5    3.65    4.42
   7   7  -5    1.33    4.78
  -7  -7   4   42.60    5.50
  -7  -7   4   46.90    6.12
  -7  -7   4   42.60    5.50
  -7  -7   4   46.90    6.12
   7   7  -4   40.07    6.02
   7   7  -4   42.33    6.42
   7   7  -4   40.07    6.02
   7   7  -4   42.33    6.42
  -7  -7   3   96.15    6.66
  -7  -7   3   93.07    7.25
  -7  -7   3   96.15    6.66
  -7  -7   3   93.07    7.25
   7   7  -3  114.38    8.92
   7   7  -3  114.38    8.92
  -7  -7   2  102.22    6.81
  -7  -7   2  116.09    7.33
  -7  -7   2  102.22    6.81
  -7  -7   2  116.09    7.33
  -7  -7   1   13.21    3.91
  -7  -7   1   12.11    4.35
  -7  -7   1   13.21    3.91
  -7  -7   1   12.11    4.35
  -7  -7   0    0.62    3.85
  -7  -7   0    0.62    3.85
  -7  -7  -1    4.98    4.40
  -7  -7  -1    7.23    3.98
  -7  -7  -1    4.98    4.40
  -7  -7  -1    7.23    3.98
  -7  -7  -2    4.40    4.28
  -7  -7  -2    4.41    3.73
  -7  -7  -2    4.40    4.28
  -7  -7  -2    4.41    3.73
  -7  -7  -3   72.30    7.21
  -7  -7  -3   72.43    5.47
  -7  -7  -3   72.30    7.21
  -7  -7  -3   72.43    5.47
  -7  -7  -4   30.05    5.17
  -7  -7  -4   28.81    4.24
  -7  -7  -4   30.05    5.17
  -7  -7  -4   28.81    4.24
  -7  -7  -5   24.92    5.23
  -7  -7  -5   23.12    4.00
  -7  -7  -5   14.81    4.90
  -7  -7  -5   24.92    5.23
  -7  -7  -5   23.12    4.00
  -7  -7  -5   14.81    4.90
  -7  -7  -6  157.54    8.54
  -7  -7  -6  166.02    6.72
  -7  -7  -6  135.53    8.72
  -7  -7  -6  157.54    8.54
  -7  -7  -6  166.02    6.72
  -7  -7  -6  135.53    8.72
  -7  -7  -7  106.42    8.11
  -7  -7  -7  101.06    5.88
  -7  -7  -7   89.18    8.22
  -7  -7  -7  106.42    8.11
  -7  -7  -7  101.06    5.88
  -7  -7  -7   89.18    8.22
  -7  -7  -8    9.54    5.22
  -7  -7  -8   11.91    3.78
  -7  -7  -8    7.63    5.34
  -7  -7  -8    9.54    5.22
  -7  -7  -8   11.91    3.78
  -7  -7  -8    7.63    5.34
  -7  -7  -9    1.89    3.59
  -7  -7  -9   -2.11    5.22
  -7  -7  -9    1.89    3.59
  -7  -7  -9   -2.11    5.22
  -7  -7 -10   17.43    4.14
  -7  -7 -10    6.08    5.86
  -7  -7 -10   17.43    4.14
  -7  -7 -10    6.08    5.86
  -7  -7 -11    0.16    3.78
  -7  -7 -11   -0.61    5.65
  -7  -7 -11    0.16    3.78
  -7  -7 -11   -0.61    5.65
  -7  -7 -12   26.16    4.68
  -7  -7 -12   15.61    6.44
  -7  -7 -12   26.16    4.68
  -7  -7 -12   15.61    6.44
  -7  -8   8   21.08    6.29
  -7  -8   8   21.08    6.29
   7   8  -8   17.62    6.08
   7   8  -8   17.86    6.69
   7   8  -8   17.62    6.08
   7   8  -8   17.86    6.69
  -7  -8   7    9.33    5.51
  -7  -8   7    9.33    5.51
   7   8  -7    9.26    5.63
   7   8  -7   10.32    5.85
   7   8  -7    9.26    5.63
   7   8  -7   10.32    5.85
  -7  -8   6    3.11    4.98
  -7  -8   6    3.11    4.98
   7   8  -6    2.79    5.10
   7   8  -6    1.33    5.66
   7   8  -6    2.79    5.10
   7   8  -6    1.33    5.66
  -7  -8   5   11.12    5.02
  -7  -8   5   15.33    5.59
  -7  -8   5   11.12    5.02
  -7  -8   5   15.33    5.59
   7   8  -5   12.45    5.42
   7   8  -5   10.62    5.82
   7   8  -5   12.45    5.42
   7   8  -5   10.62    5.82
  -7  -8   4   11.20    4.81
  -7  -8   4   15.97    5.24
  -7  -8   4   11.20    4.81
  -7  -8   4   15.97    5.24
   7   8  -4   10.25    5.22
   7   8  -4   20.52    6.03
   7   8  -4   10.25    5.22
   7   8  -4   20.52    6.03
  -7  -8   3    4.48    4.27
  -7  -8   3   12.65    4.59
  -7  -8   3    4.48    4.27
  -7  -8   3   12.65    4.59
   7   8  -3    5.48    5.25
   7   8  -3    5.48    5.25
  -7  -8   2   63.34    6.55
  -7  -8   2   58.65    6.71
  -7  -8   2   63.34    6.55
  -7  -8   2   58.65    6.71
  -7  -8   1   99.10    6.56
  -7  -8   1  104.10    7.24
  -7  -8   1   99.10    6.56
  -7  -8   1  104.10    7.24
  -7  -8   0   -1.23    4.45
  -7  -8   0    1.30    4.05
  -7  -8   0   -1.23    4.45
  -7  -8   0    1.30    4.05
  -7  -8  -1    7.50    4.42
  -7  -8  -1   11.17    4.47
  -7  -8  -1    7.50    4.42
  -7  -8  -1   11.17    4.47
  -7  -8  -2    4.25    4.60
  -7  -8  -2    4.09    3.84
  -7  -8  -2    4.25    4.60
  -7  -8  -2    4.09    3.84
  -7  -8  -3   11.88    4.52
  -7  -8  -3    5.41    3.96
  -7  -8  -3   11.88    4.52
  -7  -8  -3    5.41    3.96
  -7  -8  -4   19.74    4.91
  -7  -8  -4   20.20    4.43
  -7  -8  -4   19.74    4.91
  -7  -8  -4   20.20    4.43
  -7  -8  -5    9.07    4.64
  -7  -8  -5    9.20    3.97
  -7  -8  -5    9.07    4.64
  -7  -8  -5    9.20    3.97
  -7  -8  -6   16.15    5.35
  -7  -8  -6   11.75    2.68
  -7  -8  -6   18.09    4.42
  -7  -8  -6   11.58    5.14
  -7  -8  -6   16.15    5.35
  -7  -8  -6   11.75    2.68
  -7  -8  -6   18.09    4.42
  -7  -8  -6   11.58    5.14
  -7  -8  -7   45.93    6.45
  -7  -8  -7   47.27    5.88
  -7  -8  -7   38.34    6.49
  -7  -8  -7   45.93    6.45
  -7  -8  -7   47.27    5.88
  -7  -8  -7   38.34    6.49
  -7  -8  -8   25.53    4.48
  -7  -8  -8   22.08    6.19
  -7  -8  -8   25.53    4.48
  -7  -8  -8   22.08    6.19
  -7  -8  -9   13.53    4.37
  -7  -8  -9   14.63    5.95
  -7  -8  -9   13.53    4.37
  -7  -8  -9   14.63    5.95
  -7  -8 -10   36.73    5.07
  -7  -8 -10   26.48    6.62
  -7  -8 -10   36.73    5.07
  -7  -8 -10   26.48    6.62
  -7  -8 -11  114.42    6.97
  -7  -8 -11   92.09    9.48
  -7  -8 -11  114.42    6.97
  -7  -8 -11   92.09    9.48
  -7  -8 -12    6.89    4.44
  -7  -8 -12    9.05    6.32
  -7  -8 -12    6.89    4.44
  -7  -8 -12    9.05    6.32
  -7  -9   7    4.72    5.55
  -7  -9   7    4.72    5.55
   7   9  -7   -6.64    5.19
   7   9  -7    1.79    5.60
   7   9  -7   -6.64    5.19
   7   9  -7    1.79    5.60
  -7  -9   6    3.15    5.26
  -7  -9   6    3.15    5.26
   7   9  -6    2.21    5.37
   7   9  -6   -0.20    5.31
   7   9  -6    2.21    5.37
   7   9  -6   -0.20    5.31
  -7  -9   5   15.40    5.38
  -7  -9   5   15.40    5.38
   7   9  -5   13.55    5.61
   7   9  -5   21.23    6.44
   7   9  -5   13.55    5.61
   7   9  -5   21.23    6.44
  -7  -9   4   17.37    5.44
  -7  -9   4   20.25    5.67
  -7  -9   4   17.37    5.44
  -7  -9   4   20.25    5.67
   7   9  -4   28.29    6.09
   7   9  -4   21.76    6.25
   7   9  -4   28.29    6.09
   7   9  -4   21.76    6.25
  -7  -9   3   11.95    5.01
  -7  -9   3    6.83    5.18
  -7  -9   3   11.95    5.01
  -7  -9   3    6.83    5.18
   7   9  -3   12.73    5.91
   7   9  -3   12.73    5.91
  -7  -9   2   -0.59    4.28
  -7  -9   2    0.42    4.64
  -7  -9   2   -0.59    4.28
  -7  -9   2    0.42    4.64
  -7  -9   1    5.30    4.33
  -7  -9   1    7.88    4.77
  -7  -9   1    5.30    4.33
  -7  -9   1    7.88    4.77
  -7  -9   0    1.26    4.42
  -7  -9   0    1.26    4.42
  -7  -9  -1    2.64    4.34
  -7  -9  -1    2.64    4.34
  -7  -9  -2   11.55    4.74
  -7  -9  -2   10.02    4.40
  -7  -9  -2   11.55    4.74
  -7  -9  -2   10.02    4.40
  -7  -9  -3   18.53    4.96
  -7  -9  -3   14.43    4.69
  -7  -9  -3   18.53    4.96
  -7  -9  -3   14.43    4.69
  -7  -9  -4    3.23    4.70
  -7  -9  -4   10.15    4.18
  -7  -9  -4    3.23    4.70
  -7  -9  -4   10.15    4.18
  -7  -9  -5   -1.57    4.38
  -7  -9  -5    1.16    4.14
  -7  -9  -5   -1.57    4.38
  -7  -9  -5    1.16    4.14
  -7  -9  -6    7.93    5.13
  -7  -9  -6    2.34    3.06
  -7  -9  -6    3.21    4.17
  -7  -9  -6    7.93    5.13
  -7  -9  -6    2.34    3.06
  -7  -9  -6    3.21    4.17
  -7  -9  -7   13.43    5.30
  -7  -9  -7    5.82    2.73
  -7  -9  -7    8.92    4.45
  -7  -9  -7    8.43    5.47
  -7  -9  -7   13.43    5.30
  -7  -9  -7    5.82    2.73
  -7  -9  -7    8.92    4.45
  -7  -9  -7    8.43    5.47
  -7  -9  -8   16.52    4.55
  -7  -9  -8   16.70    6.17
  -7  -9  -8   16.52    4.55
  -7  -9  -8   16.70    6.17
  -7  -9  -9   25.27    4.95
  -7  -9  -9   28.60    6.85
  -7  -9  -9   25.27    4.95
  -7  -9  -9   28.60    6.85
  -7  -9 -10   22.37    5.15
  -7  -9 -10   12.07    6.48
  -7  -9 -10   22.37    5.15
  -7  -9 -10   12.07    6.48
  -7  -9 -11   57.99    6.30
  -7  -9 -11   39.49    7.48
  -7  -9 -11   57.99    6.30
  -7  -9 -11   39.49    7.48
  -7 -10   6    4.16    5.44
  -7 -10   6    4.16    5.44
   7  10  -6   -2.75    5.28
   7  10  -6   -0.41    5.94
   7  10  -6   -2.75    5.28
   7  10  -6   -0.41    5.94
  -7 -10   5   15.53    5.64
  -7 -10   5   15.53    5.64
   7  10  -5    9.13    5.76
   7  10  -5   15.35    6.11
   7  10  -5    9.13    5.76
   7  10  -5   15.35    6.11
  -7 -10   4    5.75    5.06
  -7 -10   4    1.99    5.44
  -7 -10   4    5.75    5.06
  -7 -10   4    1.99    5.44
   7  10  -4    4.44    5.37
   7  10  -4    3.88    5.96
   7  10  -4    4.44    5.37
   7  10  -4    3.88    5.96
  -7 -10   3    1.74    4.92
  -7 -10   3    6.88    5.27
  -7 -10   3    1.74    4.92
  -7 -10   3    6.88    5.27
   7  10  -3   -0.46    5.11
   7  10  -3   -0.46    5.11
  -7 -10   2   33.57    5.72
  -7 -10   2   32.51    6.28
  -7 -10   2   33.57    5.72
  -7 -10   2   32.51    6.28
  -7 -10   1    8.85    5.19
  -7 -10   1    8.85    5.19
  -7 -10   0   -4.70    4.59
  -7 -10   0   -4.70    4.59
  -7 -10  -1   27.62    5.54
  -7 -10  -1   27.62    5.54
  -7 -10  -2   15.12    5.08
  -7 -10  -2   15.12    5.08
  -7 -10  -3   11.88    4.73
  -7 -10  -3   11.88    4.73
  -7 -10  -4   35.38    5.48
  -7 -10  -4   35.38    5.48
  -7 -10  -5   54.14    6.64
  -7 -10  -5   54.14    6.64
  -7 -10  -6    0.39    3.67
  -7 -10  -6   -0.31    4.45
  -7 -10  -6    0.39    3.67
  -7 -10  -6   -0.31    4.45
  -7 -10  -7   31.33    4.22
  -7 -10  -7   32.98    5.51
  -7 -10  -7   31.33    4.22
  -7 -10  -7   32.98    5.51
  -7 -10  -8   58.27    6.65
  -7 -10  -8   39.51    7.24
  -7 -10  -8   58.27    6.65
  -7 -10  -8   39.51    7.24
  -7 -10  -9   19.72    5.21
  -7 -10  -9   15.16    6.68
  -7 -10  -9   19.72    5.21
  -7 -10  -9   15.16    6.68
  -7 -10 -10    3.45    5.00
  -7 -10 -10    4.20    6.41
  -7 -10 -10    3.45    5.00
  -7 -10 -10    4.20    6.41
  -7 -11   4   39.62    6.44
  -7 -11   4   39.62    6.44
   7  11  -4   44.84    7.07
   7  11  -4   44.84    7.07
  -7 -11   3   78.86    7.59
  -7 -11   3   81.56    8.60
  -7 -11   3   78.86    7.59
  -7 -11   3   81.56    8.60
   7  11  -3   79.98    8.56
   7  11  -3   79.98    8.56
  -7 -11   2    5.54    5.54
  -7 -11   2    5.54    5.54
  -7 -11   1   27.07    6.09
  -7 -11   1   27.07    6.09
  -7 -11   0    9.95    5.43
  -7 -11   0    9.95    5.43
  -7 -11  -1   -1.24    4.89
  -7 -11  -1   -1.24    4.89
  -7 -11  -2   40.88    6.28
  -7 -11  -2   40.88    6.28
  -7 -11  -3   30.82    6.03
  -7 -11  -3   30.82    6.03
  -7 -11  -4    5.10    4.89
  -7 -11  -4    5.10    4.89
  -7 -11  -5   30.91    5.76
  -7 -11  -5   30.91    5.76
  -7 -11  -6   68.09    6.67
  -7 -11  -6   76.08    7.60
  -7 -11  -6   68.09    6.67
  -7 -11  -6   76.08    7.60
  -7 -11  -7    1.94    3.89
  -7 -11  -7    0.13    4.81
  -7 -11  -7    1.94    3.89
  -7 -11  -7    0.13    4.81
  -7 -11  -8    3.91    3.47
  -7 -11  -8    3.97    4.60
  -7 -11  -8    3.91    3.47
  -7 -11  -8    3.97    4.60
  -7 -11  -9   14.60    5.46
  -7 -11  -9    9.14    6.60
  -7 -11  -9   14.60    5.46
  -7 -11  -9    9.14    6.60
  -7 -12   2   43.34    7.13
  -7 -12   2   43.34    7.13
  -7 -12   1   -0.91    5.47
  -7 -12   1   -0.91    5.47
  -7 -12   0    4.14    5.51
  -7 -12   0    4.14    5.51
  -7 -12  -1   31.86    6.35
  -7 -12  -1   31.86    6.35
  -7 -12  -2   38.71    6.57
  -7 -12  -2   38.71    6.57
  -7 -12  -3   15.88    5.77
  -7 -12  -3   15.88    5.77
  -7 -12  -4   10.54    5.41
  -7 -12  -4   10.54    5.41
  -7 -12  -5    0.56    5.28
  -7 -12  -5    0.56    5.28
  -7 -12  -6   28.52    5.58
  -7 -12  -6   24.94    6.03
  -7 -12  -6   28.52    5.58
  -7 -12  -6   24.94    6.03
  -7 -12  -7   12.24    4.76
  -7 -12  -7   11.94    5.45
  -7 -12  -7   12.24    4.76
  -7 -12  -7   11.94    5.45
  -8   5   0   19.72    7.09
  -8   5   0   16.63    5.90
  -8   5   0   15.92    5.77
  -8   5   0   19.72    7.09
  -8   5   0   16.63    5.90
  -8   5   0   15.92    5.77
  -8   5  -1   -0.32    6.50
  -8   5  -1    4.95    5.62
  -8   5  -1    4.03    5.14
  -8   5  -1   -0.32    6.50
  -8   5  -1    4.95    5.62
  -8   5  -1    4.03    5.14
  -8   5  -2    3.40    6.24
  -8   5  -2    8.29    5.82
  -8   5  -2    7.25    5.05
  -8   5  -2    3.40    6.24
  -8   5  -2    8.29    5.82
  -8   5  -2    7.25    5.05
  -8   5  -3    7.88    6.37
  -8   5  -3    5.08    5.35
  -8   5  -3    2.37    4.74
  -8   5  -3    7.88    6.37
  -8   5  -3    5.08    5.35
  -8   5  -3    2.37    4.74
  -8   4   3   11.10    6.92
  -8   4   3    6.71    5.98
  -8   4   3    6.99    3.83
  -8   4   3    2.15    5.25
  -8   4   3   11.10    6.92
  -8   4   3    6.71    5.98
  -8   4   3    6.99    3.83
  -8   4   3    2.15    5.25
  -8   4   2   18.15    6.51
  -8   4   2   13.90    6.41
  -8   4   2   13.87    5.77
  -8   4   2   18.15    6.51
  -8   4   2   13.90    6.41
  -8   4   2   13.87    5.77
  -8   4   1   20.01    6.86
  -8   4   1    8.47    5.67
  -8   4   1    9.95    5.44
  -8   4   1   20.01    6.86
  -8   4   1    8.47    5.67
  -8   4   1    9.95    5.44
  -8   4   0   -2.17    6.08
  -8   4   0    2.91    5.76
  -8   4   0    5.67    4.64
  -8   4   0   -2.17    6.08
  -8   4   0    2.91    5.76
  -8   4   0    5.67    4.64
  -8   4  -1    8.44    6.39
  -8   4  -1    5.47    5.65
  -8   4  -1    3.98    4.78
  -8   4  -1    8.44    6.39
  -8   4  -1    5.47    5.65
  -8   4  -1    3.98    4.78
  -8   4  -2    4.71    6.06
  -8   4  -2    3.69    5.65
  -8   4  -2   -0.31    4.41
  -8   4  -2    4.71    6.06
  -8   4  -2    3.69    5.65
  -8   4  -2   -0.31    4.41
  -8   4  -3    1.22    5.87
  -8   4  -3    1.72    5.50
  -8   4  -3   -0.82    4.57
  -8   4  -3    1.22    5.87
  -8   4  -3    1.72    5.50
  -8   4  -3   -0.82    4.57
  -8   4  -4    5.07    6.28
  -8   4  -4    6.15    5.27
  -8   4  -4    3.64    4.31
  -8   4  -4    5.07    6.28
  -8   4  -4    6.15    5.27
  -8   4  -4    3.64    4.31
  -8   4  -5    6.44    4.23
  -8   4  -5    6.44    4.23
  -8   4  -6    3.02    4.20
  -8   4  -6    3.02    4.20
  -8   3   5    3.27    6.69
  -8   3   5    2.57    6.75
  -8   3   5    3.28    4.37
  -8   3   5    1.34    5.44
  -8   3   5    3.27    6.69
  -8   3   5    2.57    6.75
  -8   3   5    3.28    4.37
  -8   3   5    1.34    5.44
  -8   3   4   29.16    7.31
  -8   3   4   12.91    7.07
  -8   3   4   18.26    4.73
  -8   3   4    9.04    5.57
  -8   3   4   29.16    7.31
  -8   3   4   12.91    7.07
  -8   3   4   18.26    4.73
  -8   3   4    9.04    5.57
  -8   3   3   -2.43    6.31
  -8   3   3    2.65    5.78
  -8   3   3   -2.16    3.76
  -8   3   3   -0.05    4.91
  -8   3   3   -2.43    6.31
  -8   3   3    2.65    5.78
  -8   3   3   -2.16    3.76
  -8   3   3   -0.05    4.91
  -8   3   2    8.29    5.90
  -8   3   2   21.04    6.71
  -8   3   2   11.33    3.20
  -8   3   2    8.56    5.28
  -8   3   2    8.29    5.90
  -8   3   2   21.04    6.71
  -8   3   2   11.33    3.20
  -8   3   2    8.56    5.28
  -8   3   1   26.09    6.90
  -8   3   1   23.04    6.58
  -8   3   1   23.31    5.37
  -8   3   1   26.09    6.90
  -8   3   1   23.04    6.58
  -8   3   1   23.31    5.37
  -8   3   0   36.63    7.16
  -8   3   0   41.82    6.75
  -8   3   0   38.04    5.80
  -8   3   0   36.63    7.16
  -8   3   0   41.82    6.75
  -8   3   0   38.04    5.80
  -8   3  -1   16.76    4.86
  -8   3  -1   27.10    6.32
  -8   3  -1   19.22    6.22
  -8   3  -1   25.33    5.14
  -8   3  -1   16.76    4.86
  -8   3  -1   27.10    6.32
  -8   3  -1   19.22    6.22
  -8   3  -1   25.33    5.14
  -8   3  -2    3.82    5.81
  -8   3  -2    4.19    5.03
  -8   3  -2    3.23    4.20
  -8   3  -2    3.82    5.81
  -8   3  -2    4.19    5.03
  -8   3  -2    3.23    4.20
  -8   3  -3   12.18    6.08
  -8   3  -3   11.66    5.73
  -8   3  -3    4.60    4.40
  -8   3  -3   12.18    6.08
  -8   3  -3   11.66    5.73
  -8   3  -3    4.60    4.40
  -8   3  -4   63.83    8.01
  -8   3  -4   72.65    7.49
  -8   3  -4   70.90    5.93
  -8   3  -4   63.83    8.01
  -8   3  -4   72.65    7.49
  -8   3  -4   70.90    5.93
  -8   3  -5   10.02    4.17
  -8   3  -5   10.02    4.17
  -8   3  -6    8.42    4.03
  -8   3  -6    8.42    4.03
  -8   3  -7    1.97    5.32
  -8   3  -7   -2.94    3.52
  -8   3  -7    1.97    5.32
  -8   3  -7   -2.94    3.52
  -8   3  -8   11.81    5.98
  -8   3  -8   13.74    3.97
  -8   3  -8   11.81    5.98
  -8   3  -8   13.74    3.97
  -8   2   6    1.82    6.76
  -8   2   6    1.33    6.42
  -8   2   6    2.14    4.72
  -8   2   6    4.93    5.66
  -8   2   6    1.82    6.76
  -8   2   6    1.33    6.42
  -8   2   6    2.14    4.72
  -8   2   6    4.93    5.66
  -8   2   5   44.32    7.92
  -8   2   5   47.53    8.25
  -8   2   5   41.06    5.78
  -8   2   5   41.50    6.75
  -8   2   5   44.32    7.92
  -8   2   5   47.53    8.25
  -8   2   5   41.06    5.78
  -8   2   5   41.50    6.75
  -8   2   4  225.73   12.05
  -8   2   4  208.88   10.94
  -8   2   4  231.15    8.46
  -8   2   4  236.94   10.29
  -8   2   4  225.73   12.05
  -8   2   4  208.88   10.94
  -8   2   4  231.15    8.46
  -8   2   4  236.94   10.29
  -8   2   3   21.05    6.87
  -8   2   3   24.60    6.47
  -8   2   3   14.88    4.14
  -8   2   3   14.79    5.23
  -8   2   3   21.05    6.87
  -8   2   3   24.60    6.47
  -8   2   3   14.88    4.14
  -8   2   3   14.79    5.23
  -8   2   2   17.14    5.97
  -8   2   2   18.27    6.35
  -8   2   2    8.67    3.33
  -8   2   2    8.65    4.79
  -8   2   2   17.14    5.97
  -8   2   2   18.27    6.35
  -8   2   2    8.67    3.33
  -8   2   2    8.65    4.79
  -8   2   1   28.17    6.74
  -8   2   1   31.41    6.80
  -8   2   1   31.12    5.50
  -8   2   1   28.17    6.74
  -8   2   1   31.41    6.80
  -8   2   1   31.12    5.50
  -8   2   0   -3.77    5.45
  -8   2   0    5.72    5.56
  -8   2   0   -0.97    3.91
  -8   2   0   -3.77    5.45
  -8   2   0    5.72    5.56
  -8   2   0   -0.97    3.91
  -8   2  -1   24.28    5.56
  -8   2  -1   21.70    6.45
  -8   2  -1   19.06    6.02
  -8   2  -1   23.62    4.83
  -8   2  -1   24.28    5.56
  -8   2  -1   21.70    6.45
  -8   2  -1   19.06    6.02
  -8   2  -1   23.62    4.83
  -8   2  -2   59.12    7.11
  -8   2  -2   52.32    7.28
  -8   2  -2   52.46    7.09
  -8   2  -2   52.62    5.83
  -8   2  -2   59.12    7.11
  -8   2  -2   52.32    7.28
  -8   2  -2   52.46    7.09
  -8   2  -2   52.62    5.83
  -8   2  -3    2.71    4.66
  -8   2  -3    0.79    5.43
  -8   2  -3   -0.18    4.86
  -8   2  -3    4.68    3.95
  -8   2  -3    2.71    4.66
  -8   2  -3    0.79    5.43
  -8   2  -3   -0.18    4.86
  -8   2  -3    4.68    3.95
  -8   2  -4   92.05    7.48
  -8   2  -4  102.30    9.02
  -8   2  -4  104.46    8.53
  -8   2  -4  105.27    6.25
  -8   2  -4   92.05    7.48
  -8   2  -4  102.30    9.02
  -8   2  -4  104.46    8.53
  -8   2  -4  105.27    6.25
  -8   2  -5   69.20    6.66
  -8   2  -5  123.82    6.18
  -8   2  -5   69.20    6.66
  -8   2  -5  123.82    6.18
  -8   2  -6   21.83    5.12
  -8   2  -6   65.92    5.34
  -8   2  -6   21.83    5.12
  -8   2  -6   65.92    5.34
  -8   2  -7   -1.86    4.47
  -8   2  -7    1.43    5.13
  -8   2  -7    0.19    3.21
  -8   2  -7   -1.86    4.47
  -8   2  -7    1.43    5.13
  -8   2  -7    0.19    3.21
  -8   2  -8   16.73    6.09
  -8   2  -8    7.38    3.13
  -8   2  -8   16.73    6.09
  -8   2  -8    7.38    3.13
  -8   2  -9   13.37    6.00
  -8   2  -9    8.31    3.00
  -8   2  -9   13.37    6.00
  -8   2  -9    8.31    3.00
  -8   1   7   -0.69    6.52
  -8   1   7   -4.12    7.00
  -8   1   7    1.36    4.99
  -8   1   7    5.55    5.63
  -8   1   7   -0.69    6.52
  -8   1   7   -4.12    7.00
  -8   1   7    1.36    4.99
  -8   1   7    5.55    5.63
  -8   1   6    8.84    6.70
  -8   1   6    6.82    6.99
  -8   1   6    7.71    5.10
  -8   1   6   20.72    6.07
  -8   1   6    8.84    6.70
  -8   1   6    6.82    6.99
  -8   1   6    7.71    5.10
  -8   1   6   20.72    6.07
  -8   1   5    7.32    6.46
  -8   1   5    7.34    6.70
  -8   1   5   -0.21    4.22
  -8   1   5   -0.07    4.94
  -8   1   5    7.32    6.46
  -8   1   5    7.34    6.70
  -8   1   5   -0.21    4.22
  -8   1   5   -0.07    4.94
  -8   1   4   41.72    7.17
  -8   1   4   38.46    7.42
  -8   1   4   43.86    5.27
  -8   1   4   39.83    6.23
  -8   1   4   41.72    7.17
  -8   1   4   38.46    7.42
  -8   1   4   43.86    5.27
  -8   1   4   39.83    6.23
  -8   1   3   54.44    7.60
  -8   1   3   57.51    7.82
  -8   1   3   59.32    5.91
  -8   1   3   62.06    6.88
  -8   1   3   54.44    7.60
  -8   1   3   57.51    7.82
  -8   1   3   59.32    5.91
  -8   1   3   62.06    6.88
  -8   1   2    5.07    5.30
  -8   1   2   -0.11    5.21
  -8   1   2   -2.24    2.96
  -8   1   2    1.70    4.29
  -8   1   2    5.07    5.30
  -8   1   2   -0.11    5.21
  -8   1   2   -2.24    2.96
  -8   1   2    1.70    4.29
  -8   1   1   -3.99    5.40
  -8   1   1    1.40    5.45
  -8   1   1    0.83    3.96
  -8   1   1   -3.99    5.40
  -8   1   1    1.40    5.45
  -8   1   1    0.83    3.96
  -8   1   0   77.07    8.63
  -8   1   0   67.12    8.31
  -8   1   0   75.57    6.47
  -8   1   0   77.07    8.63
  -8   1   0   67.12    8.31
  -8   1   0   75.57    6.47
  -8   1  -1   68.45    7.57
  -8   1  -1   66.95    8.29
  -8   1  -1   68.32    7.43
  -8   1  -1   66.09    6.03
  -8   1  -1   68.45    7.57
  -8   1  -1   66.95    8.29
  -8   1  -1   68.32    7.43
  -8   1  -1   66.09    6.03
  -8   1  -2    4.08    4.67
  -8   1  -2    5.45    5.43
  -8   1  -2    8.60    5.07
  -8   1  -2    7.62    3.84
  -8   1  -2    4.08    4.67
  -8   1  -2    5.45    5.43
  -8   1  -2    8.60    5.07
  -8   1  -2    7.62    3.84
  -8   1  -3    7.49    4.64
  -8   1  -3    0.74    5.17
  -8   1  -3    3.51    4.78
  -8   1  -3    2.11    3.63
  -8   1  -3    7.49    4.64
  -8   1  -3    0.74    5.17
  -8   1  -3    3.51    4.78
  -8   1  -3    2.11    3.63
  -8   1  -4    4.64    4.66
  -8   1  -4    1.26    5.34
  -8   1  -4   -3.95    5.00
  -8   1  -4   -2.64    3.24
  -8   1  -4    4.64    4.66
  -8   1  -4    1.26    5.34
  -8   1  -4   -3.95    5.00
  -8   1  -4   -2.64    3.24
  -8   1  -5   36.16    5.80
  -8   1  -5   40.74    4.24
  -8   1  -5   36.16    5.80
  -8   1  -5   40.74    4.24
  -8   1  -6    6.82    4.82
  -8   1  -6   11.22    3.25
  -8   1  -6    6.82    4.82
  -8   1  -6   11.22    3.25
  -8   1  -7   14.72    5.18
  -8   1  -7   14.66    5.52
  -8   1  -7   12.38    3.00
  -8   1  -7   14.72    5.18
  -8   1  -7   14.66    5.52
  -8   1  -7   12.38    3.00
  -8   1  -8   89.12    8.19
  -8   1  -8   89.96    8.84
  -8   1  -8   84.18    4.36
  -8   1  -8   89.12    8.19
  -8   1  -8   89.96    8.84
  -8   1  -8   84.18    4.36
  -8   1  -9   87.78    8.84
  -8   1  -9   85.20    8.76
  -8   1  -9   87.78    8.84
  -8   1  -9   85.20    8.76
  -8   1 -10   75.26    9.00
  -8   1 -10   75.26    9.00
  -8   0   7    5.90    6.52
  -8   0   7    4.70    7.14
  -8   0   7    4.72    4.94
  -8   0   7    2.56    5.74
  -8   0   7    5.90    6.52
  -8   0   7    4.70    7.14
  -8   0   7    4.72    4.94
  -8   0   7    2.56    5.74
  -8   0   6   11.34    6.34
  -8   0   6    6.00    6.71
  -8   0   6    6.55    4.74
  -8   0   6    6.10    5.44
  -8   0   6   11.34    6.34
  -8   0   6    6.00    6.71
  -8   0   6    6.55    4.74
  -8   0   6    6.10    5.44
  -8   0   5    4.74    5.85
  -8   0   5   -0.64    5.60
  -8   0   5   -0.90    4.15
  -8   0   5    0.72    4.82
  -8   0   5    4.74    5.85
  -8   0   5   -0.64    5.60
  -8   0   5   -0.90    4.15
  -8   0   5    0.72    4.82
  -8   0   4   22.85    6.47
  -8   0   4   26.49    6.59
  -8   0   4   23.60    4.77
  -8   0   4   26.19    5.73
  -8   0   4   22.85    6.47
  -8   0   4   26.49    6.59
  -8   0   4   23.60    4.77
  -8   0   4   26.19    5.73
  -8   0   3    8.08    5.71
  -8   0   3   14.92    5.91
  -8   0   3   10.97    3.88
  -8   0   3    8.73    4.71
  -8   0   3    8.08    5.71
  -8   0   3   14.92    5.91
  -8   0   3   10.97    3.88
  -8   0   3    8.73    4.71
  -8   0   2   24.27    5.76
  -8   0   2   22.55    5.87
  -8   0   2   19.08    3.52
  -8   0   2   21.25    4.83
  -8   0   2   24.27    5.76
  -8   0   2   22.55    5.87
  -8   0   2   19.08    3.52
  -8   0   2   21.25    4.83
  -8   0   1    4.42    5.38
  -8   0   1    4.25    5.36
  -8   0   1    1.99    1.94
  -8   0   1    5.25    3.89
  -8   0   1    4.42    5.38
  -8   0   1    4.25    5.36
  -8   0   1    1.99    1.94
  -8   0   1    5.25    3.89
  -8   0   0    5.94    4.85
  -8   0   0    2.45    5.25
  -8   0   0    0.72    3.82
  -8   0   0    5.94    4.85
  -8   0   0    2.45    5.25
  -8   0   0    0.72    3.82
  -8   0  -1   24.54    5.62
  -8   0  -1   21.40    5.87
  -8   0  -1   24.35    4.36
  -8   0  -1   24.54    5.62
  -8   0  -1   21.40    5.87
  -8   0  -1   24.35    4.36
  -8   0  -2   51.45    6.41
  -8   0  -2   52.40    6.80
  -8   0  -2   53.07    6.43
  -8   0  -2   49.79    5.18
  -8   0  -2   51.45    6.41
  -8   0  -2   52.40    6.80
  -8   0  -2   53.07    6.43
  -8   0  -2   49.79    5.18
  -8   0  -3    1.32    4.17
  -8   0  -3    3.74    4.75
  -8   0  -3    2.37    5.24
  -8   0  -3    3.69    3.37
  -8   0  -3    1.32    4.17
  -8   0  -3    3.74    4.75
  -8   0  -3    2.37    5.24
  -8   0  -3    3.69    3.37
  -8   0  -4   36.27    5.83
  -8   0  -4   42.01    6.19
  -8   0  -4   36.49    6.42
  -8   0  -4   40.18    4.74
  -8   0  -4   36.27    5.83
  -8   0  -4   42.01    6.19
  -8   0  -4   36.49    6.42
  -8   0  -4   40.18    4.74
  -8   0  -5    5.79    4.83
  -8   0  -5    7.10    3.07
  -8   0  -5    5.79    4.83
  -8   0  -5    7.10    3.07
  -8   0  -6   72.25    7.67
  -8   0  -6   70.85    4.40
  -8   0  -6   72.25    7.67
  -8   0  -6   70.85    4.40
  -8   0  -7    4.96    4.86
  -8   0  -7    2.32    2.22
  -8   0  -7    4.96    4.86
  -8   0  -7    2.32    2.22
  -8   0  -8   13.22    5.49
  -8   0  -8   24.22    5.75
  -8   0  -8   13.22    5.49
  -8   0  -8   24.22    5.75
  -8   0  -9    1.59    5.11
  -8   0  -9    6.59    5.35
  -8   0  -9    1.59    5.11
  -8   0  -9    6.59    5.35
  -8   0 -10   36.56    6.65
  -8   0 -10   36.56    6.65
  -8   0 -11   25.13    6.50
  -8   0 -11   25.13    6.50
  -8  -1   8   -1.36    7.38
  -8  -1   8   20.82    5.91
  -8  -1   8   -1.36    7.38
  -8  -1   8   20.82    5.91
  -8  -1   7    8.24    6.52
  -8  -1   7   -2.13    6.65
  -8  -1   7    2.89    4.95
  -8  -1   7    3.89    5.44
  -8  -1   7    8.24    6.52
  -8  -1   7   -2.13    6.65
  -8  -1   7    2.89    4.95
  -8  -1   7    3.89    5.44
  -8  -1   6   29.89    6.59
  -8  -1   6   23.44    7.10
  -8  -1   6   30.26    5.50
  -8  -1   6   28.44    6.12
  -8  -1   6   29.89    6.59
  -8  -1   6   23.44    7.10
  -8  -1   6   30.26    5.50
  -8  -1   6   28.44    6.12
  -8  -1   5   21.99    6.21
  -8  -1   5   24.24    6.39
  -8  -1   5   20.87    4.85
  -8  -1   5   25.67    5.64
  -8  -1   5   21.99    6.21
  -8  -1   5   24.24    6.39
  -8  -1   5   20.87    4.85
  -8  -1   5   25.67    5.64
  -8  -1   4    8.01    5.76
  -8  -1   4   15.73    6.37
  -8  -1   4   11.59    4.40
  -8  -1   4   15.74    5.02
  -8  -1   4    8.01    5.76
  -8  -1   4   15.73    6.37
  -8  -1   4   11.59    4.40
  -8  -1   4   15.74    5.02
  -8  -1   3    6.28    5.36
  -8  -1   3   10.51    5.98
  -8  -1   3    4.69    3.71
  -8  -1   3    8.79    4.63
  -8  -1   3    6.28    5.36
  -8  -1   3   10.51    5.98
  -8  -1   3    4.69    3.71
  -8  -1   3    8.79    4.63
  -8  -1   2   26.88    6.04
  -8  -1   2   34.55    6.60
  -8  -1   2   24.79    3.65
  -8  -1   2   23.06    4.78
  -8  -1   2   26.88    6.04
  -8  -1   2   34.55    6.60
  -8  -1   2   24.79    3.65
  -8  -1   2   23.06    4.78
  -8  -1   1   12.23    5.45
  -8  -1   1   10.59    5.54
  -8  -1   1   17.93    2.57
  -8  -1   1   13.48    4.38
  -8  -1   1   12.23    5.45
  -8  -1   1   10.59    5.54
  -8  -1   1   17.93    2.57
  -8  -1   1   13.48    4.38
  -8  -1   0   92.21    7.60
  -8  -1   0   85.55    8.57
  -8  -1   0   91.94    6.41
  -8  -1   0   47.90    4.68
  -8  -1   0   92.21    7.60
  -8  -1   0   85.55    8.57
  -8  -1   0   91.94    6.41
  -8  -1   0   47.90    4.68
  -8  -1  -1   25.56    5.77
  -8  -1  -1   22.19    5.39
  -8  -1  -1   20.63    4.05
  -8  -1  -1   18.53    4.10
  -8  -1  -1   25.56    5.77
  -8  -1  -1   22.19    5.39
  -8  -1  -1   20.63    4.05
  -8  -1  -1   18.53    4.10
  -8  -1  -2   15.29    5.09
  -8  -1  -2   15.34    5.48
  -8  -1  -2   19.45    5.60
  -8  -1  -2   14.86    3.61
  -8  -1  -2   10.07    4.54
  -8  -1  -2   15.29    5.09
  -8  -1  -2   15.34    5.48
  -8  -1  -2   19.45    5.60
  -8  -1  -2   14.86    3.61
  -8  -1  -2   10.07    4.54
  -8  -1  -3   43.40    6.03
  -8  -1  -3   49.53    6.61
  -8  -1  -3   45.07    6.39
  -8  -1  -3   48.40    4.81
  -8  -1  -3   41.14    5.46
  -8  -1  -3   43.40    6.03
  -8  -1  -3   49.53    6.61
  -8  -1  -3   45.07    6.39
  -8  -1  -3   48.40    4.81
  -8  -1  -3   41.14    5.46
  -8  -1  -4    0.41    4.70
  -8  -1  -4    1.86    4.95
  -8  -1  -4    2.34    2.92
  -8  -1  -4   -4.13    4.27
  -8  -1  -4    0.41    4.70
  -8  -1  -4    1.86    4.95
  -8  -1  -4    2.34    2.92
  -8  -1  -4   -4.13    4.27
  -8  -1  -5   21.01    5.30
  -8  -1  -5   21.98    3.13
  -8  -1  -5   17.11    5.37
  -8  -1  -5   21.01    5.30
  -8  -1  -5   21.98    3.13
  -8  -1  -5   17.11    5.37
  -8  -1  -6    4.99    4.89
  -8  -1  -6    5.41    2.46
  -8  -1  -6    4.99    4.89
  -8  -1  -6    5.41    2.46
  -8  -1  -7   40.87    6.20
  -8  -1  -7   29.66    2.99
  -8  -1  -7   40.87    6.20
  -8  -1  -7   29.66    2.99
  -8  -1  -8    7.37    5.43
  -8  -1  -8    7.37    5.43
  -8  -1  -9   30.69    6.25
  -8  -1  -9   37.13    6.45
  -8  -1  -9   30.69    6.25
  -8  -1  -9   37.13    6.45
  -8  -1 -10    1.11    5.49
  -8  -1 -10   -0.56    5.12
  -8  -1 -10    1.11    5.49
  -8  -1 -10   -0.56    5.12
  -8  -1 -11   -0.37    5.38
  -8  -1 -11   -0.37    5.38
  -8  -2   8   -3.80    6.99
  -8  -2   8    3.85    5.32
  -8  -2   8   -3.80    6.99
  -8  -2   8    3.85    5.32
   8   2  -8    7.77    5.75
   8   2  -8    7.77    5.75
  -8  -2   7   -5.75    6.30
  -8  -2   7   -1.40    4.79
  -8  -2   7    3.35    5.29
  -8  -2   7   -5.75    6.30
  -8  -2   7   -1.40    4.79
  -8  -2   7    3.35    5.29
  -8  -2   6   45.49    6.97
  -8  -2   6   33.89    7.14
  -8  -2   6   38.44    5.71
  -8  -2   6   43.31    6.51
  -8  -2   6   45.49    6.97
  -8  -2   6   33.89    7.14
  -8  -2   6   38.44    5.71
  -8  -2   6   43.31    6.51
  -8  -2   5  169.73    9.77
  -8  -2   5  164.18    9.76
  -8  -2   5  162.59    7.93
  -8  -2   5  152.12    8.68
  -8  -2   5  169.73    9.77
  -8  -2   5  164.18    9.76
  -8  -2   5  162.59    7.93
  -8  -2   5  152.12    8.68
  -8  -2   4   74.79    8.41
  -8  -2   4   86.20    9.17
  -8  -2   4   80.34    6.37
  -8  -2   4   69.97    7.03
  -8  -2   4   74.79    8.41
  -8  -2   4   86.20    9.17
  -8  -2   4   80.34    6.37
  -8  -2   4   69.97    7.03
  -8  -2   3   16.34    5.62
  -8  -2   3   22.69    5.74
  -8  -2   3   12.07    4.01
  -8  -2   3   17.09    4.78
  -8  -2   3   16.34    5.62
  -8  -2   3   22.69    5.74
  -8  -2   3   12.07    4.01
  -8  -2   3   17.09    4.78
  -8  -2   2   22.07    5.50
  -8  -2   2   13.62    5.68
  -8  -2   2   18.47    3.57
  -8  -2   2   17.10    4.53
  -8  -2   2   22.07    5.50
  -8  -2   2   13.62    5.68
  -8  -2   2   18.47    3.57
  -8  -2   2   17.10    4.53
  -8  -2   1   -1.06    4.80
  -8  -2   1    1.63    5.09
  -8  -2   1    2.99    2.43
  -8  -2   1    2.67    3.67
  -8  -2   1   -1.06    4.80
  -8  -2   1    1.63    5.09
  -8  -2   1    2.99    2.43
  -8  -2   1    2.67    3.67
  -8  -2   0   13.03    5.14
  -8  -2   0   11.84    4.96
  -8  -2   0   12.67    4.04
  -8  -2   0    8.52    3.59
  -8  -2   0   13.03    5.14
  -8  -2   0   11.84    4.96
  -8  -2   0   12.67    4.04
  -8  -2   0    8.52    3.59
  -8  -2  -1   20.63    5.41
  -8  -2  -1   23.62    5.69
  -8  -2  -1   20.63    4.06
  -8  -2  -1   17.54    4.21
  -8  -2  -1   20.63    5.41
  -8  -2  -1   23.62    5.69
  -8  -2  -1   20.63    4.06
  -8  -2  -1   17.54    4.21
  -8  -2  -2    9.13    4.91
  -8  -2  -2   13.59    5.33
  -8  -2  -2    3.06    4.51
  -8  -2  -2    8.58    3.58
  -8  -2  -2    8.92    4.12
  -8  -2  -2    9.13    4.91
  -8  -2  -2   13.59    5.33
  -8  -2  -2    3.06    4.51
  -8  -2  -2    8.58    3.58
  -8  -2  -2    8.92    4.12
  -8  -2  -3    8.71    4.88
  -8  -2  -3    4.87    4.97
  -8  -2  -3    8.35    3.25
  -8  -2  -3    7.07    4.29
  -8  -2  -3    8.71    4.88
  -8  -2  -3    4.87    4.97
  -8  -2  -3    8.35    3.25
  -8  -2  -3    7.07    4.29
  -8  -2  -4   27.30    5.55
  -8  -2  -4   30.42    3.58
  -8  -2  -4   24.64    5.13
  -8  -2  -4   27.30    5.55
  -8  -2  -4   30.42    3.58
  -8  -2  -4   24.64    5.13
  -8  -2  -5    7.06    4.52
  -8  -2  -5    8.14    2.73
  -8  -2  -5    5.93    4.80
  -8  -2  -5    7.06    4.52
  -8  -2  -5    8.14    2.73
  -8  -2  -5    5.93    4.80
  -8  -2  -6    6.80    4.50
  -8  -2  -6    3.63    2.23
  -8  -2  -6    7.26    5.04
  -8  -2  -6    6.80    4.50
  -8  -2  -6    3.63    2.23
  -8  -2  -6    7.26    5.04
  -8  -2  -7    8.19    4.99
  -8  -2  -7    3.73    1.83
  -8  -2  -7   -1.43    5.00
  -8  -2  -7    8.19    4.99
  -8  -2  -7    3.73    1.83
  -8  -2  -7   -1.43    5.00
  -8  -2  -8   40.53    6.51
  -8  -2  -8   36.55    6.67
  -8  -2  -8   40.53    6.51
  -8  -2  -8   36.55    6.67
  -8  -2  -9    4.71    5.40
  -8  -2  -9    4.71    5.40
  -8  -2 -10   -1.44    5.48
  -8  -2 -10    3.21    5.16
  -8  -2 -10   -1.44    5.48
  -8  -2 -10    3.21    5.16
  -8  -2 -11    8.49    5.57
  -8  -2 -11    8.49    5.57
  -8  -2 -12    8.33    5.75
  -8  -2 -12    8.33    5.75
  -8  -3   8   55.28    8.38
  -8  -3   8   73.55    7.48
  -8  -3   8   55.28    8.38
  -8  -3   8   73.55    7.48
   8   3  -8   73.73    8.53
   8   3  -8   73.73    8.53
  -8  -3   7   -5.45    5.99
  -8  -3   7    1.54    4.62
  -8  -3   7    2.66    5.42
  -8  -3   7   -5.45    5.99
  -8  -3   7    1.54    4.62
  -8  -3   7    2.66    5.42
   8   3  -7   -2.13    5.46
   8   3  -7   -2.13    5.46
  -8  -3   6    6.77    6.01
  -8  -3   6    5.29    4.66
  -8  -3   6    3.37    5.15
  -8  -3   6    6.77    6.01
  -8  -3   6    5.29    4.66
  -8  -3   6    3.37    5.15
  -8  -3   5    2.37    5.78
  -8  -3   5    5.64    4.41
  -8  -3   5    3.94    4.83
  -8  -3   5    2.37    5.78
  -8  -3   5    5.64    4.41
  -8  -3   5    3.94    4.83
  -8  -3   4   48.57    6.20
  -8  -3   4   49.25    6.99
  -8  -3   4   54.34    6.41
  -8  -3   4   44.95    5.95
  -8  -3   4   48.57    6.20
  -8  -3   4   49.25    6.99
  -8  -3   4   54.34    6.41
  -8  -3   4   44.95    5.95
  -8  -3   3   79.87    8.22
  -8  -3   3   62.27    7.39
  -8  -3   3   67.64    5.76
  -8  -3   3   68.15    6.57
  -8  -3   3   79.87    8.22
  -8  -3   3   62.27    7.39
  -8  -3   3   67.64    5.76
  -8  -3   3   68.15    6.57
  -8  -3   2    5.71    4.94
  -8  -3   2    0.95    5.02
  -8  -3   2    1.16    3.16
  -8  -3   2    1.99    3.99
  -8  -3   2    5.71    4.94
  -8  -3   2    0.95    5.02
  -8  -3   2    1.16    3.16
  -8  -3   2    1.99    3.99
  -8  -3   1   68.73    7.47
  -8  -3   1   69.61    7.19
  -8  -3   1   68.36    4.38
  -8  -3   1   62.68    6.24
  -8  -3   1   36.53    4.22
  -8  -3   1   68.73    7.47
  -8  -3   1   69.61    7.19
  -8  -3   1   68.36    4.38
  -8  -3   1   62.68    6.24
  -8  -3   1   36.53    4.22
  -8  -3   0  207.33    9.14
  -8  -3   0  202.76    8.95
  -8  -3   0  210.40    7.52
  -8  -3   0  184.95    7.24
  -8  -3   0  207.33    9.14
  -8  -3   0  202.76    8.95
  -8  -3   0  210.40    7.52
  -8  -3   0  184.95    7.24
  -8  -3  -1  111.37    8.02
  -8  -3  -1  102.68    8.59
  -8  -3  -1  104.16    6.07
  -8  -3  -1   87.78    6.12
  -8  -3  -1  111.37    8.02
  -8  -3  -1  102.68    8.59
  -8  -3  -1  104.16    6.07
  -8  -3  -1   87.78    6.12
  -8  -3  -2    3.79    4.72
  -8  -3  -2    5.21    4.30
  -8  -3  -2    3.06    4.79
  -8  -3  -2    5.62    3.25
  -8  -3  -2    3.87    3.95
  -8  -3  -2    3.79    4.72
  -8  -3  -2    5.21    4.30
  -8  -3  -2    3.06    4.79
  -8  -3  -2    5.62    3.25
  -8  -3  -2    3.87    3.95
  -8  -3  -3   38.20    5.52
  -8  -3  -3   50.17    6.37
  -8  -3  -3   53.62    4.79
  -8  -3  -3   46.79    5.68
  -8  -3  -3   38.20    5.52
  -8  -3  -3   50.17    6.37
  -8  -3  -3   53.62    4.79
  -8  -3  -3   46.79    5.68
  -8  -3  -4   -0.13    4.54
  -8  -3  -4    1.71    2.84
  -8  -3  -4    6.51    4.50
  -8  -3  -4   -0.13    4.54
  -8  -3  -4    1.71    2.84
  -8  -3  -4    6.51    4.50
  -8  -3  -5   -0.34    4.49
  -8  -3  -5    0.29    2.52
  -8  -3  -5    0.07    4.34
  -8  -3  -5   -0.34    4.49
  -8  -3  -5    0.29    2.52
  -8  -3  -5    0.07    4.34
  -8  -3  -6   54.54    6.42
  -8  -3  -6   57.00    3.71
  -8  -3  -6   61.86    7.68
  -8  -3  -6   54.54    6.42
  -8  -3  -6   57.00    3.71
  -8  -3  -6   61.86    7.68
  -8  -3  -7    2.72    4.43
  -8  -3  -7    2.63    1.88
  -8  -3  -7    1.78    4.95
  -8  -3  -7    2.72    4.43
  -8  -3  -7    2.63    1.88
  -8  -3  -7    1.78    4.95
  -8  -3  -8   38.51    6.36
  -8  -3  -8   26.84    6.20
  -8  -3  -8   38.51    6.36
  -8  -3  -8   26.84    6.20
  -8  -3  -9  109.89    8.83
  -8  -3  -9  114.68    9.42
  -8  -3  -9  109.89    8.83
  -8  -3  -9  114.68    9.42
  -8  -3 -10   12.71    5.90
  -8  -3 -10   25.53    6.86
  -8  -3 -10   12.71    5.90
  -8  -3 -10   25.53    6.86
  -8  -3 -12   38.18    6.87
  -8  -3 -12   38.18    6.87
  -8  -4   8   48.05    6.59
  -8  -4   8   48.05    6.59
   8   4  -8   48.95    7.58
   8   4  -8   48.95    7.58
  -8  -4   7    6.40    6.10
  -8  -4   7   12.58    5.38
  -8  -4   7    9.77    5.59
  -8  -4   7    6.40    6.10
  -8  -4   7   12.58    5.38
  -8  -4   7    9.77    5.59
   8   4  -7    8.24    6.10
   8   4  -7    8.24    6.10
  -8  -4   6    6.42    5.66
  -8  -4   6   -0.32    4.55
  -8  -4   6   -3.05    4.81
  -8  -4   6    6.42    5.66
  -8  -4   6   -0.32    4.55
  -8  -4   6   -3.05    4.81
  -8  -4   5   16.44    5.89
  -8  -4   5   11.97    4.39
  -8  -4   5   10.48    5.11
  -8  -4   5   16.44    5.89
  -8  -4   5   11.97    4.39
  -8  -4   5   10.48    5.11
  -8  -4   4    7.85    5.31
  -8  -4   4    7.39    4.22
  -8  -4   4   10.38    4.78
  -8  -4   4    7.85    5.31
  -8  -4   4    7.39    4.22
  -8  -4   4   10.38    4.78
  -8  -4   3   13.56    4.95
  -8  -4   3   14.35    5.28
  -8  -4   3   11.17    4.11
  -8  -4   3    9.05    4.77
  -8  -4   3   13.56    4.95
  -8  -4   3   14.35    5.28
  -8  -4   3   11.17    4.11
  -8  -4   3    9.05    4.77
  -8  -4   2    6.87    4.73
  -8  -4   2    5.40    4.84
  -8  -4   2    5.30    3.47
  -8  -4   2    5.25    4.12
  -8  -4   2    6.87    4.73
  -8  -4   2    5.40    4.84
  -8  -4   2    5.30    3.47
  -8  -4   2    5.25    4.12
  -8  -4   1   11.45    4.88
  -8  -4   1   14.76    5.05
  -8  -4   1   13.58    3.14
  -8  -4   1   15.12    4.23
  -8  -4   1    4.71    3.25
  -8  -4   1   11.45    4.88
  -8  -4   1   14.76    5.05
  -8  -4   1   13.58    3.14
  -8  -4   1   15.12    4.23
  -8  -4   1    4.71    3.25
  -8  -4   0   39.54    5.75
  -8  -4   0   37.32    5.73
  -8  -4   0   35.36    4.73
  -8  -4   0   27.72    4.55
  -8  -4   0   39.54    5.75
  -8  -4   0   37.32    5.73
  -8  -4   0   35.36    4.73
  -8  -4   0   27.72    4.55
  -8  -4  -1   48.67    5.77
  -8  -4  -1   51.54    5.46
  -8  -4  -1   47.97    5.37
  -8  -4  -1   48.67    5.77
  -8  -4  -1   51.54    5.46
  -8  -4  -1   47.97    5.37
  -8  -4  -2    1.02    4.16
  -8  -4  -2   -3.34    3.92
  -8  -4  -2   -1.90    3.15
  -8  -4  -2    1.02    3.97
  -8  -4  -2    1.02    4.16
  -8  -4  -2   -3.34    3.92
  -8  -4  -2   -1.90    3.15
  -8  -4  -2    1.02    3.97
  -8  -4  -3   35.80    5.71
  -8  -4  -3   36.81    4.44
  -8  -4  -3   31.50    5.22
  -8  -4  -3   35.80    5.71
  -8  -4  -3   36.81    4.44
  -8  -4  -3   31.50    5.22
  -8  -4  -4  146.27    8.58
  -8  -4  -4  153.87    5.71
  -8  -4  -4  127.84    7.95
  -8  -4  -4  146.27    8.58
  -8  -4  -4  153.87    5.71
  -8  -4  -4  127.84    7.95
  -8  -4  -5  105.81    7.98
  -8  -4  -5  117.09    4.97
  -8  -4  -5  107.10    7.87
  -8  -4  -5  105.81    7.98
  -8  -4  -5  117.09    4.97
  -8  -4  -5  107.10    7.87
  -8  -4  -6    2.70    4.81
  -8  -4  -6    2.61    2.57
  -8  -4  -6    5.99    4.75
  -8  -4  -6    2.70    4.81
  -8  -4  -6    2.61    2.57
  -8  -4  -6    5.99    4.75
  -8  -4  -7    2.97    4.86
  -8  -4  -7   -0.83    2.21
  -8  -4  -7    0.45    4.68
  -8  -4  -7    2.97    4.86
  -8  -4  -7   -0.83    2.21
  -8  -4  -7    0.45    4.68
  -8  -4  -8    2.14    5.12
  -8  -4  -8    0.02    1.96
  -8  -4  -8    1.82    4.99
  -8  -4  -8    2.14    5.12
  -8  -4  -8    0.02    1.96
  -8  -4  -8    1.82    4.99
  -8  -4  -9   22.06    5.95
  -8  -4  -9   14.99    5.90
  -8  -4  -9   22.06    5.95
  -8  -4  -9   14.99    5.90
  -8  -4 -10    9.41    5.34
  -8  -4 -10    9.20    6.19
  -8  -4 -10    9.41    5.34
  -8  -4 -10    9.20    6.19
  -8  -4 -11   22.02    6.83
  -8  -4 -11   22.02    6.83
  -8  -4 -12    1.81    6.58
  -8  -4 -12    1.81    6.58
  -8  -5   8    8.74    5.66
  -8  -5   8    8.74    5.66
   8   5  -8    3.91    6.10
   8   5  -8    3.91    6.10
  -8  -5   7    3.60    5.06
  -8  -5   7    2.71    5.44
  -8  -5   7    3.60    5.06
  -8  -5   7    2.71    5.44
   8   5  -7   -3.42    5.13
   8   5  -7   -3.42    5.13
  -8  -5   6   12.14    5.13
  -8  -5   6   16.13    5.75
  -8  -5   6   12.14    5.13
  -8  -5   6   16.13    5.75
   8   5  -6   15.74    6.13
   8   5  -6   15.74    6.13
  -8  -5   5    2.10    5.07
  -8  -5   5    6.13    4.56
  -8  -5   5    2.15    4.89
  -8  -5   5    2.10    5.07
  -8  -5   5    6.13    4.56
  -8  -5   5    2.15    4.89
  -8  -5   4   51.59    6.53
  -8  -5   4   40.69    5.11
  -8  -5   4   38.86    5.93
  -8  -5   4   51.59    6.53
  -8  -5   4   40.69    5.11
  -8  -5   4   38.86    5.93
  -8  -5   3   33.89    5.74
  -8  -5   3   28.46    4.60
  -8  -5   3   26.95    5.56
  -8  -5   3   33.89    5.74
  -8  -5   3   28.46    4.60
  -8  -5   3   26.95    5.56
  -8  -5   2   17.24    5.03
  -8  -5   2   15.06    3.88
  -8  -5   2   10.77    4.44
  -8  -5   2    9.41    3.42
  -8  -5   2   17.24    5.03
  -8  -5   2   15.06    3.88
  -8  -5   2   10.77    4.44
  -8  -5   2    9.41    3.42
  -8  -5   1    6.61    4.43
  -8  -5   1   10.59    4.66
  -8  -5   1    4.09    3.15
  -8  -5   1    6.16    4.26
  -8  -5   1    6.54    3.64
  -8  -5   1    6.61    4.43
  -8  -5   1   10.59    4.66
  -8  -5   1    4.09    3.15
  -8  -5   1    6.16    4.26
  -8  -5   1    6.54    3.64
  -8  -5   0   23.53    5.10
  -8  -5   0   14.08    4.06
  -8  -5   0   24.78    4.57
  -8  -5   0   23.53    5.10
  -8  -5   0   14.08    4.06
  -8  -5   0   24.78    4.57
  -8  -5  -1    2.49    4.72
  -8  -5  -1    5.44    4.45
  -8  -5  -1   -3.54    3.50
  -8  -5  -1    0.50    4.03
  -8  -5  -1    2.49    4.72
  -8  -5  -1    5.44    4.45
  -8  -5  -1   -3.54    3.50
  -8  -5  -1    0.50    4.03
  -8  -5  -2   17.13    5.20
  -8  -5  -2   19.07    5.08
  -8  -5  -2   23.93    4.10
  -8  -5  -2   25.52    5.06
  -8  -5  -2   17.13    5.20
  -8  -5  -2   19.07    5.08
  -8  -5  -2   23.93    4.10
  -8  -5  -2   25.52    5.06
  -8  -5  -3    2.77    4.77
  -8  -5  -3    0.44    3.15
  -8  -5  -3    3.01    4.36
  -8  -5  -3    2.77    4.77
  -8  -5  -3    0.44    3.15
  -8  -5  -3    3.01    4.36
  -8  -5  -4    9.66    5.09
  -8  -5  -4   14.44    3.53
  -8  -5  -4    8.15    4.76
  -8  -5  -4    9.66    5.09
  -8  -5  -4   14.44    3.53
  -8  -5  -4    8.15    4.76
  -8  -5  -5   85.71    7.80
  -8  -5  -5   92.29    5.18
  -8  -5  -5   75.67    7.75
  -8  -5  -5   85.71    7.80
  -8  -5  -5   92.29    5.18
  -8  -5  -5   75.67    7.75
  -8  -5  -6  123.69    7.92
  -8  -5  -6  131.70    5.33
  -8  -5  -6  115.02    8.71
  -8  -5  -6  123.69    7.92
  -8  -5  -6  131.70    5.33
  -8  -5  -6  115.02    8.71
  -8  -5  -7   39.33    6.32
  -8  -5  -7   50.18    4.15
  -8  -5  -7   44.00    6.47
  -8  -5  -7   39.33    6.32
  -8  -5  -7   50.18    4.15
  -8  -5  -7   44.00    6.47
  -8  -5  -8    3.87    5.22
  -8  -5  -8    3.16    2.54
  -8  -5  -8    3.52    5.06
  -8  -5  -8    3.87    5.22
  -8  -5  -8    3.16    2.54
  -8  -5  -8    3.52    5.06
  -8  -5  -9    1.88    5.27
  -8  -5  -9    2.23    2.27
  -8  -5  -9    0.21    5.15
  -8  -5  -9    1.88    5.27
  -8  -5  -9    2.23    2.27
  -8  -5  -9    0.21    5.15
  -8  -5 -10   22.49    6.30
  -8  -5 -10    8.61    2.51
  -8  -5 -10   27.45    6.73
  -8  -5 -10   22.49    6.30
  -8  -5 -10    8.61    2.51
  -8  -5 -10   27.45    6.73
  -8  -5 -11   -3.18    5.94
  -8  -5 -11   -3.18    5.94
  -8  -5 -12   -2.45    6.17
  -8  -5 -12   -2.45    6.17
  -8  -6   8   29.28    6.47
  -8  -6   8   29.28    6.47
   8   6  -8   35.50    7.46
   8   6  -8   35.50    7.46
  -8  -6   7   -5.50    4.78
  -8  -6   7   -5.50    4.78
   8   6  -7    0.84    5.84
   8   6  -7    0.84    5.84
  -8  -6   6   17.49    5.32
  -8  -6   6   21.14    5.89
  -8  -6   6   17.49    5.32
  -8  -6   6   21.14    5.89
   8   6  -6   24.96    6.54
   8   6  -6   24.96    6.54
  -8  -6   5   21.63    5.02
  -8  -6   5   25.35    5.82
  -8  -6   5   21.63    5.02
  -8  -6   5   25.35    5.82
  -8  -6   4    8.20    4.53
  -8  -6   4   10.75    5.07
  -8  -6   4    8.20    4.53
  -8  -6   4   10.75    5.07
  -8  -6   3   28.97    4.82
  -8  -6   3   29.43    5.45
  -8  -6   3   28.97    4.82
  -8  -6   3   29.43    5.45
  -8  -6   2  103.72    8.16
  -8  -6   2   89.71    6.07
  -8  -6   2   92.21    7.05
  -8  -6   2  103.72    8.16
  -8  -6   2   89.71    6.07
  -8  -6   2   92.21    7.05
  -8  -6   1   70.93    7.11
  -8  -6   1   65.19    5.24
  -8  -6   1   56.33    6.60
  -8  -6   1   70.93    7.11
  -8  -6   1   65.19    5.24
  -8  -6   1   56.33    6.60
  -8  -6   0    8.94    4.44
  -8  -6   0    7.81    4.01
  -8  -6   0    8.94    4.44
  -8  -6   0    7.81    4.01
  -8  -6  -1   34.46    5.79
  -8  -6  -1   35.62    5.28
  -8  -6  -1   38.57    4.76
  -8  -6  -1   30.22    5.09
  -8  -6  -1   34.46    5.79
  -8  -6  -1   35.62    5.28
  -8  -6  -1   38.57    4.76
  -8  -6  -1   30.22    5.09
  -8  -6  -2   17.37    5.25
  -8  -6  -2   14.59    4.03
  -8  -6  -2   19.10    5.02
  -8  -6  -2   17.37    5.25
  -8  -6  -2   14.59    4.03
  -8  -6  -2   19.10    5.02
  -8  -6  -3    4.54    4.85
  -8  -6  -3    7.94    3.64
  -8  -6  -3    5.30    4.69
  -8  -6  -3    4.54    4.85
  -8  -6  -3    7.94    3.64
  -8  -6  -3    5.30    4.69
  -8  -6  -4   22.84    5.51
  -8  -6  -4   20.73    3.98
  -8  -6  -4   18.33    5.34
  -8  -6  -4   22.84    5.51
  -8  -6  -4   20.73    3.98
  -8  -6  -4   18.33    5.34
  -8  -6  -5   -2.14    4.66
  -8  -6  -5    0.81    3.21
  -8  -6  -5    4.53    4.80
  -8  -6  -5   -2.14    4.66
  -8  -6  -5    0.81    3.21
  -8  -6  -5    4.53    4.80
  -8  -6  -6    7.04    5.11
  -8  -6  -6    9.89    3.42
  -8  -6  -6    7.84    5.01
  -8  -6  -6    7.04    5.11
  -8  -6  -6    9.89    3.42
  -8  -6  -6    7.84    5.01
  -8  -6  -7    9.98    5.41
  -8  -6  -7   11.85    3.30
  -8  -6  -7    8.11    5.35
  -8  -6  -7    9.98    5.41
  -8  -6  -7   11.85    3.30
  -8  -6  -7    8.11    5.35
  -8  -6  -8   -2.00    5.09
  -8  -6  -8    3.61    3.07
  -8  -6  -8   -1.77    5.10
  -8  -6  -8   -2.00    5.09
  -8  -6  -8    3.61    3.07
  -8  -6  -8   -1.77    5.10
  -8  -6  -9   26.40    5.83
  -8  -6  -9   30.48    3.74
  -8  -6  -9   13.28    6.04
  -8  -6  -9   26.40    5.83
  -8  -6  -9   30.48    3.74
  -8  -6  -9   13.28    6.04
  -8  -6 -10   29.00    3.65
  -8  -6 -10   26.10    6.48
  -8  -6 -10   29.00    3.65
  -8  -6 -10   26.10    6.48
  -8  -6 -11   39.94    4.36
  -8  -6 -11   41.73    7.31
  -8  -6 -11   39.94    4.36
  -8  -6 -11   41.73    7.31
  -8  -6 -12   -0.70    2.91
  -8  -6 -12   -2.44    6.09
  -8  -6 -12   -0.70    2.91
  -8  -6 -12   -2.44    6.09
  -8  -7   7   10.18    5.63
  -8  -7   7   10.18    5.63
   8   7  -7    2.12    5.40
   8   7  -7    6.63    6.36
   8   7  -7    2.12    5.40
   8   7  -7    6.63    6.36
  -8  -7   6    4.36    4.86
  -8  -7   6    9.05    5.64
  -8  -7   6    4.36    4.86
  -8  -7   6    9.05    5.64
   8   7  -6    6.94    5.46
   8   7  -6    1.12    5.96
   8   7  -6    6.94    5.46
   8   7  -6    1.12    5.96
  -8  -7   5   -1.10    4.67
  -8  -7   5    2.80    5.19
  -8  -7   5   -1.10    4.67
  -8  -7   5    2.80    5.19
  -8  -7   4   20.21    4.79
  -8  -7   4   15.78    5.38
  -8  -7   4   20.21    4.79
  -8  -7   4   15.78    5.38
  -8  -7   3    7.90    4.33
  -8  -7   3    8.91    5.20
  -8  -7   3    7.90    4.33
  -8  -7   3    8.91    5.20
  -8  -7   2    7.72    4.00
  -8  -7   2    6.52    4.59
  -8  -7   2    7.72    4.00
  -8  -7   2    6.52    4.59
  -8  -7   1   85.38    5.94
  -8  -7   1   82.31    6.83
  -8  -7   1   85.38    5.94
  -8  -7   1   82.31    6.83
  -8  -7   0   56.12    6.03
  -8  -7   0   56.12    6.03
  -8  -7  -1   -0.81    4.72
  -8  -7  -1    1.38    3.74
  -8  -7  -1   -0.81    4.72
  -8  -7  -1    1.38    3.74
  -8  -7  -2   20.03    5.32
  -8  -7  -2   18.58    4.23
  -8  -7  -2   20.03    5.32
  -8  -7  -2   18.58    4.23
  -8  -7  -3   19.78    5.40
  -8  -7  -3   18.52    4.28
  -8  -7  -3   19.28    5.19
  -8  -7  -3   19.78    5.40
  -8  -7  -3   18.52    4.28
  -8  -7  -3   19.28    5.19
  -8  -7  -4    1.10    4.23
  -8  -7  -4    1.72    3.79
  -8  -7  -4    2.59    4.79
  -8  -7  -4    1.10    4.23
  -8  -7  -4    1.72    3.79
  -8  -7  -4    2.59    4.79
  -8  -7  -5   73.14    7.63
  -8  -7  -5   68.88    5.50
  -8  -7  -5   62.70    7.17
  -8  -7  -5   73.14    7.63
  -8  -7  -5   68.88    5.50
  -8  -7  -5   62.70    7.17
  -8  -7  -6   65.00    7.46
  -8  -7  -6   64.55    5.56
  -8  -7  -6   64.99    7.31
  -8  -7  -6   65.00    7.46
  -8  -7  -6   64.55    5.56
  -8  -7  -6   64.99    7.31
  -8  -7  -7   14.03    5.51
  -8  -7  -7   16.15    3.99
  -8  -7  -7   17.78    5.80
  -8  -7  -7   14.03    5.51
  -8  -7  -7   16.15    3.99
  -8  -7  -7   17.78    5.80
  -8  -7  -8    3.15    5.42
  -8  -7  -8   -0.24    3.50
  -8  -7  -8    3.72    5.36
  -8  -7  -8    3.15    5.42
  -8  -7  -8   -0.24    3.50
  -8  -7  -8    3.72    5.36
  -8  -7  -9    0.16    5.45
  -8  -7  -9   -2.28    3.44
  -8  -7  -9    3.89    5.77
  -8  -7  -9    0.16    5.45
  -8  -7  -9   -2.28    3.44
  -8  -7  -9    3.89    5.77
  -8  -7 -10    6.90    3.76
  -8  -7 -10   -0.57    5.68
  -8  -7 -10    6.90    3.76
  -8  -7 -10   -0.57    5.68
  -8  -7 -11   32.94    4.38
  -8  -7 -11   23.40    6.87
  -8  -7 -11   32.94    4.38
  -8  -7 -11   23.40    6.87
  -8  -8   6   17.74    5.80
  -8  -8   6   17.74    5.80
   8   8  -6   15.33    6.05
   8   8  -6   22.13    6.87
   8   8  -6   15.33    6.05
   8   8  -6   22.13    6.87
  -8  -8   5   41.70    6.18
  -8  -8   5   45.22    6.83
  -8  -8   5   41.70    6.18
  -8  -8   5   45.22    6.83
   8   8  -5   44.27    7.02
   8   8  -5   44.27    7.02
  -8  -8   4    8.55    4.91
  -8  -8   4    8.48    5.34
  -8  -8   4    8.55    4.91
  -8  -8   4    8.48    5.34
  -8  -8   3    8.32    4.59
  -8  -8   3   11.15    5.20
  -8  -8   3    8.32    4.59
  -8  -8   3   11.15    5.20
  -8  -8   2   11.50    4.41
  -8  -8   2   13.22    5.02
  -8  -8   2   11.50    4.41
  -8  -8   2   13.22    5.02
  -8  -8   1    7.14    3.86
  -8  -8   1    7.24    4.66
  -8  -8   1    7.14    3.86
  -8  -8   1    7.24    4.66
  -8  -8   0   20.27    5.40
  -8  -8   0   16.36    5.06
  -8  -8   0   20.27    5.40
  -8  -8   0   16.36    5.06
  -8  -8  -1   34.22    5.78
  -8  -8  -1   40.19    5.53
  -8  -8  -1   34.22    5.78
  -8  -8  -1   40.19    5.53
  -8  -8  -2    2.96    4.83
  -8  -8  -2    3.35    3.99
  -8  -8  -2    2.96    4.83
  -8  -8  -2    3.35    3.99
  -8  -8  -3   31.08    5.72
  -8  -8  -3   34.56    4.84
  -8  -8  -3   31.08    5.72
  -8  -8  -3   34.56    4.84
  -8  -8  -4   39.83    5.95
  -8  -8  -4   39.60    5.09
  -8  -8  -4   39.83    5.95
  -8  -8  -4   39.60    5.09
  -8  -8  -5   19.69    5.47
  -8  -8  -5   13.91    4.27
  -8  -8  -5   14.29    5.57
  -8  -8  -5   19.69    5.47
  -8  -8  -5   13.91    4.27
  -8  -8  -5   14.29    5.57
  -8  -8  -6   38.44    6.24
  -8  -8  -6   38.27    4.84
  -8  -8  -6   24.21    6.24
  -8  -8  -6   38.44    6.24
  -8  -8  -6   38.27    4.84
  -8  -8  -6   24.21    6.24
  -8  -8  -7   42.82    6.80
  -8  -8  -7   59.72    5.95
  -8  -8  -7   47.62    7.03
  -8  -8  -7   42.82    6.80
  -8  -8  -7   59.72    5.95
  -8  -8  -7   47.62    7.03
  -8  -8  -8   29.12    6.29
  -8  -8  -8   23.83    4.57
  -8  -8  -8   21.23    6.28
  -8  -8  -8   29.12    6.29
  -8  -8  -8   23.83    4.57
  -8  -8  -8   21.23    6.28
  -8  -8  -9    2.96    3.85
  -8  -8  -9   11.60    6.14
  -8  -8  -9    2.96    3.85
  -8  -8  -9   11.60    6.14
  -8  -8 -10   56.61    5.82
  -8  -8 -10   33.21    7.08
  -8  -8 -10   56.61    5.82
  -8  -8 -10   33.21    7.08
  -8  -8 -11   21.81    4.68
  -8  -8 -11   17.46    6.73
  -8  -8 -11   21.81    4.68
  -8  -8 -11   17.46    6.73
  -8  -9   6    3.98    5.28
  -8  -9   6    3.98    5.28
   8   9  -6    5.29    5.75
   8   9  -6    7.60    6.41
   8   9  -6    5.29    5.75
   8   9  -6    7.60    6.41
  -8  -9   5   43.58    6.33
  -8  -9   5   51.34    7.20
  -8  -9   5   43.58    6.33
  -8  -9   5   51.34    7.20
   8   9  -5   50.81    7.98
   8   9  -5   50.81    7.98
  -8  -9   4   19.43    5.51
  -8  -9   4   24.65    6.24
  -8  -9   4   19.43    5.51
  -8  -9   4   24.65    6.24
  -8  -9   3   39.52    5.77
  -8  -9   3   44.48    6.63
  -8  -9   3   39.52    5.77
  -8  -9   3   44.48    6.63
  -8  -9   2    0.20    4.46
  -8  -9   2    1.67    4.83
  -8  -9   2    0.20    4.46
  -8  -9   2    1.67    4.83
  -8  -9   1   16.14    5.28
  -8  -9   1   16.14    5.28
  -8  -9   0    0.54    5.02
  -8  -9   0    1.28    4.78
  -8  -9   0    0.54    5.02
  -8  -9   0    1.28    4.78
  -8  -9  -1    3.64    5.07
  -8  -9  -1    5.16    4.61
  -8  -9  -1    3.64    5.07
  -8  -9  -1    5.16    4.61
  -8  -9  -2    5.55    5.22
  -8  -9  -2    4.41    4.55
  -8  -9  -2    5.55    5.22
  -8  -9  -2    4.41    4.55
  -8  -9  -3    5.02    4.85
  -8  -9  -3    2.41    4.34
  -8  -9  -3    5.02    4.85
  -8  -9  -3    2.41    4.34
  -8  -9  -4   14.75    5.20
  -8  -9  -4   13.75    4.61
  -8  -9  -4   14.75    5.20
  -8  -9  -4   13.75    4.61
  -8  -9  -5   30.83    5.85
  -8  -9  -5   26.93    5.07
  -8  -9  -5   30.83    5.85
  -8  -9  -5   26.93    5.07
  -8  -9  -6   39.41    6.55
  -8  -9  -6   54.83    6.09
  -8  -9  -6   28.94    6.27
  -8  -9  -6   39.41    6.55
  -8  -9  -6   54.83    6.09
  -8  -9  -6   28.94    6.27
  -8  -9  -7    7.80    5.41
  -8  -9  -7    2.52    4.13
  -8  -9  -7    0.34    5.70
  -8  -9  -7    7.80    5.41
  -8  -9  -7    2.52    4.13
  -8  -9  -7    0.34    5.70
  -8  -9  -8    4.98    5.61
  -8  -9  -8   -1.49    4.21
  -8  -9  -8   -4.77    5.67
  -8  -9  -8    4.98    5.61
  -8  -9  -8   -1.49    4.21
  -8  -9  -8   -4.77    5.67
  -8  -9  -9   21.66    4.79
  -8  -9  -9   14.92    6.48
  -8  -9  -9   21.66    4.79
  -8  -9  -9   14.92    6.48
  -8  -9 -10    3.63    4.50
  -8  -9 -10   -3.61    5.97
  -8  -9 -10    3.63    4.50
  -8  -9 -10   -3.61    5.97
  -8 -10   4    1.03    5.18
  -8 -10   4    2.61    5.70
  -8 -10   4    1.03    5.18
  -8 -10   4    2.61    5.70
  -8 -10   3   -0.41    4.66
  -8 -10   3    4.00    5.43
  -8 -10   3   -0.41    4.66
  -8 -10   3    4.00    5.43
  -8 -10   2   36.93    5.69
  -8 -10   2   30.50    6.21
  -8 -10   2   36.93    5.69
  -8 -10   2   30.50    6.21
  -8 -10   1   13.28    5.48
  -8 -10   1   13.28    5.48
  -8 -10   0   40.40    6.12
  -8 -10   0   40.40    6.12
  -8 -10  -1   70.40    7.13
  -8 -10  -1   70.40    7.13
  -8 -10  -2   32.04    5.65
  -8 -10  -2   32.04    5.65
  -8 -10  -3    2.35    4.77
  -8 -10  -3    2.35    4.77
  -8 -10  -4    1.08    4.30
  -8 -10  -4    1.08    4.30
  -8 -10  -5   12.19    4.92
  -8 -10  -5   12.19    4.92
  -8 -10  -6    0.74    2.96
  -8 -10  -6    1.12    4.52
  -8 -10  -6    0.74    2.96
  -8 -10  -6    1.12    4.52
  -8 -10  -7    9.14    4.75
  -8 -10  -7    5.18    6.00
  -8 -10  -7    9.14    4.75
  -8 -10  -7    5.18    6.00
  -8 -10  -8   11.88    5.01
  -8 -10  -8    8.88    6.50
  -8 -10  -8   11.88    5.01
  -8 -10  -8    8.88    6.50
  -8 -10  -9   24.65    5.52
  -8 -10  -9   17.85    6.97
  -8 -10  -9   24.65    5.52
  -8 -10  -9   17.85    6.97
  -8 -11   3   23.42    5.95
  -8 -11   3   21.46    6.50
  -8 -11   3   23.42    5.95
  -8 -11   3   21.46    6.50
  -8 -11   2    1.51    5.55
  -8 -11   2    1.51    5.55
  -8 -11   1    3.24    5.41
  -8 -11   1    3.24    5.41
  -8 -11   0   11.13    5.51
  -8 -11   0   11.13    5.51
  -8 -11  -1   44.65    6.78
  -8 -11  -1   44.65    6.78
  -8 -11  -2   28.02    5.95
  -8 -11  -2   28.02    5.95
  -8 -11  -3    3.88    4.94
  -8 -11  -3    3.88    4.94
  -8 -11  -4    7.76    5.20
  -8 -11  -4    7.76    5.20
  -8 -11  -5   84.87    7.78
  -8 -11  -5   84.87    7.78
  -8 -11  -6   25.51    4.38
  -8 -11  -6   57.56    7.19
  -8 -11  -6   25.51    4.38
  -8 -11  -6   57.56    7.19
  -8 -11  -7   -1.81    4.82
  -8 -11  -7    6.94    6.14
  -8 -11  -7   -1.81    4.82
  -8 -11  -7    6.94    6.14
  -8 -11  -8    1.27    4.89
  -8 -11  -8    7.63    6.46
  -8 -11  -8    1.27    4.89
  -8 -11  -8    7.63    6.46
  -8 -12   0   40.99    6.90
  -8 -12   0   40.99    6.90
  -8 -12  -1   18.63    6.15
  -8 -12  -1   18.63    6.15
  -8 -12  -2    5.93    5.43
  -8 -12  -2    5.93    5.43
  -8 -12  -3    1.40    5.25
  -8 -12  -3    1.40    5.25
  -8 -12  -4   -1.45    5.06
  -8 -12  -4   -1.45    5.06
  -8 -12  -5    8.02    5.66
  -8 -12  -5    8.02    5.66
  -9   3   1    7.44    6.15
  -9   3   1    6.62    6.42
  -9   3   1    2.59    5.27
  -9   3   1    7.44    6.15
  -9   3   1    6.62    6.42
  -9   3   1    2.59    5.27
  -9   3   0   37.69    7.72
  -9   3   0   48.39    7.92
  -9   3   0   45.76    6.31
  -9   3   0   37.69    7.72
  -9   3   0   48.39    7.92
  -9   3   0   45.76    6.31
  -9   3  -1   19.93    7.01
  -9   3  -1   19.68    6.42
  -9   3  -1   17.04    5.31
  -9   3  -1   19.93    7.01
  -9   3  -1   19.68    6.42
  -9   3  -1   17.04    5.31
  -9   3  -2   -5.01    5.96
  -9   3  -2    2.78    5.96
  -9   3  -2   -1.36    4.76
  -9   3  -2   -5.01    5.96
  -9   3  -2    2.78    5.96
  -9   3  -2   -1.36    4.76
  -9   3  -3    0.76    6.26
  -9   3  -3    7.30    5.73
  -9   3  -3    7.81    4.63
  -9   3  -3    0.76    6.26
  -9   3  -3    7.30    5.73
  -9   3  -3    7.81    4.63
  -9   3  -4    5.51    6.00
  -9   3  -4    7.10    6.26
  -9   3  -4    8.03    4.69
  -9   3  -4    5.51    6.00
  -9   3  -4    7.10    6.26
  -9   3  -4    8.03    4.69
  -9   2   3   17.78    7.30
  -9   2   3   14.13    7.06
  -9   2   3   18.02    5.86
  -9   2   3   17.78    7.30
  -9   2   3   14.13    7.06
  -9   2   3   18.02    5.86
  -9   2   2    4.25    6.56
  -9   2   2    4.30    6.50
  -9   2   2   -1.95    5.00
  -9   2   2    4.25    6.56
  -9   2   2    4.30    6.50
  -9   2   2   -1.95    5.00
  -9   2   1    4.97    5.88
  -9   2   1    7.92    6.03
  -9   2   1    5.51    4.77
  -9   2   1    4.97    5.88
  -9   2   1    7.92    6.03
  -9   2   1    5.51    4.77
  -9   2   0    2.71    4.88
  -9   2   0    4.66    5.76
  -9   2   0    1.83    5.95
  -9   2   0    5.04    4.76
  -9   2   0    2.71    4.88
  -9   2   0    4.66    5.76
  -9   2   0    1.83    5.95
  -9   2   0    5.04    4.76
  -9   2  -1   16.32    5.22
  -9   2  -1   20.44    6.72
  -9   2  -1   24.76    6.81
  -9   2  -1   22.90    5.23
  -9   2  -1   16.32    5.22
  -9   2  -1   20.44    6.72
  -9   2  -1   24.76    6.81
  -9   2  -1   22.90    5.23
  -9   2  -2    6.94    4.51
  -9   2  -2    7.41    6.37
  -9   2  -2   15.68    6.34
  -9   2  -2    8.77    4.81
  -9   2  -2    6.94    4.51
  -9   2  -2    7.41    6.37
  -9   2  -2   15.68    6.34
  -9   2  -2    8.77    4.81
  -9   2  -3    1.72    4.69
  -9   2  -3    2.92    5.52
  -9   2  -3    4.20    6.02
  -9   2  -3    5.53    4.33
  -9   2  -3    1.72    4.69
  -9   2  -3    2.92    5.52
  -9   2  -3    4.20    6.02
  -9   2  -3    5.53    4.33
  -9   2  -4   31.30    5.67
  -9   2  -4   44.13    7.57
  -9   2  -4   34.32    7.21
  -9   2  -4   36.50    5.19
  -9   2  -4   31.30    5.67
  -9   2  -4   44.13    7.57
  -9   2  -4   34.32    7.21
  -9   2  -4   36.50    5.19
  -9   2  -5    1.35    4.39
  -9   2  -5   -2.15    3.78
  -9   2  -5    1.35    4.39
  -9   2  -5   -2.15    3.78
  -9   2  -6   19.05    4.31
  -9   2  -6   19.05    4.31
  -9   2  -7   -0.16    3.55
  -9   2  -7   -0.16    3.55
  -9   1   4   11.06    6.91
  -9   1   4   15.96    6.67
  -9   1   4    2.57    4.12
  -9   1   4    9.52    5.44
  -9   1   4   11.06    6.91
  -9   1   4   15.96    6.67
  -9   1   4    2.57    4.12
  -9   1   4    9.52    5.44
  -9   1   3    7.02    6.55
  -9   1   3    7.95    6.68
  -9   1   3    2.06    3.19
  -9   1   3    6.95    5.02
  -9   1   3    7.02    6.55
  -9   1   3    7.95    6.68
  -9   1   3    2.06    3.19
  -9   1   3    6.95    5.02
  -9   1   2   13.71    6.51
  -9   1   2   14.20    6.19
  -9   1   2    5.39    5.16
  -9   1   2   13.71    6.51
  -9   1   2   14.20    6.19
  -9   1   2    5.39    5.16
  -9   1   1    1.34    5.97
  -9   1   1    1.84    6.06
  -9   1   1    3.84    4.83
  -9   1   1    1.34    5.97
  -9   1   1    1.84    6.06
  -9   1   1    3.84    4.83
  -9   1   0   26.81    6.92
  -9   1   0   26.47    6.87
  -9   1   0   25.67    5.33
  -9   1   0   26.81    6.92
  -9   1   0   26.47    6.87
  -9   1   0   25.67    5.33
  -9   1  -1    2.66    5.08
  -9   1  -1    3.45    5.85
  -9   1  -1    1.59    5.86
  -9   1  -1    3.71    4.31
  -9   1  -1    2.66    5.08
  -9   1  -1    3.45    5.85
  -9   1  -1    1.59    5.86
  -9   1  -1    3.71    4.31
  -9   1  -2   57.18    7.12
  -9   1  -2   67.64    7.87
  -9   1  -2   62.40    7.86
  -9   1  -2   61.49    6.09
  -9   1  -2   57.18    7.12
  -9   1  -2   67.64    7.87
  -9   1  -2   62.40    7.86
  -9   1  -2   61.49    6.09
  -9   1  -3   97.35    8.34
  -9   1  -3  103.56    9.33
  -9   1  -3   92.31    8.34
  -9   1  -3   97.62    6.67
  -9   1  -3   97.35    8.34
  -9   1  -3  103.56    9.33
  -9   1  -3   92.31    8.34
  -9   1  -3   97.62    6.67
  -9   1  -4    0.37    5.26
  -9   1  -4    7.19    6.30
  -9   1  -4    3.64    5.86
  -9   1  -4    1.30    3.70
  -9   1  -4    0.37    5.26
  -9   1  -4    7.19    6.30
  -9   1  -4    3.64    5.86
  -9   1  -4    1.30    3.70
  -9   1  -5    5.02    4.98
  -9   1  -5   -0.10    3.58
  -9   1  -5    5.02    4.98
  -9   1  -5   -0.10    3.58
  -9   1  -6    8.28    5.25
  -9   1  -6    2.27    3.38
  -9   1  -6    8.28    5.25
  -9   1  -6    2.27    3.38
  -9   1  -7   13.15    5.35
  -9   1  -7    5.56    3.11
  -9   1  -7   13.15    5.35
  -9   1  -7    5.56    3.11
  -9   1  -8   18.63    5.39
  -9   1  -8   18.63    5.39
  -9   0   5   70.73    8.65
  -9   0   5   67.43    9.04
  -9   0   5   78.44    6.97
  -9   0   5   78.61    8.15
  -9   0   5   70.73    8.65
  -9   0   5   67.43    9.04
  -9   0   5   78.44    6.97
  -9   0   5   78.61    8.15
  -9   0   4    7.50    6.80
  -9   0   4   10.25    6.85
  -9   0   4    0.70    4.02
  -9   0   4    7.70    5.52
  -9   0   4    7.50    6.80
  -9   0   4   10.25    6.85
  -9   0   4    0.70    4.02
  -9   0   4    7.70    5.52
  -9   0   3   10.18    6.40
  -9   0   3    9.04    6.64
  -9   0   3   14.38    3.71
  -9   0   3   13.33    5.23
  -9   0   3   10.18    6.40
  -9   0   3    9.04    6.64
  -9   0   3   14.38    3.71
  -9   0   3   13.33    5.23
  -9   0   2   84.05    8.34
  -9   0   2   95.01    9.98
  -9   0   2   80.76    7.16
  -9   0   2   84.05    8.34
  -9   0   2   95.01    9.98
  -9   0   2   80.76    7.16
  -9   0   1   30.52    6.76
  -9   0   1   27.91    7.01
  -9   0   1   20.83    5.21
  -9   0   1   30.52    6.76
  -9   0   1   27.91    7.01
  -9   0   1   20.83    5.21
  -9   0   0   38.70    7.07
  -9   0   0   37.25    7.12
  -9   0   0   32.50    5.15
  -9   0   0   38.70    7.07
  -9   0   0   37.25    7.12
  -9   0   0   32.50    5.15
  -9   0  -1    6.04    5.26
  -9   0  -1    9.70    5.90
  -9   0  -1    7.25    5.86
  -9   0  -1    6.42    4.22
  -9   0  -1    6.04    5.26
  -9   0  -1    9.70    5.90
  -9   0  -1    7.25    5.86
  -9   0  -1    6.42    4.22
  -9   0  -2    3.47    4.99
  -9   0  -2    4.37    5.79
  -9   0  -2    6.71    5.87
  -9   0  -2    3.10    3.85
  -9   0  -2    3.47    4.99
  -9   0  -2    4.37    5.79
  -9   0  -2    6.71    5.87
  -9   0  -2    3.10    3.85
  -9   0  -3   31.88    6.08
  -9   0  -3   40.18    7.01
  -9   0  -3   34.86    6.79
  -9   0  -3   36.93    4.87
  -9   0  -3   31.88    6.08
  -9   0  -3   40.18    7.01
  -9   0  -3   34.86    6.79
  -9   0  -3   36.93    4.87
  -9   0  -4   50.07    6.76
  -9   0  -4   47.62    6.93
  -9   0  -4   55.27    5.55
  -9   0  -4   50.07    6.76
  -9   0  -4   47.62    6.93
  -9   0  -4   55.27    5.55
  -9   0  -5    3.98    5.40
  -9   0  -5   10.64    3.68
  -9   0  -5    3.98    5.40
  -9   0  -5   10.64    3.68
  -9   0  -6   -2.48    4.99
  -9   0  -6    1.65    3.16
  -9   0  -6   -2.48    4.99
  -9   0  -6    1.65    3.16
  -9   0  -7   33.27    6.40
  -9   0  -7   31.12    3.43
  -9   0  -7   33.27    6.40
  -9   0  -7   31.12    3.43
  -9   0  -8   36.44    6.83
  -9   0  -8   36.44    6.83
  -9   0  -9    4.48    5.73
  -9   0  -9    4.48    5.73
  -9  -1   6    9.50    6.41
  -9  -1   6   15.36    7.27
  -9  -1   6    2.43    4.90
  -9  -1   6    2.01    5.48
  -9  -1   6    9.50    6.41
  -9  -1   6   15.36    7.27
  -9  -1   6    2.43    4.90
  -9  -1   6    2.01    5.48
  -9  -1   5   -5.52    5.90
  -9  -1   5    4.13    6.68
  -9  -1   5   -0.08    4.42
  -9  -1   5   -3.25    4.95
  -9  -1   5   -5.52    5.90
  -9  -1   5    4.13    6.68
  -9  -1   5   -0.08    4.42
  -9  -1   5   -3.25    4.95
  -9  -1   4    5.67    6.11
  -9  -1   4    1.48    6.35
  -9  -1   4   -0.66    3.90
  -9  -1   4    4.49    5.31
  -9  -1   4    5.67    6.11
  -9  -1   4    1.48    6.35
  -9  -1   4   -0.66    3.90
  -9  -1   4    4.49    5.31
  -9  -1   3    7.87    6.00
  -9  -1   3    4.58    5.78
  -9  -1   3    2.50    3.46
  -9  -1   3    1.39    4.69
  -9  -1   3    7.87    6.00
  -9  -1   3    4.58    5.78
  -9  -1   3    2.50    3.46
  -9  -1   3    1.39    4.69
  -9  -1   2   49.44    7.16
  -9  -1   2   51.78    7.69
  -9  -1   2   27.68    3.01
  -9  -1   2   54.78    6.52
  -9  -1   2   49.44    7.16
  -9  -1   2   51.78    7.69
  -9  -1   2   27.68    3.01
  -9  -1   2   54.78    6.52
  -9  -1   1   63.24    7.56
  -9  -1   1   67.53    8.33
  -9  -1   1   69.62    6.45
  -9  -1   1   63.24    7.56
  -9  -1   1   67.53    8.33
  -9  -1   1   69.62    6.45
  -9  -1   0   66.64    7.60
  -9  -1   0   68.50    7.99
  -9  -1   0   62.54    6.38
  -9  -1   0   66.64    7.60
  -9  -1   0   68.50    7.99
  -9  -1   0   62.54    6.38
  -9  -1  -1    7.10    5.23
  -9  -1  -1    8.28    5.70
  -9  -1  -1   10.29    5.95
  -9  -1  -1    8.31    4.19
  -9  -1  -1    7.10    5.23
  -9  -1  -1    8.28    5.70
  -9  -1  -1   10.29    5.95
  -9  -1  -1    8.31    4.19
  -9  -1  -2    0.93    4.51
  -9  -1  -2    4.01    5.49
  -9  -1  -2    3.36    5.13
  -9  -1  -2    0.93    3.65
  -9  -1  -2    0.93    4.51
  -9  -1  -2    4.01    5.49
  -9  -1  -2    3.36    5.13
  -9  -1  -2    0.93    3.65
  -9  -1  -3   17.42    5.60
  -9  -1  -3   20.95    6.16
  -9  -1  -3   20.29    6.25
  -9  -1  -3   22.96    4.20
  -9  -1  -3   17.42    5.60
  -9  -1  -3   20.95    6.16
  -9  -1  -3   20.29    6.25
  -9  -1  -3   22.96    4.20
  -9  -1  -4    5.08    5.13
  -9  -1  -4    2.12    5.49
  -9  -1  -4    0.99    3.29
  -9  -1  -4    5.08    5.13
  -9  -1  -4    2.12    5.49
  -9  -1  -4    0.99    3.29
  -9  -1  -5    6.42    5.24
  -9  -1  -5    9.26    3.32
  -9  -1  -5    6.42    5.24
  -9  -1  -5    9.26    3.32
  -9  -1  -6    4.01    4.74
  -9  -1  -6   -2.69    2.65
  -9  -1  -6    4.01    4.74
  -9  -1  -6   -2.69    2.65
  -9  -1  -7   21.77    5.98
  -9  -1  -7   20.86    2.87
  -9  -1  -7   21.77    5.98
  -9  -1  -7   20.86    2.87
  -9  -1  -8    6.83    5.69
  -9  -1  -8    6.83    5.69
  -9  -1  -9   15.96    6.14
  -9  -1  -9   15.96    6.14
  -9  -1 -10    1.56    5.78
  -9  -1 -10    1.56    5.78
  -9  -2   6    3.99    6.60
  -9  -2   6    0.45    4.62
  -9  -2   6   -0.06    5.35
  -9  -2   6    3.99    6.60
  -9  -2   6    0.45    4.62
  -9  -2   6   -0.06    5.35
  -9  -2   5   17.55    6.64
  -9  -2   5   18.42    6.88
  -9  -2   5   11.53    4.84
  -9  -2   5   10.79    5.52
  -9  -2   5   17.55    6.64
  -9  -2   5   18.42    6.88
  -9  -2   5   11.53    4.84
  -9  -2   5   10.79    5.52
  -9  -2   4   21.96    6.32
  -9  -2   4   12.44    6.53
  -9  -2   4   15.61    4.52
  -9  -2   4   14.56    5.34
  -9  -2   4   21.96    6.32
  -9  -2   4   12.44    6.53
  -9  -2   4   15.61    4.52
  -9  -2   4   14.56    5.34
  -9  -2   3    0.54    5.45
  -9  -2   3    7.29    6.06
  -9  -2   3   -0.15    3.55
  -9  -2   3    5.07    4.66
  -9  -2   3    0.54    5.45
  -9  -2   3    7.29    6.06
  -9  -2   3   -0.15    3.55
  -9  -2   3    5.07    4.66
  -9  -2   2   23.74    6.21
  -9  -2   2   20.12    6.48
  -9  -2   2   18.12    3.18
  -9  -2   2   14.01    4.85
  -9  -2   2   23.74    6.21
  -9  -2   2   20.12    6.48
  -9  -2   2   18.12    3.18
  -9  -2   2   14.01    4.85
  -9  -2   1    6.09    5.55
  -9  -2   1    0.00    5.52
  -9  -2   1   -2.45    3.92
  -9  -2   1    6.09    5.55
  -9  -2   1    0.00    5.52
  -9  -2   1   -2.45    3.92
  -9  -2   0   -5.77    5.09
  -9  -2   0    2.22    5.49
  -9  -2   0   -4.05    3.67
  -9  -2   0   -5.77    5.09
  -9  -2   0    2.22    5.49
  -9  -2   0   -4.05    3.67
  -9  -2  -1    2.11    5.37
  -9  -2  -1   -0.51    5.38
  -9  -2  -1   -1.75    3.75
  -9  -2  -1   -3.93    3.81
  -9  -2  -1    2.11    5.37
  -9  -2  -1   -0.51    5.38
  -9  -2  -1   -1.75    3.75
  -9  -2  -1   -3.93    3.81
  -9  -2  -2   19.13    5.20
  -9  -2  -2   20.05    5.45
  -9  -2  -2   19.84    5.86
  -9  -2  -2   20.67    4.35
  -9  -2  -2   19.51    4.81
  -9  -2  -2   19.13    5.20
  -9  -2  -2   20.05    5.45
  -9  -2  -2   19.84    5.86
  -9  -2  -2   20.67    4.35
  -9  -2  -2   19.51    4.81
  -9  -2  -3   28.20    5.88
  -9  -2  -3   35.07    6.21
  -9  -2  -3   29.18    4.33
  -9  -2  -3   22.16    5.05
  -9  -2  -3   28.20    5.88
  -9  -2  -3   35.07    6.21
  -9  -2  -3   29.18    4.33
  -9  -2  -3   22.16    5.05
  -9  -2  -4   71.62    7.98
  -9  -2  -4   86.13    5.39
  -9  -2  -4   70.26    7.07
  -9  -2  -4   71.62    7.98
  -9  -2  -4   86.13    5.39
  -9  -2  -4   70.26    7.07
  -9  -2  -5   37.33    6.33
  -9  -2  -5   38.32    4.57
  -9  -2  -5   36.43    6.16
  -9  -2  -5   37.33    6.33
  -9  -2  -5   38.32    4.57
  -9  -2  -5   36.43    6.16
  -9  -2  -6   -6.53    4.79
  -9  -2  -6    2.85    2.69
  -9  -2  -6   -1.40    5.14
  -9  -2  -6   -6.53    4.79
  -9  -2  -6    2.85    2.69
  -9  -2  -6   -1.40    5.14
  -9  -2  -7    9.14    5.40
  -9  -2  -7    4.56    2.27
  -9  -2  -7    2.32    5.58
  -9  -2  -7    9.14    5.40
  -9  -2  -7    4.56    2.27
  -9  -2  -7    2.32    5.58
  -9  -2  -8   13.06    5.91
  -9  -2  -8   13.06    5.91
  -9  -2  -9   -0.78    5.62
  -9  -2  -9   -0.78    5.62
  -9  -2 -10    2.73    5.80
  -9  -2 -10    2.73    5.80
  -9  -3   6   12.30    6.76
  -9  -3   6    1.90    4.64
  -9  -3   6    7.95    5.61
  -9  -3   6   12.30    6.76
  -9  -3   6    1.90    4.64
  -9  -3   6    7.95    5.61
  -9  -3   5    9.36    6.24
  -9  -3   5    0.05    4.24
  -9  -3   5   -5.60    4.76
  -9  -3   5    9.36    6.24
  -9  -3   5    0.05    4.24
  -9  -3   5   -5.60    4.76
  -9  -3   4   35.27    6.68
  -9  -3   4   31.39    6.59
  -9  -3   4   31.86    4.76
  -9  -3   4   35.15    6.09
  -9  -3   4   35.27    6.68
  -9  -3   4   31.39    6.59
  -9  -3   4   31.86    4.76
  -9  -3   4   35.15    6.09
  -9  -3   3    5.76    5.38
  -9  -3   3    8.60    5.83
  -9  -3   3    5.31    3.75
  -9  -3   3    3.21    4.68
  -9  -3   3    5.76    5.38
  -9  -3   3    8.60    5.83
  -9  -3   3    5.31    3.75
  -9  -3   3    3.21    4.68
  -9  -3   2   18.73    5.99
  -9  -3   2   14.71    6.12
  -9  -3   2   17.80    3.44
  -9  -3   2   15.42    5.11
  -9  -3   2   18.73    5.99
  -9  -3   2   14.71    6.12
  -9  -3   2   17.80    3.44
  -9  -3   2   15.42    5.11
  -9  -3   1  127.51    8.84
  -9  -3   1  127.39    9.74
  -9  -3   1  125.75    7.24
  -9  -3   1  127.51    8.84
  -9  -3   1  127.39    9.74
  -9  -3   1  125.75    7.24
  -9  -3   0   72.40    8.11
  -9  -3   0   91.95    9.18
  -9  -3   0   81.94    6.58
  -9  -3   0   47.26    4.89
  -9  -3   0   72.40    8.11
  -9  -3   0   91.95    9.18
  -9  -3   0   81.94    6.58
  -9  -3   0   47.26    4.89
  -9  -3  -1   -3.69    4.33
  -9  -3  -1    3.58    5.16
  -9  -3  -1   -0.12    5.17
  -9  -3  -1    4.11    3.88
  -9  -3  -1    2.75    4.02
  -9  -3  -1   -3.69    4.33
  -9  -3  -1    3.58    5.16
  -9  -3  -1   -0.12    5.17
  -9  -3  -1    4.11    3.88
  -9  -3  -1    2.75    4.02
  -9  -3  -2    2.66    5.01
  -9  -3  -2    0.72    5.28
  -9  -3  -2    2.03    3.74
  -9  -3  -2    2.80    4.43
  -9  -3  -2    2.66    5.01
  -9  -3  -2    0.72    5.28
  -9  -3  -2    2.03    3.74
  -9  -3  -2    2.80    4.43
  -9  -3  -3    0.37    4.91
  -9  -3  -3   -0.96    5.12
  -9  -3  -3   -0.30    3.48
  -9  -3  -3   -0.86    4.54
  -9  -3  -3    0.37    4.91
  -9  -3  -3   -0.96    5.12
  -9  -3  -3   -0.30    3.48
  -9  -3  -3   -0.86    4.54
  -9  -3  -4   38.45    6.23
  -9  -3  -4   40.98    4.98
  -9  -3  -4   21.46    5.42
  -9  -3  -4   38.45    6.23
  -9  -3  -4   40.98    4.98
  -9  -3  -4   21.46    5.42
  -9  -3  -5  103.18    8.46
  -9  -3  -5  111.26    5.27
  -9  -3  -5   92.66    8.04
  -9  -3  -5  103.18    8.46
  -9  -3  -5  111.26    5.27
  -9  -3  -5   92.66    8.04
  -9  -3  -6   37.72    6.38
  -9  -3  -6   45.90    4.19
  -9  -3  -6   32.01    6.33
  -9  -3  -6   37.72    6.38
  -9  -3  -6   45.90    4.19
  -9  -3  -6   32.01    6.33
  -9  -3  -7    1.51    5.23
  -9  -3  -7    6.50    2.37
  -9  -3  -7    2.94    5.59
  -9  -3  -7    1.51    5.23
  -9  -3  -7    6.50    2.37
  -9  -3  -7    2.94    5.59
  -9  -3  -8   48.89    7.13
  -9  -3  -8   48.71    7.38
  -9  -3  -8   48.89    7.13
  -9  -3  -8   48.71    7.38
  -9  -3  -9   30.05    6.62
  -9  -3  -9   30.10    7.01
  -9  -3  -9   30.05    6.62
  -9  -3  -9   30.10    7.01
  -9  -3 -10   23.60    6.68
  -9  -3 -10   23.60    6.68
  -9  -4   6   33.62    7.15
  -9  -4   6   28.49    5.56
  -9  -4   6   29.43    6.57
  -9  -4   6   33.62    7.15
  -9  -4   6   28.49    5.56
  -9  -4   6   29.43    6.57
  -9  -4   5    3.94    5.88
  -9  -4   5    2.71    4.35
  -9  -4   5    3.33    5.25
  -9  -4   5    3.94    5.88
  -9  -4   5    2.71    4.35
  -9  -4   5    3.33    5.25
  -9  -4   4    5.01    5.76
  -9  -4   4   -3.83    3.88
  -9  -4   4    1.46    4.86
  -9  -4   4    5.01    5.76
  -9  -4   4   -3.83    3.88
  -9  -4   4    1.46    4.86
  -9  -4   3   44.42    6.96
  -9  -4   3   43.36    4.79
  -9  -4   3   34.03    5.75
  -9  -4   3   44.42    6.96
  -9  -4   3   43.36    4.79
  -9  -4   3   34.03    5.75
  -9  -4   2   39.57    6.37
  -9  -4   2   42.19    6.74
  -9  -4   2   41.53    4.83
  -9  -4   2   40.09    5.82
  -9  -4   2   39.57    6.37
  -9  -4   2   42.19    6.74
  -9  -4   2   41.53    4.83
  -9  -4   2   40.09    5.82
  -9  -4   1    7.63    5.08
  -9  -4   1   11.24    5.53
  -9  -4   1    1.56    2.09
  -9  -4   1    5.47    4.21
  -9  -4   1    7.63    5.08
  -9  -4   1   11.24    5.53
  -9  -4   1    1.56    2.09
  -9  -4   1    5.47    4.21
  -9  -4   0   37.85    6.05
  -9  -4   0   40.42    6.46
  -9  -4   0   42.52    5.31
  -9  -4   0   16.05    3.98
  -9  -4   0   37.85    6.05
  -9  -4   0   40.42    6.46
  -9  -4   0   42.52    5.31
  -9  -4   0   16.05    3.98
  -9  -4  -1   26.05    5.44
  -9  -4  -1   28.63    6.12
  -9  -4  -1   30.93    4.81
  -9  -4  -1   24.33    4.74
  -9  -4  -1   26.05    5.44
  -9  -4  -1   28.63    6.12
  -9  -4  -1   30.93    4.81
  -9  -4  -1   24.33    4.74
  -9  -4  -2    6.28    5.07
  -9  -4  -2    0.63    4.75
  -9  -4  -2    8.95    3.86
  -9  -4  -2    4.35    4.60
  -9  -4  -2    6.28    5.07
  -9  -4  -2    0.63    4.75
  -9  -4  -2    8.95    3.86
  -9  -4  -2    4.35    4.60
  -9  -4  -3   -1.38    4.80
  -9  -4  -3    4.19    4.86
  -9  -4  -3   -0.55    3.48
  -9  -4  -3    0.42    4.33
  -9  -4  -3   -1.38    4.80
  -9  -4  -3    4.19    4.86
  -9  -4  -3   -0.55    3.48
  -9  -4  -3    0.42    4.33
  -9  -4  -4   30.97    6.11
  -9  -4  -4   39.00    4.83
  -9  -4  -4   31.84    5.88
  -9  -4  -4   30.97    6.11
  -9  -4  -4   39.00    4.83
  -9  -4  -4   31.84    5.88
  -9  -4  -5    3.23    5.09
  -9  -4  -5    1.78    3.19
  -9  -4  -5    9.40    5.07
  -9  -4  -5    3.23    5.09
  -9  -4  -5    1.78    3.19
  -9  -4  -5    9.40    5.07
  -9  -4  -6   10.59    5.42
  -9  -4  -6   10.72    3.09
  -9  -4  -6    1.79    4.95
  -9  -4  -6   10.59    5.42
  -9  -4  -6   10.72    3.09
  -9  -4  -6    1.79    4.95
  -9  -4  -7    8.71    5.40
  -9  -4  -7    4.35    2.47
  -9  -4  -7    9.44    5.63
  -9  -4  -7    8.71    5.40
  -9  -4  -7    4.35    2.47
  -9  -4  -7    9.44    5.63
  -9  -4  -8    0.41    5.29
  -9  -4  -8   -3.07    5.49
  -9  -4  -8    0.41    5.29
  -9  -4  -8   -3.07    5.49
  -9  -4  -9   13.39    6.18
  -9  -4  -9   14.39    6.51
  -9  -4  -9   13.39    6.18
  -9  -4  -9   14.39    6.51
  -9  -4 -10   17.45    6.28
  -9  -4 -10   17.08    6.81
  -9  -4 -10   17.45    6.28
  -9  -4 -10   17.08    6.81
  -9  -4 -11   14.70    7.12
  -9  -4 -11   14.70    7.12
  -9  -5   6   17.38    5.36
  -9  -5   6   16.63    6.05
  -9  -5   6   17.38    5.36
  -9  -5   6   16.63    6.05
  -9  -5   5   -0.70    4.40
  -9  -5   5   10.84    5.74
  -9  -5   5   -0.70    4.40
  -9  -5   5   10.84    5.74
  -9  -5   4    8.25    5.62
  -9  -5   4    1.93    4.32
  -9  -5   4   -2.74    5.03
  -9  -5   4    8.25    5.62
  -9  -5   4    1.93    4.32
  -9  -5   4   -2.74    5.03
  -9  -5   3    4.79    5.35
  -9  -5   3    1.72    3.89
  -9  -5   3   -5.30    4.46
  -9  -5   3    4.79    5.35
  -9  -5   3    1.72    3.89
  -9  -5   3   -5.30    4.46
  -9  -5   2    2.39    5.14
  -9  -5   2    5.92    3.56
  -9  -5   2    6.63    4.71
  -9  -5   2    2.39    5.14
  -9  -5   2    5.92    3.56
  -9  -5   2    6.63    4.71
  -9  -5   1   56.84    6.85
  -9  -5   1   47.99    4.17
  -9  -5   1   50.85    6.03
  -9  -5   1   23.95    4.10
  -9  -5   1   56.84    6.85
  -9  -5   1   47.99    4.17
  -9  -5   1   50.85    6.03
  -9  -5   1   23.95    4.10
  -9  -5   0   16.41    5.59
  -9  -5   0   17.61    4.55
  -9  -5   0   10.27    4.33
  -9  -5   0   16.41    5.59
  -9  -5   0   17.61    4.55
  -9  -5   0   10.27    4.33
  -9  -5  -1   -3.42    4.88
  -9  -5  -1    2.07    4.90
  -9  -5  -1    0.17    3.60
  -9  -5  -1   -0.01    4.44
  -9  -5  -1   -3.42    4.88
  -9  -5  -1    2.07    4.90
  -9  -5  -1    0.17    3.60
  -9  -5  -1   -0.01    4.44
  -9  -5  -2   26.84    5.93
  -9  -5  -2   31.69    5.63
  -9  -5  -2   22.99    4.45
  -9  -5  -2   23.18    5.13
  -9  -5  -2   26.84    5.93
  -9  -5  -2   31.69    5.63
  -9  -5  -2   22.99    4.45
  -9  -5  -2   23.18    5.13
  -9  -5  -3   20.38    5.70
  -9  -5  -3   23.11    4.41
  -9  -5  -3   12.81    4.96
  -9  -5  -3   20.38    5.70
  -9  -5  -3   23.11    4.41
  -9  -5  -3   12.81    4.96
  -9  -5  -4    2.03    5.13
  -9  -5  -4    1.58    3.41
  -9  -5  -4   -0.81    4.63
  -9  -5  -4    2.03    5.13
  -9  -5  -4    1.58    3.41
  -9  -5  -4   -0.81    4.63
  -9  -5  -5   39.55    6.42
  -9  -5  -5   49.65    5.06
  -9  -5  -5   42.01    6.52
  -9  -5  -5   39.55    6.42
  -9  -5  -5   49.65    5.06
  -9  -5  -5   42.01    6.52
  -9  -5  -6   25.65    5.94
  -9  -5  -6   29.35    3.88
  -9  -5  -6   30.35    6.41
  -9  -5  -6   25.65    5.94
  -9  -5  -6   29.35    3.88
  -9  -5  -6   30.35    6.41
  -9  -5  -7   -0.29    5.09
  -9  -5  -7   -1.81    2.77
  -9  -5  -7   -0.45    5.15
  -9  -5  -7   -0.29    5.09
  -9  -5  -7   -1.81    2.77
  -9  -5  -7   -0.45    5.15
  -9  -5  -8   17.51    6.17
  -9  -5  -8   16.42    2.87
  -9  -5  -8   11.69    5.89
  -9  -5  -8   17.51    6.17
  -9  -5  -8   16.42    2.87
  -9  -5  -8   11.69    5.89
  -9  -5  -9   11.40    5.97
  -9  -5  -9    9.05    5.92
  -9  -5  -9   11.40    5.97
  -9  -5  -9    9.05    5.92
  -9  -5 -10   -0.48    5.60
  -9  -5 -10   -0.45    6.12
  -9  -5 -10   -0.48    5.60
  -9  -5 -10   -0.45    6.12
  -9  -5 -11   10.49    6.79
  -9  -5 -11   10.49    6.79
  -9  -6   6   68.59    7.42
  -9  -6   6   66.64    7.92
  -9  -6   6   68.59    7.42
  -9  -6   6   66.64    7.92
  -9  -6   5   37.75    5.79
  -9  -6   5   39.95    6.83
  -9  -6   5   37.75    5.79
  -9  -6   5   39.95    6.83
  -9  -6   4    2.57    4.48
  -9  -6   4   -2.25    4.83
  -9  -6   4    2.57    4.48
  -9  -6   4   -2.25    4.83
  -9  -6   3   -0.15    3.81
  -9  -6   3    1.48    4.72
  -9  -6   3   -0.15    3.81
  -9  -6   3    1.48    4.72
  -9  -6   2    8.69    3.79
  -9  -6   2   14.25    5.26
  -9  -6   2    8.69    3.79
  -9  -6   2   14.25    5.26
  -9  -6   1    6.46    4.98
  -9  -6   1    5.62    3.10
  -9  -6   1    7.61    4.54
  -9  -6   1   -1.50    3.89
  -9  -6   1    6.46    4.98
  -9  -6   1    5.62    3.10
  -9  -6   1    7.61    4.54
  -9  -6   1   -1.50    3.89
  -9  -6   0    3.60    5.03
  -9  -6   0   -1.97    4.17
  -9  -6   0   -1.28    4.41
  -9  -6   0    3.60    5.03
  -9  -6   0   -1.97    4.17
  -9  -6   0   -1.28    4.41
  -9  -6  -1    1.09    5.06
  -9  -6  -1    1.75    4.71
  -9  -6  -1    6.54    4.24
  -9  -6  -1    2.80    4.77
  -9  -6  -1    1.09    5.06
  -9  -6  -1    1.75    4.71
  -9  -6  -1    6.54    4.24
  -9  -6  -1    2.80    4.77
  -9  -6  -2   37.55    6.36
  -9  -6  -2   31.88    4.91
  -9  -6  -2   25.49    5.38
  -9  -6  -2   37.55    6.36
  -9  -6  -2   31.88    4.91
  -9  -6  -2   25.49    5.38
  -9  -6  -3   62.43    7.05
  -9  -6  -3   68.65    6.17
  -9  -6  -3   51.03    6.44
  -9  -6  -3   62.43    7.05
  -9  -6  -3   68.65    6.17
  -9  -6  -3   51.03    6.44
  -9  -6  -4   10.61    5.54
  -9  -6  -4   12.96    4.07
  -9  -6  -4    7.11    5.12
  -9  -6  -4   10.61    5.54
  -9  -6  -4   12.96    4.07
  -9  -6  -4    7.11    5.12
  -9  -6  -5   -0.82    4.94
  -9  -6  -5    4.70    3.64
  -9  -6  -5    0.76    5.02
  -9  -6  -5   -0.82    4.94
  -9  -6  -5    4.70    3.64
  -9  -6  -5    0.76    5.02
  -9  -6  -6   15.55    5.75
  -9  -6  -6   18.34    3.94
  -9  -6  -6    5.24    5.45
  -9  -6  -6   15.55    5.75
  -9  -6  -6   18.34    3.94
  -9  -6  -6    5.24    5.45
  -9  -6  -7   -0.75    5.27
  -9  -6  -7    3.72    3.27
  -9  -6  -7    1.39    5.32
  -9  -6  -7   -0.75    5.27
  -9  -6  -7    3.72    3.27
  -9  -6  -7    1.39    5.32
  -9  -6  -8   -5.95    5.18
  -9  -6  -8    1.46    3.08
  -9  -6  -8   -1.13    5.23
  -9  -6  -8   -5.95    5.18
  -9  -6  -8    1.46    3.08
  -9  -6  -8   -1.13    5.23
  -9  -6  -9   10.65    5.98
  -9  -6  -9    2.77    2.79
  -9  -6  -9    6.74    5.87
  -9  -6  -9   10.65    5.98
  -9  -6  -9    2.77    2.79
  -9  -6  -9    6.74    5.87
  -9  -6 -10   15.71    6.42
  -9  -6 -10    5.99    2.82
  -9  -6 -10   11.05    6.29
  -9  -6 -10   15.71    6.42
  -9  -6 -10    5.99    2.82
  -9  -6 -10   11.05    6.29
  -9  -6 -11   -0.83    6.35
  -9  -6 -11   -0.83    6.35
  -9  -7   5   36.01    5.84
  -9  -7   5   40.70    6.82
  -9  -7   5   36.01    5.84
  -9  -7   5   40.70    6.82
  -9  -7   4    1.22    4.45
  -9  -7   4   12.66    5.61
  -9  -7   4    1.22    4.45
  -9  -7   4   12.66    5.61
  -9  -7   3    5.08    4.17
  -9  -7   3    5.41    5.03
  -9  -7   3    5.08    4.17
  -9  -7   3    5.41    5.03
  -9  -7   2   19.96    4.34
  -9  -7   2   21.79    5.54
  -9  -7   2    8.61    3.31
  -9  -7   2   19.96    4.34
  -9  -7   2   21.79    5.54
  -9  -7   2    8.61    3.31
  -9  -7   1   61.23    6.75
  -9  -7   1   39.82    5.09
  -9  -7   1   61.23    6.75
  -9  -7   1   39.82    5.09
  -9  -7   0   26.45    6.00
  -9  -7   0   26.74    5.11
  -9  -7   0   28.97    5.22
  -9  -7   0   26.45    6.00
  -9  -7   0   26.74    5.11
  -9  -7   0   28.97    5.22
  -9  -7  -1   16.34    5.80
  -9  -7  -1   19.42    4.88
  -9  -7  -1   22.48    5.29
  -9  -7  -1   16.34    5.80
  -9  -7  -1   19.42    4.88
  -9  -7  -1   22.48    5.29
  -9  -7  -2   -4.23    5.01
  -9  -7  -2   -1.63    3.99
  -9  -7  -2    4.27    4.73
  -9  -7  -2   -4.23    5.01
  -9  -7  -2   -1.63    3.99
  -9  -7  -2    4.27    4.73
  -9  -7  -3    7.36    5.33
  -9  -7  -3    3.17    4.02
  -9  -7  -3    4.14    5.00
  -9  -7  -3    7.36    5.33
  -9  -7  -3    3.17    4.02
  -9  -7  -3    4.14    5.00
  -9  -7  -4   14.28    5.73
  -9  -7  -4   10.72    4.13
  -9  -7  -4    5.79    5.27
  -9  -7  -4   14.28    5.73
  -9  -7  -4   10.72    4.13
  -9  -7  -4    5.79    5.27
  -9  -7  -5   23.41    5.46
  -9  -7  -5   23.17    4.55
  -9  -7  -5   19.81    5.94
  -9  -7  -5   23.41    5.46
  -9  -7  -5   23.17    4.55
  -9  -7  -5   19.81    5.94
  -9  -7  -6   28.31    6.34
  -9  -7  -6   26.44    4.37
  -9  -7  -6   22.61    6.10
  -9  -7  -6   28.31    6.34
  -9  -7  -6   26.44    4.37
  -9  -7  -6   22.61    6.10
  -9  -7  -7    7.64    5.61
  -9  -7  -7    9.10    3.89
  -9  -7  -7    9.75    5.87
  -9  -7  -7    7.64    5.61
  -9  -7  -7    9.10    3.89
  -9  -7  -7    9.75    5.87
  -9  -7  -8    8.40    5.83
  -9  -7  -8    2.55    3.57
  -9  -7  -8    0.72    5.64
  -9  -7  -8    8.40    5.83
  -9  -7  -8    2.55    3.57
  -9  -7  -8    0.72    5.64
  -9  -7  -9   32.86    6.91
  -9  -7  -9   42.95    5.17
  -9  -7  -9   30.48    6.86
  -9  -7  -9   32.86    6.91
  -9  -7  -9   42.95    5.17
  -9  -7  -9   30.48    6.86
  -9  -7 -10    0.10    6.07
  -9  -7 -10   -1.40    3.35
  -9  -7 -10    7.34    6.34
  -9  -7 -10    0.10    6.07
  -9  -7 -10   -1.40    3.35
  -9  -7 -10    7.34    6.34
  -9  -8   5   17.69    5.43
  -9  -8   5   23.78    6.39
  -9  -8   5   17.69    5.43
  -9  -8   5   23.78    6.39
  -9  -8   4    0.60    4.82
  -9  -8   4    8.29    5.69
  -9  -8   4    0.60    4.82
  -9  -8   4    8.29    5.69
  -9  -8   3    6.87    4.50
  -9  -8   3    2.68    5.17
  -9  -8   3    6.87    4.50
  -9  -8   3    2.68    5.17
  -9  -8   2   25.92    4.71
  -9  -8   2   23.42    5.74
  -9  -8   2   25.92    4.71
  -9  -8   2   23.42    5.74
  -9  -8   1   52.47    6.50
  -9  -8   1   52.47    6.50
  -9  -8   0  126.29    9.01
  -9  -8   0  124.16    8.20
  -9  -8   0  126.29    9.01
  -9  -8   0  124.16    8.20
  -9  -8  -1  109.16    8.83
  -9  -8  -1  107.21    7.25
  -9  -8  -1  109.16    8.83
  -9  -8  -1  107.21    7.25
  -9  -8  -2    8.50    5.35
  -9  -8  -2    3.47    4.22
  -9  -8  -2   -3.55    4.56
  -9  -8  -2    8.50    5.35
  -9  -8  -2    3.47    4.22
  -9  -8  -2   -3.55    4.56
  -9  -8  -3   51.34    6.90
  -9  -8  -3   56.26    5.87
  -9  -8  -3   40.70    6.52
  -9  -8  -3   51.34    6.90
  -9  -8  -3   56.26    5.87
  -9  -8  -3   40.70    6.52
  -9  -8  -4   58.27    7.11
  -9  -8  -4   71.68    6.35
  -9  -8  -4   47.03    6.95
  -9  -8  -4   58.27    7.11
  -9  -8  -4   71.68    6.35
  -9  -8  -4   47.03    6.95
  -9  -8  -5   29.03    6.21
  -9  -8  -5   33.34    5.11
  -9  -8  -5   30.85    6.77
  -9  -8  -5   29.03    6.21
  -9  -8  -5   33.34    5.11
  -9  -8  -5   30.85    6.77
  -9  -8  -6   14.49    5.85
  -9  -8  -6   15.54    4.53
  -9  -8  -6    4.89    5.79
  -9  -8  -6   14.49    5.85
  -9  -8  -6   15.54    4.53
  -9  -8  -6    4.89    5.79
  -9  -8  -7   -0.15    5.47
  -9  -8  -7    4.22    4.02
  -9  -8  -7    2.87    5.70
  -9  -8  -7   -0.15    5.47
  -9  -8  -7    4.22    4.02
  -9  -8  -7    2.87    5.70
  -9  -8  -8   11.24    6.21
  -9  -8  -8   16.84    4.44
  -9  -8  -8   11.93    6.17
  -9  -8  -8   11.24    6.21
  -9  -8  -8   16.84    4.44
  -9  -8  -8   11.93    6.17
  -9  -8  -9   49.70    7.61
  -9  -8  -9   58.84    5.99
  -9  -8  -9   29.37    7.02
  -9  -8  -9   49.70    7.61
  -9  -8  -9   58.84    5.99
  -9  -8  -9   29.37    7.02
  -9  -8 -10   26.71    4.63
  -9  -8 -10   14.41    6.63
  -9  -8 -10   26.71    4.63
  -9  -8 -10   14.41    6.63
  -9  -9   4   14.45    5.19
  -9  -9   4   11.47    5.97
  -9  -9   4   14.45    5.19
  -9  -9   4   11.47    5.97
  -9  -9   3    4.01    4.64
  -9  -9   3    1.21    5.34
  -9  -9   3    4.01    4.64
  -9  -9   3    1.21    5.34
  -9  -9   2    0.25    4.49
  -9  -9   2   -1.08    5.11
  -9  -9   2    0.25    4.49
  -9  -9   2   -1.08    5.11
  -9  -9   1    0.71    5.29
  -9  -9   1    7.94    5.10
  -9  -9   1    0.71    5.29
  -9  -9   1    7.94    5.10
  -9  -9   0    8.84    5.97
  -9  -9   0   10.75    5.11
  -9  -9   0    8.84    5.97
  -9  -9   0   10.75    5.11
  -9  -9  -1   11.51    5.69
  -9  -9  -1   11.41    4.98
  -9  -9  -1   11.51    5.69
  -9  -9  -1   11.41    4.98
  -9  -9  -2    2.00    5.29
  -9  -9  -2    2.50    4.36
  -9  -9  -2    2.00    5.29
  -9  -9  -2    2.50    4.36
  -9  -9  -3    7.21    5.47
  -9  -9  -3   15.42    4.93
  -9  -9  -3    7.21    5.47
  -9  -9  -3   15.42    4.93
  -9  -9  -4   46.18    6.67
  -9  -9  -4   42.28    5.68
  -9  -9  -4   28.59    6.43
  -9  -9  -4   46.18    6.67
  -9  -9  -4   42.28    5.68
  -9  -9  -4   28.59    6.43
  -9  -9  -5   82.17    9.03
  -9  -9  -5   85.66    6.90
  -9  -9  -5   59.80    7.63
  -9  -9  -5   82.17    9.03
  -9  -9  -5   85.66    6.90
  -9  -9  -5   59.80    7.63
  -9  -9  -6    8.87    5.99
  -9  -9  -6   12.86    4.84
  -9  -9  -6   13.63    6.18
  -9  -9  -6    8.87    5.99
  -9  -9  -6   12.86    4.84
  -9  -9  -6   13.63    6.18
  -9  -9  -7   10.21    6.29
  -9  -9  -7    8.59    4.63
  -9  -9  -7    1.87    5.94
  -9  -9  -7   10.21    6.29
  -9  -9  -7    8.59    4.63
  -9  -9  -7    1.87    5.94
  -9  -9  -8    8.55    6.11
  -9  -9  -8    6.67    4.52
  -9  -9  -8    3.61    6.05
  -9  -9  -8    8.55    6.11
  -9  -9  -8    6.67    4.52
  -9  -9  -8    3.61    6.05
  -9  -9  -9   15.17    4.74
  -9  -9  -9   12.32    6.72
  -9  -9  -9   15.17    4.74
  -9  -9  -9   12.32    6.72
  -9 -10   3    3.37    4.74
  -9 -10   3   -3.81    5.33
  -9 -10   3    3.37    4.74
  -9 -10   3   -3.81    5.33
  -9 -10   2    2.45    5.31
  -9 -10   2    2.45    5.31
  -9 -10   1    0.84    5.09
  -9 -10   1    0.84    5.09
  -9 -10   0   29.90    6.11
  -9 -10   0   29.90    6.11
  -9 -10  -1    5.90    5.11
  -9 -10  -1    5.90    5.11
  -9 -10  -2    5.99    4.88
  -9 -10  -2    5.99    4.88
  -9 -10  -3   -0.14    4.76
  -9 -10  -3   -0.14    4.76
  -9 -10  -4   10.51    5.02
  -9 -10  -4   10.51    5.02
  -9 -10  -5   -0.04    4.30
  -9 -10  -5    5.88    5.80
  -9 -10  -5   -0.04    4.30
  -9 -10  -5    5.88    5.80
  -9 -10  -6    7.37    6.15
  -9 -10  -6    5.76    4.84
  -9 -10  -6   10.50    6.39
  -9 -10  -6    7.37    6.15
  -9 -10  -6    5.76    4.84
  -9 -10  -6   10.50    6.39
  -9 -10  -7   -0.35    5.62
  -9 -10  -7    0.86    4.53
  -9 -10  -7   -0.59    5.94
  -9 -10  -7   -0.35    5.62
  -9 -10  -7    0.86    4.53
  -9 -10  -7   -0.59    5.94
  -9 -10  -8   18.23    6.84
  -9 -10  -8   19.64    5.34
  -9 -10  -8    7.98    6.58
  -9 -10  -8   18.23    6.84
  -9 -10  -8   19.64    5.34
  -9 -10  -8    7.98    6.58
  -9 -11   1   27.89    6.49
  -9 -11   1   27.89    6.49
  -9 -11   0   12.81    5.83
  -9 -11   0   12.81    5.83
  -9 -11  -1    8.06    5.54
  -9 -11  -1    8.06    5.54
  -9 -11  -2   32.08    6.20
  -9 -11  -2   32.08    6.20
  -9 -11  -3    3.71    5.00
  -9 -11  -3    3.71    5.00
  -9 -11  -4    3.71    4.93
  -9 -11  -4    3.71    4.93
  -9 -11  -5   29.54    5.80
  -9 -11  -5   29.54    5.80
  -9 -11  -6   -0.92    4.88
  -9 -11  -6    1.06    6.06
  -9 -11  -6   -0.92    4.88
  -9 -11  -6    1.06    6.06
 -10   1  -1    8.40    5.78
 -10   1  -1   13.05    6.71
 -10   1  -1   16.46    6.51
 -10   1  -1    8.76    4.96
 -10   1  -1    8.40    5.78
 -10   1  -1   13.05    6.71
 -10   1  -1   16.46    6.51
 -10   1  -1    8.76    4.96
 -10   1  -2   32.10    6.90
 -10   1  -2   21.75    7.12
 -10   1  -2   27.74    7.51
 -10   1  -2   30.49    5.51
 -10   1  -2   32.10    6.90
 -10   1  -2   21.75    7.12
 -10   1  -2   27.74    7.51
 -10   1  -2   30.49    5.51
 -10   1  -3   27.81    6.42
 -10   1  -3   26.54    7.35
 -10   1  -3   36.44    7.30
 -10   1  -3   35.21    5.41
 -10   1  -3   27.81    6.42
 -10   1  -3   26.54    7.35
 -10   1  -3   36.44    7.30
 -10   1  -3   35.21    5.41
 -10   1  -4   -7.66    5.14
 -10   1  -4    0.31    6.22
 -10   1  -4    2.97    4.30
 -10   1  -4   -7.66    5.14
 -10   1  -4    0.31    6.22
 -10   1  -4    2.97    4.30
 -10   0   2   39.51    7.71
 -10   0   2   38.64    8.11
 -10   0   2   32.72    6.18
 -10   0   2   39.51    7.71
 -10   0   2   38.64    8.11
 -10   0   2   32.72    6.18
 -10   0   1    2.73    6.42
 -10   0   1   -5.20    6.29
 -10   0   1    1.91    5.05
 -10   0   1    2.73    6.42
 -10   0   1   -5.20    6.29
 -10   0   1    1.91    5.05
 -10   0   0    3.80    5.81
 -10   0   0    1.83    6.22
 -10   0   0    0.37    5.91
 -10   0   0   -1.09    4.70
 -10   0   0    3.80    5.81
 -10   0   0    1.83    6.22
 -10   0   0    0.37    5.91
 -10   0   0   -1.09    4.70
 -10   0  -1    0.53    5.69
 -10   0  -1    4.71    6.27
 -10   0  -1   13.68    6.80
 -10   0  -1    1.82    4.73
 -10   0  -1    0.53    5.69
 -10   0  -1    4.71    6.27
 -10   0  -1   13.68    6.80
 -10   0  -1    1.82    4.73
 -10   0  -2    6.20    5.62
 -10   0  -2    0.22    6.10
 -10   0  -2    4.95    5.96
 -10   0  -2    4.67    4.31
 -10   0  -2    6.20    5.62
 -10   0  -2    0.22    6.10
 -10   0  -2    4.95    5.96
 -10   0  -2    4.67    4.31
 -10   0  -3    7.90    5.84
 -10   0  -3   18.44    6.33
 -10   0  -3   10.17    6.12
 -10   0  -3   14.60    4.42
 -10   0  -3    7.90    5.84
 -10   0  -3   18.44    6.33
 -10   0  -3   10.17    6.12
 -10   0  -3   14.60    4.42
 -10   0  -4   32.27    6.77
 -10   0  -4   31.66    7.26
 -10   0  -4   29.08    4.94
 -10   0  -4   32.27    6.77
 -10   0  -4   31.66    7.26
 -10   0  -4   29.08    4.94
 -10   0  -5    1.99    5.35
 -10   0  -5   -0.67    3.73
 -10   0  -5    1.99    5.35
 -10   0  -5   -0.67    3.73
 -10   0  -6   42.32    7.04
 -10   0  -6   46.54    5.29
 -10   0  -6   42.32    7.04
 -10   0  -6   46.54    5.29
 -10  -1   3   -1.44    6.16
 -10  -1   3   -2.41    6.49
 -10  -1   3    3.88    5.52
 -10  -1   3   -1.44    6.16
 -10  -1   3   -2.41    6.49
 -10  -1   3    3.88    5.52
 -10  -1   2    8.10    6.58
 -10  -1   2   13.72    6.91
 -10  -1   2   11.86    5.29
 -10  -1   2    8.10    6.58
 -10  -1   2   13.72    6.91
 -10  -1   2   11.86    5.29
 -10  -1   1   44.28    7.61
 -10  -1   1   42.55    7.51
 -10  -1   1   43.94    6.27
 -10  -1   1   44.28    7.61
 -10  -1   1   42.55    7.51
 -10  -1   1   43.94    6.27
 -10  -1   0    6.93    6.33
 -10  -1   0    1.94    6.42
 -10  -1   0    5.60    4.74
 -10  -1   0    6.93    6.33
 -10  -1   0    1.94    6.42
 -10  -1   0    5.60    4.74
 -10  -1  -1   15.74    6.10
 -10  -1  -1   16.61    6.53
 -10  -1  -1   18.81    7.04
 -10  -1  -1   15.78    4.89
 -10  -1  -1   15.74    6.10
 -10  -1  -1   16.61    6.53
 -10  -1  -1   18.81    7.04
 -10  -1  -1   15.78    4.89
 -10  -1  -2    7.53    5.89
 -10  -1  -2    2.74    6.28
 -10  -1  -2   12.50    6.20
 -10  -1  -2    1.96    4.13
 -10  -1  -2    7.53    5.89
 -10  -1  -2    2.74    6.28
 -10  -1  -2   12.50    6.20
 -10  -1  -2    1.96    4.13
 -10  -1  -3    9.30    5.77
 -10  -1  -3    0.75    6.16
 -10  -1  -3    6.45    4.22
 -10  -1  -3    9.30    5.77
 -10  -1  -3    0.75    6.16
 -10  -1  -3    6.45    4.22
 -10  -1  -4    6.63    5.80
 -10  -1  -4   14.20    4.18
 -10  -1  -4    6.63    5.80
 -10  -1  -4   14.20    4.18
 -10  -1  -5   29.78    6.51
 -10  -1  -5   35.49    4.53
 -10  -1  -5   29.78    6.51
 -10  -1  -5   35.49    4.53
 -10  -1  -6   -3.00    5.37
 -10  -1  -6    0.63    3.18
 -10  -1  -6   -3.00    5.37
 -10  -1  -6    0.63    3.18
 -10  -1  -7   49.26    7.33
 -10  -1  -7   19.47    3.30
 -10  -1  -7   49.26    7.33
 -10  -1  -7   19.47    3.30
 -10  -2   3   35.44    7.31
 -10  -2   3   48.45    8.24
 -10  -2   3   31.50    6.09
 -10  -2   3   35.44    7.31
 -10  -2   3   48.45    8.24
 -10  -2   3   31.50    6.09
 -10  -2   2   19.54    6.67
 -10  -2   2   17.00    6.67
 -10  -2   2   17.32    5.61
 -10  -2   2   19.54    6.67
 -10  -2   2   17.00    6.67
 -10  -2   2   17.32    5.61
 -10  -2   1    9.93    6.13
 -10  -2   1   -8.77    5.21
 -10  -2   1    2.82    4.50
 -10  -2   1    9.93    6.13
 -10  -2   1   -8.77    5.21
 -10  -2   1    2.82    4.50
 -10  -2   0   15.58    6.43
 -10  -2   0   13.63    6.06
 -10  -2   0   17.88    5.05
 -10  -2   0   15.58    6.43
 -10  -2   0   13.63    6.06
 -10  -2   0   17.88    5.05
 -10  -2  -1    4.47    5.05
 -10  -2  -1    5.37    5.93
 -10  -2  -1    3.43    5.75
 -10  -2  -1    0.17    4.22
 -10  -2  -1    4.47    5.05
 -10  -2  -1    5.37    5.93
 -10  -2  -1    3.43    5.75
 -10  -2  -1    0.17    4.22
 -10  -2  -2    0.20    5.35
 -10  -2  -2    6.54    6.14
 -10  -2  -2    1.91    6.02
 -10  -2  -2   -2.50    4.09
 -10  -2  -2    0.93    4.63
 -10  -2  -2    0.20    5.35
 -10  -2  -2    6.54    6.14
 -10  -2  -2    1.91    6.02
 -10  -2  -2   -2.50    4.09
 -10  -2  -2    0.93    4.63
 -10  -2  -3    0.62    5.32
 -10  -2  -3    3.18    6.17
 -10  -2  -3   -1.43    3.86
 -10  -2  -3   -0.22    5.07
 -10  -2  -3    0.62    5.32
 -10  -2  -3    3.18    6.17
 -10  -2  -3   -1.43    3.86
 -10  -2  -3   -0.22    5.07
 -10  -2  -4    9.27    5.80
 -10  -2  -4   10.96    4.05
 -10  -2  -4    4.68    5.75
 -10  -2  -4    9.27    5.80
 -10  -2  -4   10.96    4.05
 -10  -2  -4    4.68    5.75
 -10  -2  -5   -2.59    5.21
 -10  -2  -5   -2.49    3.36
 -10  -2  -5   -2.59    5.21
 -10  -2  -5   -2.49    3.36
 -10  -2  -6   -2.39    5.35
 -10  -2  -6    1.50    3.11
 -10  -2  -6   -2.39    5.35
 -10  -2  -6    1.50    3.11
 -10  -2  -7    1.97    5.71
 -10  -2  -7    1.97    5.71
 -10  -2  -8    4.62    5.99
 -10  -2  -8    4.62    5.99
 -10  -3   4   -2.54    6.29
 -10  -3   4    1.45    3.86
 -10  -3   4    2.90    5.54
 -10  -3   4   -2.54    6.29
 -10  -3   4    1.45    3.86
 -10  -3   4    2.90    5.54
 -10  -3   3    0.74    5.76
 -10  -3   3    3.36    6.43
 -10  -3   3    0.71    2.92
 -10  -3   3    2.03    5.04
 -10  -3   3    0.74    5.76
 -10  -3   3    3.36    6.43
 -10  -3   3    0.71    2.92
 -10  -3   3    2.03    5.04
 -10  -3   2   14.53    6.13
 -10  -3   2    9.96    6.40
 -10  -3   2   10.69    5.29
 -10  -3   2   14.53    6.13
 -10  -3   2    9.96    6.40
 -10  -3   2   10.69    5.29
 -10  -3   1   30.40    6.91
 -10  -3   1   21.52    6.86
 -10  -3   1   28.91    5.66
 -10  -3   1   30.40    6.91
 -10  -3   1   21.52    6.86
 -10  -3   1   28.91    5.66
 -10  -3   0    1.46    5.54
 -10  -3   0   -2.40    5.80
 -10  -3   0   -0.38    4.40
 -10  -3   0    1.46    5.54
 -10  -3   0   -2.40    5.80
 -10  -3   0   -0.38    4.40
 -10  -3  -1    6.57    5.57
 -10  -3  -1    9.57    5.94
 -10  -3  -1   15.12    6.40
 -10  -3  -1   10.91    4.52
 -10  -3  -1    6.57    5.57
 -10  -3  -1    9.57    5.94
 -10  -3  -1   15.12    6.40
 -10  -3  -1   10.91    4.52
 -10  -3  -2   19.15    6.03
 -10  -3  -2   19.97    6.58
 -10  -3  -2   16.38    4.50
 -10  -3  -2    3.72    4.67
 -10  -3  -2   19.15    6.03
 -10  -3  -2   19.97    6.58
 -10  -3  -2   16.38    4.50
 -10  -3  -2    3.72    4.67
 -10  -3  -3    3.71    5.52
 -10  -3  -3    8.38    6.13
 -10  -3  -3    6.81    4.08
 -10  -3  -3    4.03    5.39
 -10  -3  -3    3.71    5.52
 -10  -3  -3    8.38    6.13
 -10  -3  -3    6.81    4.08
 -10  -3  -3    4.03    5.39
 -10  -3  -4   -1.47    5.26
 -10  -3  -4    0.70    3.59
 -10  -3  -4   -1.62    5.44
 -10  -3  -4   -1.47    5.26
 -10  -3  -4    0.70    3.59
 -10  -3  -4   -1.62    5.44
 -10  -3  -5   20.82    6.15
 -10  -3  -5   20.97    3.99
 -10  -3  -5   17.98    5.77
 -10  -3  -5   20.82    6.15
 -10  -3  -5   20.97    3.99
 -10  -3  -5   17.98    5.77
 -10  -3  -6    5.75    5.76
 -10  -3  -6    5.61    3.26
 -10  -3  -6    8.13    5.67
 -10  -3  -6    5.75    5.76
 -10  -3  -6    5.61    3.26
 -10  -3  -6    8.13    5.67
 -10  -3  -7    0.50    5.54
 -10  -3  -7    0.44    2.51
 -10  -3  -7   -4.15    5.63
 -10  -3  -7    0.50    5.54
 -10  -3  -7    0.44    2.51
 -10  -3  -7   -4.15    5.63
 -10  -3  -8    4.82    5.86
 -10  -3  -8    1.30    6.33
 -10  -3  -8    4.82    5.86
 -10  -3  -8    1.30    6.33
 -10  -3  -9    2.55    5.89
 -10  -3  -9    2.55    5.89
 -10  -4   4   22.01    6.95
 -10  -4   4   10.36    4.38
 -10  -4   4    6.12    5.45
 -10  -4   4   22.01    6.95
 -10  -4   4   10.36    4.38
 -10  -4   4    6.12    5.45
 -10  -4   3   33.84    7.24
 -10  -4   3   25.89    4.01
 -10  -4   3   25.09    5.93
 -10  -4   3   33.84    7.24
 -10  -4   3   25.89    4.01
 -10  -4   3   25.09    5.93
 -10  -4   2   59.78    7.89
 -10  -4   2   56.52    6.90
 -10  -4   2   59.78    7.89
 -10  -4   2   56.52    6.90
 -10  -4   1   -0.32    5.40
 -10  -4   1    3.65    5.46
 -10  -4   1    3.81    4.53
 -10  -4   1   -0.32    5.40
 -10  -4   1    3.65    5.46
 -10  -4   1    3.81    4.53
 -10  -4   0    3.29    5.51
 -10  -4   0    4.40    5.30
 -10  -4   0   -3.52    4.03
 -10  -4   0    3.29    5.51
 -10  -4   0    4.40    5.30
 -10  -4   0   -3.52    4.03
 -10  -4  -1   -3.91    5.17
 -10  -4  -1    4.02    5.84
 -10  -4  -1    4.07    4.27
 -10  -4  -1   -0.14    4.03
 -10  -4  -1   -3.91    5.17
 -10  -4  -1    4.02    5.84
 -10  -4  -1    4.07    4.27
 -10  -4  -1   -0.14    4.03
 -10  -4  -2   32.09    6.54
 -10  -4  -2   31.85    6.42
 -10  -4  -2   31.21    4.99
 -10  -4  -2   22.15    5.12
 -10  -4  -2   32.09    6.54
 -10  -4  -2   31.85    6.42
 -10  -4  -2   31.21    4.99
 -10  -4  -2   22.15    5.12
 -10  -4  -3   50.63    6.97
 -10  -4  -3   55.51    5.95
 -10  -4  -3   46.43    6.16
 -10  -4  -3   50.63    6.97
 -10  -4  -3   55.51    5.95
 -10  -4  -3   46.43    6.16
 -10  -4  -4   -0.52    5.41
 -10  -4  -4    0.52    3.67
 -10  -4  -4    6.07    5.45
 -10  -4  -4   -0.52    5.41
 -10  -4  -4    0.52    3.67
 -10  -4  -4    6.07    5.45
 -10  -4  -5    7.10    5.65
 -10  -4  -5    9.71    3.73
 -10  -4  -5    9.93    5.47
 -10  -4  -5    7.10    5.65
 -10  -4  -5    9.71    3.73
 -10  -4  -5    9.93    5.47
 -10  -4  -6   69.56    8.27
 -10  -4  -6   80.77    5.34
 -10  -4  -6   62.10    7.60
 -10  -4  -6   69.56    8.27
 -10  -4  -6   80.77    5.34
 -10  -4  -6   62.10    7.60
 -10  -4  -7   18.07    5.70
 -10  -4  -7   17.10    3.10
 -10  -4  -7   17.98    6.61
 -10  -4  -7   18.07    5.70
 -10  -4  -7   17.10    3.10
 -10  -4  -7   17.98    6.61
 -10  -4  -8    4.12    5.27
 -10  -4  -8   -4.56    5.80
 -10  -4  -8    4.12    5.27
 -10  -4  -8   -4.56    5.80
 -10  -4  -9   -4.55    5.62
 -10  -4  -9   -0.72    6.13
 -10  -4  -9   -4.55    5.62
 -10  -4  -9   -0.72    6.13
 -10  -5   4    7.87    6.16
 -10  -5   4    2.66    4.34
 -10  -5   4    4.36    5.31
 -10  -5   4    7.87    6.16
 -10  -5   4    2.66    4.34
 -10  -5   4    4.36    5.31
 -10  -5   3   13.34    6.23
 -10  -5   3    5.61    3.87
 -10  -5   3    3.17    5.06
 -10  -5   3   13.34    6.23
 -10  -5   3    5.61    3.87
 -10  -5   3    3.17    5.06
 -10  -5   2   69.29    7.91
 -10  -5   2   56.67    6.75
 -10  -5   2   69.29    7.91
 -10  -5   2   56.67    6.75
 -10  -5   1   70.29    7.88
 -10  -5   1   73.68    7.40
 -10  -5   1   70.29    7.88
 -10  -5   1   73.68    7.40
 -10  -5   0    4.59    5.58
 -10  -5   0    7.95    4.72
 -10  -5   0    4.59    5.58
 -10  -5   0    7.95    4.72
 -10  -5  -1   -3.54    5.39
 -10  -5  -1    4.10    5.63
 -10  -5  -1    2.89    4.29
 -10  -5  -1   -1.62    4.26
 -10  -5  -1   -3.54    5.39
 -10  -5  -1    4.10    5.63
 -10  -5  -1    2.89    4.29
 -10  -5  -1   -1.62    4.26
 -10  -5  -2   23.03    6.17
 -10  -5  -2   23.48    6.32
 -10  -5  -2   17.97    4.61
 -10  -5  -2   17.17    5.48
 -10  -5  -2   23.03    6.17
 -10  -5  -2   23.48    6.32
 -10  -5  -2   17.97    4.61
 -10  -5  -2   17.17    5.48
 -10  -5  -3   -1.04    5.47
 -10  -5  -3    4.63    4.18
 -10  -5  -3    0.81    5.11
 -10  -5  -3   -1.04    5.47
 -10  -5  -3    4.63    4.18
 -10  -5  -3    0.81    5.11
 -10  -5  -4    3.39    5.07
 -10  -5  -4    6.54    3.91
 -10  -5  -4    3.65    5.36
 -10  -5  -4    3.39    5.07
 -10  -5  -4    6.54    3.91
 -10  -5  -4    3.65    5.36
 -10  -5  -5    6.17    5.05
 -10  -5  -5    1.40    3.66
 -10  -5  -5    4.65    5.41
 -10  -5  -5    6.17    5.05
 -10  -5  -5    1.40    3.66
 -10  -5  -5    4.65    5.41
 -10  -5  -6   -3.35    4.84
 -10  -5  -6    3.32    3.51
 -10  -5  -6    2.56    5.40
 -10  -5  -6   -3.35    4.84
 -10  -5  -6    3.32    3.51
 -10  -5  -6    2.56    5.40
 -10  -5  -7   90.16    8.17
 -10  -5  -7   87.50    9.28
 -10  -5  -7   90.16    8.17
 -10  -5  -7   87.50    9.28
 -10  -5  -8   38.09    6.73
 -10  -5  -8   23.80    7.00
 -10  -5  -8   38.09    6.73
 -10  -5  -8   23.80    7.00
 -10  -5  -9   48.95    7.69
 -10  -5  -9   35.90    7.83
 -10  -5  -9   48.95    7.69
 -10  -5  -9   35.90    7.83
 -10  -6   4    1.38    4.50
 -10  -6   4    4.40    5.52
 -10  -6   4    1.38    4.50
 -10  -6   4    4.40    5.52
 -10  -6   3   -0.63    3.82
 -10  -6   3    1.46    5.13
 -10  -6   3   -0.63    3.82
 -10  -6   3    1.46    5.13
 -10  -6   2   -0.41    2.91
 -10  -6   2    6.22    5.31
 -10  -6   2   -0.41    2.91
 -10  -6   2    6.22    5.31
 -10  -6   1   45.14    7.21
 -10  -6   1   38.07    6.18
 -10  -6   1   45.14    7.21
 -10  -6   1   38.07    6.18
 -10  -6   0   24.70    6.46
 -10  -6   0   31.38    6.51
 -10  -6   0   28.29    5.53
 -10  -6   0   10.60    4.64
 -10  -6   0   24.70    6.46
 -10  -6   0   31.38    6.51
 -10  -6   0   28.29    5.53
 -10  -6   0   10.60    4.64
 -10  -6  -1   -0.16    5.52
 -10  -6  -1   10.95    5.58
 -10  -6  -1   10.04    4.70
 -10  -6  -1   -1.18    4.64
 -10  -6  -1   -0.16    5.52
 -10  -6  -1   10.95    5.58
 -10  -6  -1   10.04    4.70
 -10  -6  -1   -1.18    4.64
 -10  -6  -2   18.02    6.15
 -10  -6  -2   17.60    4.75
 -10  -6  -2   13.63    5.62
 -10  -6  -2   18.02    6.15
 -10  -6  -2   17.60    4.75
 -10  -6  -2   13.63    5.62
 -10  -6  -3   62.95    7.61
 -10  -6  -3   77.87    6.31
 -10  -6  -3   58.06    6.99
 -10  -6  -3   62.95    7.61
 -10  -6  -3   77.87    6.31
 -10  -6  -3   58.06    6.99
 -10  -6  -4   53.79    7.36
 -10  -6  -4   57.27    5.66
 -10  -6  -4   47.60    6.99
 -10  -6  -4   53.79    7.36
 -10  -6  -4   57.27    5.66
 -10  -6  -4   47.60    6.99
 -10  -6  -5   22.48    6.30
 -10  -6  -5   21.48    4.45
 -10  -6  -5   13.56    5.91
 -10  -6  -5   22.48    6.30
 -10  -6  -5   21.48    4.45
 -10  -6  -5   13.56    5.91
 -10  -6  -6    7.19    5.78
 -10  -6  -6    8.07    3.79
 -10  -6  -6    9.42    5.70
 -10  -6  -6    7.19    5.78
 -10  -6  -6    8.07    3.79
 -10  -6  -6    9.42    5.70
 -10  -6  -7   -0.84    5.10
 -10  -6  -7    4.03    3.44
 -10  -6  -7    1.34    5.80
 -10  -6  -7   -0.84    5.10
 -10  -6  -7    4.03    3.44
 -10  -6  -7    1.34    5.80
 -10  -6  -8    0.55    5.73
 -10  -6  -8    2.07    3.05
 -10  -6  -8    7.08    6.01
 -10  -6  -8    0.55    5.73
 -10  -6  -8    2.07    3.05
 -10  -6  -8    7.08    6.01
 -10  -6  -9    5.04    6.11
 -10  -6  -9    8.61    6.23
 -10  -6  -9    5.04    6.11
 -10  -6  -9    8.61    6.23
 -10  -7   3   10.47    4.35
 -10  -7   3   10.97    5.59
 -10  -7   3   10.47    4.35
 -10  -7   3   10.97    5.59
 -10  -7   2    0.82    3.46
 -10  -7   2   -3.46    4.83
 -10  -7   2    0.82    3.46
 -10  -7   2   -3.46    4.83
 -10  -7   1    1.97    4.71
 -10  -7   1    1.97    4.71
 -10  -7   0    5.67    5.67
 -10  -7   0    1.26    4.90
 -10  -7   0    3.38    4.53
 -10  -7   0    5.67    5.67
 -10  -7   0    1.26    4.90
 -10  -7   0    3.38    4.53
 -10  -7  -1    5.94    5.86
 -10  -7  -1    2.06    4.38
 -10  -7  -1   -1.96    5.15
 -10  -7  -1    5.94    5.86
 -10  -7  -1    2.06    4.38
 -10  -7  -1   -1.96    5.15
 -10  -7  -2   -1.88    5.51
 -10  -7  -2    0.52    4.30
 -10  -7  -2    0.68    5.39
 -10  -7  -2   -1.88    5.51
 -10  -7  -2    0.52    4.30
 -10  -7  -2    0.68    5.39
 -10  -7  -3    3.12    5.58
 -10  -7  -3    9.36    4.47
 -10  -7  -3    4.84    5.11
 -10  -7  -3    3.12    5.58
 -10  -7  -3    9.36    4.47
 -10  -7  -3    4.84    5.11
 -10  -7  -4    6.05    5.82
 -10  -7  -4   10.00    4.55
 -10  -7  -4    7.35    5.63
 -10  -7  -4    6.05    5.82
 -10  -7  -4   10.00    4.55
 -10  -7  -4    7.35    5.63
 -10  -7  -5   13.21    6.08
 -10  -7  -5    9.12    4.07
 -10  -7  -5    7.40    5.70
 -10  -7  -5   13.21    6.08
 -10  -7  -5    9.12    4.07
 -10  -7  -5    7.40    5.70
 -10  -7  -6   -3.48    5.48
 -10  -7  -6    4.88    3.93
 -10  -7  -6    7.03    5.89
 -10  -7  -6   -3.48    5.48
 -10  -7  -6    4.88    3.93
 -10  -7  -6    7.03    5.89
 -10  -7  -7   34.54    6.93
 -10  -7  -7   36.53    4.76
 -10  -7  -7   21.55    6.67
 -10  -7  -7   34.54    6.93
 -10  -7  -7   36.53    4.76
 -10  -7  -7   21.55    6.67
 -10  -7  -8   15.05    6.46
 -10  -7  -8   17.98    4.14
 -10  -7  -8   11.32    6.35
 -10  -7  -8   15.05    6.46
 -10  -7  -8   17.98    4.14
 -10  -7  -8   11.32    6.35
 -10  -8   2    8.81    5.48
 -10  -8   2    8.81    5.48
 -10  -8   1    1.56    5.78
 -10  -8   1   -0.50    5.12
 -10  -8   1    4.65    4.36
 -10  -8   1    1.56    5.78
 -10  -8   1   -0.50    5.12
 -10  -8   1    4.65    4.36
 -10  -8   0   17.02    6.50
 -10  -8   0   17.11    5.37
 -10  -8   0   13.36    5.47
 -10  -8   0   17.02    6.50
 -10  -8   0   17.11    5.37
 -10  -8   0   13.36    5.47
 -10  -8  -1   13.19    6.02
 -10  -8  -1    7.27    4.67
 -10  -8  -1   -0.56    5.36
 -10  -8  -1   13.19    6.02
 -10  -8  -1    7.27    4.67
 -10  -8  -1   -0.56    5.36
 -10  -8  -2   14.62    6.11
 -10  -8  -2   15.11    4.81
 -10  -8  -2    7.60    5.78
 -10  -8  -2   14.62    6.11
 -10  -8  -2   15.11    4.81
 -10  -8  -2    7.60    5.78
 -10  -8  -3   26.44    6.64
 -10  -8  -3   26.61    5.29
 -10  -8  -3   18.00    5.94
 -10  -8  -3   26.44    6.64
 -10  -8  -3   26.61    5.29
 -10  -8  -3   18.00    5.94
 -10  -8  -4   26.97    6.56
 -10  -8  -4   27.51    5.20
 -10  -8  -4   28.75    6.79
 -10  -8  -4   26.97    6.56
 -10  -8  -4   27.51    5.20
 -10  -8  -4   28.75    6.79
 -10  -8  -5    3.71    5.83
 -10  -8  -5    1.16    4.38
 -10  -8  -5    2.29    5.75
 -10  -8  -5    3.71    5.83
 -10  -8  -5    1.16    4.38
 -10  -8  -5    2.29    5.75
 -10  -8  -6   10.28    6.08
 -10  -8  -6   -1.81    4.08
 -10  -8  -6    3.50    5.78
 -10  -8  -6   10.28    6.08
 -10  -8  -6   -1.81    4.08
 -10  -8  -6    3.50    5.78
 -10  -8  -7    7.97    6.13
 -10  -8  -7   13.15    4.37
 -10  -8  -7   -1.12    5.96
 -10  -8  -7    7.97    6.13
 -10  -8  -7   13.15    4.37
 -10  -8  -7   -1.12    5.96
 -10  -8  -8   39.99    7.50
 -10  -8  -8   40.89    5.24
 -10  -8  -8   29.67    7.37
 -10  -8  -8   39.99    7.50
 -10  -8  -8   40.89    5.24
 -10  -8  -8   29.67    7.37
 -10  -9   1   34.10    7.28
 -10  -9   1   33.09    6.44
 -10  -9   1   34.10    7.28
 -10  -9   1   33.09    6.44
 -10  -9   0   12.99    6.64
 -10  -9   0   12.88    5.68
 -10  -9   0    8.37    5.48
 -10  -9   0   12.99    6.64
 -10  -9   0   12.88    5.68
 -10  -9   0    8.37    5.48
 -10  -9  -1   15.76    6.38
 -10  -9  -1   16.32    5.42
 -10  -9  -1    9.43    5.90
 -10  -9  -1   15.76    6.38
 -10  -9  -1   16.32    5.42
 -10  -9  -1    9.43    5.90
 -10  -9  -2   26.93    6.76
 -10  -9  -2   27.65    5.82
 -10  -9  -2   17.71    5.94
 -10  -9  -2   26.93    6.76
 -10  -9  -2   27.65    5.82
 -10  -9  -2   17.71    5.94
 -10  -9  -3    2.67    5.87
 -10  -9  -3   12.17    5.05
 -10  -9  -3    5.31    5.72
 -10  -9  -3    2.67    5.87
 -10  -9  -3   12.17    5.05
 -10  -9  -3    5.31    5.72
 -10  -9  -4   10.09    6.05
 -10  -9  -4    3.62    4.72
 -10  -9  -4    4.64    5.94
 -10  -9  -4   10.09    6.05
 -10  -9  -4    3.62    4.72
 -10  -9  -4    4.64    5.94
 -10  -9  -5   33.86    6.96
 -10  -9  -5   40.82    5.80
 -10  -9  -5   17.84    6.59
 -10  -9  -5   33.86    6.96
 -10  -9  -5   40.82    5.80
 -10  -9  -5   17.84    6.59
 -10  -9  -6   14.02    6.49
 -10  -9  -6    5.03    4.51
 -10  -9  -6    3.15    5.95
 -10  -9  -6   14.02    6.49
 -10  -9  -6    5.03    4.51
 -10  -9  -6    3.15    5.95
 -10  -9  -7   15.56    6.61
 -10  -9  -7   25.10    5.24
 -10  -9  -7    2.57    6.14
 -10  -9  -7   15.56    6.61
 -10  -9  -7   25.10    5.24
 -10  -9  -7    2.57    6.14
 -10 -10  -1    6.07    5.59
 -10 -10  -1    6.07    5.59
 -10 -10  -2   61.04    7.20
 -10 -10  -2   19.28    6.51
 -10 -10  -2   61.04    7.20
 -10 -10  -2   19.28    6.51
 -10 -10  -3   90.36    7.53
 -10 -10  -3   46.19    7.23
 -10 -10  -3   90.36    7.53
 -10 -10  -3   46.19    7.23
 -10 -10  -4   18.49    6.41
 -10 -10  -4   23.52    5.70
 -10 -10  -4   16.27    6.63
 -10 -10  -4   18.49    6.41
 -10 -10  -4   23.52    5.70
 -10 -10  -4   16.27    6.63
 -10 -10  -5   -0.02    6.06
 -10 -10  -5   -1.14    4.75
 -10 -10  -5   -7.93    5.79
 -10 -10  -5   -0.02    6.06
 -10 -10  -5   -1.14    4.75
 -10 -10  -5   -7.93    5.79
 -11  -3  -1   20.50    6.58
 -11  -3  -1    9.50    6.93
 -11  -3  -1   25.72    5.48
 -11  -3  -1   20.50    6.58
 -11  -3  -1    9.50    6.93
 -11  -3  -1   25.72    5.48
 -11  -3  -2   31.76    6.92
 -11  -3  -2   33.03    7.38
 -11  -3  -2   28.94    5.35
 -11  -3  -2   31.76    6.92
 -11  -3  -2   33.03    7.38
 -11  -3  -2   28.94    5.35
 -11  -3  -3    3.87    5.71
 -11  -3  -3    5.45    5.98
 -11  -3  -3    3.96    4.24
 -11  -3  -3   -7.74    4.83
 -11  -3  -3    3.87    5.71
 -11  -3  -3    5.45    5.98
 -11  -3  -3    3.96    4.24
 -11  -3  -3   -7.74    4.83
 -11  -3  -4    2.33    5.78
 -11  -3  -4   -0.74    3.99
 -11  -3  -4    1.29    5.84
 -11  -3  -4    2.33    5.78
 -11  -3  -4   -0.74    3.99
 -11  -3  -4    1.29    5.84
 -11  -4   0    1.88    5.25
 -11  -4   0    9.42    6.53
 -11  -4   0    6.89    5.08
 -11  -4   0    1.88    5.25
 -11  -4   0    9.42    6.53
 -11  -4   0    6.89    5.08
 -11  -4  -1   11.15    6.09
 -11  -4  -1    9.58    6.62
 -11  -4  -1   12.96    5.08
 -11  -4  -1   11.15    6.09
 -11  -4  -1    9.58    6.62
 -11  -4  -1   12.96    5.08
 -11  -4  -2   40.71    7.24
 -11  -4  -2   45.14    7.97
 -11  -4  -2   48.60    6.10
 -11  -4  -2   10.40    4.91
 -11  -4  -2   40.71    7.24
 -11  -4  -2   45.14    7.97
 -11  -4  -2   48.60    6.10
 -11  -4  -2   10.40    4.91
 -11  -4  -3   40.41    6.85
 -11  -4  -3   53.12    6.44
 -11  -4  -3   13.60    5.67
 -11  -4  -3   40.41    6.85
 -11  -4  -3   53.12    6.44
 -11  -4  -3   13.60    5.67
 -11  -4  -4   10.75    5.67
 -11  -4  -4   12.24    4.46
 -11  -4  -4    6.73    6.17
 -11  -4  -4   10.75    5.67
 -11  -4  -4   12.24    4.46
 -11  -4  -4    6.73    6.17
 -11  -4  -5    2.52    5.78
 -11  -4  -5    3.60    3.99
 -11  -4  -5    0.95    6.12
 -11  -4  -5    2.52    5.78
 -11  -4  -5    3.60    3.99
 -11  -4  -5    0.95    6.12
 -11  -5   0    5.35    5.96
 -11  -5   0    8.08    5.91
 -11  -5   0    4.39    5.06
 -11  -5   0    5.35    5.96
 -11  -5   0    8.08    5.91
 -11  -5   0    4.39    5.06
 -11  -5  -1   14.13    5.77
 -11  -5  -1   20.63    6.91
 -11  -5  -1    7.40    4.94
 -11  -5  -1   14.13    5.77
 -11  -5  -1   20.63    6.91
 -11  -5  -1    7.40    4.94
 -11  -5  -2    7.29    6.04
 -11  -5  -2    4.90    4.85
 -11  -5  -2   -0.24    4.77
 -11  -5  -2    7.29    6.04
 -11  -5  -2    4.90    4.85
 -11  -5  -2   -0.24    4.77
 -11  -5  -3   -2.88    5.52
 -11  -5  -3    3.75    4.57
 -11  -5  -3   -0.37    5.23
 -11  -5  -3   -2.88    5.52
 -11  -5  -3    3.75    4.57
 -11  -5  -3   -0.37    5.23
 -11  -5  -4   11.09    6.13
 -11  -5  -4   17.51    4.67
 -11  -5  -4   11.30    6.12
 -11  -5  -4   11.09    6.13
 -11  -5  -4   17.51    4.67
 -11  -5  -4   11.30    6.12
 -11  -5  -5   17.53    5.98
 -11  -5  -5   18.20    4.52
 -11  -5  -5   11.19    6.18
 -11  -5  -5   17.53    5.98
 -11  -5  -5   18.20    4.52
 -11  -5  -5   11.19    6.18
 -11  -5  -6   14.24    6.34
 -11  -5  -6   12.20    4.08
 -11  -5  -6    5.68    6.00
 -11  -5  -6   14.24    6.34
 -11  -5  -6   12.20    4.08
 -11  -5  -6    5.68    6.00
 -11  -6   0    7.24    5.70
 -11  -6   0    4.45    6.22
 -11  -6   0    4.52    4.86
 -11  -6   0    7.24    5.70
 -11  -6   0    4.45    6.22
 -11  -6   0    4.52    4.86
 -11  -6  -1   25.59    6.77
 -11  -6  -1   26.32    6.75
 -11  -6  -1   23.38    5.56
 -11  -6  -1    0.31    4.07
 -11  -6  -1   25.59    6.77
 -11  -6  -1   26.32    6.75
 -11  -6  -1   23.38    5.56
 -11  -6  -1    0.31    4.07
 -11  -6  -2   19.76    6.61
 -11  -6  -2   19.80    5.56
 -11  -6  -2    5.93    4.92
 -11  -6  -2   19.76    6.61
 -11  -6  -2   19.80    5.56
 -11  -6  -2    5.93    4.92
 -11  -6  -3   13.32    6.32
 -11  -6  -3   13.04    5.04
 -11  -6  -3    3.69    5.62
 -11  -6  -3   13.32    6.32
 -11  -6  -3   13.04    5.04
 -11  -6  -3    3.69    5.62
 -11  -6  -4   -2.34    5.82
 -11  -6  -4   -3.57    4.28
 -11  -6  -4   -5.73    5.45
 -11  -6  -4   -2.34    5.82
 -11  -6  -4   -3.57    4.28
 -11  -6  -4   -5.73    5.45
 -11  -6  -5   20.93    6.56
 -11  -6  -5   27.86    4.89
 -11  -6  -5   15.84    6.55
 -11  -6  -5   20.93    6.56
 -11  -6  -5   27.86    4.89
 -11  -6  -5   15.84    6.55
 -11  -7  -1    5.39    6.15
 -11  -7  -1    9.99    5.28
 -11  -7  -1    4.33    4.97
 -11  -7  -1    5.39    6.15
 -11  -7  -1    9.99    5.28
 -11  -7  -1    4.33    4.97
 -11  -7  -2   20.46    6.60
 -11  -7  -2   20.57    5.41
 -11  -7  -2   12.19    5.87
 -11  -7  -2   20.46    6.60
 -11  -7  -2   20.57    5.41
 -11  -7  -2   12.19    5.87
 -11  -7  -3   -0.72    5.99
 -11  -7  -3    2.85    4.52
 -11  -7  -3   -4.36    5.53
 -11  -7  -3   -0.72    5.99
 -11  -7  -3    2.85    4.52
 -11  -7  -3   -4.36    5.53
 -11  -7  -4    3.83    6.25
 -11  -7  -4    0.14    4.50
 -11  -7  -4    0.76    5.81
 -11  -7  -4    3.83    6.25
 -11  -7  -4    0.14    4.50
 -11  -7  -4    0.76    5.81
 -11  -7  -5   11.20    6.27
 -11  -7  -5    2.98    4.40
 -11  -7  -5    4.11    5.87
 -11  -7  -5   11.20    6.27
 -11  -7  -5    2.98    4.40
 -11  -7  -5    4.11    5.87
   0   0   0    0.00    0.00
;
_shelx_hkl_checksum              94842
loop_
_space_group_symop_operation_xyz
'x, y, z'
'-x, -y, -z'
loop_
_atom_site_label
_atom_site_type_symbol
_atom_site_fract_x
_atom_site_fract_y
_atom_site_fract_z
_atom_site_U_iso_or_equiv
_atom_site_adp_type
_atom_site_occupancy
_atom_site_site_symmetry_order
_atom_site_calc_flag
_atom_site_refinement_flags_posn
_atom_site_refinement_flags_adp
Co1 Co 0.59213(4) 0.76508(3) 0.66292(3) 0.00931(8) Uani 1 1 d . .
P1 P 0.22718(7) 1.06022(6) 0.57891(5) 0.00932(12) Uani 1 1 d . .
P2 P 0.34806(7) 0.77587(6) 0.45224(5) 0.00977(12) Uani 1 1 d . .
O1 O 0.3904(2) 0.99364(17) 0.64752(14) 0.0112(3) Uani 1 1 d . .
O2 O 0.0521(2) 1.11928(18) 0.67885(14) 0.0125(3) Uani 1 1 d . .
H2O H -0.0347 1.1792 0.6434 0.019 Uiso 1 1 calc R U
O3 O 0.2315(2) 1.17824(18) 0.47738(15) 0.0141(3) Uani 1 1 d . .
O4 O 0.2023(2) 0.92449(18) 0.52064(15) 0.0142(3) Uani 1 1 d . .
O5 O 0.4838(2) 0.69027(18) 0.53758(15) 0.0134(3) Uani 1 1 d . .
O6 O 0.4379(2) 0.83439(19) 0.32752(14) 0.0142(3) Uani 1 1 d . .
H6O H 0.4931 0.8869 0.3444 0.021 Uiso 1 1 calc R U
O7 O 0.2333(2) 0.69900(18) 0.41764(15) 0.0128(3) Uani 1 1 d . .
O1W O 0.7885(2) 0.54478(18) 0.68083(15) 0.0127(3) Uani 1 1 d D .
H1WA H 0.897(2) 0.530(3) 0.654(3) 0.019 Uiso 1 1 d D U
H1WB H 0.760(4) 0.478(3) 0.658(3) 0.019 Uiso 1 1 d D U
O2W O 0.1456(2) 0.5019(2) 0.61799(17) 0.0195(4) Uani 1 1 d D .
H2WA H 0.164(4) 0.562(3) 0.563(2) 0.029 Uiso 1 1 d D U
H2WB H 0.223(3) 0.421(2) 0.595(3) 0.029 Uiso 1 1 d D U
N1 N 0.4322(2) 0.7027(2) 0.82055(17) 0.0121(4) Uani 1 1 d . .
N2 N 0.6780(2) 0.8244(2) 0.81565(17) 0.0113(4) Uani 1 1 d . .
C1 C 0.3139(3) 0.6362(3) 0.8153(2) 0.0158(5) Uani 1 1 d . .
H1A H 0.2973 0.6170 0.7353 0.019 Uiso 1 1 calc R U
C2 C 0.2152(3) 0.5946(3) 0.9222(2) 0.0182(5) Uani 1 1 d . .
H2A H 0.1340 0.5462 0.9157 0.022 Uiso 1 1 calc R U
C3 C 0.2373(3) 0.6252(3) 1.0388(2) 0.0179(5) Uani 1 1 d . .
H3A H 0.1690 0.6001 1.1134 0.021 Uiso 1 1 calc R U
C4 C 0.3599(3) 0.6926(3) 1.0456(2) 0.0154(5) Uani 1 1 d . .
H4A H 0.3769 0.7141 1.1248 0.018 Uiso 1 1 calc R U
C5 C 0.4580(3) 0.7285(3) 0.9347(2) 0.0122(4) Uani 1 1 d . .
C6 C 0.5993(3) 0.7939(2) 0.9316(2) 0.0121(4) Uani 1 1 d . .
C7 C 0.6512(3) 0.8195(3) 1.0399(2) 0.0159(5) Uani 1 1 d . .
H7A H 0.5968 0.7942 1.1206 0.019 Uiso 1 1 calc R U
C8 C 0.7832(3) 0.8823(3) 1.0290(2) 0.0175(5) Uani 1 1 d . .
H8A H 0.8188 0.9023 1.1018 0.021 Uiso 1 1 calc R U
C9 C 0.8623(3) 0.9154(3) 0.9098(2) 0.0158(5) Uani 1 1 d . .
H9A H 0.9522 0.9593 0.8997 0.019 Uiso 1 1 calc R U
C10 C 0.8080(3) 0.8833(3) 0.8056(2) 0.0132(4) Uani 1 1 d . .
H10A H 0.8646 0.9036 0.7241 0.016 Uiso 1 1 calc R U
loop_
_atom_site_aniso_label
_atom_site_aniso_U_11
_atom_site_aniso_U_22
_atom_site_aniso_U_33
_atom_site_aniso_U_23
_atom_site_aniso_U_13
_atom_site_aniso_U_12
Co1 0.01075(14) 0.00978(15) 0.00730(14) 0.00084(10) -0.00120(11) -0.00410(11)
P1 0.0093(2) 0.0094(3) 0.0083(3) -0.0005(2) 0.0001(2) -0.0031(2)
P2 0.0110(2) 0.0097(3) 0.0091(3) -0.0008(2) -0.0017(2) -0.0042(2)
O1 0.0121(7) 0.0108(8) 0.0111(7) 0.0007(6) -0.0016(6) -0.0050(6)
O2 0.0107(7) 0.0157(8) 0.0090(7) -0.0001(6) 0.0000(6) -0.0035(6)
O3 0.0120(7) 0.0165(8) 0.0114(8) 0.0033(6) -0.0001(6) -0.0044(6)
O4 0.0112(7) 0.0134(8) 0.0179(9) -0.0055(6) -0.0034(6) -0.0028(6)
O5 0.0162(7) 0.0104(8) 0.0147(8) -0.0002(6) -0.0058(6) -0.0047(6)
O6 0.0196(8) 0.0174(9) 0.0103(8) 0.0002(6) -0.0023(6) -0.0122(7)
O7 0.0131(7) 0.0114(8) 0.0152(8) -0.0013(6) -0.0027(6) -0.0056(6)
O1W 0.0139(7) 0.0113(8) 0.0143(8) -0.0020(6) -0.0017(6) -0.0059(6)
O2W 0.0160(8) 0.0220(10) 0.0167(9) -0.0010(7) 0.0015(7) -0.0049(7)
N1 0.0131(9) 0.0127(9) 0.0101(9) 0.0000(7) -0.0014(7) -0.0045(7)
N2 0.0126(8) 0.0088(9) 0.0111(9) -0.0005(7) -0.0009(7) -0.0029(7)
C1 0.0159(10) 0.0148(11) 0.0171(11) 0.0012(9) -0.0044(9) -0.0059(9)
C2 0.0154(11) 0.0172(12) 0.0223(13) 0.0068(10) -0.0047(10) -0.0079(9)
C3 0.0154(10) 0.0188(12) 0.0151(11) 0.0035(9) 0.0022(9) -0.0049(9)
C4 0.0178(11) 0.0152(11) 0.0103(10) 0.0002(9) 0.0000(9) -0.0041(9)
C5 0.0118(10) 0.0109(10) 0.0107(10) 0.0013(8) -0.0020(8) -0.0009(8)
C6 0.0131(10) 0.0086(10) 0.0107(10) 0.0002(8) -0.0015(8) -0.0001(8)
C7 0.0185(11) 0.0175(12) 0.0109(11) -0.0026(9) -0.0017(9) -0.0056(9)
C8 0.0191(11) 0.0188(12) 0.0144(11) -0.0031(9) -0.0060(9) -0.0047(10)
C9 0.0149(10) 0.0148(11) 0.0189(12) -0.0011(9) -0.0049(9) -0.0059(9)
C10 0.0134(10) 0.0118(11) 0.0131(10) 0.0021(8) -0.0039(9) -0.0033(8)
loop_
_atom_type_symbol
_atom_type_description
_atom_type_scat_dispersion_real
_atom_type_scat_dispersion_imag
_atom_type_scat_source
C C 0.0033 0.0016 'International Tables Vol C Tables 4.2.6.8 and 6.1.1.4'
H H 0.0000 0.0000 'International Tables Vol C Tables 4.2.6.8 and 6.1.1.4'
N N 0.0061 0.0033 'International Tables Vol C Tables 4.2.6.8 and 6.1.1.4'
O O 0.0106 0.0060 'International Tables Vol C Tables 4.2.6.8 and 6.1.1.4'
P P 0.1023 0.0942 'International Tables Vol C Tables 4.2.6.8 and 6.1.1.4'
Co Co 0.3494 0.9721 'International Tables Vol C Tables 4.2.6.8 and 6.1.1.4'
loop_
_geom_angle_atom_site_label_1
_geom_angle_atom_site_label_2
_geom_angle_atom_site_label_3
_geom_angle
_geom_angle_site_symmetry_1
_geom_angle_site_symmetry_3
O3 Co1 O5 92.71(7) 2_676 .
O3 Co1 N1 173.65(7) 2_676 .
O5 Co1 N1 92.88(7) . .
O3 Co1 O1W 90.56(6) 2_676 .
O5 Co1 O1W 89.44(6) . .
N1 Co1 O1W 86.46(7) . .
O3 Co1 N2 97.02(7) 2_676 .
O5 Co1 N2 170.11(7) . .
N1 Co1 N2 77.32(7) . .
O1W Co1 N2 88.64(7) . .
O3 Co1 O1 89.69(6) 2_676 .
O5 Co1 O1 91.53(6) . .
N1 Co1 O1 93.19(6) . .
O1W Co1 O1 178.98(6) . .
N2 Co1 O1 90.34(7) . .
O3 Co1 Co1 54.42(4) 2_676 2_676
O5 Co1 Co1 78.02(5) . 2_676
N1 Co1 Co1 129.96(5) . 2_676
O1W Co1 Co1 141.45(5) . 2_676
N2 Co1 Co1 109.22(5) . 2_676
O1 Co1 Co1 39.18(4) . 2_676
O3 P1 O1 116.94(9) . .
O3 P1 O2 110.99(9) . .
O1 P1 O2 108.12(9) . .
O3 P1 O4 108.88(9) . .
O1 P1 O4 107.95(9) . .
O2 P1 O4 103.02(9) . .
O5 P2 O7 117.66(9) . .
O5 P2 O6 112.15(9) . .
O7 P2 O6 107.49(9) . .
O5 P2 O4 108.66(9) . .
O7 P2 O4 104.25(9) . .
O6 P2 O4 105.73(9) . .
P1 O1 Co1 132.18(10) . .
P1 O2 H2O 109.5 . .
P1 O3 Co1 141.39(10) . 2_676
P1 O4 P2 131.83(10) . .
P2 O5 Co1 130.71(10) . .
P2 O6 H6O 109.5 . .
Co1 O1W H1WA 118.8(19) . .
Co1 O1W H1WB 113.9(19) . .
H1WA O1W H1WB 110(3) . .
H2WA O2W H2WB 103(3) . .
C1 N1 C5 118.8(2) . .
C1 N1 Co1 124.99(16) . .
C5 N1 Co1 116.13(15) . .
C10 N2 C6 118.7(2) . .
C10 N2 Co1 125.26(15) . .
C6 N2 Co1 116.00(15) . .
N1 C1 C2 122.6(2) . .
N1 C1 H1A 118.7 . .
C2 C1 H1A 118.7 . .
C3 C2 C1 118.6(2) . .
C3 C2 H2A 120.7 . .
C1 C2 H2A 120.7 . .
C2 C3 C4 119.4(2) . .
C2 C3 H3A 120.3 . .
C4 C3 H3A 120.3 . .
C3 C4 C5 119.1(2) . .
C3 C4 H4A 120.5 . .
C5 C4 H4A 120.5 . .
N1 C5 C4 121.4(2) . .
N1 C5 C6 115.09(19) . .
C4 C5 C6 123.5(2) . .
N2 C6 C7 121.7(2) . .
N2 C6 C5 115.4(2) . .
C7 C6 C5 122.9(2) . .
C8 C7 C6 119.3(2) . .
C8 C7 H7A 120.3 . .
C6 C7 H7A 120.3 . .
C9 C8 C7 118.9(2) . .
C9 C8 H8A 120.6 . .
C7 C8 H8A 120.6 . .
C10 C9 C8 118.9(2) . .
C10 C9 H9A 120.6 . .
C8 C9 H9A 120.6 . .
N2 C10 C9 122.5(2) . .
N2 C10 H10A 118.8 . .
C9 C10 H10A 118.8 . .
loop_
_geom_bond_atom_site_label_1
_geom_bond_atom_site_label_2
_geom_bond_distance
_geom_bond_site_symmetry_2
Co1 O3 2.0512(15) 2_676
Co1 O5 2.0629(16) .
Co1 N1 2.1114(19) .
Co1 O1W 2.1134(16) .
Co1 N2 2.1161(19) .
Co1 O1 2.1832(15) .
Co1 Co1 5.3065(8) 2_676
P1 O3 1.4908(16) .
P1 O1 1.5130(16) .
P1 O2 1.5602(16) .
P1 O4 1.6040(17) .
P2 O5 1.4939(16) .
P2 O7 1.4988(17) .
P2 O6 1.5595(16) .
P2 O4 1.6123(16) .
O2 H2O 0.8400 .
O3 Co1 2.0512(15) 2_676
O6 H6O 0.8400 .
O1W H1WA 0.829(17) .
O1W H1WB 0.832(17) .
O2W H2WA 0.816(17) .
O2W H2WB 0.818(17) .
N1 C1 1.342(3) .
N1 C5 1.356(3) .
N2 C10 1.347(3) .
N2 C6 1.350(3) .
C1 C2 1.386(3) .
C1 H1A 0.9500 .
C2 C3 1.385(4) .
C2 H2A 0.9500 .
C3 C4 1.386(3) .
C3 H3A 0.9500 .
C4 C5 1.393(3) .
C4 H4A 0.9500 .
C5 C6 1.486(3) .
C6 C7 1.392(3) .
C7 C8 1.388(3) .
C7 H7A 0.9500 .
C8 C9 1.388(3) .
C8 H8A 0.9500 .
C9 C10 1.387(3) .
C9 H9A 0.9500 .
C10 H10A 0.9500 .
loop_
_geom_hbond_atom_site_label_D
_geom_hbond_atom_site_label_H
_geom_hbond_atom_site_label_A
_geom_hbond_distance_DH
_geom_hbond_distance_HA
_geom_hbond_distance_DA
_geom_hbond_angle_DHA
_geom_hbond_site_symmetry_A
O1W H1WA O2W 0.829(17) 1.877(18) 2.699(2) 171(3) 1_655
O1W H1WB O7 0.832(17) 1.948(18) 2.757(2) 164(3) 2_666
O2W H2WA O7 0.816(17) 2.065(18) 2.879(2) 175(3) .
O2W H2WB O5 0.818(17) 2.43(2) 3.123(2) 143(3) 2_666
O2 H2O O7 0.84 1.77 2.607(2) 173.9 2_576
O6 H6O O1 0.84 1.75 2.585(2) 170.3 2_676
