#------------------------------------------------------------------------------
#$Date: 2015-06-05 06:13:48 +0300 (Fri, 05 Jun 2015) $
#$Revision: 138165 $
#$URL: svn://www.crystallography.net/cod/cif/4/34/30/4343035.cif $
#------------------------------------------------------------------------------
#
# This file is available in the Crystallography Open Database (COD),
# http://www.crystallography.net/
#
# All data on this site have been placed in the public domain by the
# contributors.
#
data_4343035
loop_
_publ_author_name
'Nawa, Kazuhiro'
'Yajima, Takeshi'
'Okamoto, Yoshihiko'
'Hiroi, Zenji'
_publ_section_title
;
 Orbital Arrangements and Magnetic Interactions in the
 Quasi-One-Dimensional Cuprates ACuMoO4(OH) (A = Na, K).
;
_journal_issue                   11
_journal_name_full               'Inorganic chemistry'
_journal_page_first              5566
_journal_page_last               5570
_journal_paper_doi               10.1021/acs.inorgchem.5b00686
_journal_volume                  54
_journal_year                    2015
_chemical_formula_moiety         'Cu H K Mo O5'
_chemical_formula_sum            'Cu H K Mo O5'
_chemical_formula_weight         279.59
_space_group_crystal_system      orthorhombic
_space_group_IT_number           62
_space_group_name_Hall           '-P 2ac 2n'
_space_group_name_H-M_alt        'P n m a'
_symmetry_space_group_name_Hall  '-P 2ac 2n'
_symmetry_space_group_name_H-M   'P n m a'
_atom_sites_solution_primary     direct
_atom_sites_solution_secondary   difmap
_cell_angle_alpha                90.0000
_cell_angle_beta                 90.0000
_cell_angle_gamma                90.0000
_cell_formula_units_Z            4
_cell_length_a                   7.98385(17)
_cell_length_b                   6.31560(14)
_cell_length_c                   9.5641(4)
_cell_measurement_reflns_used    4262
_cell_measurement_temperature    296
_cell_measurement_theta_max      27.47
_cell_measurement_theta_min      3.23
_cell_volume                     482.25(3)
_computing_cell_refinement       'RAPID AUTO'
_computing_data_collection       'RAPID AUTO (Rigaku, ????)'
_computing_data_reduction        'RAPID AUTO'
_computing_molecular_graphics    'CrystalStructure 4.1'
_computing_publication_material  'CrystalStructure 4.1 (Rigaku, 2014)'
_computing_structure_refinement  'SHELXL2013 (Sheldrick, 2008)'
_computing_structure_solution    'SHELXS2013 (Sheldrick, 2008)'
_diffrn_ambient_temperature      296
_diffrn_detector_area_resol_mean 10.000
_diffrn_measured_fraction_theta_full 1.000
_diffrn_measured_fraction_theta_max 1.000
_diffrn_measurement_device_type  'Rigaku R-AXIS RAPID'
_diffrn_measurement_method       \w
_diffrn_radiation_type           'Mo K\a'
_diffrn_radiation_wavelength     0.71075
_diffrn_reflns_av_R_equivalents  0.0241
_diffrn_reflns_laue_measured_fraction_full 1.000
_diffrn_reflns_laue_measured_fraction_max 1.000
_diffrn_reflns_limit_h_max       10
_diffrn_reflns_limit_h_min       -10
_diffrn_reflns_limit_k_max       8
_diffrn_reflns_limit_k_min       -7
_diffrn_reflns_limit_l_max       12
_diffrn_reflns_limit_l_min       -12
_diffrn_reflns_number            4489
_diffrn_reflns_point_group_measured_fraction_full 1.000
_diffrn_reflns_point_group_measured_fraction_max 1.000
_diffrn_reflns_theta_full        25.242
_diffrn_reflns_theta_max         27.469
_diffrn_reflns_theta_min         3.324
_diffrn_standards_number         0
_exptl_absorpt_coefficient_mu    7.788
_exptl_absorpt_correction_T_max  0.677
_exptl_absorpt_correction_T_min  0.443
_exptl_absorpt_correction_type   multi-scan
_exptl_absorpt_process_details   'ABSCOR (Rigaku, 1995)'
_exptl_crystal_colour            green
_exptl_crystal_density_diffrn    3.851
_exptl_crystal_density_method    'not measured'
_exptl_crystal_description       block
_exptl_crystal_F_000             524.00
_exptl_crystal_size_max          0.100
_exptl_crystal_size_mid          0.080
_exptl_crystal_size_min          0.050
_refine_diff_density_max         0.78
_refine_diff_density_min         -1.29
_refine_ls_extinction_method     none
_refine_ls_goodness_of_fit_ref   1.245
_refine_ls_hydrogen_treatment    undef
_refine_ls_number_parameters     46
_refine_ls_number_reflns         608
_refine_ls_number_restraints     0
_refine_ls_R_factor_all          0.0211
_refine_ls_R_factor_gt           0.0204
_refine_ls_shift/su_max          0.000
_refine_ls_structure_factor_coef Fsqd
_refine_ls_weighting_details
'w = 1/[\s^2^(Fo^2^)+(0.0318P)^2^+0.3588P] where P=(Fo^2^+2Fc^2^)/3'
_refine_ls_weighting_scheme      calc
_refine_ls_wR_factor_gt          0.0527
_refine_ls_wR_factor_ref         0.0531
_reflns_number_gt                586
_reflns_number_total             608
_reflns_threshold_expression     F^2^>2.0\s(F^2^)
_cod_data_source_file            ic5b00686_si_002.cif
_cod_data_source_block           150309_KCuMoO4
_cod_depositor_comments          'Adding full bibliography for 4343035.cif.'
_cod_database_code               4343035
_shelxl_res_file
;

    shelxl.res created by SHELXL-2014/7

TITL 150309_KCuMoO4
CELL  0.71075 7.98385 6.31560 9.56414 90.00000 90.00000 90.00000
ZERR  4 0.00017 0.00014 0.00040 0.00000 0.00000 0.00000
LATT 1
SYMM .50-X, .50+Y, .50+Z
SYMM    +X, .50-Y,    +Z
SYMM .50-X,    -Y, .50+Z
SFAC K CU MO O H
UNIT 4 4 4 20 4
L.S. 10
FMAP 2
PLAN -10
WPDB -2
HTAB
BOND $H
CONF
LIST 4
TEMP 23.0
ACTA
SIZE 0.050 0.080 0.100
WGHT    0.031800    0.358800
FVAR       0.93105
MO1   3    0.111525    0.750000    0.200634    10.50000    0.00605    0.00793 =
         0.00826    0.00000    0.00100    0.00000
CU1   2    0.500000    0.000000    0.000000    10.50000    0.00976    0.00717 =
         0.00878   -0.00047   -0.00132    0.00187
K1    1    0.374451    0.250000    0.331604    10.50000    0.01323    0.01892 =
         0.01212    0.00000    0.00194    0.00000
O1    4    0.291871    0.750000    0.094220    10.50000    0.01168    0.01757 =
         0.01386    0.00000    0.00294    0.00000
O2    4    0.103891    0.515937    0.304919    11.00000    0.01392    0.01044 =
         0.01229   -0.00010    0.00277   -0.00078
O3    4    0.940617    0.750000    0.086928    10.50000    0.01057    0.03435 =
         0.01732    0.00000   -0.00439    0.00000
O4    4    0.379194    0.250000    0.053754    10.50000    0.00889    0.00948 =
         0.01036    0.00000   -0.00093    0.00000
HKLF 4

REM  150309_KCuMoO4
REM R1 =  0.0204 for     586 Fo > 4sig(Fo)  and  0.0211 for all     608 data
REM     46 parameters refined using      0 restraints

END

WGHT      0.0318      0.3588

REM No hydrogen bonds found for HTAB generation

REM Highest difference peak  0.781,  deepest hole -1.294,  1-sigma level  0.276
Q1    1   0.2087  0.7500  0.5101  10.50000  0.05    0.78
Q2    1   0.3981  0.8952  0.5029  11.00000  0.05    0.58
Q3    1   0.0028  1.1041  0.3820  11.00000  0.05    0.53
Q4    1   0.1188  1.1160  0.4072  11.00000  0.05    0.53
Q5    1   0.1237  0.6450  0.0409  11.00000  0.05    0.51
Q6    1   0.0235  1.1074  0.3328  11.00000  0.05    0.51
Q7    1   0.0963  1.1395  0.3270  11.00000  0.05    0.50
Q8    1   0.1000  0.8553  0.3076  11.00000  0.05    0.49
Q9    1  -0.2189  0.8556  0.3128  11.00000  0.05    0.49
Q10   1  -0.0073  0.9024  0.3828  11.00000  0.05    0.49
;
_shelxl_hkl_file
;
   0   0  -2 1348.55   29.00
   0   0   2 1422.77   30.48
   0   0  -3    2.65    4.02
   0   0   3    6.53    4.26
   0   0  -4 7004.15  168.62
   0   0   4 7036.83  164.60
   0   0   5    3.97    9.12
   0   0  -5    5.51    5.80
   0   0   611741.47  301.76
   0   0  -612131.36  309.45
   0   0   7   -0.39    5.21
   0   0  -7    0.19    5.31
   0   0  -8 2336.40   72.82
   0   0   8 2276.45   70.07
   0   0  -9   -0.07    9.16
   0   0   9    3.16    9.33
   0   0  1011201.88  326.58
   0   0 -1011748.75  338.67
   0   0  11    0.92   13.40
   0   0 -11    4.95   13.63
   0   0 -12   65.81   25.30
   0   0  12   65.91   26.93
   0  -1   0    0.14    1.73
   0  -1   0   -0.41    0.71
   0   1   0    8.66    1.87
   0  -1   1 9402.06  202.40
   0  -1  -1 9861.60  206.85
   0   1  -1 9513.13  204.73
   0   1   110013.39  210.42
   0   1  -2   10.59    3.94
   0   1   2   -0.07    3.37
   0  -1  -2    9.73    3.01
   0  -1   2    3.60    4.18
   0   1  -3 2183.74   50.89
   0  -1   3 2115.21   54.58
   0   1   3 2103.00   47.99
   0  -1  -3 2041.16   46.17
   0  -1  -4    8.36    4.73
   0   1  -4    6.08    5.92
   0  -1   4   17.89    5.92
   0   1   4    1.68    5.02
   0  -1  -5  793.06   30.52
   0   1   5  782.80   25.35
   0   1  -5  836.51   27.87
   0  -1   5  775.79   26.77
   0  -1   6    3.33   10.36
   0   1  -6    2.51    6.86
   0   1   6    5.08    6.23
   0  -1  -6    1.03    6.05
   0  -1  -7    0.06   14.54
   0   1  -7   36.72   10.31
   0  -1   7   15.47   10.47
   0   1   7   10.35    9.54
   0  -1   8    1.75    9.60
   0  -1  -8    1.41    8.67
   0   1  -8    6.25    9.93
   0   1   8    6.45    9.02
   0  -1  -9 5415.14  154.50
   0   1   9 5431.70  157.60
   0  -1   9 5276.45  157.71
   0   1  -9 5742.57  166.98
   0   1  10    5.17   11.00
   0   1 -10   -0.26   11.84
   0  -1 -10   -0.08   10.19
   0  -1  10    2.28   11.65
   0  -1  11 5070.31  164.85
   0  -1 -11 5097.46  179.06
   0   1  11 5041.20  163.13
   0   1 -11 5534.49  175.76
   0  -1 -12    3.85   15.13
   0   1  12   14.39   26.61
   0   1 -12   -5.00   16.68
   0  -1  12    9.88   16.47
   0   2   012495.08  286.76
   0   2   012152.67  255.59
   0  -2   012285.67  258.43
   0   2   1    1.90    3.02
   0  -2   1    4.29    3.57
   0  -2   1    0.74    2.13
   0   2  -1    2.66    3.54
   0  -2  -217900.78  427.89
   0   2   217968.15  430.75
   0  -2   217591.80  432.55
   0   2  -217668.48  432.49
   0   2   3   -0.07    3.59
   0   2  -3    4.06    7.12
   0  -2  -3    2.16    3.43
   0  -2   3    2.87    4.49
   0  -2  -4 7248.40  171.58
   0  -2   4 7163.52  177.23
   0   2  -4 7256.27  178.05
   0   2   4 7566.61  180.64
   0  -2  -5    1.74    5.69
   0  -2   5    2.69    7.42
   0   2  -5    3.44    7.29
   0   2   5   19.61    6.49
   0   2   6 1757.97   51.81
   0  -2  -6 1689.49   49.39
   0  -2   6 1702.32   53.61
   0   2  -6 1813.50   56.20
   0   2   7   -0.77    7.65
   0  -2  -7    4.60    7.15
   0   2  -7    2.55    9.23
   0  -2   7    8.82    9.05
   0  -2  -812491.67  342.59
   0   2  -813714.32  380.23
   0  -2   812596.49  355.06
   0   2   812873.70  352.46
   0  -2   9   57.22   15.13
   0  -2  -9    1.64   12.25
   0   2  -9   24.04   23.64
   0   2   9    0.06   12.93
   0  -2  10   55.29   19.65
   0   2 -10   15.74   19.35
   0  -2 -10   90.21   17.07
   0   2  10   11.04   17.25
   0   2 -11   -0.29   15.50
   0  -2 -11   -1.10   12.58
   0   2  11    5.35   13.56
   0  -2  11    7.89   14.58
   0   2  12 2144.50   91.12
   0  -2 -12 2100.30  102.97
   0   2 -12 2265.21   97.01
   0  -2  12 1903.88   88.68
   0   3   0    2.32    4.18
   0   3   0    1.61    1.51
   0  -3   1 4236.67  101.30
   0   3   1 4343.65   88.18
   0   3   1 4283.53  100.59
   0   3   1 4300.44   99.11
   0  -3   1 4229.99   83.72
   0   3  -1 4196.51  100.14
   0   3   2   -0.04    4.45
   0  -3   2    6.12    2.30
   0  -3   2   -1.79    5.39
   0   3   3 1415.67   37.88
   0   3  -3 1446.00   41.40
   0  -3   3 1385.17   40.62
   0  -3   4    6.44    7.37
   0   3  -4    5.27    6.92
   0   3   4    2.62    5.62
   0  -3  -4    4.38    5.28
   0   3   5  569.99   23.60
   0  -3   5  547.30   26.08
   0  -3  -5  541.42   21.40
   0   3  -5  563.34   26.06
   0   3   6   -4.71    4.78
   0  -3   6    7.58    5.87
   0  -3  -6   -0.61    4.15
   0   3  -6    1.14    5.96
   0  -3   7   29.04   14.02
   0   3  -7   29.42   14.02
   0   3   7   19.90   11.21
   0  -3  -7   21.55   15.41
   0   3  -8    2.26   12.59
   0  -3   8   12.04   12.00
   0  -3  -8    9.63    9.04
   0   3   8   -2.53   10.08
   0   3   9 3829.81  117.71
   0  -3   9 3724.33  138.06
   0  -3  -9 3467.84  106.36
   0   3  -9 4009.90  127.79
   0   3 -10  133.33   21.30
   0  -3  10   -0.85   31.38
   0  -3 -10   -1.52   15.08
   0   3  10   16.74   17.12
   0   3  11 3944.57  152.81
   0  -3 -11 3608.34  120.96
   0  -3  11 3673.59  133.94
   0   3 -11 4176.81  145.60
   0   4   053287.94 1543.99
   0   4   051708.40 1399.12
   0   4   1    4.34    2.27
   0   4   1    0.25    5.84
   0  -4   1    1.71    1.94
   0   4   1    1.68    5.24
   0   4  -1    1.37    6.41
   0   4  -2  459.91   20.83
   0   4   2  456.71   13.18
   0   4   2  471.96   19.05
   0  -4   2  450.16   11.82
   0  -4   2  433.62   21.10
   0   4   3    2.19    5.62
   0  -4   3    2.54    4.37
   0  -4   3    1.35    7.08
   0   4  -3    2.58    6.96
   0   4  -4 4518.26  123.04
   0   4   4 4661.96  120.91
   0  -4   4 4413.76  131.39
   0  -4   4 4371.14  100.46
   0  -4  -5    6.54    6.70
   0   4  -5    2.42    9.18
   0   4   5    2.62   11.51
   0  -4   5    2.07    9.30
   0  -4   6 7560.05  215.83
   0  -4  -6 7100.61  198.68
   0   4   6 7785.21  210.36
   0   4  -6 7580.03  211.95
   0   4  -7    2.38   15.47
   0  -4  -7    2.85    7.21
   0  -4   7   -0.75   10.38
   0   4   7    0.20    8.38
   0  -4   8 1346.87   59.28
   0   4   8 1367.27   53.50
   0   4  -8 1433.04   78.24
   0  -4  -8 1330.36   49.32
   0  -4  -9    5.16   11.30
   0  -4   9   22.74   16.04
   0   4  -9   -1.05   16.18
   0   4   9    2.88   12.83
   0   4  10 7650.72  232.35
   0  -4  10 7479.66  242.68
   0  -4 -10 7049.32  212.18
   0   4 -10 8033.40  253.92
   0   5   0    1.12    6.40
   0   5   1 4296.60  113.74
   0   5   1 4364.52  117.94
   0   5   1 4292.72   91.39
   0   5  -1 4265.42  117.56
   0   5   2    1.04    2.87
   0  -5   2    2.10    3.61
   0   5   2   -0.25    7.12
   0   5   2    0.12    6.58
   0   5  -2    4.98    7.65
   0  -5   2    4.54    7.62
   0  -5   3 1660.59   37.94
   0  -5   3 1655.55   57.10
   0   5   3 1662.33   44.88
   0   5   3 1755.56   61.56
   0   5  -3 1667.54   56.16
   0  -5   4    4.92    5.82
   0  -5   4   -1.94   10.24
   0   5   4    4.52    7.65
   0   5  -4    4.09   15.10
   0   5  -5  290.12   24.92
   0   5   5  257.70   19.99
   0  -5   5  246.60   12.24
   0  -5   5  220.51   24.85
   0   5  -6    0.15    9.54
   0  -5   6    0.19    9.95
   0   5   6   -0.09    7.73
   0  -5   6   -1.09    4.53
   0  -5   7   -0.08   20.79
   0   5   7   -0.72   26.22
   0  -5   7   73.93   10.84
   0   5  -7   72.40   20.52
   0   5   8   -0.67    8.11
   0  -5  -8    4.92    6.55
   0  -5   8   -0.39    9.89
   0   5  -8   -2.37   10.09
   0  -5   8   -1.99    5.29
   0  -5   9 3254.86  122.72
   0   5   9 3325.68  113.56
   0   5  -9 3505.16  128.36
   0  -5  -9 3034.04   99.77
   0   6   0 2437.18   88.40
   0   6   1   -4.46   10.24
   0   6   1    9.44    6.87
   0   6   1   -0.57    3.06
   0   6  -1   -3.21    7.08
   0   6  -2 8464.13  238.91
   0   6   2 8566.17  235.25
   0   6   2 8308.54  190.86
   0   6   2 8593.37  239.55
   0  -6   3   -0.29   10.10
   0   6   3    2.37    3.91
   0  -6   3    2.34    2.91
   0   6   3   -3.90   13.27
   0   6  -3   -2.97    9.89
   0   6   3    1.14    9.05
   0   6   4 1626.12   57.50
   0  -6   4 1504.38   60.69
   0  -6   4 1565.45   38.48
   0   6   4 1526.20   41.80
   0   6   4 1606.41   58.87
   0   6  -4 1589.55   61.35
   0  -6   5   -1.27   12.03
   0  -6   5    1.46    4.21
   0   6   5    1.28    9.40
   0   6   5    0.78    5.42
   0   6  -5    3.63   17.58
   0  -6   6  380.31   23.32
   0   6   6  410.01   30.16
   0  -6   6  395.45   35.66
   0   6   6  387.89   21.52
   0   6  -6  397.76   50.78
   0   6   7    1.80   11.22
   0  -6   7   -0.31    8.97
   0   6  -7    9.64   20.98
   0  -6   7   -0.11   14.11
   0   6   8 6192.90  193.72
   0   6  -8 6390.23  230.94
   0  -6   8 6016.51  162.16
   0  -6   8 5924.09  203.06
   0   7   0   -0.71   10.44
   0   7   0    7.07   11.12
   0   7  -1 1129.54   50.52
   0   7   1 1202.99   51.81
   0   7   1 1201.60   50.91
   0   7   2    1.92   10.91
   0   7   2    3.37   11.46
   0   7  -2    4.86   12.41
   0   7   3  735.86   38.87
   0   7  -3  689.22   58.73
   0   7   3  707.14   39.67
   0   7   4   -0.00   18.74
   0   7   4    2.52    5.08
   0   7  -4   11.67   20.83
   0   7   4   -0.74   11.09
   0   7  -5  137.25   43.29
   0   7   5  138.07   18.25
   0   7   5  135.06   24.04
   0   7   5  173.42   25.35
   0  -7   5  125.49   29.10
   0  -7   6    0.22   12.31
   0   7   6    0.53   15.69
   0   7  -6    1.14   19.22
   0   7   6   -0.00   10.67
   0   8   013210.37  394.53
   0   8   012871.51  391.96
   0   8  -1   -6.05   12.94
   0   8   1   -2.15   12.77
   0   8   1   -1.39   12.16
   0   8  -1    3.78   12.97
   0   8   2  192.13   27.17
   0   8   2  180.42   27.73
   0   8  -2  181.20   29.70
   1   0  -1 4345.71   79.65
  -1   0  -1 4200.52   82.18
   1   0   1 3967.63   78.68
  -1   0   1 4465.38   81.79
   1   0  -2  385.03   10.38
  -1   0   2  367.84   10.14
   1   0   2  367.26   11.70
   1   0  -323995.93  591.81
  -1   0   324721.87  606.42
  -1   0  -323567.85  591.83
   1   0   322666.16  571.91
   1   0   4   73.43    8.80
   1   0  -4   99.78    7.87
  -1   0  -4   78.93    8.61
  -1   0   4   67.65    7.21
   1   0   5  266.81   15.00
   1   0  -5  282.34   14.05
  -1   0   5  276.71   13.71
  -1   0  -5  300.53   15.38
   1   0  -6 1959.87   54.71
  -1   0   6 1956.65   54.01
  -1   0  -6 2017.05   57.35
   1   0   6 1917.97   55.63
  -1   0   7 7916.74  213.01
   1   0  -7 7950.92  207.61
  -1   0  -7 7879.40  208.13
   1   0   7 7570.85  212.18
  -1   0  -8 1917.72   63.01
   1   0   8 1886.31   62.87
   1   0  -8 1927.96   61.99
  -1   0   8 1885.33   60.27
  -1   0   9 1760.19   62.20
  -1   0  -9 1824.50   64.71
   1   0  -9 1852.99   64.18
   1   0   9 1685.65   63.07
   1   0  10  287.28   29.74
  -1   0  10  305.05   27.82
  -1   0 -10  309.49   29.59
   1   0 -10  298.01   27.80
  -1   0 -11  252.30   31.37
   1   0  11  249.73   31.27
   1   0 -11  263.77   44.05
  -1   0  11  241.36   30.12
  -1   0  12   91.57   45.23
   1   0 -12  151.51   27.66
   1   0  12  101.11   29.74
  -1   0 -12  125.49   28.02
   1  -1   0    3.34    1.61
   1  -1   0    7.22    2.36
  -1   1   0    5.15    1.48
  -1  -1   0    8.68    1.13
   1   1   0    8.06    0.74
  -1   1   0   12.29    2.60
  -1   1  -1 1626.38   33.12
   1   1   1 1668.82   35.02
  -1  -1   1 1626.88   34.51
  -1   1  -1 1621.62   33.21
   1  -1  -1 1705.26   29.71
  -1   1   1 1721.97   30.23
  -1  -1  -1 1676.52   35.04
   1  -1   1 1573.83   32.41
   1   1  -1 1686.07   38.24
   1  -1   1 1624.46   32.56
   1   1   2 2123.77   46.89
  -1  -1   2 2085.31   45.89
  -1   1  -2 2113.69   46.89
   1  -1  -2 2106.25   41.37
   1   1  -2 2070.33   45.62
   1  -1   2 2023.88   45.84
  -1   1   2 1995.85   39.97
  -1  -1  -2 2056.09   48.84
   1  -1  -310588.45  239.28
  -1  -1   310792.71  252.11
  -1   1  -311398.93  267.00
   1   1   310810.65  254.24
   1  -1   310581.50  251.17
  -1  -1  -310627.50  248.55
  -1   1   310731.52  242.88
   1   1  -311260.26  266.22
  -1   1  -4  467.16   18.04
   1   1   4  475.60   18.07
  -1  -1   4  474.89   17.14
   1  -1  -4  456.96   15.30
   1   1  -4  478.32   17.36
  -1   1   4  466.57   15.50
  -1  -1  -4  435.15   16.47
   1  -1   4  457.80   23.29
   1   1   5 4470.91  111.61
  -1   1  -5 4441.75  111.91
   1  -1  -5 4285.22  104.41
  -1  -1   5 4477.58  110.94
  -1  -1  -5 4402.10  108.92
   1   1  -5 4668.60  115.28
   1  -1   5 4332.52  116.51
  -1   1   5 4506.34  107.97
  -1   1  -6 4853.98  126.10
  -1  -1   6 4729.34  121.95
   1  -1  -6 4517.62  114.82
   1   1   6 4606.47  128.20
   1  -1   6 4514.65  120.63
   1   1  -6 4906.42  126.12
  -1   1   6 4737.98  125.23
  -1  -1  -6 4538.11  117.57
   1   1   7  877.53   35.07
   1  -1  -7  975.11   33.80
  -1   1  -7  965.14   46.65
  -1  -1   7  881.60   33.96
  -1  -1  -7  903.97   34.21
   1   1  -7  945.69   36.33
  -1   1   7  927.57   33.33
   1  -1   7  884.23   35.72
   1   1   8 2552.97   79.47
   1  -1  -8 2642.37   78.34
  -1  -1   8 2569.01   79.17
  -1   1  -8 2693.08   83.84
   1  -1   8 2562.33   81.90
  -1  -1  -8 2586.22   79.46
  -1   1   8 2609.49   77.77
   1   1  -8 2761.22   83.77
   1   1   9   46.11   14.70
   1  -1  -9   -1.04   19.13
  -1   1  -9    0.36   15.55
  -1  -1   9   38.53   14.41
   1  -1   9   37.29   15.41
   1   1  -9   43.04   22.67
  -1  -1  -9   -0.52   13.89
  -1   1   9   33.55   20.11
  -1   1 -10  163.51   23.97
   1  -1 -10  117.70   20.19
  -1  -1  10  147.99   22.60
   1   1  10  110.42   22.77
   1  -1  10  152.30   24.19
   1   1 -10  144.51   23.21
  -1  -1 -10   -1.95   32.08
  -1   1  10  128.54   20.73
   1  -1 -11  590.58   37.83
  -1  -1  11  646.77   57.16
  -1   1 -11  592.99   43.21
   1   1  11  532.46   40.66
  -1  -1 -11  537.39   38.75
   1   1 -11  598.74   42.21
   1  -1  11  549.62   42.66
  -1   1  11  586.57   39.82
  -1  -1  12  288.50   36.13
   1  -1 -12  276.45   30.60
   1   1  12  220.05   35.97
  -1   1 -12  273.40   36.69
   1  -1  12  249.90   52.64
   1   1 -12  261.54   34.73
  -1   1  12  289.24   35.47
  -1  -1 -12  250.90   32.84
  -1   2   0    3.53    2.30
   1   2   0    5.86    4.12
   1  -2   0    6.60    2.47
   1  -2   0    1.90    2.88
  -1   2   0    3.10    2.70
  -1   2  -119333.58  467.34
   1   2   119396.52  473.46
  -1  -2   119007.33  468.73
  -1   2  -119837.33  466.61
  -1   2   120469.61  479.59
  -1   2   119274.36  457.04
   1   2  -118909.20  464.72
   1  -2   119888.58  466.83
   1  -2   119441.48  469.67
   1   2   2 2678.34   61.69
   1  -2  -2 2675.18   56.02
  -1   2  -2 2682.39   62.08
  -1  -2   2 2552.77   60.70
  -1   2   2 2744.42   59.42
  -1  -2  -2 2738.34   62.35
   1   2  -2 2605.47   61.48
   1  -2   2 2585.50   55.56
   1  -2   2 2639.91   61.32
   1  -2  -3 2521.04   58.72
   1   2   3 2559.60   61.82
  -1   2  -3 2514.14   61.58
  -1  -2   3 2528.59   62.52
  -1   2   3 2560.11   56.86
  -1  -2  -3 2535.35   65.05
   1  -2   3 2496.53   62.10
   1   2  -3 2651.41   64.49
  -1  -2   4 1331.90   44.50
   1   2   4 1388.66   38.32
   1  -2  -4 1329.98   33.79
  -1   2  -4 1391.94   39.49
  -1  -2  -4 1337.83   37.23
  -1   2   4 1360.51   34.76
   1  -2   4 1324.93   39.09
   1   2  -4 1420.93   40.37
   1   2   525605.41  688.71
  -1   2  -526759.13  719.15
  -1  -2   524255.29  656.19
   1  -2  -524868.66  651.91
   1   2  -526366.21  705.65
  -1   2   525595.98  673.51
   1  -2   524547.14  669.01
  -1  -2  -525030.65  668.41
   1   2   6 4360.17  116.09
   1  -2  -6 4054.43  104.07
  -1  -2   6 4118.58  111.34
  -1   2  -6 4437.79  118.85
  -1  -2  -6 4041.35  107.12
  -1   2   6 4136.44  106.39
   1  -2   6 4182.34  115.77
   1   2  -6 4543.31  121.09
  -1  -2   7   55.15   13.56
   1  -2  -7   72.97   10.89
   1   2   7   61.20   20.03
  -1   2  -7   55.78   14.49
   1   2  -7   57.21   14.58
  -1   2   7   45.35   11.36
   1  -2   7   60.92   14.56
  -1  -2  -7   58.53   19.34
  -1   2  -8 2531.90   93.44
   1   2   8 2371.71   89.07
   1  -2  -8 2196.05   67.98
  -1  -2   8 2340.54   77.03
   1  -2   8 2305.00   78.69
  -1   2   8 2360.72   72.24
  -1  -2  -8 2349.89   73.95
   1   2  -8 2596.45   82.18
   1  -2  -9 2361.15   76.08
  -1  -2   9 2420.88   82.69
  -1   2  -9 2546.56   87.31
   1   2   9 2506.04   97.59
   1   2  -9 2668.74   89.17
  -1   2   9 2512.41   80.53
  -1  -2  -9 2458.78   80.85
   1  -2   9 2325.43   85.11
  -1  -2  10  138.91   24.20
  -1   2 -10  147.01   26.01
   1   2  10  142.89   23.97
   1  -2 -10  116.58   20.10
   1  -2  10  150.72   25.56
  -1  -2 -10  111.28   22.06
   1   2 -10  136.86   24.48
  -1   2  10  118.16   20.95
   1  -2 -11 4123.43  132.27
   1   2  11 3946.28  135.61
  -1   2 -11 4328.87  147.70
  -1  -2  11 4051.09  138.67
   1  -2  11 3802.67  135.02
  -1  -2 -11 4115.37  153.69
   1   2 -11 4522.43  170.12
  -1   2  11 4299.90  156.20
  -1   3   0   -0.79    2.31
  -1   3   0    3.10    3.56
   1   3   0    0.13    4.63
   1  -3   0    7.09    3.88
  -1   3  -1 1145.70   30.56
  -1  -3   1 1140.31   33.07
   1   3   1 1204.00   32.74
  -1   3  -1 1138.79   26.15
   1  -3   1 1167.22   26.48
  -1   3   1 1156.87   27.03
   1  -3   1 1248.97   37.10
  -1   3   1 1151.48   29.50
   1   3  -1 1167.01   33.25
  -1  -3   2 1813.40   55.13
  -1   3  -2 1791.38   46.63
   1   3   2 1826.56   52.30
  -1   3   2 1806.34   41.67
   1   3  -2 1782.14   47.62
  -1   3   2 1823.79   43.22
   1  -3   2 1751.86   45.93
   1  -3   2 1748.84   42.27
  -1  -3   3 8122.07  204.51
  -1   3  -3 8293.67  204.63
   1   3   3 8421.71  205.34
   1  -3   3 8256.47  205.81
   1  -3   3 8182.71  188.35
  -1  -3  -3 8139.54  198.29
   1   3  -3 8217.72  204.86
  -1   3   3 8445.37  197.28
  -1  -3   4 1089.70   36.04
   1  -3  -4 1072.70   30.40
   1   3   4 1143.48   35.60
  -1   3  -4 1151.99   36.95
  -1  -3  -4 1156.64   34.64
  -1   3   4 1149.64   32.33
   1   3  -4 1193.12   38.59
   1  -3   4 1117.81   37.27
   1  -3  -5 4050.87  100.73
   1   3   5 4167.80  109.95
  -1  -3   5 4025.11  110.26
  -1   3  -5 4092.11  110.12
  -1   3   5 4200.33  111.58
   1   3  -5 4246.72  114.07
  -1  -3  -5 3985.23  104.45
   1  -3   5 4061.03  111.72
   1  -3  -6 4271.44  110.64
   1   3   6 4513.14  123.64
  -1  -3   6 4382.68  123.00
  -1   3  -6 4669.36  129.15
   1   3  -6 4550.52  136.05
   1  -3   6 4368.09  125.34
  -1   3   6 4484.93  118.56
  -1  -3  -6 4353.95  116.79
   1   3   7  947.73   39.88
  -1  -3   7  960.69   41.56
  -1   3  -7 1021.18   43.61
   1  -3  -7  900.87   40.36
  -1  -3  -7  901.97   36.00
   1  -3   7  943.81   42.97
   1   3  -7 1016.06   42.81
  -1   3   7  967.37   35.98
   1   3   8 2204.19   74.62
  -1  -3   8 2135.91   75.34
  -1   3  -8 2225.41   77.70
   1  -3  -8 2017.26   63.84
   1  -3   8 2093.24   76.42
  -1  -3  -8 2056.68   68.10
  -1   3   8 2141.24   77.79
   1   3  -8 2364.03   80.30
  -1  -3   9   27.95   17.97
   1  -3  -9   27.86   12.59
  -1   3  -9   27.57   18.84
   1   3   9   44.73   16.21
  -1   3   9   26.12   21.59
   1  -3   9   40.29   18.97
   1   3  -9   23.12   18.24
  -1  -3  -9   23.05   14.32
  -1  -3  10  108.19   25.39
   1   3  10  110.66   23.94
   1  -3 -10   92.53   18.43
  -1   3 -10  136.94   26.81
   1   3 -10  119.43   26.43
  -1  -3 -10  108.13   21.01
  -1   3  10  109.85   31.66
   1  -3  10  100.63   26.81
   1   3  11  504.57   41.06
  -1  -3  11  504.24   43.23
  -1   3 -11  552.80   64.82
   1  -3 -11  495.95   34.34
  -1   3  11  556.83   39.16
   1   3 -11  555.73   65.76
  -1  -3 -11  481.41   36.86
   1  -3  11  512.30   45.19
  -1   4   0    1.10    4.91
   1   4   0    7.85    6.20
  -1   4   0    0.99    2.82
   1   4   1 2036.11   64.70
  -1   4  -1 2013.37   54.49
   1   4   1 2052.36   38.38
   1   4   1 2009.55   55.29
   1  -4   1 1960.88   53.74
   1  -4   1 2026.03   45.95
  -1   4   1 2002.01   52.57
   1   4  -1 2029.35   57.14
  -1   4   1 2011.52   46.49
   1   4   2  285.44   16.81
  -1  -4   2  305.38   17.96
  -1   4  -2  306.65   16.77
   1  -4   2  297.37   10.92
  -1   4   2  302.27   12.03
  -1   4   2  299.90   14.80
   1   4  -2  318.78   18.47
  -1   4   2  303.63   13.98
   1  -4   2  295.53   17.11
   1   4   316023.58  418.92
  -1  -4   315491.14  425.41
  -1   4  -315537.51  418.81
  -1  -4   316128.11  372.79
   1  -4   315792.74  389.93
  -1   4   316297.44  413.38
   1  -4   315854.62  420.52
  -1   4   315908.41  397.39
   1   4  -315709.48  426.59
  -1   4  -4   82.28   12.78
  -1  -4   4   71.99   13.87
   1   4   4   61.83   12.02
  -1   4   4   76.16    9.80
   1  -4   4   58.48   13.46
   1  -4   4   54.61    7.41
   1   4  -4   70.73   13.43
  -1  -4   5   19.65   19.85
   1   4   5   23.00   10.72
  -1   4  -5   19.23   11.93
   1  -4   5   22.31   10.92
  -1   4   5   29.08    8.83
  -1  -4  -5   38.85   10.16
   1  -4   5   23.46   12.60
   1   4  -5   21.65   12.51
   1   4   6 1504.59   53.12
  -1   4  -6 1409.32   52.47
  -1  -4   6 1446.25   54.92
   1  -4  -6 1338.38   42.68
  -1   4   6 1512.12   48.64
   1  -4   6 1330.45   41.13
   1   4  -6 1383.40   53.39
  -1  -4  -6 1384.05   47.44
   1  -4   6 1418.61   54.58
   1  -4  -7 4992.66  136.70
  -1  -4   7 5242.00  158.22
   1   4   7 5385.67  157.10
  -1   4  -7 5446.64  160.79
  -1  -4  -7 5000.04  142.58
   1  -4   7 5075.87  156.85
  -1   4   7 5450.59  151.67
   1   4  -7 5303.87  157.17
  -1   4  -8 1339.38   58.62
   1   4   8 1231.38   53.61
   1  -4  -8 1178.13   53.16
  -1  -4   8 1244.78   57.39
  -1  -4  -8 1174.75   48.26
  -1   4   8 1262.26   48.63
   1  -4   8 1221.29   57.87
   1   4  -8 1330.43   58.58
  -1   4  -9 1145.38   57.32
  -1  -4   9 1049.67   56.11
   1   4   9 1082.25   52.15
   1  -4  -9  994.22   42.39
  -1  -4  -9 1029.70   46.49
  -1   4   9 1066.98   46.67
   1  -4   9 1069.66   76.60
   1   4  -9 1105.33   57.07
   1  -4 -10  180.00   21.68
   1   4  10  189.91   28.16
  -1   4 -10  207.89   33.09
  -1  -4  10  194.31   32.50
  -1  -4 -10  188.21   25.32
   1   4 -10  151.73   33.42
  -1   4  10  183.21   24.87
   1  -4  10   25.76   49.97
  -1   5   0    0.43    5.17
   1   5   0   -1.98    6.31
  -1   5   0   -0.22    2.60
   1   5   1  481.26   25.50
   1   5   1  438.00   23.19
   1   5   1  435.69    8.79
  -1   5  -1  453.91   22.49
  -1   5   1  457.18   20.30
   1  -5   1  462.55   14.95
  -1   5   1  453.74   15.03
  -1   5   1  467.10   21.86
   1   5  -1  462.64   34.73
   1   5   2  436.53   10.90
  -1   5  -2  448.36   24.21
   1   5   2  455.67   24.07
   1   5   2  452.78   25.69
  -1   5   2  461.76   22.24
  -1   5   2  470.29   20.31
   1  -5   2  464.32   19.00
   1   5  -2  449.28   25.76
  -1   5   2  479.76   21.29
   1  -5   2  464.33   24.53
  -1  -5   3 3144.54   94.79
   1   5   3 3297.07  102.40
  -1  -5   3 3256.86   67.43
   1   5   3 3232.20   75.03
  -1   5  -3 3210.18   93.38
  -1   5   3 3234.69   88.82
  -1   5   3 3246.53   87.77
   1  -5   3 3225.53   95.43
  -1   5   3 3069.37   76.35
   1  -5   3 3182.33   75.53
   1   5  -3 3094.24   92.85
  -1   5  -4  424.87   26.44
  -1  -5   4  428.53   12.44
  -1  -5   4  454.62   29.37
   1   5   4  439.68   25.01
   1   5  -4  412.06   28.38
  -1   5   4  464.19   29.87
  -1   5   4  436.30   18.37
   1  -5   4  411.76   27.14
   1  -5   4  413.80   16.10
  -1   5  -5 1960.78   79.65
  -1  -5   5 1912.84   69.86
  -1  -5   5 1930.56   47.14
   1  -5   5 1882.23   51.13
   1  -5   5 1968.30   70.36
  -1   5   5 1969.15   60.93
   1   5  -5 1984.98   69.84
  -1   5  -6 2028.14   72.81
   1   5   6 2075.82   71.78
  -1  -5   6 1953.38   51.74
  -1  -5   6 1948.66   74.06
   1  -5   6 2020.34   74.75
   1   5  -6 2023.91   74.57
  -1   5   6 2098.86   67.86
   1  -5   6 1963.06   55.89
  -1  -5   7  464.29   37.59
  -1   5  -7  500.26   36.39
   1   5   7  502.25   33.97
  -1   5   7  510.84   29.61
   1  -5   7  460.21   23.17
   1  -5   7  479.75   37.11
   1   5  -7  470.57   36.83
   1   5   8 1307.32   58.27
  -1   5  -8 1385.87   83.27
  -1  -5   8 1372.53   83.84
  -1   5   8 1350.48   54.13
  -1  -5  -8 1188.20   51.09
   1  -5   8 1315.42   56.54
   1  -5   8 1276.36   65.70
   1   5  -8 1293.91   62.60
  -1   5  -9   49.65   22.16
   1  -5  -9    0.34   13.52
   1   5   9   -0.30   19.25
  -1  -5   9   37.48   22.19
   1  -5   9   53.07   22.88
   1  -5   9   29.93   12.88
  -1  -5  -9    0.31   15.89
  -1   5   9   14.09   23.83
   1   5  -9   49.38   22.52
   1   6   0    2.31    9.80
  -1   6   0    2.78    8.26
  -1   6  -1 5066.58  143.66
   1   6   1 5161.10  147.40
   1   6   1 5143.16  149.22
  -1   6   1 5113.57  148.00
  -1   6   1 5107.71  142.34
  -1   6   1 5062.64  118.91
   1   6  -1 5040.13  148.34
   1   6   2  566.63   33.16
  -1   6  -2  576.61   31.02
   1   6   2  537.94   11.64
   1   6   2  594.44   32.15
  -1   6   2  577.60   28.97
  -1   6   2  557.74   27.18
  -1   6   2  552.00   19.08
   1  -6   2  592.75   19.00
   1   6  -2  598.99   33.90
   1   6   3  391.37   41.89
   1   6   3  429.54   38.46
  -1   6  -3  405.61   27.43
   1   6   3  376.72   11.72
  -1   6   3  387.78   24.66
  -1   6   3  412.31   24.14
   1   6  -3  408.97   42.54
  -1   6   3  380.33   22.53
   1  -6   3  401.13   15.47
   1  -6   3  424.73   28.07
   1   6   4  607.78   33.99
  -1  -6   4  590.44   14.70
  -1   6  -4  607.64   35.21
   1   6   4  632.08   36.69
  -1  -6   4  577.34   38.12
   1   6   4  575.67   22.88
   1  -6   4  592.66   20.82
   1  -6   4  559.87   36.12
   1   6  -4  571.91   37.43
  -1   6   4  586.70   23.31
  -1   6   4  642.38   31.26
  -1   6   4  640.51   30.37
  -1   6  -5 9934.29  291.23
   1   6   510048.54  291.54
   1   6   5 9646.49  242.69
  -1  -6   5 9549.11  289.28
  -1  -6   5 9659.74  226.48
   1  -6   5 9696.73  245.12
  -1   6   5 9336.67  253.41
   1   6  -5 9791.33  291.67
   1  -6   5 9757.36  291.29
  -1   6   510335.56  286.96
  -1   6   510228.28  286.38
  -1   6  -6 1742.98   70.74
  -1  -6   6 1624.12   42.78
  -1  -6   6 1655.92   72.44
   1   6   6 1714.29   81.50
  -1   6   6 1560.47   52.05
  -1   6   6 1632.18   60.21
   1   6  -6 1638.56   71.07
   1  -6   6 1599.74   48.17
   1  -6   6 1666.78   72.89
  -1  -6   7    0.73   21.13
  -1  -6   7   19.03    7.75
  -1   6  -7   24.85   19.07
   1   6   7   -1.17   18.05
   1  -6   7   19.95    9.59
   1   6  -7   83.34   20.88
  -1   6   7    1.84   22.95
   1  -6   7   -0.37   20.87
  -1  -6   8 1005.43   36.19
  -1  -6   8 1070.49   63.96
  -1   6  -8 1073.78   61.16
   1   6   8 1079.81   57.60
  -1   6   8 1029.32   50.48
   1   6  -8 1139.34   63.19
   1  -6   8 1026.50   50.05
   1  -6   8 1019.97   63.42
   1   7   0    2.50   12.02
  -1   7   0    0.01    9.87
  -1   7   0    5.00    9.53
   1   7   0    1.92   11.22
  -1   7  -1  292.35   26.65
   1   7   1  315.62   27.89
   1   7   1  282.07   29.15
   1   7  -1  326.32   29.56
  -1   7   1  315.36   24.55
  -1   7   1  299.85   12.99
  -1   7   1  275.01   25.20
  -1   7  -2  535.68   34.35
   1   7   2  537.24   49.02
   1   7   2  508.39   36.58
  -1   7   2  526.01   42.37
   1   7  -2  522.77   36.87
  -1   7   2  514.19   31.27
  -1   7   2  497.38   18.80
   1   7   3 2382.08   87.23
   1   7   3 2320.98   83.95
  -1   7  -3 2335.90   83.84
  -1   7   3 2372.92   79.49
  -1   7   3 2308.54   61.05
   1   7  -3 2270.63   86.60
  -1   7   3 2232.91   77.53
   1   7   4  734.45   45.78
   1   7   4  800.57   44.10
  -1   7  -4  757.73   44.78
  -1   7   4  775.98   38.64
  -1   7   4  747.54   39.15
  -1   7   4  759.10   28.36
   1   7  -4  746.15   46.53
   1   7   5 1686.61   72.57
   1   7   5 1705.52   71.97
  -1   7  -5 1662.75   72.33
  -1   7   5 1641.00   63.71
   1   7  -5 1609.01   75.03
  -1   7   5 1593.40   63.65
   1  -7   5 1640.23   74.34
   1   7   6 1965.40   83.81
   1   7   6 1852.71   76.61
  -1   7  -6 1893.99   82.09
  -1  -7   6 1770.14   84.08
   1  -7   6 1864.57   85.72
   1   7  -6 1790.41   84.20
  -1   7   6 1891.67   72.11
  -1   7   6 1917.13   87.36
   1   8   0    1.16   10.03
  -1   8   0    0.14    9.20
  -1   8   0   -0.41    8.84
   1   8   0   -0.84   17.00
   1   8   1  437.03   38.07
  -1   8  -1  460.14   36.27
   1   8   1  477.69   40.09
  -1   8  -1  456.66   34.97
  -1   8   1  405.89   32.45
   1   8  -1  452.12   38.46
  -1   8   1  457.17   35.02
   1   8  -1  479.40   55.72
   1   8   2  155.05   26.96
  -1   8  -2  143.31   26.84
   1   8   2  123.75   27.80
  -1   8   2  124.98   23.75
   1   8  -2  135.43   29.18
  -1   8   2  113.44   23.34
   2   0   015271.98  336.45
   2   0   016471.98  374.63
  -2   0   016008.78  364.62
  -2   0   016091.81  350.27
   2   0   1 7750.09  167.54
  -2   0  -1 8284.55  176.02
   2   0  -1 8419.92  169.75
  -2   0   1 8481.43  169.97
  -2   0   1 8500.40  182.99
   2   0   1 8798.75  188.41
  -2   0  -1 8970.38  192.95
   2   0   2 4058.48   93.86
   2   0  -2 4223.03   84.49
  -2   0  -2 4053.44   88.21
  -2   0   2 4325.83   86.14
  -2   0  -314545.15  352.34
   2   0   314070.80  344.45
   2   0  -315265.34  359.11
  -2   0   315916.98  370.65
   2   0  -4 7551.01  174.83
   2   0   4 7329.52  179.50
  -2   0  -4 7458.04  179.40
  -2   0   4 7890.76  180.51
   2   0   5  105.27   12.35
  -2   0   5  109.51    9.32
  -2   0  -5  152.57   12.16
   2   0  -5  138.30    9.96
  -2   0   6 5103.07  127.67
   2   0   6 4922.25  131.57
   2   0  -6 5052.85  128.26
  -2   0  -6 5009.19  131.10
   2   0   7  977.26   39.20
   2   0  -7 1013.65   35.39
  -2   0  -7 1027.42   48.54
  -2   0   7  994.19   34.58
  -2   0   8 1303.70   45.12
  -2   0  -8 1248.66   48.69
   2   0  -8 1270.49   45.65
   2   0  -9 4658.50  135.61
  -2   0   9 4442.56  129.05
  -2   0  -9 4411.69  133.65
   2   0   9 4143.72  130.55
   2   0 -10 2703.54   89.77
  -2   0 -10 2607.22   91.38
   2   0  10 2474.93   89.82
  -2   0  10 2552.68   86.08
  -2   0 -11 6030.31  191.42
   2   0  11 5594.85  183.96
  -2   0  11 6432.43  197.58
   2   0 -11 6338.53  193.88
  -2   0  12  639.70   45.74
   2   0 -12  624.88   43.43
  -2   0 -12  501.62   45.28
   2   0  12  522.78   45.44
  -2  -1   028566.76  686.28
  -2   1   029611.41  735.95
   2  -1   030219.66  749.31
   2   1   027562.05  684.17
   2   1   029058.28  700.81
  -2   1   025255.62  596.62
   2  -1   027518.04  646.39
   2   1   1  347.70    8.90
  -2   1  -1  369.75   12.00
  -2  -1   1  355.07    8.78
  -2  -1   1  352.56   11.03
  -2   1  -1  345.83   11.73
   2   1   1  356.13   11.76
  -2   1   1  364.58    5.31
   2  -1   1  347.68   11.29
   2  -1   1  314.89    9.17
  -2   1   1  350.87    5.14
  -2  -1  -1  387.89   11.67
  -2   1   1  344.61   11.70
   2   1  -1  352.30   10.74
  -2   1  -212844.44  299.01
   2   1   213074.27  308.82
   2  -1  -213106.32  279.55
  -2  -1   213307.74  307.49
   2   1  -213663.44  314.84
  -2   1   212782.13  274.17
  -2  -1  -213594.22  317.66
   2  -1   213926.92  320.51
   2  -1   212337.10  289.90
  -2   1  -3  256.85   15.67
   2   1   3  247.72   12.97
  -2  -1   3  227.95   10.15
   2  -1  -3  230.94    7.65
  -2   1   3  235.81    7.72
   2   1  -3  231.46   10.49
   2  -1   3  211.65   16.36
  -2  -1  -3  223.71   11.10
  -2   1  -4  904.66   27.86
   2   1   4  958.01   36.27
  -2  -1   4  911.62   26.31
   2  -1  -4  830.02   25.39
  -2   1   4  911.04   23.52
   2  -1   4  877.29   28.06
   2   1  -4  925.32   27.20
  -2  -1  -4 1025.88   29.50
   2   1   5    3.76    7.03
   2  -1  -5    2.51    4.47
  -2   1  -5    0.16   10.08
  -2  -1   5    5.85    5.70
  -2   1   5    7.26    4.63
  -2  -1  -5   -0.25    6.25
   2   1  -5   13.27    6.09
   2  -1   5    3.48    6.70
   2  -1  -6 4037.34  108.07
  -2   1  -6 4377.54  116.38
  -2  -1   6 4291.84  111.02
   2   1   6 4244.91  115.15
  -2   1   6 4402.59  108.73
   2  -1   6 4123.27  113.10
   2   1  -6 4550.90  118.06
  -2  -1  -6 4163.71  109.99
  -2  -1   7  150.27   14.61
   2  -1  -7  111.64   12.77
  -2   1  -7  159.81   24.77
   2   1   7  106.16   16.96
   2   1  -7  154.91   15.35
  -2   1   7  122.47   12.95
   2  -1   7  128.50   17.20
  -2  -1  -7  145.46   15.42
  -2   1  -8 5995.10  171.67
   2   1   8 5907.64  169.91
  -2  -1   8 5969.31  164.83
   2  -1  -8 5970.66  162.70
  -2  -1  -8 5846.36  163.52
   2   1  -8 6397.43  176.41
   2  -1   8 5882.97  182.62
  -2   1   8 6072.97  162.46
  -2  -1   9  105.22   19.26
   2   1   9  118.45   32.62
  -2   1  -9  123.44   33.69
   2  -1  -9  107.01   17.05
   2   1  -9  136.41   19.67
  -2   1   9  127.20   16.53
   2  -1   9  117.43   22.54
  -2  -1  -9  139.46   19.90
   2   1  10 1438.37   64.03
   2  -1 -10 1527.16   57.04
  -2   1 -10 1525.85   64.28
  -2  -1  10 1472.63   59.90
   2  -1  10 1475.09   65.86
  -2  -1 -10 1460.17   61.64
   2   1 -10 1550.87   62.60
  -2   1  10 1557.80   59.29
  -2  -1  11  121.75   20.98
   2   1  11   58.96   22.69
  -2   1 -11   64.16   23.27
   2  -1 -11   -1.25   18.64
  -2   1  11   68.31   19.68
   2   1 -11    4.02   21.83
   2  -1  11   44.57   24.22
  -2  -1 -11   68.00   22.18
  -2  -1  12 1000.22   56.08
   2  -1 -12  979.22   67.42
   2   1  12  931.72   78.01
  -2   1 -12 1074.54   60.99
  -2  -1 -12  925.92   76.17
  -2   1  12 1020.68   57.08
   2  -1  12  833.16   57.93
   2   1 -12  992.50   57.51
   2   2   0 6819.03  157.99
   2  -2   0 6902.93  145.35
  -2   2   0 6985.71  148.68
  -2   2   0 6987.80  156.16
   2  -2   0 7122.05  158.66
   2   2   0 7074.40  136.30
   2   2   1   77.77   11.25
   2   2   1   63.89    4.05
  -2   2  -1   67.61    9.27
  -2   2  -1   71.94    5.55
  -2  -2   1   65.84    2.38
  -2   2   1   69.10    6.34
   2  -2   1   68.25    6.13
  -2   2   1   70.60    5.20
  -2   2   1   65.53    3.41
   2   2  -1   68.71    7.29
  -2   2  -2 8034.31  184.86
  -2  -2   2 7719.64  182.89
   2   2   2 8165.05  192.53
   2   2  -2 7897.40  190.85
  -2   2   2 8337.60  175.42
  -2   2   2 8136.77  187.20
   2  -2   2 7949.94  181.10
  -2  -2  -2 7921.13  185.45
   2  -2   2 7876.14  182.79
   2  -2  -3 5943.88  126.21
  -2  -2   3 5622.52  140.54
  -2   2  -3 5766.42  137.27
   2   2   3 5879.27  142.03
   2  -2   3 5541.49  134.14
   2  -2   3 5755.63  132.42
  -2   2   3 5814.89  125.13
  -2  -2  -3 5722.33  136.67
   2   2  -3 5894.36  140.74
  -2  -2   4 4431.27  110.35
  -2   2  -4 4449.62  111.00
   2   2   4 4438.68  111.59
   2  -2  -4 4418.36   98.42
   2  -2   4 4252.75  108.87
  -2  -2  -4 4308.15  107.04
  -2   2   4 4390.75   99.35
   2   2  -4 4519.39  112.00
  -2   2  -5  343.06   18.94
  -2  -2   5  342.46   17.81
   2   2   5  362.95   19.98
   2  -2  -5  331.38   13.24
  -2   2   5  335.28   18.15
  -2  -2  -5  325.34   17.52
   2  -2   5  324.09   27.04
   2   2  -5  344.74   18.59
   2  -2  -6 3115.03   79.62
   2   2   6 3367.38   95.03
  -2   2  -6 3379.29   94.40
  -2  -2   6 3276.01   90.10
   2  -2   6 3156.19   92.13
   2   2  -6 3364.55   92.37
  -2   2   6 3291.92   89.24
  -2  -2  -6 3168.89   87.94
  -2   2  -7   20.00   12.64
  -2  -2   7   31.22   11.55
   2  -2  -7   19.96    8.39
   2   2   7   21.79   12.81
  -2  -2  -7   34.91   11.88
  -2   2   7   31.60   13.80
   2  -2   7   46.94   13.94
   2   2  -7   23.02   19.34
  -2   2  -8 3185.00   99.20
  -2  -2   8 3163.99   96.29
   2   2   8 3080.32   97.57
   2  -2  -8 2967.05   85.42
   2   2  -8 3305.35  112.90
   2  -2   8 3156.61  115.70
  -2   2   8 3237.36   91.04
  -2  -2  -8 3038.37   92.68
   2   2   9 1315.41   56.35
   2  -2  -9 1292.95   47.41
  -2  -2   9 1356.41   54.52
  -2   2  -9 1395.14   58.23
   2   2  -9 1464.22   72.02
  -2   2   9 1388.78   50.82
  -2  -2  -9 1343.31   53.51
   2  -2   9 1333.36   59.26
   2  -2 -10 1170.56   47.89
   2   2  10 1113.41   55.53
  -2  -2  10 1143.55   53.61
  -2   2 -10 1251.95   59.37
   2   2 -10 1302.13   57.67
  -2  -2 -10 1452.09   57.72
  -2   2  10 1200.17   49.83
   2  -2  10 1128.01   58.32
  -2  -2  11 3614.37  124.76
   2  -2 -11 3544.71  114.87
  -2   2 -11 3812.62  134.24
   2   2  11 3495.75  124.77
   2  -2  11 3332.33  126.35
  -2   2  11 3780.78  123.21
  -2  -2 -11 3556.43  122.80
   2   2 -11 3964.17  134.66
  -2   3   017018.81  416.83
  -2   3   016984.60  413.05
   2   3   017367.90  443.57
   2  -3   017794.60  434.18
   2   3   1  148.97   11.37
  -2   3  -1  141.69    8.51
   2   3   1  135.22    3.08
  -2   3  -1  136.97   12.35
   2  -3   1  132.87    8.30
   2  -3   1  130.57    8.68
  -2   3   1  127.65    8.20
   2   3  -1  166.09   11.68
  -2   3   1  128.91    6.89
  -2  -3   2 6923.59  172.86
   2   3   2 7365.51  180.67
  -2   3  -2 7352.73  181.21
  -2   3   2 7201.01  170.15
   2  -3   2 7511.48  177.46
  -2   3   2 7428.92  167.23
   2   3  -2 7246.62  179.87
   2  -3   2 7334.41  180.95
  -2   3   2 7467.63  165.82
  -2  -3   3  124.42   12.24
  -2   3  -3  131.78   11.09
   2   3   3  125.45   12.05
  -2   3   3  127.95    9.81
   2  -3   3  110.25   10.94
  -2   3   3  117.32   10.05
   2  -3   3  115.96   12.79
  -2  -3  -3  140.85   11.58
   2   3  -3  126.41   12.18
  -2  -3   4  528.06   23.71
   2  -3  -4  544.70   16.89
  -2   3  -4  560.34   22.98
   2   3   4  578.77   31.70
  -2   3   4  550.51   18.17
   2   3  -4  563.19   24.25
   2  -3   4  530.73   23.64
  -2  -3  -4  534.76   22.61
   2  -3   4  514.31   19.15
  -2   3  -5    2.98   11.13
  -2  -3   5    5.34    7.26
   2   3   5    4.52    7.16
   2  -3  -5    0.50    6.37
   2  -3   5    2.28    5.32
   2  -3   5    0.49    7.26
  -2  -3  -5    5.03    6.68
  -2   3   5   -2.52    4.67
   2   3  -5    2.33   11.20
  -2   3  -6 2888.05   85.60
   2  -3  -6 2639.72   74.26
  -2  -3   6 2722.35   82.31
   2   3   6 2813.08   95.68
  -2  -3  -6 2651.47   87.51
  -2   3   6 2720.21   73.02
   2   3  -6 2857.63   84.98
   2  -3   6 2848.82   86.85
   2   3   7  116.21   18.10
  -2  -3   7   62.77   17.05
   2  -3  -7   90.09   10.99
  -2   3  -7   88.98   17.27
  -2   3   7   78.69   17.99
   2  -3   7   72.58   28.17
  -2  -3  -7   72.35   14.85
   2   3  -7   74.62   16.95
  -2  -3   8 4155.89  127.22
  -2   3  -8 4269.68  130.92
   2   3   8 4165.71  128.54
   2  -3  -8 3802.10  106.05
   2  -3   8 4173.39  132.57
   2   3  -8 4342.91  131.49
  -2   3   8 4051.09  113.58
  -2  -3  -8 3839.94  115.53
   2   3   9   94.79   21.41
  -2  -3   9   81.99   21.37
  -2   3  -9   88.76   22.02
   2  -3  -9   83.96   14.57
  -2  -3  -9   83.19   29.43
   2   3  -9   69.89   21.60
   2  -3   9   98.96   23.93
  -2   3   9   76.79   24.58
  -2  -3  10 1079.39   55.63
   2   3  10 1062.41   55.32
   2  -3 -10 1015.87   43.56
  -2   3 -10 1157.74   77.79
   2  -3  10 1139.44   80.92
   2   3 -10 1169.22   58.49
  -2  -3 -10 1036.93   50.94
  -2   3  10 1158.25   62.12
  -2  -3  11   29.92   21.54
   2  -3 -11   -1.04   15.31
  -2   3 -11   37.25   23.96
   2   3  11   27.99   21.49
   2   3 -11   38.86   22.94
  -2   3  11   45.17   17.76
  -2  -3 -11   35.13   30.58
   2  -3  11   32.86   24.81
   2  -4   0 7212.51  170.80
  -2   4   0 7183.28  169.47
  -2   4   0 6987.97  169.60
   2   4   0 7088.88  183.26
  -2   4  -1 3997.23   99.65
   2   4   1 4111.45  109.63
  -2   4  -1 3994.88   99.06
   2   4   1 3973.51  104.34
   2  -4   1 4047.57  100.89
  -2   4   1 4042.92  100.27
   2   4  -1 4045.00  114.46
  -2   4   1 4006.94   94.41
   2  -4   1 4080.16   96.54
  -2   4   1 3980.44   95.23
   2   4   2 2268.99   63.93
  -2   4  -2 2231.88   67.32
   2  -4   2 2273.07   62.27
  -2   4   2 2319.68   55.96
  -2   4   2 2270.30   56.31
  -2   4   2 2209.17   56.33
   2  -4   2 2258.01   60.43
   2   4  -2 2276.67   65.92
   2   4   3 6076.23  159.59
  -2  -4   3 5935.74  159.56
  -2   4  -3 6051.66  156.88
   2  -4   3 6123.34  159.77
   2  -4   3 5930.51  148.17
  -2   4   3 6286.31  149.35
  -2   4   3 6132.19  147.24
   2   4  -3 6019.45  160.65
  -2   4   3 5968.24  153.32
  -2   4  -4 4162.15  114.21
  -2  -4   4 3967.33  113.70
   2   4   4 4329.50  119.01
  -2   4   4 4040.32  105.12
   2   4  -4 4088.04  114.76
  -2   4   4 4196.29  103.66
   2  -4   4 4337.66  119.01
   2  -4   4 4041.63  100.81
   2   4   5  100.37   15.84
  -2  -4   5   88.42   16.48
  -2   4  -5   99.58   15.03
   2  -4   5  114.95   24.72
   2  -4   5   78.12   10.69
  -2  -4  -5   82.69   14.36
   2   4  -5   93.50   16.86
  -2   4   5   96.78   11.17
  -2   4  -6 3090.80   95.02
   2  -4  -6 2859.71   76.53
  -2  -4   6 2881.00   92.64
   2   4   6 3111.11   95.28
  -2  -4  -6 2946.33   98.66
   2   4  -6 3131.78   96.83
   2  -4   6 3015.52   97.22
  -2   4   6 3131.77   85.56
   2  -4   6 2955.56   81.60
   2  -4  -7  557.93   31.71
  -2  -4   7  601.41   36.11
   2   4   7  624.86   36.08
  -2   4  -7  615.78   35.04
  -2  -4  -7  586.37   31.68
   2  -4   7  553.86   27.18
  -2   4   7  591.75   27.31
   2   4  -7  621.03   35.75
   2  -4   7  590.98   52.52
   2  -4  -8  795.88   32.29
   2   4   8  868.45   45.07
  -2  -4   8  768.47   44.88
  -2   4  -8  797.90   45.10
   2  -4   8  833.60   36.12
   2   4  -8  854.58   46.02
  -2   4   8  812.53   35.40
   2  -4   8  857.02   47.92
  -2  -4  -8  800.71   52.10
   2  -4  -9 2863.32   97.64
  -2   4  -9 3092.52  110.84
  -2  -4   9 2980.59  126.68
   2   4   9 2952.89  105.94
  -2   4   9 2921.76   93.21
   2   4  -9 3144.05  112.91
   2  -4   9 2966.65  111.40
  -2  -4  -9 2738.75   95.21
   2  -4 -10 1621.87   59.26
   2   4  10 1589.28   73.83
  -2  -4  10 1645.56   76.62
  -2   4 -10 1737.08   79.32
   2   4 -10 1791.97   81.12
  -2   4  10 1743.42   66.28
   2  -4  10 1643.79   80.25
  -2  -4 -10 1491.78   66.16
  -2   5   012305.81  303.38
   2   5   012094.71  327.91
  -2   5   011680.80  304.00
   2   5   1  177.95   19.05
  -2   5  -1  173.30   14.73
  -2   5  -1  173.17   10.85
   2   5   1  176.43   17.68
   2   5  -1  173.17   19.16
   2  -5   1  189.45   15.91
  -2   5   1  180.04   12.34
  -2   5   1  176.44   18.95
  -2   5   1  166.22   11.12
   2   5   2 6039.42  167.23
   2   5   2 5890.83  112.12
  -2   5  -2 5809.53  155.62
   2   5   2 5957.74  162.56
  -2   5   2 5960.46  147.64
   2  -5   2 5836.71  142.22
   2  -5   2 5798.71  164.11
   2   5  -2 5820.89  162.50
  -2   5   2 5978.47  149.65
  -2   5   2 5761.73  147.42
  -2   5  -3  130.59   15.30
   2   5   3  128.00   17.39
   2  -5   3  114.18   15.00
   2   5  -3  135.34   18.15
   2  -5   3  120.16   16.08
  -2   5   3  116.92   11.16
  -2   5   3  113.11   11.72
  -2   5   3  117.23   11.20
   2   5   4  354.98   25.61
  -2   5  -4  369.31   34.62
  -2  -5   4  412.66   28.15
  -2  -5   4  356.16    9.55
  -2   5   4  354.76   18.65
  -2   5   4  354.16   18.31
   2  -5   4  329.59   16.76
   2   5  -4  356.95   26.96
   2  -5   4  338.55   24.82
  -2   5   4  356.29   19.03
  -2   5  -5    5.17    9.44
  -2  -5   5    2.81   10.90
   2   5   5    0.18   15.83
  -2  -5   5    0.23    3.42
   2  -5   5    4.10   10.41
  -2   5   5   11.32    6.74
   2   5  -5   -2.40   10.45
   2  -5   5    0.44    5.95
  -2   5   5    2.21    6.57
  -2  -5   6 1827.32   72.06
  -2   5  -6 1861.71   84.43
   2   5   6 1937.61   70.97
  -2   5   6 1912.14   69.59
   2  -5   6 1929.86   73.97
   2   5  -6 1897.10   72.17
  -2   5   6 1858.05   61.11
   2  -5   6 1806.45   54.79
  -2   5  -7  105.62   34.87
  -2  -5   7  106.85   37.62
   2   5   7   95.24   23.42
  -2   5   7   95.64   16.23
   2  -5   7  105.47   14.20
   2   5  -7   75.54   23.68
   2  -5   7   85.38   24.30
  -2  -5   8 3788.47  132.95
  -2   5  -8 3876.01  131.53
   2   5   8 3839.79  131.20
   2  -5   8 3842.86  137.97
  -2   5   8 3784.71  114.63
   2  -5   8 3841.10  111.83
  -2  -5  -8 3610.85  117.39
   2   5  -8 3912.77  133.34
  -2  -5   9   82.59   27.18
   2   5   9   72.46   25.39
  -2   5  -9   84.49   26.51
   2  -5   9   82.53   17.29
  -2  -5  -9   73.94   21.71
   2   5  -9   65.34   28.08
  -2   5   9   53.81   27.65
   2  -5   9   77.95   28.89
  -2   6   0 1644.22   50.15
   2   6   0 1749.52   76.71
  -2   6   0 1648.73   62.88
   2   6   0 1627.66   59.80
  -2   6  -1  698.42   31.77
   2   6   1  670.54   35.57
   2   6   1  693.65   37.71
  -2   6   1  655.88   29.53
  -2   6   1  692.04   28.57
  -2   6   1  691.76   29.72
   2   6  -1  688.81   37.91
  -2   6  -2 2734.56   85.02
   2   6   2 2744.28   88.82
   2   6   2 2793.37   92.89
   2   6  -2 2709.09   90.51
  -2   6   2 2710.56   71.92
  -2   6   2 2767.02   78.98
  -2   6   2 2610.04   77.76
   2  -6   2 2791.88   77.76
   2   6   3 1788.52   34.30
  -2   6  -3 1812.05   63.71
   2   6   3 1829.79   67.51
   2   6   3 1987.09   71.52
   2   6  -3 1844.59   68.99
  -2   6   3 1854.00   57.88
   2  -6   3 1844.82   51.00
   2  -6   3 1751.58   64.24
  -2   6   3 1828.75   53.71
  -2   6   3 1821.16   57.69
  -2   6  -4 1464.13   57.57
   2   6   4 1443.12   58.94
   2   6   4 1466.95   35.09
  -2   6   4 1382.17   53.28
   2   6  -4 1501.72   62.00
  -2   6   4 1516.68   51.19
   2  -6   4 1439.48   43.84
   2  -6   4 1473.18   60.24
  -2   6   4 1462.70   58.32
  -2  -6   5  137.84   26.18
  -2   6  -5  133.17   22.75
   2   6   5  141.42   24.24
  -2   6   5  112.39   24.71
  -2   6   5  143.00   16.85
  -2   6   5  125.27   15.29
   2  -6   5  146.43   13.82
   2   6  -5  138.52   26.04
   2  -6   5  141.38   24.38
  -2   6  -6 1197.71   54.94
  -2  -6   6 1097.70   59.22
   2   6   6 1202.58   55.71
  -2   6   6 1086.12   51.85
   2  -6   6 1103.01   39.54
  -2   6   6 1184.56   47.41
   2  -6   6 1222.77   78.99
   2   6  -6 1179.79   59.24
  -2  -6   7   56.25   24.45
   2   6   7   50.67   34.05
  -2   6  -7   59.48   22.27
  -2   6   7   67.59   15.40
   2  -6   7   34.87   12.56
   2   6  -7   41.44   37.80
   2  -6   7    0.35   23.92
   2   6   8 1404.47   68.99
  -2   6  -8 1437.80   70.67
  -2  -6   8 1315.77   95.04
   2  -6   8 1351.83   50.68
  -2   6   8 1355.99   69.63
   2   6  -8 1459.99   95.52
   2  -6   8 1408.15   97.54
  -2   7   0 4513.28  133.07
   2   7   0 4542.59  146.06
  -2   7   0 4555.39  132.07
   2   7   0 4562.07  158.50
   2   7   1   -5.25   19.37
   2   7   1   35.87   28.61
  -2   7  -1   40.68   14.97
  -2   7   1   40.85   13.69
  -2   7   1   35.41   13.35
   2   7  -1   36.90   19.79
  -2   7   1   34.63   13.11
  -2   7  -2 1979.79   71.38
   2   7   2 2025.71   77.00
   2   7   2 1968.55   78.69
  -2   7   2 1984.69   66.17
  -2   7   2 1957.77   67.41
   2   7  -2 2018.56   79.80
  -2   7   2 1962.60   62.68
  -2   7  -3    0.10   16.66
   2   7   3   -2.75   32.02
   2   7   3   41.06   18.84
  -2   7   3   40.14   13.64
  -2   7   3   40.46    9.89
  -2   7   3   42.18   13.29
   2   7  -3   58.08   20.47
   2  -7   3   24.17    9.15
   2   7   4  201.05   30.01
  -2   7  -4  180.31   26.80
   2   7   4  192.54   27.68
  -2   7   4  183.25   20.54
  -2   7   4  189.27   20.28
   2  -7   4  166.24   27.02
   2   7  -4  205.08   45.86
   2  -7   4  176.91   21.25
  -2   7  -5    0.42   12.19
   2   7   5   12.12   12.76
   2   7   5    1.76   13.33
  -2   7   5   -1.88    8.94
   2  -7   5    0.77    6.43
   2  -7   5    0.20   12.89
  -2   7   5   -0.04    8.83
   2   7  -5   -1.70   21.94
   2   7   6  694.48   48.38
  -2   7   6  753.35   53.44
   2  -7   6  727.13   53.22
   2  -7   6  685.48   30.63
   2   8   0 1584.61   76.15
  -2   8   0 1632.79   63.24
  -2   8   0 1605.23   63.94
   2   8   0 1577.11   72.84
  -2   8  -1 1249.78   56.18
  -2   8  -1 1231.64   53.79
   2   8   1 1225.62   63.09
   2   8   1 1229.93   65.52
   2   8  -1 1272.76   63.91
  -2   8   1 1218.84   53.67
  -2   8   1 1199.76   52.01
   2   8  -1 1231.48   66.63
  -3   0   0    0.71    3.28
   3   0   0    3.83    3.24
   3   0   0    1.30    2.82
   3   0  -1 6895.29  140.51
  -3   0   1 6877.75  154.15
   3   0  -1 7086.57  158.02
   3   0  -1 6907.96  138.49
  -3   0  -1 7019.07  157.12
   3   0   1 6853.67  152.21
   3   0   1 6406.87  141.16
  -3   0  -1 7006.69  149.52
  -3   0   2  266.21   14.74
   3   0   2  237.53   10.23
  -3   0   2  247.18    6.92
   3   0  -2  249.30    7.07
   3   0   2  258.51   11.00
  -3   0  -2  243.41    9.71
   3   0  -3  185.36    7.36
   3   0   3  175.85   10.84
   3   0   3  164.40    9.84
  -3   0  -3  164.14    9.83
  -3   0   3  183.47    9.26
  -3   0  -4 1129.95   32.94
   3   0   4 1121.69   34.90
  -3   0   4 1147.02   28.51
   3   0  -4 1197.94   30.28
  -3   0   517195.04  426.83
   3   0  -516786.98  427.45
  -3   0  -516421.06  436.65
   3   0   515969.07  424.71
  -3   0  -6 3852.17  104.63
   3   0  -6 3835.33  103.77
  -3   0   6 3848.69   96.65
   3   0   6 3800.08  107.01
  -3   0  -7 2095.29   76.46
   3   0  -7 2136.18   62.33
   3   0   7 2028.67   79.73
  -3   0   7 2095.57   59.21
   3   0   8  960.58   44.54
  -3   0  -8  927.92   40.69
   3   0  -8  995.79   38.37
  -3   0   8  932.93   44.55
  -3   0   9 1608.80   56.35
   3   0  -9 1780.11   61.45
  -3   0  -9 1578.43   62.27
   3   0   9 1613.10   65.82
   3   0 -10  568.55   45.13
   3   0  10  489.89   40.15
  -3   0 -10  522.88   37.69
  -3   0  10  583.76   32.87
   3   0  11 1839.51   81.36
   3   0 -11 2011.60   77.49
  -3   0 -11 1974.84   82.18
  -3   0  11 2101.95   79.50
   3  -1   0    6.32    4.56
  -3   1   0    4.95    1.82
   3  -1   0   17.80    2.08
   3   1   0   10.16    3.14
   3   1   0    3.87    3.70
  -3   1   0   11.31    4.82
  -3  -1   0    4.13    3.15
   3   1   1   30.83    3.84
  -3   1  -1   13.65    2.97
   3  -1  -1   26.36    5.51
  -3  -1   1   17.06    3.73
   3   1   1   18.17    4.84
  -3   1  -1   19.09    5.68
  -3  -1  -1   32.51    4.56
   3  -1   1   18.69    5.41
   3   1  -1   22.77    4.21
  -3   1   1   54.91    9.03
   3  -1   1   19.30    3.28
  -3  -1   2   82.79    6.41
   3   1   2   81.04    5.97
  -3  -1   2   84.72    5.99
   3   1   2   83.42    7.91
  -3   1  -2   72.24    6.32
   3  -1   2   88.78    7.55
  -3   1   2   89.43    2.25
  -3   1   2   92.11    8.25
   3   1  -2   82.50    6.19
  -3  -1  -2   85.39    7.31
   3  -1   2   75.61    9.91
  -3  -1   310071.44  235.15
  -3   1  -3 9579.39  229.79
   3   1   310276.85  251.42
   3  -1  -3 9472.35  204.39
  -3  -1  -3 9850.88  236.74
   3  -1   310062.58  239.08
   3   1  -310164.04  237.67
  -3   1   310529.85  223.77
   3  -1   3 9317.45  233.43
   3   1   4  543.83   22.09
  -3   1  -4  522.17   19.77
  -3  -1   4  512.23   18.07
   3  -1  -4  476.89   13.61
   3   1  -4  545.42   23.39
   3  -1   4  510.01   19.21
  -3   1   4  500.27   13.81
  -3  -1  -4  493.19   19.40
   3  -1   4  500.64   20.64
  -3  -1   511535.19  285.45
   3  -1  -510311.34  249.80
   3   1   511237.76  301.97
  -3   1  -511305.37  289.05
   3  -1   510670.49  281.11
   3   1  -511701.91  291.12
  -3   1   511451.84  271.00
  -3  -1  -511152.63  285.29
  -3  -1   6 2227.38   61.60
   3   1   6 2223.61   67.90
   3  -1  -6 2066.02   55.19
  -3   1  -6 2221.96   65.95
   3   1  -6 2332.88   65.47
  -3  -1  -6 2220.34   64.74
   3  -1   6 2142.60   66.86
  -3   1   6 2209.27   56.64
  -3   1  -7  754.72   44.50
   3  -1  -7  749.28   34.03
  -3  -1   7  759.05   38.25
   3   1   7  761.38   47.08
   3   1  -7  832.55   33.25
   3  -1   7  721.71   35.97
  -3  -1  -7  775.62   43.72
  -3   1   7  757.41   33.80
   3   1   8  699.04   37.28
  -3   1  -8  684.00   35.88
  -3  -1   8  629.88   30.31
   3  -1  -8  700.07   29.63
  -3  -1  -8  641.38   33.89
   3   1  -8  735.88   33.30
   3  -1   8  677.16   37.18
  -3   1   8  674.77   28.30
   3   1   9   21.91   16.29
  -3  -1   9   16.15   13.09
   3  -1  -9   17.14   11.77
  -3   1  -9   38.40   16.01
  -3   1   9   25.11   11.46
   3  -1   9   13.86   26.97
  -3  -1  -9    1.24   23.55
   3   1  -9   30.87   13.80
  -3  -1  10  336.31   28.12
   3   1  10  328.50   33.96
   3  -1 -10  321.99   25.58
  -3   1 -10  339.74   33.41
  -3  -1 -10  323.53   31.27
  -3   1  10  381.85   26.99
   3   1 -10  323.13   29.68
   3  -1  10  347.33   36.61
  -3  -1  11  271.68   30.21
   3   1  11  283.84   52.50
  -3   1 -11  259.50   35.76
   3  -1 -11  304.43   27.82
  -3   1  11  301.12   28.97
   3  -1  11  271.21   39.93
   3   1 -11  278.63   31.23
  -3  -1 -11  276.40   33.34
   3  -2   0    0.28    4.17
   3   2   0    1.18    4.31
  -3  -2   0    2.02    1.78
  -3   2   0    5.17    6.53
   3   2   0    2.90    2.83
   3   2   0    1.04    4.22
   3  -2   0    2.49    1.56
  -3   2   0    1.22    1.51
  -3   2  -1 5104.23  119.83
   3   2   1 5197.93  107.53
  -3  -2   1 5089.62  104.15
   3  -2  -1 5236.26  122.42
   3   2   1 5257.79  124.31
  -3   2  -1 5073.91  109.67
  -3   2   1 5393.89  100.92
   3  -2   1 5142.59  119.70
  -3   2   1 5155.79   98.99
   3  -2   1 5038.52  109.03
  -3   2   1 5044.20  118.73
   3   2  -1 5139.65  120.97
   3   2   2  850.51   22.86
  -3   2  -2  837.91   22.92
   3   2   2  933.96   33.48
  -3  -2   2  809.64   24.80
  -3  -2   2  848.54   19.50
  -3   2   2  844.79   25.45
   3  -2   2  830.34   23.22
  -3   2   2  864.09   16.50
  -3  -2  -2  862.01   26.06
   3  -2   2  855.72   24.91
  -3   2   2  846.84   16.40
   3   2  -2  861.18   25.98
   3   2   321774.85  578.80
   3  -2  -321399.89  501.89
  -3   2  -321303.03  552.88
  -3  -2   320904.67  543.36
   3  -2   322350.98  569.56
  -3   2   321394.02  554.45
  -3  -2  -321791.83  564.28
   3  -2   321103.07  548.50
   3   2  -322435.29  577.57
  -3   2   321241.82  505.67
  -3  -2   4 6408.51  160.16
   3  -2  -4 6532.82  141.99
  -3   2  -4 6468.56  161.79
   3   2   4 6706.59  171.91
  -3  -2  -4 6536.92  163.86
   3  -2   4 6462.05  158.43
   3   2  -4 6768.77  167.44
   3  -2   4 6491.12  165.66
  -3   2   4 6519.89  143.25
   3   2   5  252.42   27.31
  -3   2  -5  245.48   16.17
  -3  -2   5  240.34   15.55
   3  -2  -5  220.09    9.62
   3  -2   5  228.83   15.39
  -3  -2  -5  221.50   16.19
   3   2  -5  214.93   15.54
  -3   2   5  226.80   10.42
   3  -2   5  241.28   17.75
  -3  -2   6 7860.90  206.11
  -3   2  -6 7756.97  206.73
   3  -2  -6 7490.15  182.03
   3   2   6 7948.59  217.47
  -3   2   6 7830.80  194.76
  -3  -2  -6 7316.34  196.63
   3   2  -6 7894.88  207.33
   3  -2   6 7591.71  209.54
  -3   2  -7 4683.95  133.30
   3  -2  -7 4348.22  111.81
  -3  -2   7 4636.73  129.62
   3   2   7 4516.60  134.21
  -3   2   7 4656.80  118.61
   3  -2   7 4473.26  134.88
   3   2  -7 4979.47  138.59
  -3  -2  -7 4498.48  137.65
   3  -2  -8 1694.43   51.91
  -3   2  -8 1756.38   64.32
   3   2   8 1765.16   66.57
  -3  -2   8 1786.11   62.07
   3  -2   8 1793.46   69.48
   3   2  -8 1958.58   66.52
  -3   2   8 1714.28   52.58
  -3  -2  -8 1658.05   60.91
  -3  -2   9 1938.96   69.84
   3  -2  -9 1878.33   60.67
  -3   2  -9 2034.68   76.26
   3   2   9 1847.39   73.68
   3  -2   9 2009.45   80.54
   3   2  -9 2217.09   77.42
  -3   2   9 1955.12   72.02
  -3  -2  -9 1899.00   70.75
  -3   2 -10  199.28   30.56
   3  -2 -10  172.61   20.61
   3   2  10  184.87   29.89
  -3  -2  10  217.97   25.90
   3   2 -10  270.51   29.35
  -3   2  10  222.21   22.18
   3  -2  10  237.12   49.72
  -3  -2 -10  223.43   28.23
   3   2  11  301.10   36.58
   3  -2 -11  322.50   27.46
  -3  -2  11  342.27   33.19
  -3   2 -11  307.41   38.41
   3   2 -11  426.45   36.72
  -3   2  11  359.12   43.39
  -3  -2 -11  285.60   34.86
   3  -2  11  356.02   43.61
  -3   3   0   -0.72    4.57
   3  -3   0    2.57    4.51
   3   3   0    1.67    5.75
   3   3   0    5.63    5.40
   3  -3   0    1.90    2.67
  -3   3   0    2.04    2.74
  -3   3  -1  144.04    8.15
  -3   3  -1  128.41   10.30
   3   3   1  157.21   18.46
  -3  -3   1  145.75    4.15
   3   3   1  150.92    4.46
   3  -3   1  159.24    8.29
   3  -3   1  153.51   10.18
   3   3  -1  165.08   12.42
  -3   3   1  151.93    8.50
  -3   3   1  157.87   10.80
   3   3   2    0.09    1.86
  -3   3  -2    0.12    3.78
   3   3   2    9.62    5.28
  -3  -3   2   -0.27    1.36
  -3   3   2    2.40    4.47
   3   3  -2   -0.09    5.19
   3  -3   2    0.47    3.89
  -3   3   2    3.80    1.93
  -3   3   2    0.22    2.10
   3  -3   2   -1.18    6.50
  -3   3  -3 8686.49  216.33
  -3  -3   3 8485.29  218.25
   3   3   3 8882.60  228.27
  -3   3   3 8683.56  196.39
   3   3  -3 8784.12  230.92
   3  -3   3 8925.79  223.25
  -3   3   3 8642.42  215.88
   3  -3   3 8529.23  209.85
  -3  -3   4  596.24   25.80
  -3   3  -4  603.03   24.67
   3   3   4  605.62   27.73
  -3   3   4  590.22   17.25
   3   3  -4  597.63   26.00
  -3   3   4  591.59   23.96
  -3  -3  -4  579.50   24.70
   3  -3   4  576.84   22.33
   3  -3   4  568.09   25.31
  -3   3  -5 9496.93  250.40
  -3  -3   5 9202.06  245.83
   3  -3  -5 9255.36  221.99
   3   3   5 9546.26  258.30
   3   3  -5 9527.89  252.88
  -3  -3  -5 9056.31  250.04
  -3   3   5 9229.29  221.30
   3  -3   5 9291.78  251.70
   3  -3   5 9099.41  232.93
  -3   3  -6 1887.14   62.01
   3   3   6 1910.48   65.18
   3  -3  -6 1724.43   45.46
  -3  -3   6 1793.33   59.67
  -3   3   6 1841.28   49.16
   3   3  -6 1888.77   62.34
   3  -3   6 1858.32   64.66
   3  -3   6 1908.69   65.00
  -3  -3  -6 1747.41   57.61
  -3  -3   7  998.00   42.39
   3  -3  -7  934.30   30.49
   3   3   7 1023.41   60.31
  -3   3  -7 1053.36   43.93
   3   3  -7 1071.82   44.14
  -3   3   7 1010.60   33.10
   3  -3   7  955.81   37.69
  -3  -3  -7  985.37   41.27
   3  -3   7  996.41   47.49
  -3  -3   8  595.42   35.59
   3  -3  -8  620.20   25.08
   3   3   8  619.99   37.84
  -3   3  -8  582.68   37.30
   3  -3   8  627.34   40.17
   3   3  -8  664.55   37.11
   3  -3   8  599.22   31.33
  -3   3   8  597.47   26.59
  -3  -3  -8  572.77   33.66
  -3   3  -9   21.74   18.22
  -3  -3   9   19.26   16.96
   3   3   9   28.73   18.87
   3  -3  -9   16.21   16.32
   3  -3   9   13.84   20.17
  -3   3   9   60.07   12.52
  -3  -3  -9   21.81   16.69
   3   3  -9    9.83   18.04
   3   3  10  205.36   47.96
  -3   3 -10  257.09   32.51
  -3  -3  10  226.37   29.41
   3  -3 -10  197.63   19.76
   3  -3  10  238.12   35.25
  -3  -3 -10  192.24   28.39
   3   3 -10  271.88   31.30
  -3   3  10  207.91   22.22
  -3   4   0    2.99    5.16
   3  -4   0    0.61    5.07
  -3   4   0    2.54    3.94
   3   4   0    3.16   11.81
   3   4   0    4.24    7.34
  -3   4  -1 4227.54  104.03
   3   4   1 4337.09  117.75
   3   4   1 4435.34  118.52
  -3   4  -1 4333.79  108.50
  -3   4   1 4235.66   96.72
   3  -4   1 4408.58  113.31
   3   4  -1 4221.21  114.91
  -3   4   1 4261.16  107.72
   3  -4   1 4362.90  108.74
  -3   4   1 4222.42   98.34
   3   4   2   18.70   10.30
  -3   4  -2   21.25    7.51
  -3   4   2   18.30    5.09
   3  -4   2   66.31   11.67
  -3   4   2   15.69    7.67
   3  -4   2   16.31    7.10
  -3   4   2   12.96    4.61
   3   4  -2   13.01   10.22
  -3   4  -3   73.96   11.61
   3   4   3   82.77   14.83
  -3  -4   3   90.18    3.67
  -3  -4   3   93.82   14.43
   3  -4   3   83.07   12.05
  -3   4   3   97.21   16.92
  -3   4   3  104.30   11.06
   3  -4   3  100.33   10.41
  -3   4   3   93.74    7.32
   3   4  -3   87.52   14.82
   3   4   4 1073.58   41.85
  -3  -4   4 1026.21   40.90
  -3   4  -4 1071.42   38.44
  -3   4   4 1034.95   36.11
   3  -4   4 1099.71   40.80
   3   4  -4 1032.64   40.83
   3  -4   4 1008.94   33.41
  -3   4   4 1037.88   33.28
  -3  -4   5 9527.75  266.61
  -3   4  -510016.08  271.62
   3   4   5 9942.10  276.31
  -3   4   5 9708.74  247.14
   3  -4   510252.45  283.97
  -3   4   5 9585.48  255.90
   3   4  -5 9817.87  271.39
  -3  -4  -5 9407.52  257.84
   3  -4   5 9414.75  246.32
  -3  -4   6 2606.76   86.28
   3   4   6 2573.29   86.76
  -3   4  -6 2665.95   97.62
  -3  -4  -6 2480.27   79.63
   3   4  -6 2715.67   87.88
   3  -4   6 2797.20  104.79
  -3   4   6 2612.53   69.91
   3  -4   6 2548.54   74.50
   3   4   7 1124.78   66.68
  -3  -4   7 1084.93   50.04
   3  -4  -7 1015.08   33.14
  -3   4  -7 1100.96   48.02
  -3  -4  -7 1004.55   44.65
  -3   4   7 1035.25   43.13
   3  -4   7 1018.51   39.95
   3   4  -7 1086.49   49.20
   3  -4   7 1088.42   52.83
  -3  -4   8  784.97   45.54
   3   4   8  668.14   44.98
   3  -4  -8  756.24   37.16
  -3   4  -8  832.97   45.31
   3  -4   8  758.45   35.98
  -3  -4  -8  760.05   40.26
   3   4  -8  803.33   44.08
   3  -4   8  802.24   48.51
  -3   4   8  766.22   32.52
  -3   4  -9 1175.28   58.46
  -3  -4   9 1184.60   58.03
   3  -4  -9 1114.08   41.07
   3   4   9 1153.91   60.00
  -3   4   9 1192.13   46.20
   3  -4   9 1133.01   62.20
   3  -4   9 1128.90   62.35
   3   4  -9 1218.82   60.18
  -3  -4  -9 1089.12   69.20
   3  -4 -10  272.60   22.65
  -3   4 -10  361.16   38.25
   3   4  10  302.36   36.42
  -3  -4  10  302.17   36.83
  -3   4  10  366.48   39.22
   3  -4  10  363.59   40.88
   3  -4  10  324.30   29.48
  -3  -4 -10  291.69   33.88
   3   4 -10  346.55   39.17
  -3   5   0    0.20    5.66
   3   5   0    2.04    9.49
   3   5   0    6.72   10.02
  -3   5   0    8.18    6.03
  -3   5  -1  116.81   12.44
   3   5   1   97.33   19.28
   3   5   1  133.96   17.89
  -3   5  -1  145.50   12.44
   3   5  -1  117.97   17.72
  -3   5   1  144.84   12.49
  -3   5   1  136.35   14.59
  -3   5   1  126.19   10.69
   3  -5   1  139.23   11.93
   3   5   2    0.06    9.57
   3   5   2    0.13   10.21
  -3   5  -2    5.17    7.05
   3  -5   2    9.09    7.10
   3   5  -2    3.68    9.80
  -3   5   2    2.26    8.07
  -3   5   2    1.28    4.71
   3  -5   2    0.16    9.43
   3   5   3 3488.65   72.72
   3   5   3 3589.04  108.25
  -3   5  -3 3391.05   97.37
   3  -5   3 3481.46   92.96
  -3   5   3 3500.75   87.61
   3   5  -3 3515.25  105.72
  -3   5   3 3456.16   94.40
   3  -5   3 3629.27  104.03
  -3   5   3 3391.23   86.87
  -3  -5   4  225.76   24.28
  -3  -5   4  219.15    5.82
   3   5   4  229.78   24.08
  -3   5  -4  210.63   20.05
   3   5  -4  232.50   23.61
  -3   5   4  221.86   13.83
  -3   5   4  222.23   17.10
   3  -5   4  215.08   16.38
   3  -5   4  234.69   21.68
  -3   5   4  226.84   13.75
  -3   5  -5 4605.79  135.04
  -3  -5   5 4237.85  133.89
   3   5   5 4621.73  155.71
  -3   5   5 4589.72  119.93
  -3   5   5 4436.37  115.66
   3   5  -5 4433.60  136.89
  -3   5   5 4396.43  124.88
   3  -5   5 4665.15  142.63
   3  -5   5 4437.99  128.43
  -3   5  -6 1063.29   48.91
   3   5   6 1037.98   50.62
  -3  -5   6 1077.38   52.48
  -3   5   6 1004.11   42.33
   3  -5   6 1133.06   69.86
  -3   5   6 1079.96   37.50
   3   5  -6 1029.22   50.53
   3  -5   6 1023.68   48.47
   3   5   7  447.81   38.28
  -3  -5   7  475.48   37.85
  -3   5  -7  579.35   51.24
  -3   5   7  464.23   24.19
   3   5  -7  494.80   37.73
  -3   5   7  457.10   30.48
   3  -5   7  430.82   26.31
   3  -5   7  484.68   40.31
   3   5   8  404.49   38.00
  -3  -5   8  371.55   39.49
  -3   5  -8  425.22   36.74
   3   5  -8  421.10   56.45
  -3   5   8  423.11   34.50
   3  -5   8  415.81   41.23
   3  -5   8  394.53   26.44
  -3  -5   9   35.95   23.70
  -3   5  -9   25.04   22.84
   3   5   9   25.85   23.51
   3  -5   9   24.93   15.76
   3   5  -9   23.81   36.39
   3  -5   9   21.46   38.90
  -3  -5  -9   14.27   20.06
  -3   5   9   61.89   14.88
  -3   6   0   -1.27    7.31
  -3   6   0    4.03    6.59
   3   6   0    9.03   11.73
   3   6   0    6.17   11.32
   3   6   1 1279.81   54.90
  -3   6  -1 1248.48   44.67
   3   6   1 1331.08   67.16
   3   6  -1 1254.18   54.57
  -3   6   1 1268.03   40.18
  -3   6   1 1266.79   47.99
  -3   6   1 1216.29   40.78
   3   6   2  405.50   32.49
  -3   6  -2  460.37   26.57
   3   6   2  489.20   35.33
   3  -6   2  447.12   21.82
  -3   6   2  435.94   20.59
  -3   6   2  432.67   22.18
  -3   6   2  433.67   21.63
   3   6  -2  482.35   47.98
  -3   6  -3 7219.23  204.43
   3   6   3 7299.94  220.03
   3   6   3 7190.82  214.62
  -3   6   3 7367.12  191.52
   3   6  -3 6985.21  210.90
   3  -6   3 7425.76  194.37
   3  -6   3 7301.98  209.58
  -3   6   3 7207.61  193.13
  -3   6   3 7164.37  188.85
   3   6   4 2165.53   80.50
   3   6   4 2115.88   47.14
   3   6   4 2150.51   46.57
  -3   6  -4 2215.81   75.64
   3   6  -4 2180.68   81.43
   3  -6   4 2158.16   64.57
  -3   6   4 2162.33   71.63
   3  -6   4 2288.57   80.92
  -3   6   4 2167.39   63.76
  -3   6   4 2081.98   65.98
   3   6   5   61.78   21.02
  -3   6  -5   54.50   17.56
   3  -6   5   -0.13   19.76
  -3   6   5   70.31   12.18
   3  -6   5   72.69   12.63
   3   6  -5    0.62   21.10
  -3   6   5    0.19   13.75
  -3   6   5   58.58   12.00
   3   6   6 3046.66  109.08
  -3   6  -6 3063.18  106.99
  -3  -6   6 2900.03  110.68
   3  -6   6 2969.04   89.51
   3  -6   6 3204.44  115.61
   3   6  -6 3039.83  112.06
  -3   6   6 3197.15   92.67
  -3   6   6 3007.95   89.61
  -3   6  -7 2238.23   89.11
  -3  -6   7 2063.84  112.23
   3   6   7 2139.90  109.78
  -3   6   7 2151.79   71.00
   3  -6   7 2271.53   95.77
   3   6  -7 2097.39   91.82
   3  -6   7 2209.93   83.65
  -3   6   7 2298.46   73.53
  -3   7   0    4.16    9.53
   3   7   0    0.05   14.99
  -3   7   0    5.04    8.66
   3   7   0   -8.55   14.43
  -3   7   0    9.44    7.55
   3   7   1  152.13   26.97
   3   7   1  144.51   28.56
  -3   7  -1  145.29   19.50
  -3   7   1  146.41   14.96
   3   7  -1  140.31   26.57
  -3   7   1  157.26   16.59
  -3   7   1  158.75   17.81
   3   7  -1  162.22   28.17
   3   7   2   33.25   18.92
  -3   7  -2   27.24   13.75
   3   7   2    3.28   19.37
  -3   7   2   30.83   15.12
  -3   7   2   29.41   10.76
  -3   7   2   -0.04   11.14
   3   7  -2   26.95   19.36
  -3   7  -3 3031.65  100.85
   3   7   3 3213.85  117.06
   3   7   3 2916.83  108.11
  -3   7   3 3088.60   92.66
   3   7  -3 3019.68  111.31
  -3   7   3 2962.22   88.06
  -3   7   3 3087.98   91.34
   3  -7   3 3140.89   98.32
   3   7   4  311.45   34.57
   3   7   4  297.62   37.11
  -3   7  -4  279.34   28.92
   3  -7   4  256.09   20.14
  -3   7   4  299.25   22.00
   3   7  -4  279.27   35.65
   3  -7   4  327.50   31.04
  -3   7   4  270.28   31.95
  -3   7  -5 3415.92  117.49
   3   7   5 3527.63  130.80
   3   7   5 3447.26  127.40
   3  -7   5 3570.37  146.55
  -3   7   5 3456.35  104.37
   3   7  -5 3355.08  127.22
   3  -7   5 3388.57   99.39
  -3   7   5 3400.21  102.84
   4   0   010838.74  257.07
   4   0   010450.55  233.38
  -4   0   011009.23  262.27
  -4   0  -1 2399.08   51.85
   4   0  -1 2388.13   47.55
   4   0   1 2384.55   54.30
  -4   0  -1 2399.58   58.61
   4   0  -1 2417.82   58.14
  -4   0   1 2438.31   59.18
   4   0   1 2381.45   57.35
   4   0  -1 2429.44   48.04
   4   0   232842.37  863.73
   4   0  -231829.86  797.89
  -4   0  -231311.34  820.69
   4   0   228782.69  772.65
  -4   0   232065.96  850.48
  -4   0   3  974.76   24.33
  -4   0   3 1000.63   29.56
   4   0   3  978.51   29.97
   4   0  -3  978.44   22.75
  -4   0  -3  972.77   28.09
   4   0   3  943.77   28.10
   4   0  -4 1987.34   49.84
  -4   0  -4 1898.63   51.25
   4   0   4 1886.20   54.44
   4   0   4 1857.08   55.75
  -4   0   4 1886.12   43.26
  -4   0  -5   53.97    9.87
   4   0   5   48.07   11.92
   4   0   5   43.50    9.81
  -4   0   5   39.64    6.23
  -4   0  -6   19.42   16.54
   4   0   6   24.91   12.25
  -4   0   6   32.27    6.98
   4   0  -6   23.71    7.87
   4   0   7  329.98   26.12
  -4   0   7  308.53   22.96
   4   0  -7  300.46   18.11
  -4   0  -7  334.61   22.65
   4   0   815163.50  444.24
  -4   0  -815051.61  440.98
   4   0  -816066.46  436.70
  -4   0   815694.46  420.82
  -4   0  -9  633.09   38.29
   4   0  -9  673.71   33.51
  -4   0   9  641.35   31.35
   4   0   9  670.67   59.96
  -4   0  10   92.46   18.62
  -4   0 -10  108.26   23.56
   4   0  10  130.97   27.23
   4   0 -10   99.62   29.61
  -4   0  11  521.11   49.79
  -4   0 -11  517.98   42.59
   4   0 -11  541.06   36.62
   4   0  11  523.59   46.16
   4  -1   0 1216.24   38.04
  -4   1   0 1226.22   22.84
   4   1   0 1229.81   30.65
  -4  -1   0 1232.81   30.79
  -4   1   0 1216.16   33.93
   4   1   0 1254.77   30.65
   4  -1   0 1093.98   21.17
   4  -1  -1 2302.81   57.37
  -4   1  -1 2349.74   59.27
  -4  -1   1 2333.94   54.67
   4   1   1 2316.98   53.71
   4   1   1 2326.55   55.96
  -4   1  -1 2290.73   49.24
   4   1  -1 2284.42   52.36
  -4  -1  -1 2353.01   55.50
   4   1  -1 2361.49   53.16
   4  -1   1 2061.47   45.23
  -4   1   1 2325.71   58.71
   4  -1   1 2302.93   57.69
   4   1   2  840.05   23.28
   4   1   2  905.42   27.04
  -4  -1   2  851.91   27.98
  -4   1  -2  897.44   28.48
  -4   1  -2  873.08   22.23
   4  -1   2  797.05   22.89
  -4   1   2  886.59   27.54
   4  -1   2  832.88   25.56
  -4  -1  -2  840.28   24.50
   4   1  -2  861.63   26.22
   4   1   3 5708.26  143.45
   4   1   3 5390.08  127.05
  -4  -1   3 5520.74  135.20
  -4  -1   3 5542.91  128.20
  -4   1  -3 5474.33  130.19
   4   1  -3 5425.23  129.74
  -4   1   3 5633.39  108.18
  -4   1   3 5613.79  138.22
   4  -1   3 5456.72  132.51
  -4  -1  -3 5511.02  132.98
   4  -1   3 5039.21  125.47
  -4   1  -4   84.71   14.09
   4  -1  -4   75.34    6.39
  -4  -1   4   70.74    7.73
   4   1   4   62.55    8.68
   4   1   4   68.18   11.74
   4  -1   4   75.07   10.11
   4   1  -4   69.09    8.22
   4  -1   4   70.23   10.81
  -4   1   4   78.57    6.24
  -4   1   4   59.23   11.01
  -4  -1  -4   67.64    9.75
  -4  -1   5  204.82   12.84
   4  -1  -5  228.43    9.94
   4   1   5  223.66   26.93
  -4   1  -5  232.81   22.20
  -4  -1  -5  217.59   15.84
   4   1  -5  229.84   13.68
   4  -1   5  203.52   16.15
  -4   1   5  229.18    9.35
   4  -1   5  235.65   18.41
  -4  -1   6   81.61   10.94
  -4   1  -6   99.15   21.37
   4  -1  -6   95.95    8.75
   4   1   6   86.75   24.96
   4   1  -6  103.01   12.15
   4  -1   6   81.13   13.57
  -4  -1  -6   71.06   20.95
  -4   1   6   92.58    8.35
   4  -1   6   97.96   16.47
  -4   1  -7  153.36   18.22
  -4  -1   7  165.50   14.93
   4  -1  -7  165.08   12.65
   4   1   7  160.50   20.74
  -4   1   7  162.85   12.00
   4  -1   7  150.38   21.12
   4   1  -7  157.07   23.81
  -4  -1  -7  160.11   19.10
   4  -1  -8  323.44   19.18
  -4  -1   8  274.74   20.34
  -4   1  -8  280.37   25.68
   4   1   8  236.25   27.71
   4  -1   8  328.61   29.67
  -4  -1  -8  297.31   25.22
   4   1  -8  273.94   22.54
  -4   1   8  293.44   17.77
  -4  -1   9 2542.91   81.84
   4   1   9 2284.13   86.47
  -4   1  -9 2457.39   87.47
   4  -1  -9 2578.44   78.36
  -4   1   9 2533.10   75.98
  -4  -1  -9 2406.54   85.83
   4  -1   9 2516.43   96.98
   4   1  -9 2577.12   84.42
  -4   1 -10  361.42   50.12
  -4  -1  10  349.70   39.61
   4   1  10  335.61   35.41
   4  -1 -10  369.71   25.73
  -4   1  10  360.89   25.67
   4  -1  10  323.28   41.36
  -4  -1 -10  372.11   34.35
   4   1 -10  420.87   43.83
  -4   1 -11 4263.53  146.20
  -4  -1  11 4157.02  135.69
   4   1  11 3632.77  136.53
   4  -1 -11 4243.48  132.52
  -4   1  11 4467.89  138.08
   4   1 -11 4376.10  143.45
  -4  -1 -11 4124.52  144.07
   4  -1  11 4307.36  164.44
   4   2   031078.11  836.54
  -4  -2   032628.14  838.90
   4  -2   031299.55  766.81
  -4   2   029593.75  729.61
   4  -2   032504.61  872.83
  -4   2   032022.95  864.09
   4   2   031766.50  816.83
   4   2   031658.64  851.95
  -4   2  -1  283.62    9.00
   4   2   1  311.81   14.99
  -4   2  -1  287.17   15.38
   4  -2  -1  280.07   15.25
  -4  -2   1  294.36   12.90
   4   2   1  298.43   10.46
  -4   2   1  300.53   15.71
   4  -2   1  298.75    9.44
   4  -2   1  284.93   14.84
   4   2  -1  291.73   14.07
   4   2   2   21.22    6.58
  -4   2  -2   13.38    4.12
   4   2   2   -0.11    3.88
  -4   2  -2   11.69    6.84
  -4  -2   2    0.07    3.74
   4  -2   2    9.92    4.59
   4  -2   2   11.36    6.29
   4   2  -2   19.91    8.86
  -4   2   2    8.28    6.85
  -4   2  -3  170.53   10.51
   4   2   3  165.32    9.31
  -4  -2   3  170.15   11.95
   4   2   3  155.18   14.17
  -4  -2   3  172.84    9.02
  -4   2   3  181.16   13.35
  -4  -2  -3  164.77   12.84
   4  -2   3  172.97   12.70
   4  -2   3  163.93   11.75
   4   2  -3  169.05   11.92
  -4  -2   4 5651.93  148.81
   4  -2  -4 5705.90  115.81
  -4   2  -4 5619.31  142.05
   4   2   4 5813.83  154.74
   4   2   4 5632.06  135.19
   4  -2   4 5470.51  144.38
  -4   2   4 5554.31  151.31
  -4   2   4 5740.11  117.97
  -4  -2  -4 5569.22  143.74
   4  -2   4 5515.23  140.06
   4   2  -4 5762.56  145.58
   4   2   5    0.61    9.72
   4  -2  -5    3.26    2.93
  -4  -2   5    7.29    7.04
  -4   2  -5    7.50    7.55
   4  -2   5    3.16   13.51
   4  -2   5    2.46    7.52
  -4  -2  -5    9.70    8.03
   4   2  -5    1.20    7.15
  -4   2   5   10.16    4.92
   4   2   6 8573.34  240.02
  -4   2  -6 8510.22  228.58
  -4  -2   6 8507.63  224.29
   4  -2  -6 8023.29  189.61
   4   2  -6 8544.03  226.34
  -4  -2  -6 7930.58  226.05
   4  -2   6 8182.24  241.98
   4  -2   6 8259.96  217.70
  -4   2   6 8349.00  202.04
   4  -2  -7   52.84   13.01
  -4   2  -7   69.00   16.38
   4   2   7   66.04   18.45
  -4  -2   7   68.01   13.94
   4  -2   7   67.43   18.79
  -4  -2  -7   90.82   15.74
   4  -2   7   78.67   14.57
  -4   2   7   54.22   13.43
   4   2  -7   74.03   14.77
  -4   2  -8  199.00   22.75
  -4  -2   8  147.40   19.34
   4  -2  -8  144.75   13.65
   4   2   8  163.76   23.58
   4  -2   8  141.11   26.97
   4  -2   8  143.05   20.99
  -4   2   8  185.82   14.03
   4   2  -8  150.55   20.74
  -4  -2  -8  178.46   21.71
   4  -2  -9  151.39   15.28
  -4   2  -9  127.47   23.76
   4   2   9  116.05   25.34
  -4  -2   9  136.59   21.20
   4   2  -9  157.07   22.51
  -4  -2  -9  142.19   23.62
  -4   2   9  137.14   15.94
   4  -2   9  156.49   29.20
  -4  -2  10 3813.10  124.84
   4   2  10 3538.09  147.79
  -4   2 -10 3897.48  132.76
   4  -2 -10 3823.95  111.67
   4   2 -10 4176.08  136.23
  -4  -2 -10 3472.86  120.97
  -4   2  10 3990.25  129.22
   4  -2  10 3996.79  147.07
  -4   2 -11  235.15   35.11
   4   2  11  219.90   35.20
   4  -2 -11  242.88   34.59
  -4  -2  11  230.01   29.89
  -4   2  11  264.10   26.45
   4  -2  11  252.51   58.68
  -4  -2 -11  209.81   33.45
   4   2 -11  226.53   31.81
   4   3   0  727.77   27.74
   4  -3   0  717.41   25.48
  -4   3   0  699.36   16.89
   4   3   0  737.65   34.95
  -4   3   0  703.01   25.98
   4   3   1 1399.57   29.97
  -4   3  -1 1331.68   32.49
  -4   3  -1 1340.32   40.68
   4   3   1 1432.72   43.68
  -4  -3   1 1371.33   28.64
   4   3  -1 1339.18   49.34
  -4   3   1 1310.69   26.36
   4  -3   1 1362.12   40.42
   4  -3   1 1384.04   33.32
  -4   3   1 1364.90   41.23
  -4   3   1 1368.39   26.43
  -4   3  -2  350.40   19.17
  -4   3  -2  384.65   18.87
   4   3   2  374.48   11.39
  -4  -3   2  365.09   10.37
   4   3   2  381.69   20.58
  -4   3   2  366.16   18.90
  -4   3   2  366.83    9.16
   4   3  -2  373.86   19.14
   4  -3   2  388.29   15.10
   4  -3   2  364.12   18.33
  -4   3   2  363.03    8.84
   4   3   3 3232.42   73.65
  -4  -3   3 3246.01   71.95
  -4   3  -3 3238.35   82.87
   4   3   3 3410.83  104.08
  -4   3   3 3297.82   96.43
   4  -3   3 3300.24   86.82
  -4   3   3 3318.17   66.36
   4  -3   3 3430.16   88.95
  -4   3   3 3284.44   66.08
   4   3  -3 3383.50   91.23
   4   3   4   56.51    7.21
  -4  -3   4   38.24   18.29
   4   3   4   65.00   14.13
  -4   3  -4   69.71   10.59
  -4  -3   4   48.17    6.52
  -4   3   4   51.74   11.72
  -4  -3  -4   58.74   12.18
   4  -3   4   60.36   11.81
   4  -3   4   48.88   16.31
   4   3  -4   54.31   11.85
  -4   3   4   51.80    6.25
  -4  -3   5  205.79   26.77
  -4   3  -5  268.56   25.85
   4   3   5  198.92   21.62
   4  -3   5  199.88   19.66
   4  -3   5  214.83   24.50
  -4   3   5  209.00    9.00
  -4   3   5  215.04   18.56
   4   3  -5  218.01   18.54
  -4  -3  -5  204.38   19.25
   4   3   6   94.94   18.04
  -4  -3   6   43.59   14.12
  -4   3  -6   73.44   14.04
   4  -3  -6   49.18    6.28
   4  -3   6   57.07   13.32
  -4  -3  -6   59.15   15.08
   4   3  -6   55.90   14.77
  -4   3   6   55.96   15.00
   4  -3   6   63.42   16.71
  -4   3   6   57.95    7.01
   4   3   7   78.36   33.02
   4  -3  -7   78.13    8.58
  -4  -3   7  100.33   18.36
  -4   3  -7   73.93   26.97
  -4  -3  -7   79.00   17.78
   4   3  -7   97.84   17.85
  -4   3   7  110.26   14.87
   4  -3   7   85.70   16.03
   4  -3   7   84.43   21.25
   4  -3  -8  134.00   17.68
  -4   3  -8  136.64   22.74
  -4  -3   8  185.04   32.68
   4   3   8  162.40   39.35
   4  -3   8  174.14   27.00
   4  -3   8  136.12   20.59
   4   3  -8  149.27   22.03
  -4  -3  -8  159.72   34.00
   4   3   9 1553.42   91.12
   4  -3  -9 1660.62   50.82
  -4   3  -9 1757.16   72.65
  -4  -3   9 1745.52   69.59
   4   3  -9 1823.13   72.51
   4  -3   9 1676.22   78.72
  -4  -3  -9 1655.20   67.73
  -4   3   9 1792.69   56.59
   4  -3   9 1718.95   76.16
   4   3  10  194.90   34.45
  -4  -3  10  260.77   30.83
   4  -3 -10  254.53   19.65
  -4   3 -10  282.59   35.25
  -4   3  10  286.68   22.78
   4   3 -10  277.46   32.77
  -4  -3 -10  239.56   32.25
   4  -3  10  225.74   38.12
   4  -3  10  228.57   29.12
  -4   4   0 4251.31   98.65
   4   4   0 4411.06  132.08
  -4   4   0 4345.26  114.74
   4  -4   0 4307.70  119.60
   4   4   0 4398.76  129.87
  -4   4  -1 1088.72   37.62
   4   4   1 1153.47   42.87
   4   4   1 1128.18   42.28
  -4   4  -1 1086.27   35.50
   4  -4   1 1101.19   36.61
  -4   4   1 1066.60   26.63
  -4   4   1 1114.62   26.33
  -4   4   1 1144.71   38.74
   4  -4   1 1107.72   36.01
   4   4  -1 1081.92   41.54
   4   4   218087.50  421.47
  -4   4  -217437.15  452.79
   4   4   217553.06  483.60
   4  -4   218173.75  472.22
  -4   4   217697.40  427.49
  -4   4   217855.61  428.47
  -4   4   217709.95  476.68
   4  -4   218029.27  476.46
   4   4  -217521.82  492.83
   4   4   3  419.58   26.34
  -4  -4   3  413.14   10.40
  -4   4  -3  409.54   26.84
   4   4   3  411.44   12.52
   4  -4   3  433.56   21.10
   4  -4   3  434.78   21.32
  -4   4   3  417.96   30.80
  -4   4   3  404.84   15.25
  -4   4   3  405.89   12.37
   4   4  -3  418.25   24.99
  -4   4  -4 1128.93   39.54
   4   4   4 1148.79   47.37
  -4  -4   4 1080.09   43.66
  -4  -4   4 1113.47   26.77
   4   4   4 1098.49   28.95
  -4   4   4 1105.77   27.39
  -4   4   4 1107.42   28.07
  -4   4   4 1041.39   39.34
   4   4  -4 1112.15   43.79
   4  -4   4 1150.25   51.69
   4  -4   4 1058.40   38.23
  -4   4  -5   40.25   10.54
   4   4   5   21.89   13.46
  -4  -4   5   13.54   18.62
  -4   4   5   12.46    5.08
  -4   4   5   -0.64    4.76
   4  -4   5   19.42   11.75
  -4   4   5   20.50   17.01
   4  -4   5   12.49    9.46
   4   4  -5   21.34   12.18
   4   4   6   13.53   21.55
  -4   4  -6   10.32   11.40
  -4  -4   6   11.81   12.80
  -4  -4  -6    6.29   12.30
  -4   4   6    5.40    5.68
   4   4  -6    7.91   12.61
   4  -4   6    4.70    9.88
  -4   4   6   21.70   11.40
   4   4   7  199.88   27.37
  -4  -4   7  182.04   24.82
  -4   4  -7  191.42   36.00
  -4   4   7  221.62   24.02
  -4   4   7  186.87   19.63
  -4  -4  -7  190.01   36.04
   4  -4   7  213.21   27.87
   4   4  -7  184.38   24.71
   4  -4   7  172.85   20.15
  -4  -4   810055.44  300.83
  -4   4  -810229.47  302.26
   4   4   8 9957.23  306.41
   4  -4   8 9788.11  279.34
   4   4  -810186.03  303.26
   4  -4   8 9969.06  310.11
  -4   4   8 9909.37  292.81
  -4  -4  -8 9455.70  283.84
  -4   4  -9  490.88   39.19
   4   4   9  463.57   42.33
  -4  -4   9  480.22   39.51
   4  -4  -9  447.66   22.58
   4   4  -9  475.59   40.23
   4  -4   9  417.34   47.12
   4  -4   9  454.62   60.99
  -4  -4  -9  441.41   37.81
  -4   4   9  513.91   35.80
  -4   5   0  673.86   28.68
   4   5   0  694.47   35.09
   4   5   0  705.63   35.81
  -4   5   0  681.38   23.53
   4   5   1 1824.60   64.22
  -4   5  -1 1802.53   57.65
  -4   5  -1 1813.51   64.91
   4   5   1 1878.77   66.57
  -4   5   1 1821.62   45.98
   4   5  -1 1839.01   64.52
  -4   5   1 1797.12   46.79
  -4   5   1 1827.91   57.08
   4  -5   1 1855.92   56.64
  -4   5  -2  468.38   29.30
   4   5   2  538.32   32.67
   4   5   2  463.31   31.35
  -4   5   2  487.11   25.14
   4   5  -2  476.95   30.31
  -4   5   2  479.44   17.34
  -4   5   2  490.63   16.96
   4  -5   2  516.37   23.53
   4  -5   2  485.08   24.18
   4   5   3 2442.65   82.80
   4   5   3 2447.40   49.37
  -4   5  -3 2392.48   80.43
  -4   5   3 2427.79   60.44
  -4   5   3 2484.78   64.81
   4  -5   3 2429.75   72.13
  -4   5   3 2514.78   76.90
   4   5  -3 2411.33   80.87
   4  -5   3 2482.12   75.14
  -4   5  -4   29.60   11.65
  -4  -5   4   20.98    1.78
   4   5   4   28.06   25.13
   4   5   4   18.39    7.31
   4  -5   4   41.84   10.97
   4   5  -4   15.91   23.30
  -4   5   4   67.43   18.70
  -4   5   4   28.60    6.53
   4  -5   4   26.88   13.00
  -4   5   4   21.52    9.97
  -4  -5   5    1.04   20.70
   4   5   5   87.88   21.85
   4   5   5   91.16    8.78
  -4  -5   5   90.84    8.58
  -4   5  -5   90.69   17.79
   4  -5   5   90.58   20.06
   4  -5   5  112.83   15.16
  -4   5   5   87.02   10.08
  -4   5   5  106.85   16.91
  -4   5   5   98.34    9.74
   4   5  -5   88.16   20.80
  -4   5  -6   31.71   14.74
   4   5   6   44.30   18.47
  -4  -5   6   44.13   16.83
  -4   5   6    7.86   11.97
  -4   5   6   -0.02    7.75
   4   5  -6   30.26   16.35
  -4   5   6   -0.85   13.75
   4  -5   6   30.74   17.12
   4  -5   6   37.54   11.95
  -4  -5   7  200.04   29.40
   4   5   7  196.35   31.64
  -4   5  -7  181.50   26.23
   4   5  -7  205.54   28.25
   4  -5   7  201.94   21.09
   4  -5   7  159.65   30.71
  -4   5   7  199.82   15.55
  -4   5   7  186.01   23.60
   4   5   8  232.20   35.22
  -4   5  -8  262.30   31.36
  -4  -5   8  242.73   33.73
   4   5  -8  267.17   33.59
   4  -5   8  272.03   54.53
   4  -5   8  205.19   24.49
  -4   5   8  255.63   18.83
   4   6   012412.51  364.62
  -4   6   012206.84  322.83
  -4   6   012224.39  334.49
   4   6   012320.18  360.07
  -4   6  -1  221.70   17.64
  -4   6  -1  193.16   18.58
   4   6   1  262.23   28.64
   4   6   1  223.77   27.06
   4   6  -1  221.78   27.48
  -4   6   1  210.09   14.16
  -4   6   1  228.48   28.19
   4   6  -1  215.72   27.32
  -4   6   1  227.61   15.12
   4   6   2   46.20   18.19
  -4   6  -2   32.38   11.20
   4   6   2   40.57   16.59
   4  -6   2   22.62   10.83
  -4   6   2   -0.09    8.46
  -4   6   2   26.72    8.00
  -4   6   2   28.78   11.46
   4   6  -2   -0.90   17.14
  -4   6  -3  100.96   15.92
   4   6   3   78.48   22.36
   4   6   3    2.53   22.55
   4  -6   3   64.56   14.33
  -4   6   3   89.76   10.78
   4   6  -3    0.69   33.87
   4  -6   3   53.68   16.42
  -4   6   3   90.86   15.55
  -4   6   3   76.68   10.58
  -4   6  -4 2320.62   78.67
   4   6   4 2257.20   88.15
   4  -6   4 2283.57   73.23
  -4   6   4 2253.81   75.61
  -4   6   4 2418.87   65.59
   4  -6   4 2398.81   83.84
  -4   6   4 2326.48   64.35
   4   6  -4 2305.04   87.42
   4   6   5    1.87   17.65
  -4   6  -5    0.03    8.27
   4  -6   5    1.52    6.74
   4   6  -5   -1.52   10.70
  -4   6   5   -1.25    5.12
   4  -6   5   -0.32    9.54
  -4   6   5   -0.01    7.59
  -4   6  -6 3599.01  120.02
   4   6   6 3556.18  151.83
   4   6  -6 3473.86  126.07
   4  -6   6 3429.20  106.61
   4  -6   6 3754.80  131.98
  -4   6   6 3526.53   96.71
  -4   6   6 3544.72  106.64
  -4   7   0  281.26   27.83
   4   7   0  293.55   34.56
   4   7   0  274.84   32.74
  -4   7   0  254.93   21.36
  -4   7   0  258.39   21.44
   4   7   1  571.21   44.17
   4   7   1  627.20   45.80
  -4   7  -1  635.73   32.37
   4   7  -1  604.85   60.41
   4   7  -1  618.99   45.75
  -4   7   1  621.49   28.83
  -4   7   1  558.47   30.09
  -4   7   1  608.02   27.54
   4   7   2   -0.51   27.78
   4   7   2   87.19   25.57
  -4   7  -2  112.48   17.04
   4   7  -2    1.43   26.62
  -4   7   2   83.03   12.97
  -4   7   2  119.88   24.29
  -4   7   2   78.45   13.70
  -4   7  -3  997.06   45.46
   4   7   3 1078.21   58.52
   4   7   3 1085.45   62.05
   4  -7   3 1068.73   54.08
  -4   7   3 1061.96   38.80
  -4   7   3  999.70   43.34
   4   7  -3 1041.38   58.83
  -4   7   3 1057.88   38.53
   4   7   4   13.90   18.27
  -4   7  -4   -0.37   20.27
   4   7   4   -3.32   20.03
   4   7  -4   -0.12   18.48
   4  -7   4   -0.05   14.49
   4  -7   4   24.70   16.60
   5   0   0    0.65    5.03
   5   0   0    4.30    2.91
  -5   0   0   -0.87    5.50
   5   0  -110817.70  240.15
  -5   0   110756.31  268.50
   5   0   110807.39  266.39
  -5   0  -111026.83  257.53
   5   0   110213.85  245.50
   5   0  -110381.88  232.24
   5   0  -110737.28  265.54
  -5   0  -110862.47  271.34
  -5   0  -2   42.75    6.09
   5   0   2   39.92    7.79
  -5   0   2   36.21    8.78
   5   0   2   56.07    8.55
   5   0  -2   45.35    5.15
   5   0  -2   52.13    3.77
  -5   0  -3  192.17   15.92
   5   0  -3  209.20    7.88
  -5   0   3  208.32   14.36
   5   0   3  223.54   19.62
   5   0   3  207.96   14.12
  -5   0   4   48.68   10.42
   5   0  -4   56.37    5.89
  -5   0   4   55.67    7.62
   5   0   4   41.23    9.79
   5   0   4   65.18   11.40
  -5   0  -4   52.98    8.95
   5   0  -512316.11  300.68
  -5   0  -511994.23  314.90
   5   0   512083.47  330.56
   5   0   511838.41  309.14
  -5   0   511954.80  287.52
  -5   0   512015.51  317.85
  -5   0  -6  628.35   28.96
   5   0   6  593.57   37.21
  -5   0   6  608.84   20.88
   5   0  -6  652.32   23.17
   5   0   6  640.37   45.89
  -5   0   7  128.45   11.77
   5   0  -7  143.57   13.27
  -5   0  -7  137.70   27.50
   5   0   7  146.96   22.40
   5   0   7  144.00   17.37
   5   0   8  960.14   50.67
   5   0   8  919.99   41.94
  -5   0   8  949.84   34.60
   5   0  -8 1002.85   36.99
  -5   0  -8  952.80   44.34
  -5   0  -9 2338.51  100.28
  -5   0   9 2473.08   75.38
   5   0   9 2369.64   93.68
   5   0  -9 2594.54   80.83
  -5   0  10  140.86   19.49
   5   0 -10  120.42   19.90
  -5   0 -10  120.19   40.01
   5   0  10  149.38   30.18
   5   1   0    4.38    4.72
  -5  -1   0   -1.27    7.99
   5  -1   0    4.41    6.11
   5   1   0    5.99    4.45
  -5   1   0    7.36   10.30
  -5   1  -1  499.92   14.86
   5   1   1  466.25   17.35
   5  -1  -1  489.98   20.37
  -5  -1   1  499.75   18.59
  -5   1  -1  504.93   21.97
   5   1   1  519.43   19.17
  -5   1   1  493.72   21.16
  -5  -1  -1  489.54   18.76
   5   1  -1  485.82   15.86
   5  -1   1  455.46   13.73
   5   1  -1  486.56   16.01
   5  -1   1  488.89   20.64
  -5   1  -2 2211.12   51.35
  -5   1  -2 2329.76   64.57
  -5  -1   2 2207.01   57.07
   5   1   2 2204.61   56.42
   5   1   2 2279.22   61.00
   5   1  -2 2240.35   53.50
   5  -1   2 2035.97   51.48
   5  -1   2 2195.88   66.58
  -5   1   2 2300.43   62.85
  -5  -1  -2 2248.23   56.76
   5   1   3 2577.39   66.00
   5   1   3 2769.16   76.29
  -5  -1   3 2632.76   68.07
  -5   1  -3 2587.72   63.66
   5  -1   3 2439.30   66.45
  -5  -1  -3 2566.80   67.32
   5  -1   3 2549.78   68.94
  -5   1   3 2726.22   82.25
   5   1  -3 2684.74   63.98
  -5  -1   4 1181.69   32.45
   5   1   4 1126.59   34.99
  -5  -1   4 1193.19   36.71
   5   1   4 1231.92   51.95
  -5   1  -4 1154.59   35.53
  -5  -1  -4 1180.79   37.47
   5   1  -4 1202.96   38.57
   5  -1   4 1130.06   39.34
  -5   1   4 1234.74   41.10
  -5   1   4 1155.34   23.79
   5  -1   4 1173.94   38.70
   5  -1  -5 1147.24   27.41
  -5  -1   5 1183.38   38.57
  -5   1  -5 1169.31   38.74
   5   1   5 1155.97   44.84
  -5  -1   5 1162.89   34.34
   5   1   5 1125.56   37.41
   5  -1   5 1090.46   38.51
   5  -1   5 1112.38   52.47
  -5  -1  -5 1162.20   39.49
   5   1  -5 1160.25   40.75
  -5   1   5 1145.47   26.31
  -5   1   5 1147.60   41.26
   5   1   6 3977.12  109.09
   5   1   6 4142.13  136.44
   5  -1  -6 4037.03   95.60
  -5   1  -6 4079.81  113.79
  -5  -1   6 4136.36  107.48
  -5   1   6 4120.01   94.78
  -5   1   6 4180.87  118.90
   5  -1   6 4000.47  111.35
   5   1  -6 4243.33  111.98
   5  -1   6 4137.74  123.91
  -5  -1  -6 3939.10  121.75
  -5   1  -7  204.75   20.08
   5  -1  -7  186.53   12.87
   5   1   7  178.41   18.71
   5   1   7  179.10   24.22
  -5  -1   7  199.50   16.10
  -5   1   7  216.23   16.63
   5  -1   7  199.24   24.72
   5  -1   7  174.38   19.54
  -5  -1  -7  208.23   20.39
   5   1  -7  232.40   25.74
   5  -1  -8 2897.12   79.81
  -5   1  -8 2764.92   90.96
  -5  -1   8 2834.34   93.37
   5   1   8 2760.59   97.49
   5   1  -8 2977.59   89.96
  -5  -1  -8 2735.54   90.42
   5  -1   8 2856.81  102.31
   5  -1   8 2744.75   88.45
  -5   1   8 2890.02   77.26
   5   1   9   10.85   15.92
  -5   1  -9    8.34   14.02
  -5  -1   9    8.33   10.84
   5  -1  -9    5.60    9.15
   5   1  -9    7.30   11.80
  -5   1   9    7.99    9.05
   5  -1   9    8.02   13.82
   5  -1   9   11.51   17.81
  -5  -1  -9   13.87   14.64
  -5   1 -10  107.16   25.00
   5   1  10   89.59   27.95
  -5  -1  10   91.79   19.60
   5  -1 -10  101.78   16.96
  -5   1  10  112.77   16.94
   5  -1  10   48.55   46.58
   5  -1  10  119.89   23.96
  -5  -1 -10  108.83   24.46
   5   1 -10   99.21   32.42
  -5   2   0    1.02    0.71
   5  -2   0    4.41    5.89
   5  -2   0    1.67    0.78
   5   2   0    0.99    3.64
  -5   2   0   -1.89    9.68
   5   2   0    1.38    4.82
  -5  -2   0    2.48    3.69
   5   2   0    2.89    5.02
  -5   2  -1  264.98    8.25
   5  -2  -1  261.35   17.14
   5   2   1  270.04   15.64
  -5   2  -1  282.57   17.60
  -5  -2   1  275.10   16.19
   5   2   1  270.24   15.92
  -5   2   1  270.35   17.57
   5   2  -1  302.07   20.03
   5  -2   1  290.47   16.92
   5   2  -1  280.04   14.62
   5  -2   1  275.91    9.05
   5   2   2  153.54   13.74
  -5  -2   2  131.16    9.21
   5   2   2  122.77    9.14
  -5   2  -2  148.93   14.70
  -5   2  -2  126.91    8.03
   5  -2   2  114.31    8.81
   5  -2   2  113.10   13.29
  -5   2   2  134.03   14.61
   5   2   325923.04  720.80
   5   2   326411.00  694.30
  -5  -2   325859.41  683.12
  -5   2  -325120.95  665.61
  -5  -2  -326151.10  710.08
   5   2  -326188.16  705.15
  -5   2   325382.64  701.71
   5  -2   325636.75  692.54
   5  -2   326540.85  721.67
  -5  -2   4    6.27    5.42
   5   2   4    4.34    9.41
  -5  -2   4    0.61    6.19
   5   2   4    4.05    5.57
  -5   2  -4    2.80    6.02
  -5  -2  -4    7.45    7.61
  -5   2   4    4.97    8.49
   5  -2   4    3.78    7.97
   5   2  -4    4.47    6.41
   5  -2   4    0.97   11.39
   5   2   5 1168.50   36.93
  -5  -2   5 1189.67   37.58
  -5   2  -5 1207.22   40.76
   5   2   5 1216.91   48.19
  -5  -2   5 1176.96   39.33
  -5   2   5 1185.89   25.15
   5   2  -5 1207.97   47.50
   5  -2   5 1129.90   40.49
   5  -2   5 1113.80   43.07
  -5   2   5 1179.29   43.73
  -5  -2  -5 1137.76   41.50
  -5  -2   6  813.11   32.51
   5  -2  -6  791.78   22.73
   5   2   6  863.59   42.87
  -5   2  -6  815.28   34.85
   5   2   6  818.97   31.35
   5  -2   6  770.69   35.03
  -5  -2  -6  817.75   35.74
  -5   2   6  817.91   24.03
   5   2  -6  829.06   33.86
   5  -2   6  829.41   39.18
  -5   2   6  797.97   37.62
   5   2   7 8418.63  250.51
   5  -2  -7 8481.28  207.54
  -5   2  -7 8888.90  248.91
  -5  -2   7 8492.74  233.74
   5   2  -7 9232.22  262.93
  -5  -2  -7 8511.82  242.49
  -5   2   7 8747.12  248.70
   5  -2   7 8816.14  276.70
  -5   2   7 8812.76  211.04
   5  -2   7 8560.38  237.46
  -5  -2   8  654.51   33.67
  -5   2  -8  725.50   52.46
   5   2   8  652.20   42.21
   5  -2  -8  672.84   23.69
  -5   2   8  739.58   32.27
   5   2  -8  727.57   37.70
   5  -2   8  682.05   36.71
  -5  -2  -8  677.57   52.61
   5  -2   8  749.01   46.46
   5   2   9  488.11   40.75
  -5   2  -9  559.54   39.01
  -5  -2   9  568.53   33.79
   5  -2  -9  580.57   24.52
   5   2  -9  599.32   36.68
  -5   2   9  601.33   34.50
  -5  -2  -9  494.84   38.56
   5  -2   9  605.73   43.94
   5  -2   9  525.16   35.32
   5  -2 -10  118.13   15.01
  -5   2 -10  128.29   27.63
   5   2  10   88.67   28.63
  -5  -2  10  117.23   22.22
   5  -2  10   90.30   35.27
   5   2 -10  150.74   24.49
  -5   2  10  124.43   25.27
   5  -2  10  116.90   39.09
  -5  -2 -10  129.18   27.36
  -5   3   0    5.51    1.92
  -5   3   0   -1.61    7.98
   5   3   0   17.29    7.79
   5   3   0   -1.65    7.58
   5  -3   0   -4.10    7.59
   5   3   1  428.82   22.49
  -5  -3   1  395.73   12.89
   5   3   1  409.64   13.29
  -5   3  -1  384.82   12.22
  -5   3  -1  411.52   22.25
   5   3  -1  454.98   29.58
   5  -3   1  403.57   12.54
   5  -3   1  394.41   21.37
  -5   3   1  416.03   22.74
   5   3  -1  457.25   21.95
  -5   3  -2 1977.93   52.98
   5   3   2 2056.87   48.92
   5   3   2 2116.93   64.70
  -5  -3   2 2073.44   47.95
  -5   3  -2 2053.22   62.86
  -5   3   2 1929.16   60.81
   5   3  -2 1967.90   58.86
   5  -3   2 2005.69   60.17
   5  -3   2 2052.64   51.20
  -5   3  -3 1840.13   49.68
  -5  -3   3 1840.14   44.75
   5   3   3 1963.44   64.22
   5   3   3 1842.69   45.97
   5  -3   3 1806.79   56.27
  -5   3   3 1826.92   57.96
   5   3  -3 1814.20   56.40
   5  -3   3 1878.48   52.57
  -5   3  -4 1580.36   47.40
   5   3   4 1534.59   41.77
  -5  -3   4 1492.99   39.59
   5   3   4 1642.55   58.30
   5  -3   4 1624.83   51.61
  -5  -3  -4 1484.34   50.79
  -5   3   4 1568.27   64.08
   5   3  -4 1595.78   52.03
   5  -3   4 1575.74   51.09
   5   3   5 1079.74   33.91
   5   3   5 1109.04   60.17
  -5   3  -5 1070.58   39.01
  -5  -3   5 1042.97   39.96
  -5  -3   5 1059.30   38.19
  -5   3   5 1030.26   20.22
  -5  -3  -5 1104.73   42.31
  -5   3   5 1085.67   22.31
   5  -3   5 1208.05   45.69
  -5   3   5 1046.24   43.08
   5   3  -5 1095.88   51.21
   5  -3   5 1057.77   40.41
  -5  -3   6 3914.09  116.63
  -5   3  -6 3983.44  126.96
   5   3   6 3940.01  125.82
   5   3   6 3941.62  105.07
  -5   3   6 3851.19   84.29
   5   3  -6 3957.20  116.60
  -5  -3  -6 3695.36  113.01
   5  -3   6 3751.12  110.18
  -5   3   6 3723.74  114.65
   5  -3   6 3993.98  124.67
   5  -3  -7  124.96    7.81
   5   3   7  151.38   24.50
  -5  -3   7  127.31   19.57
  -5   3  -7  106.22   19.70
  -5  -3  -7  163.71   31.82
   5   3  -7  136.93   19.72
  -5   3   7  115.11    9.15
  -5   3   7  156.92   21.95
   5  -3   7  111.17   24.68
   5  -3   7  108.22   19.34
  -5  -3   8 2517.82   86.22
  -5   3  -8 2467.42   87.90
   5  -3  -8 2370.03   59.95
   5   3   8 2336.81   91.12
  -5   3   8 2410.19   87.06
   5  -3   8 2350.18   92.63
   5   3  -8 2571.55  102.68
  -5   3   8 2570.70   66.81
   5  -3   8 2363.51   81.11
  -5  -3  -8 2277.21   84.73
  -5  -3   9    4.93   20.67
  -5   3  -9   12.61   14.17
   5   3   9   -0.48   25.06
  -5  -3  -9   11.73   14.65
  -5   3   9    3.97   15.10
   5  -3   9    8.06   20.53
   5   3  -9   -0.15   13.80
   5  -3   9    9.48   18.23
  -5   3   9   -0.47    7.45
   5   4   0   -0.74    7.04
  -5   4   0    1.88    6.30
  -5   4   0    0.93    2.55
   5   4   0    0.13    7.06
   5  -4   0   -3.35    6.18
  -5   4  -1 5784.14  136.45
   5   4   1 5937.64  166.02
   5   4   1 6082.42  169.22
  -5   4  -1 5979.90  162.98
   5   4  -1 5944.02  164.89
  -5   4   1 5841.21  123.24
  -5   4   1 5885.86  126.42
  -5   4   1 5946.16  162.59
   5  -4   1 6007.31  141.15
   5  -4   1 5975.96  160.80
   5   4  -1 5803.44  162.19
  -5  -4   2   28.67    3.34
  -5   4  -2   48.63    7.45
   5   4   2   22.48   14.00
  -5   4  -2   17.78   12.05
   5   4   2   29.81    4.34
  -5   4   2   23.58   12.46
  -5   4   2   32.61    2.10
   5  -4   2   21.95    7.61
  -5   4   2   24.86    3.09
   5  -4   2   26.87   11.15
  -5   4  -3  194.94   14.36
   5   4   3  193.04   21.92
  -5  -4   3  199.34    7.88
   5   4  -3  186.99   19.47
  -5   4   3  200.89   19.46
  -5   4   3  189.48    4.83
  -5   4   3  186.18    4.74
   5  -4   3  214.14   21.96
   5  -4   3  192.16   17.67
  -5   4  -4    4.27    7.67
   5   4   4   -1.76   18.36
   5   4   4    8.27    4.59
  -5  -4   4    0.63    3.75
   5  -4   4    0.83    8.77
   5   4  -4    3.12   15.64
  -5   4   4    0.12    2.23
   5  -4   4   47.10   13.69
  -5   4   4    7.37    2.28
  -5   4   4    2.60    9.97
  -5   4  -5 8367.57  229.26
   5   4   5 8255.98  205.13
  -5  -4   5 7969.32  194.48
   5   4   5 8445.88  249.09
  -5   4   5 8508.60  186.83
   5  -4   5 7974.30  221.70
   5   4  -5 8128.78  233.87
  -5   4   5 8195.38  246.91
  -5   4   5 8267.76  182.81
   5  -4   5 8956.50  251.82
   5   4   6  440.44   36.96
  -5  -4   6  400.20   24.24
   5   4   6  432.82   20.68
  -5   4  -6  462.58   28.35
  -5  -4   6  473.97   31.49
  -5   4   6  415.57   30.11
  -5   4   6  412.64   13.24
   5  -4   6  410.92   27.32
   5   4  -6  420.06   31.14
   5  -4   6  440.25   32.52
  -5   4   6  438.78   17.03
   5   4   7   51.76   22.58
  -5   4  -7   62.41   17.46
  -5  -4   7   49.90   18.99
   5   4   7   36.72   11.88
   5  -4   7   55.59   16.56
  -5   4   7   47.31   19.08
  -5  -4  -7   61.20   19.21
   5  -4   7   48.06   21.29
   5   4  -7   -1.61   29.03
  -5   4  -8  617.73   40.35
  -5  -4   8  596.65   41.20
   5   4   8  605.53   48.09
  -5  -4  -8  618.42   41.27
   5  -4   8  553.67   37.03
  -5   4   8  578.26   41.70
   5  -4   8  631.98   65.00
   5   4  -8  643.88   41.24
  -5  -4   9 1746.88   95.26
  -5   4  -9 1741.09   76.36
   5   4   9 1581.41   78.78
   5  -4   9 1658.16   85.70
  -5  -4  -9 1639.89   73.80
   5  -4   9 1933.06  124.35
   5   4  -9 1777.00   76.98
  -5   5   0    3.50    6.62
  -5   5   0   -3.40    3.30
   5   5   0    6.21    8.07
   5   5   0   10.06    7.86
   5   5   1  148.59   31.91
   5   5   1  124.25   22.16
  -5   5  -1  126.15   26.42
  -5   5  -1  116.41   10.93
  -5   5   1  122.57   10.84
  -5   5   1  118.44    8.14
   5  -5   1  129.02   17.05
  -5   5   1  139.01   18.00
   5   5  -1  126.44   20.25
   5   5  -1  154.64   20.49
   5   5   2  792.37   42.41
   5   5   2  780.63   41.81
  -5   5  -2  829.84   29.99
  -5   5   2  846.73   48.87
  -5   5   2  818.64   21.14
   5  -5   2  827.08   35.56
   5   5  -2  816.61   41.41
  -5   5   2  824.06   21.75
   5  -5   2  809.64   29.85
   5   5   3 1217.11   54.84
   5   5   3 1278.30   30.50
  -5   5  -3 1211.89   50.55
  -5   5   3 1227.41   29.07
   5  -5   3 1296.32   48.24
   5  -5   3 1281.52   44.88
  -5   5   3 1233.12   32.15
   5   5  -3 1185.84   51.67
  -5   5   3 1218.24   49.24
  -5   5  -4  678.45   31.19
   5   5   4  626.36   18.53
   5   5   4  665.15   42.16
  -5   5   4  625.61   34.80
  -5   5   4  651.63   17.40
   5  -5   4  615.99   32.28
  -5   5   4  631.11   17.13
   5   5  -4  662.05   38.17
   5  -5   4  689.22   33.72
  -5   5  -5  589.60   32.38
   5   5   5  585.27   26.03
   5   5   5  594.15   41.97
   5  -5   5  641.08   36.90
   5   5  -5  584.95   38.45
  -5   5   5  556.61   47.82
   5  -5   5  570.07   32.12
   5   5   6 2043.43   84.20
   5   5   6 2110.70   58.10
  -5   5  -6 2113.07   75.23
   5  -5   6 1998.34   70.85
   5   5  -6 2101.99   82.01
  -5   5   6 1979.06   75.06
   5  -5   6 2187.33   85.62
   5   5   7  149.99   14.89
   5   5   7  137.69   31.00
  -5   5  -7  125.15   23.36
  -5  -5   7  117.48   27.24
   5  -5   7  116.33   21.60
   5  -5   7  145.48   28.94
   5   5  -7  114.19   26.83
  -5   6   0   -3.22    6.87
  -5   6   0    0.77    4.94
   5   6   0   -5.18   16.84
  -5   6   0    0.85    8.12
   5   6   0    0.13   10.80
   5   6   1  139.00   25.98
  -5   6  -1  137.81   19.48
   5   6   1  196.68   27.46
  -5   6  -1  137.65   14.13
  -5   6   1  138.37   10.99
   5   6  -1  164.98   25.51
  -5   6   1  121.39   20.08
  -5   6   1  148.72   12.05
   5   6  -1  154.12   25.40
   5   6   2   36.43   18.84
  -5   6  -2    0.96   10.77
   5   6   2   54.03   19.62
  -5   6   2   17.97   10.22
  -5   6   2   19.27    7.08
  -5   6   2   -0.56   21.62
   5  -6   2   39.13   12.86
   5   6  -2   -0.68   18.40
   5   6  -2   33.68   17.71
  -5   6  -3 9972.82  276.32
   5   6   3 9895.94  304.44
   5   6   3 9863.91  304.56
   5  -6   310506.80  292.57
  -5   6   3 9858.88  284.06
   5  -6   310029.83  284.61
   5   6  -3 9815.97  297.07
   5   6   4   11.56   18.99
   5   6   4   14.90   18.07
  -5   6  -4    3.85   18.37
   5  -6   4   13.77   11.98
   5   6  -4   -0.52   26.49
   5  -6   4   -0.33   13.08
  -5   6  -5  582.09   34.91
   5   6   5  621.75   47.62
   5  -6   5  612.69   34.64
   5   6  -5  544.28   43.70
   5  -6   5  624.67   40.52
   5   7   0    0.83   14.25
  -5   7   0    1.28    6.88
  -5   7   0    1.01    8.95
  -5   7   0    1.02    6.38
   5   7   0    0.46   13.79
  -5   7  -1  107.02   16.16
   5   7   1  120.34   28.57
   5   7   1   93.14   29.70
   5   7  -1   -0.84   28.72
   5   7  -1  118.96   27.98
  -5   7   1  132.57   19.68
  -5   7  -2  865.84   38.65
   5   7   2  863.74   53.95
   5   7   2  836.08   56.39
   5   7  -2  764.29   52.60
   5   7  -2  892.02   55.80
  -5   7   2  764.13   40.52
   6   0   0   59.69    6.10
   6   0   0   26.77   15.47
  -6   0   0   40.88   10.71
  -6   0   1 4031.38  106.81
   6   0  -1 4053.04   89.67
   6   0   1 3937.88  103.27
  -6   0  -1 4083.90  108.78
   6   0  -1 3897.05  102.43
   6   0   1 3852.38   98.25
   6   0  -1 3985.60   87.18
   6   0  -2 9048.09  203.06
  -6   0   2 9305.36  241.78
  -6   0  -2 8880.97  213.53
   6   0  -2 9133.06  202.87
   6   0   2 9185.18  235.25
   6   0   2 8698.03  221.34
  -6   0   3 1462.65   47.23
  -6   0  -3 1375.83   39.38
   6   0  -3 1432.43   31.18
   6   0   3 1429.61   45.11
   6   0   3 1410.47   52.71
   6   0  -3 1414.45   32.08
   6   0  -4 1769.52   45.01
   6   0   4 1731.95   56.33
  -6   0  -4 1689.50   49.72
  -6   0   4 1681.89   63.24
   6   0   4 1652.71   51.85
  -6   0  -5  341.79   20.13
   6   0   5  358.01   24.55
   6   0   5  331.66   21.35
  -6   0   5  365.14   32.17
   6   0  -5  344.22   13.77
  -6   0   6 1273.38   35.08
   6   0  -6 1306.41   42.53
  -6   0   6 1258.05   47.62
   6   0   6 1251.89   45.88
   6   0   6 1248.75   52.66
  -6   0  -6 1323.82   46.62
   6   0   7   42.77   15.13
  -6   0   7   44.65   13.35
  -6   0   7   39.19   16.21
  -6   0  -7   25.79   22.61
   6   0   7   63.89   18.57
   6   0  -7   43.33   15.03
  -6   0  -8 4765.43  146.15
  -6   0   8 4751.01  125.55
   6   0  -8 4899.47  141.22
   6   0   8 4656.56  141.00
   6   0   8 4770.21  158.20
  -6   0   8 4609.20  143.53
   6   0   9 3028.65  137.32
   6   0  -9 3339.69   99.40
  -6   0  -9 3256.37  110.87
   6   0   9 3097.22  104.74
  -6   0   9 3290.43   94.67
  -6   0 -10    3.00   25.16
   6   0  10    2.47   23.84
  -6   0  10    7.44   10.79
   6   0  10   12.73   19.01
   6   0 -10    3.44   11.53
  -6   1   018067.93  485.44
   6   1   017845.56  464.72
   6   1   017994.97  457.68
  -6  -1   018427.39  482.71
   6  -1   017886.14  483.95
   6  -1   016773.57  393.20
   6   1   018409.89  477.36
  -6   1  -1 1838.26   40.38
  -6  -1   1 1907.82   54.00
  -6   1  -1 1856.18   57.49
   6  -1  -1 1811.33   55.39
   6   1   1 1852.23   51.74
   6   1   1 1848.12   51.71
   6  -1   1 1673.60   40.50
   6   1  -1 1878.11   51.79
   6   1  -1 1753.30   44.75
  -6   1   1 1870.44   66.97
   6  -1   1 1812.41   54.42
  -6  -1  -1 1856.00   53.81
  -6   1  -2 3612.15  100.87
   6   1   2 3638.90  104.69
   6   1   2 3439.45   89.76
  -6   1  -2 3376.94   81.30
  -6  -1   2 3502.18   99.87
  -6   1   2 3483.41   97.72
   6   1  -2 3433.62   86.18
   6   1  -2 3380.87   80.32
   6  -1   2 3092.01   78.19
   6  -1   2 3405.86  101.86
  -6  -1   3  385.89   19.77
  -6   1  -3  343.06   15.19
   6   1   3  377.48   21.84
   6   1   3  346.95   18.81
  -6  -1  -3  361.44   17.95
  -6   1   3  365.95   22.98
   6   1  -3  357.85   14.61
   6  -1   3  384.61   21.86
   6  -1   3  348.22   18.19
  -6  -1   4   -0.37   12.63
  -6   1  -4   10.48    6.86
   6   1   4   21.38   10.88
   6   1   4    0.61    7.87
  -6   1   4    5.08   10.14
  -6  -1  -4   19.90    8.01
   6  -1   4    7.27    8.95
   6  -1   4   10.47    9.43
   6   1  -4    9.11    9.13
  -6   1  -5    1.56    9.40
   6   1   5   -0.82    9.91
   6  -1  -5    0.12    2.24
   6   1   5   10.57    8.85
  -6  -1   5    2.92   10.31
  -6  -1   5    0.75    4.50
   6  -1   5    3.68    7.51
  -6   1   5    2.04    8.10
  -6  -1  -5    1.14    6.54
   6  -1   5   -3.19   12.23
   6   1  -5    0.61    7.60
  -6  -1   6  630.89   30.52
   6   1   6  671.03   30.40
  -6   1  -6  636.10   30.18
  -6  -1   6  645.25   24.91
   6   1   6  696.73   37.89
   6  -1  -6  693.39   18.92
   6   1  -6  725.02   27.87
   6  -1   6  632.33   43.15
  -6   1   6  664.63   34.91
  -6   1   6  661.53   20.85
  -6  -1  -6  663.27   42.21
   6  -1   6  735.22   37.95
  -6  -1   7  277.56   22.80
  -6   1  -7  242.62   22.50
   6   1   7  255.92   22.21
   6  -1  -7  242.18   12.54
   6   1   7  255.34   42.19
  -6  -1   7  258.99   17.72
   6  -1   7  262.35   27.75
  -6  -1  -7  254.34   23.53
  -6   1   7  269.08   26.26
  -6   1   7  266.75   12.31
   6  -1   7  247.39   24.54
   6   1  -7  286.38   27.62
   6  -1  -8 3611.44   92.93
  -6  -1   8 3415.93  108.20
   6   1   8 3402.99  105.46
   6   1   8 3252.88  116.01
  -6   1  -8 3331.39  108.56
   6  -1   8 3414.94  119.95
   6  -1   8 3367.68  123.79
  -6   1   8 3434.01  113.37
  -6  -1  -8 3372.54  110.83
   6   1  -8 3784.31  110.38
  -6   1   8 3671.07   92.70
   6   1   9  889.19   53.17
  -6   1  -9  901.18   47.44
  -6  -1   9  849.55   38.63
   6  -1  -9  940.25   43.44
   6   1   9  918.93   45.76
  -6  -1  -9  900.95   48.38
  -6   1   9  856.66   49.63
  -6   1   9  964.44   34.66
   6  -1   9  850.10   46.85
   6  -1   9  794.79   53.15
   6   1  -9  999.80   43.32
   6   1  10 1387.78   62.89
  -6  -1  10 1448.62   57.41
  -6   1 -10 1417.73   66.56
   6   1  10 1327.46   70.85
   6   1 -10 1564.58   62.18
   6  -1  10 1398.82   64.49
   6  -1  10 1379.90   98.31
  -6  -1 -10 1436.49   67.34
  -6  -2   0 7921.75  195.76
  -6   2   0 7852.92  211.16
   6  -2   0 7596.83  201.33
   6   2   0 8180.74  217.31
   6   2   0 7628.05  187.23
   6   2   0 7670.59  203.22
   6   2   1 1170.16   39.46
   6  -2  -1 1162.93   41.82
  -6   2  -1 1204.64   54.90
  -6   2  -1 1154.04   24.70
   6   2   1 1164.87   40.02
  -6  -2   1 1188.72   35.58
   6   2  -1 1189.48   37.53
   6  -2   1 1146.12   41.05
   6   2  -1 1175.53   43.37
  -6   2   1 1164.08   43.62
   6  -2   1 1166.40   26.37
   6   2   2 1419.88   46.66
   6   2   2 1497.26   57.95
  -6  -2   2 1453.86   42.04
  -6   2  -2 1466.08   51.27
  -6   2  -2 1381.58   33.88
  -6   2   2 1392.62   50.05
   6  -2   2 1385.84   46.55
   6   2  -2 1462.00   42.92
   6   2  -2 1414.07   42.49
   6  -2   2 1409.92   36.99
   6   2   3  739.47   33.20
  -6  -2   3  668.43   31.40
  -6   2  -3  657.97   26.70
   6   2   3  688.77   25.16
   6   2  -3  703.19   26.31
  -6   2   3  659.89   32.25
   6  -2   3  643.41   24.32
   6  -2   3  699.09   31.80
   6   2   4 2870.75   84.83
  -6  -2   4 2929.47   79.59
   6   2   4 3143.00   97.51
  -6   2  -4 2901.57   77.25
   6  -2   4 2973.57   87.33
   6   2  -4 2940.67   80.69
  -6  -2  -4 2874.20   91.91
   6  -2   4 2875.58   90.87
  -6   2   4 2988.04   91.45
  -6  -2   5  334.72   19.04
   6   2   5  385.80   20.32
  -6   2  -5  344.50   20.20
   6   2   5  405.31   28.36
  -6   2   5  359.58   27.05
  -6  -2  -5  339.81   23.46
   6  -2   5  334.97   24.66
   6  -2   5  326.53   23.52
   6   2  -5  355.23   27.88
  -6   2  -6 1865.09   71.38
  -6  -2   6 1834.02   58.19
   6   2   6 1908.86   68.66
  -6  -2   6 1879.51   58.61
   6   2   6 1930.53   73.89
  -6  -2  -6 1906.59   65.24
   6  -2   6 1824.37   67.42
   6   2  -6 1894.57   59.82
  -6   2   6 1937.57   68.59
   6  -2   6 1803.34   63.48
  -6   2  -7   76.72   25.24
  -6  -2   7   74.47   15.22
   6   2   7   79.64   15.50
   6   2   7   75.20   21.99
  -6  -2   7   84.33   14.91
   6  -2   7   66.40   18.80
  -6  -2  -7   58.79   18.60
  -6   2   7   75.64   20.24
   6  -2   7   62.63   32.02
   6   2  -7   88.17   16.15
  -6   2   7   79.56    5.81
  -6  -2   8  386.97   26.80
  -6   2  -8  344.81   29.65
   6   2   8  348.02   34.11
   6   2   8  326.71   38.14
  -6  -2   8  370.88   25.70
  -6  -2  -8  360.99   30.88
   6  -2   8  376.25   34.97
   6  -2   8  363.41   30.75
  -6   2   8  368.26   33.19
   6   2  -8  383.27   28.17
  -6  -2   9 1725.73   64.80
  -6   2  -9 1804.83   72.85
   6   2   9 1783.61   66.93
   6   2   9 1641.59   76.31
  -6   2   9 1785.02   76.21
   6   2  -9 1949.63   72.93
   6  -2   9 1857.70   84.45
   6  -2   9 1747.66   71.83
  -6  -2  -9 1816.50   74.17
   6   3   011307.70  306.00
   6  -3   011580.84  313.62
   6   3   011911.28  320.61
  -6   3   011573.72  318.81
  -6  -3   1 1067.99   30.19
   6   3   1 1097.26   41.78
  -6   3  -1 1063.87   26.24
   6   3   1 1078.85   40.00
  -6   3  -1 1095.86   44.17
   6   3   1 1083.93   30.37
   6   3  -1 1035.63   38.72
  -6   3   1 1096.07   43.89
   6   3  -1 1126.48   40.68
   6  -3   1 1064.05   41.18
   6  -3   1 1113.84   27.76
   6   3   2 2663.56   82.13
  -6  -3   2 2716.59   67.03
  -6   3  -2 2673.57   84.30
   6   3   2 2732.99   72.84
  -6   3  -2 2573.41   61.75
   6  -3   2 2779.28   71.39
   6  -3   2 2592.25   78.76
   6   3  -2 2713.54   79.09
  -6   3   2 2623.38   82.56
  -6   3  -3  242.29   13.56
   6   3   3  250.89   18.83
   6   3   3  266.69   23.59
  -6  -3   3  227.79   13.00
   6  -3   3  239.63   30.79
   6  -3   3  254.68   15.16
  -6   3   3  252.17   33.52
   6   3  -3  231.73   18.44
  -6  -3   4    0.44    5.23
  -6   3  -4    2.50    6.38
   6   3   4   -0.94    5.48
   6   3   4    2.01   10.83
  -6   3   4    3.81   15.84
   6  -3   4   17.29    7.62
   6  -3   4    1.56   14.40
   6   3  -4   -0.79    8.16
   6   3   5    2.28   11.91
  -6   3  -5    2.62    7.66
   6   3   5    8.14    6.38
  -6  -3   5    4.14    9.29
  -6  -3  -5   -1.06    9.47
   6  -3   5   -3.89    9.13
   6  -3   5    1.91    9.72
  -6   3   5   -0.65   10.89
   6   3  -5    1.42   13.20
   6   3   6  413.29   22.10
  -6   3  -6  434.66   26.52
   6   3   6  434.39   34.82
  -6  -3   6  402.75   28.61
   6   3  -6  444.47   27.53
  -6   3   6  393.24   31.91
  -6  -3  -6  416.68   29.68
   6  -3   6  406.92   28.85
   6  -3   6  439.06   30.53
  -6  -3   7  162.65   16.91
  -6   3  -7  142.27   21.00
  -6  -3   7  168.02   20.78
   6   3   7  165.42   17.15
   6   3   7  178.00   28.58
   6  -3   7  162.07   23.49
  -6   3   7  183.71   39.77
   6  -3   7  171.03   25.01
   6   3  -7  141.17   21.69
  -6  -3  -7  159.28   24.61
   6   3   8 2570.06  100.46
  -6  -3   8 2642.39   83.30
   6   3   8 2568.11   94.37
  -6  -3   8 2678.99   92.30
  -6   3  -8 2798.96  111.16
  -6   3   8 2721.75  100.06
   6  -3   8 2590.51  100.70
   6   3  -8 2811.00  110.94
   6  -3   8 2674.42   94.24
  -6  -3  -8 2664.19   96.49
  -6  -3   9  565.75   38.82
   6   3   9  587.36   34.89
  -6   3  -9  643.34   43.28
   6   3   9  536.92   45.96
  -6  -3  -9  526.91   62.24
   6   3  -9  637.77   41.73
   6  -3   9  568.31   41.71
  -6   3   9  601.59   46.22
   6  -3   9  628.62   52.31
  -6   4   0   15.11   11.50
   6  -4   0   16.17   10.50
   6   4   0   16.27   10.69
  -6   4   0    8.38    1.72
   6   4   0   12.30   11.27
  -6   4   0    0.08    3.00
  -6   4  -1 2326.70   77.28
   6   4   1 2363.87   91.25
  -6   4  -1 2336.80   53.88
   6   4   1 2392.06   91.87
   6  -4   1 2309.33   73.86
   6   4  -1 2390.67   77.40
   6   4  -1 2416.49   78.53
  -6   4   1 2312.24   90.49
   6   4   2 5603.06  165.92
   6   4   2 5550.28  129.30
  -6  -4   2 5469.63  123.74
  -6   4  -2 5326.59  155.94
  -6   4  -2 5376.39  129.96
   6  -4   2 5290.47  162.84
   6  -4   2 5586.53  136.21
   6   4  -2 5469.27  158.05
  -6   4   2 5408.73  158.37
   6   4  -2 5425.44  155.67
  -6  -4   3  997.24   26.92
   6   4   3 1042.30   48.99
  -6   4  -3  999.52   32.77
   6   4   3  985.96   28.51
   6  -4   3 1018.51   42.17
   6   4  -3  988.02   42.96
  -6   4   3 1016.66   45.96
   6  -4   3 1077.61   35.97
   6   4   4  996.12   30.68
  -6   4  -4 1006.90   36.40
  -6  -4   4 1021.44   29.29
   6   4   4 1073.70   50.54
  -6   4   4  937.90   45.88
   6   4  -4  974.31   55.55
   6  -4   4  956.40   55.22
   6  -4   4 1094.41   51.07
  -6   4  -5  214.06   28.19
   6   4   5  185.60   28.20
   6   4   5  210.23   14.28
  -6  -4   5  201.46   12.78
  -6   4   5  228.72   37.97
   6  -4   5  221.82   22.03
   6   4  -5  202.56   23.31
   6  -4   5  170.95   22.50
  -6   4  -6  839.33   39.36
   6   4   6  825.45   49.16
   6   4   6  788.24   30.64
  -6  -4   6  750.46   35.13
  -6   4   6  755.75   44.90
   6  -4   6  751.45   40.40
   6  -4   6  828.41   44.13
   6   4  -6  798.98   41.80
  -6  -4   7    1.87   17.61
  -6   4  -7   52.74   17.07
   6   4   7   52.20   23.12
  -6  -4   7   22.87   16.60
   6   4   7   47.77   18.57
  -6   4   7   39.77   20.18
   6   4  -7   -2.94   28.74
   6  -4   7   60.15   17.93
   6  -4   7   46.24   19.33
  -6   4  -8 3266.54  127.79
   6   4   8 2974.20  118.22
  -6  -4   8 3142.84   92.32
   6   4   8 3110.23   94.24
  -6  -4   8 3063.71  110.19
   6  -4   8 3069.67  117.18
   6  -4   8 3148.53  108.43
   6   4  -8 3137.33  111.18
  -6  -4  -8 3055.78  111.96
  -6   5   0 8691.99  203.77
  -6   5   0 8630.23  248.85
   6   5   0 8316.13  263.71
  -6   5   0 8685.23  195.87
   6   5   0 8666.85  256.07
  -6   5  -1 1107.67   36.36
   6   5   1 1027.82   67.71
   6   5   1 1107.55   52.41
  -6   5  -1 1094.53   62.78
   6   5  -1 1063.57   49.35
  -6   5   1  999.18   46.77
   6   5  -1 1090.10   50.08
   6  -5   1 1091.16   59.79
   6   5   2 1962.97   77.28
  -6   5  -2 2004.52   61.78
   6   5   2 1990.91   76.03
   6   5  -2 1963.35   74.29
   6  -5   2 2084.90   58.05
   6  -5   2 2087.05   83.97
   6   5  -2 2012.35   74.97
  -6   5   2 2041.09   73.59
   6   5   3  275.45   32.00
  -6   5  -3  292.59   18.43
   6  -5   3  290.25   20.14
   6   5  -3  279.44   28.18
  -6   5   3  296.09   27.41
   6  -5   3  305.49   37.31
   6   5   4   25.77   19.96
  -6   5  -4   30.23   11.45
  -6   5   4   43.58   17.24
   6  -5   4    1.18   13.29
   6  -5   4   66.79   24.22
   6   5  -4   -2.12   26.33
   6   5   5    0.74    7.33
  -6   5  -5    4.46   12.73
   6   5   5    7.27   20.61
   6  -5   5   -0.54    9.52
   6  -5   5   -2.01    9.74
   6   5  -5   -2.93   11.45
  -6   5   5    5.71   10.93
   6   5   6  461.68   63.91
  -6   5  -6  459.19   32.08
   6   5   6  520.27   22.90
   6  -5   6  559.31   39.89
   6   5  -6  503.89   38.81
   6  -5   6  519.64   35.64
   6   6   0 3135.92  114.47
  -6   6   0 3277.01  107.39
   6   6   0 3195.13  113.96
   6   6   1  686.18   46.25
   6   6   1  703.46   46.83
  -6   6  -1  649.63   38.58
   6   6  -1  709.01   45.37
  -6   6   1  640.47   38.93
   6   6  -1  687.74   45.44
   6   6   2  359.59   39.49
  -6   6  -2  425.70   29.82
   6   6   2  404.00   39.77
   6   6  -2  393.66   37.00
   6  -6   2  416.55   43.37
  -6   6   2  406.35   32.69
   6   6  -2  378.86   52.60
   6   6   3  469.78   61.64
   6   6   3  451.76   42.21
  -6   6  -3  483.77   26.20
   6  -6   3  357.84   25.49
   6   6  -3  455.55   56.01
  -6   6   3  527.00   35.89
   6   6  -3  482.73   39.85
   6  -6   3  414.76   45.59
   6   6   4 1313.20   69.26
  -6   6  -4 1388.93   52.49
   6   6   4 1302.37   70.48
   6  -6   4 1307.47   57.22
   6  -6   4 1499.39   58.91
   6   6  -4 1311.94   84.21
   7   0   0    3.63    3.67
   7   0   0   -2.03    7.64
   7   0   0    6.37    6.38
  -7   0   0    2.81    8.44
   7   0   1 1573.81   50.57
   7   0  -1 1580.17   37.71
  -7   0   1 1667.29   64.36
   7   0  -1 1638.37   40.36
  -7   0  -1 1674.75   55.33
   7   0   1 1576.12   49.38
   7   0  -2  478.87   13.45
   7   0   2  473.63   24.85
   7   0  -2  488.17   13.07
  -7   0   2  482.29   27.08
   7   0   2  482.94   21.57
  -7   0  -2  481.00   18.24
   7   0   3 6403.55  174.29
   7   0  -3 6602.61  147.50
  -7   0   3 6515.56  180.78
   7   0   3 6211.58  169.08
   7   0  -3 6595.79  143.11
  -7   0  -3 6482.51  162.96
   7   0   4  782.59   34.67
   7   0   4  806.47   35.31
  -7   0   4  799.38   35.83
  -7   0  -4  744.71   36.51
   7   0  -4  817.93   21.28
   7   0  -4  764.35   18.87
  -7   0  -5  346.92   21.25
   7   0   5  349.49   26.95
   7   0  -5  381.08   14.07
   7   0   5  352.02   24.58
  -7   0   5  366.13   26.67
  -7   0  -6 2664.87   82.35
   7   0  -6 2680.93   66.59
   7   0   6 2491.75   81.65
  -7   0   6 2667.34   88.30
   7   0   6 2683.18   92.83
   7   0   7 1436.95   57.79
   7   0  -7 1555.46   45.10
  -7   0   7 1437.82   74.78
   7   0   7 1455.41   82.09
  -7   0  -7 1501.35   56.71
   7   0   8 1498.63   61.77
  -7   0  -8 1629.38   78.56
  -7   0   8 1508.40   65.15
   7   0   8 1584.47   71.72
   7   0   9 1129.15   62.62
   7   0   9 1089.21   54.53
  -7   0  -9 1149.21   55.68
  -7   0   9 1083.31   56.53
  -7   1   0   -1.70    6.69
  -7  -1   0   -0.06    5.43
   7  -1   0   -0.05    1.49
   7  -1   0    0.08    1.69
   7  -1   0   -5.70    6.02
   7   1   0   -1.68    4.05
   7   1   0    0.02    3.70
   7   1   0    2.98    4.95
   7   1   1  647.31   25.23
  -7   1  -1  632.84   32.79
   7  -1  -1  625.28   29.88
  -7  -1   1  794.06   30.74
   7   1   1  621.25   26.77
   7  -1   1  632.47   29.52
   7  -1   1  591.16   18.32
  -7   1   1  628.57   31.57
  -7  -1  -1  673.12   29.34
   7   1  -1  615.48   21.22
  -7   1  -2   17.95   12.92
   7   1   2   21.70    9.48
  -7   1  -2   13.88    5.06
  -7  -1   2   16.02   15.31
   7   1   2   23.13    9.83
   7   1  -2    6.46    9.15
   7  -1   2   20.32   10.52
   7  -1   2   16.86   10.97
  -7   1   2   18.71   12.12
   7   1  -2   10.89    5.97
  -7  -1   3 5640.41  154.47
   7   1   3 5886.16  173.93
   7   1   3 5630.23  150.87
  -7   1  -3 5492.96  134.56
   7  -1   3 5256.38  147.13
  -7   1   3 5570.33  159.83
   7   1  -3 5502.40  137.72
   7  -1   3 5418.73  151.91
   7   1  -3 5544.97  139.61
  -7  -1  -3 5512.73  145.00
  -7  -1   4   51.55   13.48
   7   1   4   59.59   15.96
  -7   1  -4   60.00   10.14
   7   1   4   66.51   13.18
   7  -1   4   36.51   15.10
  -7  -1  -4   55.80   12.01
   7   1  -4   61.71    8.65
  -7   1   4   55.52   16.34
   7  -1   4   48.25   19.95
   7   1  -4   56.68    7.70
  -7  -1   5 4646.98  134.47
  -7   1  -5 4684.30  128.39
   7   1   5 4790.06  145.67
   7   1   5 4723.83  132.68
  -7  -1  -5 4710.00  132.31
   7  -1   5 4575.98  133.67
   7  -1   5 4617.12  136.69
   7   1  -5 4724.62  119.71
  -7   1   5 4665.54  140.87
   7   1   6  146.05   24.10
  -7   1  -6  156.62   26.17
  -7  -1   6  156.25   19.62
   7   1   6  132.58   18.69
   7   1  -6  174.86   21.53
  -7   1   6  152.24   23.21
   7  -1   6  140.68   21.61
   7  -1   6  151.32   21.59
  -7  -1  -6  146.06   28.80
  -7   1  -7 1444.91   55.04
   7   1   7 1370.10   63.07
   7   1   7 1388.96   66.68
  -7  -1   7 1345.74   67.31
   7  -1   7 1361.47   56.97
   7   1  -7 1450.18   48.23
  -7   1   7 1341.56   60.32
  -7  -1  -7 1362.09   55.64
   7  -1   7 1356.93   76.80
  -7  -1   8  344.89   21.44
  -7   1  -8  326.41   29.04
   7   1   8  268.91   52.22
  -7  -1   8  318.33   29.13
   7   1   8  323.62   28.47
   7  -1   8  316.92   30.34
   7   1  -8  364.16   24.64
  -7  -1  -8  325.68   29.97
   7  -1   8  306.00   33.80
  -7   1   8  332.17   33.17
  -7  -1   9   47.73   14.37
  -7  -1   9   42.90   19.68
   7   1   9   46.47   24.28
   7   1   9   29.24   19.43
  -7   1  -9   62.77   20.27
  -7  -1  -9   40.23   20.51
  -7   1   9   43.09   22.26
   7   1  -9   24.64   15.92
   7  -1   9   56.03   21.43
   7  -1   9   34.37   24.06
   7   2   0    0.40    7.44
   7   2   0    0.79    6.77
   7  -2   0    1.31   10.46
  -7   2   0    0.63   11.48
   7   2   0    4.41    7.56
  -7  -2   0   22.49    7.37
   7   2   1 3232.57   86.43
  -7   2  -1 3230.71   65.30
  -7  -2   1 3196.24   87.39
   7   2   1 3276.59   94.88
  -7   2  -1 3253.87  101.31
   7  -2   1 3211.31   67.27
   7   2  -1 3153.63   86.24
   7  -2   1 3234.96   96.38
  -7   2   1 3147.10   97.67
   7   2  -1 3326.05   90.58
   7   2   2 1612.66   49.37
   7   2   2 1646.60   55.76
  -7  -2   2 1598.34   49.42
  -7   2  -2 1656.27   62.53
  -7   2  -2 1557.13   40.53
  -7   2   2 1579.47   58.86
   7   2  -2 1511.43   46.91
   7  -2   2 1601.43   41.31
   7   2  -2 1699.64   50.20
   7  -2   2 1604.35   56.29
  -7  -2   3  259.68   18.11
   7   2   3  284.21   18.85
   7   2   3  282.61   34.87
  -7   2  -3  267.51   13.00
   7   2  -3  266.93   16.71
   7   2  -3  293.09   23.17
   7  -2   3  286.21   23.66
   7  -2   3  264.34   16.19
  -7   2   3  265.17   25.14
   7   2   4 2671.53   89.35
  -7   2  -4 2546.14   68.94
  -7  -2   4 2511.27   82.63
   7   2   4 2529.06   74.08
   7  -2   4 2450.34   73.46
   7  -2   4 2435.02   80.94
   7   2  -4 2519.77   71.80
  -7   2   4 2462.07   83.62
   7   2   5 3553.18  116.53
  -7  -2   5 3419.59   98.85
   7   2   5 3475.86   99.43
  -7   2  -5 3506.88   97.81
   7  -2   5 3366.57  114.31
  -7   2   5 3450.98  111.72
  -7  -2  -5 3434.17  103.11
   7   2  -5 3523.07   98.87
   7  -2   5 3449.95  107.74
  -7  -2   6 4904.52  151.59
   7   2   6 4934.25  139.83
   7   2   6 4855.90  174.08
  -7   2  -6 5032.99  141.81
   7  -2   6 4769.52  160.56
   7   2  -6 5042.58  150.13
   7  -2   6 4787.72  145.81
  -7  -2  -6 4906.63  146.30
  -7   2   6 4831.30  152.27
   7   2   7 1234.00   59.96
  -7   2  -7 1196.72   47.97
  -7  -2   7 1153.54   47.45
   7   2   7 1185.11   59.01
   7   2  -7 1225.57   47.77
   7  -2   7 1205.49   53.56
   7  -2   7 1150.08   54.11
  -7   2   7 1217.04   58.29
  -7  -2  -7 1198.84   68.37
   7   2   8 1706.95   64.14
   7   2   8 1596.11   74.72
  -7  -2   8 1646.08   63.22
  -7   2  -8 1734.61   66.17
  -7  -2   8 1665.71   59.55
  -7  -2  -8 1726.85   71.40
   7   2  -8 1913.20   67.84
  -7   2   8 1683.89   74.90
   7  -2   8 1608.45   73.02
   7  -2   8 1674.75   71.43
  -7   3   0   -0.86   11.30
   7   3   0   -5.76    8.68
   7   3   0   -2.26    8.94
   7  -3   0   -4.39   10.44
   7   3   1  676.22   30.40
  -7   3  -1  689.86   37.50
  -7   3  -1  652.78   13.06
   7   3   1  744.09   34.73
  -7  -3   1  682.94   24.86
   7   3   1  685.40   32.01
   7  -3   1  700.35   15.76
   7  -3   1  649.15   46.98
   7   3  -1  652.85   31.33
   7   3  -1  742.27   42.25
  -7   3   1  673.50   37.18
   7   3   2   19.86   12.67
  -7   3  -2   11.39    4.36
   7   3   2    7.33   11.16
  -7   3  -2    9.15   13.66
  -7  -3   2    8.13    7.10
   7   3  -2   16.95    9.85
   7  -3   2    7.75    5.11
   7  -3   2    2.77   12.27
   7   3  -2   14.80    9.88
  -7   3   2    8.02   22.17
  -7  -3   3 4794.91  124.97
  -7   3  -3 4743.46  116.13
   7   3   3 4785.33  124.85
   7   3   3 4992.27  151.01
   7   3  -3 4824.99  144.80
   7   3  -3 4773.92  135.14
  -7   3   3 4785.64  162.58
   7  -3   3 4600.50  137.68
   7  -3   3 5079.91  128.59
  -7  -3   4   38.58   16.60
   7   3   4   49.40   17.44
  -7   3  -4   55.63   10.35
   7   3   4    2.05   19.34
   7  -3   4  169.54   28.21
   7   3  -4   50.18   14.18
  -7   3   4   45.89   30.77
   7  -3   4   74.76   12.75
  -7  -3   5 4657.94  126.30
   7   3   5 4716.09  128.28
  -7   3  -5 4709.61  129.22
   7   3   5 4901.99  155.95
   7  -3   5 4802.91  139.97
   7   3  -5 4700.71  137.75
  -7   3   5 4588.11  147.12
   7  -3   5 4572.86  141.72
   7   3   6  101.11   15.42
  -7   3  -6   97.29   16.94
   7   3   6  124.73   25.85
  -7  -3   6  103.46   15.57
  -7   3   6  103.25   24.57
   7  -3   6  131.75   22.73
   7  -3   6  137.48   20.41
  -7  -3  -6  116.08   21.93
   7   3  -6  108.67   19.03
  -7  -3   7 1198.04   46.67
  -7   3  -7 1254.93   50.42
   7   3   7 1156.40   63.08
   7   3   7 1216.71   47.03
  -7  -3  -7 1200.01   56.28
   7  -3   7 1200.09   56.46
  -7   3   7 1251.86   79.73
   7   3  -7 1227.23   65.89
   7  -3   7 1147.79   55.94
   7   4   0   -0.62   10.03
   7   4   0    5.72    9.20
  -7   4   0    1.47   10.97
   7  -4   0   -1.91   10.32
   7   4   1 1000.00   44.96
  -7   4  -1  949.89   47.31
   7   4   1  949.19   45.71
  -7   4  -1  963.29   21.61
   7   4  -1 1011.67   44.96
   7  -4   1  953.16   44.40
  -7   4   1 1053.71   48.96
   7   4  -1  925.63   55.85
  -7  -4   2  361.84   15.07
  -7   4  -2  325.68   30.77
  -7   4  -2  383.93   14.18
   7   4   2  370.49   31.09
   7   4   2  395.28   16.48
   7   4   2  377.39   29.58
  -7   4   2  362.46   31.96
   7  -4   2  346.87   29.03
   7  -4   2  392.22   15.28
   7   4  -2  335.77   27.28
   7   4  -2  407.74   28.75
  -7   4  -3 4185.72  105.97
   7   4   3 4522.90  159.65
   7   4   3 4162.11  105.99
  -7  -4   3 4150.39  102.37
   7   4  -3 4097.00  126.07
   7   4  -3 3975.77  122.48
   7  -4   3 4257.80  118.81
  -7   4   3 3906.04  130.29
   7  -4   3 3833.28  121.97
   7   4   4  740.75   34.82
   7   4   4  746.31   62.51
  -7   4  -4  684.03   29.04
  -7  -4   4  756.32   32.50
   7   4  -4  687.55   37.53
   7  -4   4  667.27   39.57
   7  -4   4  764.60   32.77
  -7   4   4  703.62   43.80
  -7   4  -5  276.92   30.12
  -7  -4   5  261.67   16.58
   7   4   5  243.92   18.00
   7   4   5  294.08   49.22
  -7   4   5  231.70   31.05
   7   4  -5  257.04   26.30
   7  -4   5  297.32   24.79
   7  -4   5  285.11   43.53
   7   4   6 1936.05  106.33
  -7   4  -6 1994.62   80.41
   7   4   6 1926.77   60.28
  -7  -4   6 1954.49   57.97
  -7   4   6 1872.92   79.49
   7   4  -6 1942.13   73.94
   7  -4   6 1911.60   76.68
   7  -4   6 1970.13   73.94
   7   5   0    1.79    8.39
  -7   5   0   -1.38    8.31
   7   5   0   -0.58    8.57
   7   5   1  248.04   30.35
  -7   5  -1  224.70   28.61
   7   5   1  266.71   29.01
   7   5  -1  216.53   28.60
   7   5  -1  242.05   27.77
  -7   5   1  263.94   29.03
   7  -5   1  236.99   26.79
   7   5   2    4.86   14.26
   7   5   2    3.86   14.90
   7   5  -2   -0.24   13.63
   7   5  -2    2.48   13.28
  -7   5   2    7.49   13.93
   7  -5   2    5.46   12.53
   7   5   3 2789.32  102.75
   7   5   3 2919.81  110.03
  -7   5   3 2783.09  100.47
   7  -5   3 2753.99   95.16
   7   5  -3 2857.59   99.72
   7   5  -3 2793.68  100.17
  -7   5  -4   21.91   16.42
   7   5   4   28.65   19.89
   7  -5   4   26.85   16.30
   7  -5   4   -0.17   18.17
   7   5  -4   -2.29   16.60
  -7   5  -5 2479.81   92.33
   7   5   5 2272.89   97.49
   7  -5   5 2579.95  101.93
   7  -5   5 2267.94   87.93
   7   5  -5 2477.20   92.09
   7   6   0    4.47   19.61
  -7   6   0   -0.18   11.14
   7   6   0   -3.05   12.80
  -7   6  -1 1238.57   59.08
   7   6   1 1292.46   67.81
   7   6  -1 1349.53   66.95
  -7   6   1 1332.42   61.98
   7   6  -1 1308.65   85.57
   8   0   014430.64  365.11
   8   0   014724.79  407.98
   8   0   014964.84  367.58
  -8   0   015279.86  444.06
   8   0  -1 2287.67   51.85
   8   0   1 2190.47   70.74
  -8   0  -1 2376.84   81.07
   8   0   1 2246.22   67.62
   8   0  -1 2225.57   52.70
  -8   0   1 2299.56   76.66
   8   0   2  220.68   20.82
   8   0  -2  218.90    8.24
  -8   0   2  224.69   22.70
   8   0   2  227.08   16.62
  -8   0   3 1168.53   50.01
  -8   0  -3 1178.46   37.83
   8   0   3 1169.97   43.25
   8   0  -3 1201.64   27.85
   8   0   3 1159.98   46.65
   8   0   4 2671.83   85.84
  -8   0  -4 2819.46   80.56
   8   0   4 2695.02   87.48
  -8   0   4 2809.25   92.46
   8   0   5    7.11   12.36
  -8   0   5    3.07   12.99
   8   0   5   13.67   12.05
  -8   0  -5    2.89    9.05
  -8   0  -6 5267.02  150.92
   8   0   6 5007.70  156.91
   8   0   6 4671.23  145.33
  -8   0   6 5178.57  161.02
  -8   0   7  848.82   48.45
   8   0   7  840.55   46.24
   8   0   7  871.63   49.31
  -8   0  -7  864.41   41.62
  -8   1   0 1580.66   60.46
   8   1   0 1532.36   46.02
   8   1   0 1514.81   52.05
   8  -1   0 1500.63   54.98
   8  -1   0 1514.87   29.20
  -8  -1   0 1555.50   55.15
   8   1   0 1520.10   44.20
   8  -1   0 1535.46   30.14
   8   1   1  491.89   21.84
   8   1   1  575.58   25.69
  -8  -1   1  464.32   27.46
  -8   1  -1  534.06   46.77
   8   1   1  494.55   26.14
   8  -1   1  450.82   28.81
   8   1  -1  499.28   20.47
  -8   1   1  487.14   31.98
   8  -1   1  456.03   15.59
   8   1  -1  471.06   18.73
  -8  -1   2 1035.55   54.36
   8   1   2 1064.39   41.28
   8   1   2 1101.08   41.95
   8  -1   2 1049.51   32.80
   8  -1   2 1011.22   44.07
  -8   1   2 1020.59   47.63
   8   1  -2 1124.08   39.57
   8   1  -2 1034.72   31.09
  -8   1  -3 1938.79   52.70
   8   1   3 1858.76   62.88
  -8  -1   3 1951.53   66.92
   8   1   3 1993.60   67.83
   8   1  -3 1896.97   50.38
  -8   1   3 1913.43   71.79
   8  -1   3 1872.29   56.94
   8  -1   3 1880.19   67.19
   8   1  -3 2000.09   52.60
   8   1   4  251.98   24.87
  -8   1  -4  268.55   23.03
   8   1   4  272.97   22.43
  -8  -1   4  256.16   24.18
   8  -1   4  220.87   25.75
  -8   1   4  257.74   28.27
  -8  -1  -4  243.37   19.64
   8   1  -4  231.83   13.46
   8  -1   4  236.23   20.17
   8   1  -4  271.72   20.37
   8   1   5   85.72   18.38
  -8   1  -5  103.99   21.40
  -8  -1   5   91.45   19.36
   8   1   5  128.34   21.14
   8   1  -5   97.96   17.16
  -8   1   5  126.29   22.84
   8  -1   5  103.14   18.37
  -8  -1  -5  111.70   16.65
   8  -1   5   81.15   33.17
   8   1  -5  103.04   10.35
  -8   1  -6  197.66   19.78
   8   1   6  217.89   24.12
   8   1   6  236.51   41.87
  -8  -1   6  205.67   37.05
  -8  -1  -6  286.05   23.44
  -8   1   6  226.99   43.50
   8  -1   6  190.44   27.59
   8  -1   6  193.08   36.37
  -8   1  -7   56.00   17.06
  -8  -1   7   71.40   20.51
   8   1   7   63.46   24.24
   8   1   7   77.98   20.17
  -8  -1  -7   81.71   19.41
   8  -1   7  102.58   21.49
   8  -1   7   90.89   22.30
  -8   1   7   78.00   24.82
   8   2   0  488.14   25.89
   8  -2   0  450.94   31.96
  -8  -2   0  485.06   26.23
  -8   2   0  501.56   35.26
   8   2   0  480.75   24.13
  -8   2  -1  663.89   39.01
   8   2   1  631.66   30.70
   8   2   1  635.20   29.18
   8   2   1  618.19   27.99
  -8  -2   1  652.76   29.65
   8  -2   1  609.52   11.66
   8   2  -1  604.26   26.81
   8   2  -1  632.48   28.45
  -8   2   1  661.27   39.03
   8  -2   1  619.59   12.93
   8  -2   1  582.90   35.00
  -8   2  -2 7365.47  171.77
  -8  -2   2 7199.77  198.14
   8   2   2 7330.54  209.11
   8   2   2 7354.12  200.15
   8   2  -2 7078.44  187.36
  -8   2   2 7130.35  214.82
   8   2  -2 7533.37  208.58
   8  -2   2 7056.87  220.53
   8  -2   2 7220.44  172.13
  -8   2  -3  546.56   19.61
   8   2   3  573.11   35.61
   8   2   3  599.05   38.39
  -8  -2   3  581.33   29.17
   8  -2   3  500.42   35.53
   8   2  -3  577.72   25.46
   8  -2   3  557.87   23.14
   8   2  -3  587.27   26.17
  -8   2   3  546.11   38.46
   8   2   4  677.38   38.80
  -8  -2   4  628.49   32.27
  -8   2  -4  647.32   25.00
   8   2   4  622.80   31.54
   8  -2   4  613.30   28.76
   8   2  -4  651.72   27.61
  -8   2   4  631.89   41.95
   8   2  -4  603.50   35.48
   8  -2   4  574.02   37.30
  -8   2  -5    6.56    8.03
   8   2   5    0.31   13.90
   8   2   5    1.22    9.98
  -8  -2   5    5.85   10.51
   8   2  -5    3.14    8.42
   8  -2   5    8.52   13.72
   8   2  -5    3.94    7.70
  -8   2   5   13.23   14.55
   8  -2   5   -0.08   10.25
  -8  -2   6   10.11   12.22
   8   2   6   11.06   16.43
  -8   2  -6   10.10   10.47
   8   2   6    5.35   17.74
   8  -2   6   10.55   16.21
   8   2  -6    8.17   10.15
  -8   2   6   12.65   17.13
   8  -2   6   -0.30   13.11
  -8  -2  -6   14.23   13.09
   8   2   7  264.57   33.65
   8   2   7  214.08   24.52
  -8  -2   7  244.06   25.56
  -8   2  -7  228.28   34.96
   8  -2   7  223.99   31.74
   8  -2   7  215.03   28.88
  -8  -2  -7  219.74   28.18
  -8   2   7  245.13   34.35
   8   2  -7  250.33   22.48
   8   3   0  877.81   38.69
   8   3   0  859.08   40.14
   8  -3   0  869.74   44.35
  -8   3   0  908.96   46.97
   8   3   1  353.57   25.57
   8   3   1  404.19   28.72
  -8  -3   1  406.11   21.18
  -8   3  -1  341.73   32.67
   8   3   1  368.52   20.50
   8  -3   1  376.14   30.60
   8   3  -1  373.91   26.44
  -8   3   1  317.18   32.42
   8   3  -1  360.34   24.42
   8   3   2  819.92   42.72
   8   3   2  824.96   31.49
   8   3   2  744.15   37.42
  -8  -3   2  780.40   31.17
   8   3  -2  805.68   35.79
  -8   3   2  825.50   47.09
   8  -3   2  775.18   42.72
   8   3  -2  852.21   37.60
  -8   3  -3 1442.28   38.33
   8   3   3 1468.48   49.02
  -8  -3   3 1549.41   50.34
   8   3   3 1435.52   62.78
   8  -3   3 1468.05   60.80
   8   3  -3 1444.30   64.95
   8  -3   3 1437.44   42.33
   8   3  -3 1463.20   52.89
  -8   3   3 1438.61   65.47
   8   3   4  155.84   27.12
  -8   3  -4  153.05   19.18
   8   3   4  167.16   17.08
  -8  -3   4  160.29   16.94
   8  -3   4  151.13   23.65
   8   3  -4  137.09   27.83
   8   3  -4  154.59   28.55
  -8   3   4  190.41   44.48
   8  -3   4  148.96   25.81
   8   3   5    1.15   24.59
   8   3   5   85.58   15.33
  -8   3  -5   79.90   13.94
  -8  -3   5   84.31   15.89
   8   3  -5   99.49   17.20
   8  -3   5   85.54   16.56
  -8   3   5   82.95   25.91
   8  -3   5   33.62   36.50
  -8  -3   6  111.09   18.12
  -8   3  -6  116.45   25.10
   8   3   6    3.48   27.70
   8   3   6  114.61   17.34
   8  -3   6  123.32   25.61
   8   3  -6   71.57   29.16
  -8   3   6  101.32   28.13
   8  -3   6  111.64   20.75
  -8   4   0 9687.25  294.13
   8   4   0 9713.73  284.89
   8   4   0 9613.51  285.06
  -8   4  -1 1400.11   65.05
   8   4   1 1503.08   63.86
   8   4   1 1362.78   73.18
   8   4  -1 1457.68   60.08
  -8   4   1 1545.73   69.49
   8   4  -1 1485.50   60.22
   8   4   2  152.25   36.10
   8   4   2  156.50   13.58
   8   4   2  166.92   26.86
  -8   4   2  139.14   28.92
   8  -4   2  141.18   26.62
   8   4  -2  149.95   21.95
   8   4  -2  150.20   23.02
   8   4   3  790.84   37.82
   8   4   3  783.52   48.33
   8   4  -3  749.50   41.25
  -8   4   3  791.58   49.13
   8  -4   3  767.11   45.15
   8   4  -3  751.72   40.97
   8   4   4 1840.43   80.05
   8   4   4 1958.45   60.01
  -8   4   4 1882.57   80.30
   8   4  -4 1843.51   70.35
   8  -4   4 1738.03   73.97
   8   4  -4 1836.98   69.82
   8   4   5   -0.93   12.06
   8   4   5    0.89    5.98
  -8   4  -5   -2.23    5.92
   8   4  -5    0.95    8.43
  -8   4   5   -1.11   12.10
   8  -4   5    2.87   10.42
  -8   5   0 1133.65   60.44
   8   5   0 1193.83   59.99
   8   5   0 1190.60   56.81
   8   5   1  377.28   36.10
   8   5   1  434.79   39.64
  -8   5  -1  453.96   38.37
   8   5  -1  419.05   35.16
   8   5  -1  419.74   36.86
  -8   5   1  382.38   39.06
   8  -5   1  424.17   37.25
   8   5   2  692.64   46.61
   8   5   2  700.07   50.95
   8   5  -2  723.62   45.69
   8   5  -2  646.04   60.69
  -8   5   2  735.48   48.59
   8  -5   2  660.63   44.74
   9   0   0    6.32   11.58
  -9   0   0    2.93   12.97
   9   0   1  747.47   38.71
  -9   0  -1  873.09   47.31
  -9   0   1  821.79   43.16
   9   0   1  832.90   27.24
   9   0   1  791.87   28.89
   9   0   2   98.95   14.22
  -9   0   2  102.97   21.20
   9   0   2   93.11   19.91
   9   0   3 7442.68  205.99
  -9   0   3 7506.21  226.50
   9   0   3 7421.60  218.79
   9   0   4  114.57   21.84
  -9   0  -4  117.85   14.80
   9   0   4   92.96   18.73
  -9   0   4  114.85   23.43
   9   0   5  677.36   52.61
  -9   0  -5  706.59   33.44
  -9   0   5  718.43   45.46
   9   0   5  698.65   42.62
  -9   0   6   64.43   36.33
   9   0   6   50.04   20.99
   9   0   6   63.62   21.90
  -9   0  -6   71.35   16.34
  -9  -1   0    2.55    8.14
   9   1   0   -2.54    8.26
   9  -1   0    1.79    8.23
  -9   1   0   -4.74    9.29
   9   1   0    0.73    4.35
  -9  -1   1   13.73   19.16
   9   1   1    6.73   14.99
   9   1   1    9.36   11.07
   9   1   1    0.27    8.14
  -9   1  -1   13.82   15.69
   9   1  -1    4.30   11.72
  -9   1   1    8.81   14.64
   9  -1   1   25.10   13.07
   9   1  -1    3.46    6.63
   9   1   2  292.79   23.43
   9   1   2  251.14   23.88
  -9  -1   2  308.88   37.64
   9  -1   2  280.14   27.18
   9   1  -2  280.04   14.74
   9   1  -2  271.58   21.21
  -9   1   2  259.38   30.54
   9   1   3  239.60   23.94
   9   1   3  250.33   24.28
  -9  -1   3  241.25   25.62
   9  -1   3  244.56   27.15
   9  -1   3  228.03   17.50
  -9   1   3  231.50   29.72
   9   1   4 1735.26   65.38
  -9   1  -4 1799.35   54.20
   9   1   4 1715.42   66.24
  -9  -1   4 1745.41   67.42
   9  -1   4 1620.35   56.73
   9  -1   4 1713.24   69.07
  -9   1   4 1729.93   74.28
  -9  -1   5  194.82   37.77
   9   1   5  162.75   37.91
  -9   1  -5  173.46   17.56
   9   1   5  168.63   24.30
   9  -1   5  128.00   26.52
   9  -1   5  145.06   20.92
  -9   1   5  150.44   29.51
   9   2   0    0.51    7.20
  -9   2   0    4.45   12.76
   9   2   0    0.67    7.80
   9  -2   0    0.32   11.71
   9   2   1 2460.64   81.78
  -9  -2   1 2474.17   93.35
  -9   2  -1 2388.32   93.43
   9   2   1 2414.93   76.89
   9   2   1 2398.55   75.96
   9   2  -1 2418.99   81.61
   9  -2   1 2392.23   87.06
   9   2  -1 2479.42   75.64
  -9   2   1 2319.59   90.48
  -9  -2   2  217.01   21.54
   9   2   2  190.14   21.10
   9   2   2  228.93   25.10
   9   2   2  196.95   20.23
   9   2  -2  213.42   24.99
   9   2  -2  220.95   18.52
  -9   2   2  189.45   30.66
   9  -2   2  212.91   27.34
   9   2   3 1082.40   56.86
  -9  -2   3 1055.69   46.25
   9   2   3 1063.47   51.33
   9  -2   3 1063.86   69.91
   9   2  -3 1040.70   38.46
   9   2  -3 1160.92   41.58
  -9   2   3 1017.77   55.38
   9   2   4  205.04   33.10
  -9  -2   4  204.95   23.74
   9   2   4  208.33   27.79
   9  -2   4  181.26   29.40
  -9   2   4  207.82   32.32
   9   2  -4  195.69   17.51
   9   2  -4  183.43   17.45
   9   2   5 9634.24  301.71
  -9   2  -510322.51  275.63
   9   2   510315.65  293.87
  -9  -2   510238.78  300.76
   9  -2   5 9715.46  276.09
  -9   2   510284.35  320.31
   9  -2   510207.17  311.69
  -9   3   0    5.61   15.04
   9   3   0  -11.31   10.90
   9   3   0    1.08    9.66
   9   3   1   -6.69    9.15
  -9   3  -1    2.57   13.66
   9   3   1    0.40   10.34
  -9   3   1   -0.33   13.35
   9   3  -1    8.82    9.00
   9   3  -1    0.78   13.55
  -9  -3   2  356.01   33.72
   9   3   2  359.29   27.63
   9   3   2  332.20   32.61
   9   3   2  373.86   32.75
   9  -3   2  320.41   34.25
   9   3  -2  359.11   27.31
   9   3  -2  345.61   25.18
  -9   3   2  376.73   37.60
  -9  -3   3  200.51   19.98
   9   3   3  183.88   29.49
   9   3   3  195.94   19.45
   9   3  -3  193.77   31.91
   9  -3   3  162.14   30.23
  -9   3   3  213.35   33.08
   9   3  -3  230.31   22.93
   9   3   4 1711.79   60.55
   9   3   4 1675.25   75.48
  -9  -3   4 1723.87   61.88
  -9   3   4 1672.04   79.47
   9   3  -4 1663.50   61.40
   9  -3   4 1693.59   74.65
   9   3  -4 1814.75   65.19
   9   4   0    0.49    9.43
   9   4   0   -1.74    8.80
  -9   4   0    1.75   11.84
  -9   4  -1  462.62   43.55
   9   4   1  490.93   39.04
   9   4   1  459.56   34.30
  -9   4   1  462.86   44.02
   9   4  -1  455.99   48.69
   9   4  -1  501.11   36.25
 -10   0   0 6782.96  219.31
 -10   0   1  359.69   36.49
  10   0   1  305.67   31.54
 -10   0   2   24.61   20.89
  10   0   2   37.56   18.46
  10   0   3  610.67   40.59
 -10   0   3  655.27   44.53
 -10  -1   0 3486.73  123.29
  10   1   1 1392.66   59.08
 -10   1  -1 1490.98   73.77
 -10  -1   1 1450.02   64.49
  10  -1   1 1463.32   65.31
  10   1   2 1073.30   58.04
 -10  -1   2 1088.93   53.81
  10   1   2 1096.08   50.46
  10   1   2 1116.10   52.73
  10  -1   2 1091.86   55.89
 -10   2   0   13.01   18.15
  10   2   0    0.34    9.70
  10   2   0    8.84   11.98
  10   2   1  212.41   24.96
 -10   2  -1  247.49   36.23
 -10  -2   1  214.04   28.02
  10   2   1  225.66   21.68
  10  -2   1  213.82   32.49
;
loop_
_symmetry_equiv_pos_site_id
_space_group_symop_operation_xyz
1 +X,+Y,+Z
2 1/2-X,1/2+Y,1/2+Z
3 +X,1/2-Y,+Z
4 1/2-X,-Y,1/2+Z
5 -X,-Y,-Z
6 1/2+X,1/2-Y,1/2-Z
7 -X,1/2+Y,-Z
8 1/2+X,+Y,1/2-Z
loop_
_atom_site_label
_atom_site_type_symbol
_atom_site_fract_x
_atom_site_fract_y
_atom_site_fract_z
_atom_site_U_iso_or_equiv
_atom_site_adp_type
_atom_site_occupancy
_atom_site_site_symmetry_multiplicity
_atom_site_calc_flag
Mo1 Mo 0.11152(3) 0.75 0.20063(3) 0.00741(13) Uani 1 4 d
Cu1 Cu 0.5 0.0 0.0 0.00857(15) Uani 1 4 d
K1 K 0.37445(9) 0.25 0.33160(10) 0.01476(19) Uani 1 4 d
O1 O 0.2919(3) 0.75 0.0942(3) 0.0144(5) Uani 1 4 d
O2 O 0.1039(2) 0.5159(3) 0.30492(19) 0.0122(4) Uani 1 8 d
O3 O 0.9406(3) 0.75 0.0869(3) 0.0207(6) Uani 1 4 d
O4 O 0.3792(3) 0.25 0.0538(3) 0.0096(5) Uani 1 4 d
loop_
_atom_site_aniso_label
_atom_site_aniso_U_11
_atom_site_aniso_U_22
_atom_site_aniso_U_33
_atom_site_aniso_U_12
_atom_site_aniso_U_13
_atom_site_aniso_U_23
Mo1 0.00605(18) 0.00793(18) 0.0083(2) 0.0000 0.00100(9) 0.0000
Cu1 0.0098(3) 0.0072(3) 0.0088(3) 0.00187(14) -0.00132(13) -0.00047(15)
K1 0.0132(4) 0.0189(4) 0.0121(4) 0.0000 0.0019(3) 0.0000
O1 0.0117(12) 0.0176(12) 0.0139(13) 0.0000 0.0029(10) 0.0000
O2 0.0139(9) 0.0104(9) 0.0123(10) -0.0008(6) 0.0028(6) -0.0001(7)
O3 0.0106(12) 0.0343(16) 0.0173(14) 0.0000 -0.0044(11) 0.0000
O4 0.0089(11) 0.0095(12) 0.0104(13) 0.0000 -0.0009(8) 0.0000
loop_
_atom_type_symbol
_atom_type_description
_atom_type_scat_dispersion_real
_atom_type_scat_dispersion_imag
_atom_type_scat_source
K K 0.2009 0.2494
;
International Tables for Crystallography
(Vol. C, Tables 4.2.6.8 and 6.1.1.4)
;
Cu Cu 0.3201 1.2651
;
International Tables for Crystallography
(Vol. C, Tables 4.2.6.8 and 6.1.1.4)
;
Mo Mo -1.6832 0.6857
;
International Tables for Crystallography
(Vol. C, Tables 4.2.6.8 and 6.1.1.4)
;
O O 0.0106 0.0060
;
International Tables for Crystallography
(Vol. C, Tables 4.2.6.8 and 6.1.1.4)
;
H H 0.0000 0.0000
;
International Tables for Crystallography
(Vol. C, Table 6.1.1.4)
;
loop_
_geom_angle_atom_site_label_1
_geom_angle_atom_site_label_2
_geom_angle_atom_site_label_3
_geom_angle
_geom_angle_publ_flag
_geom_angle_site_symmetry_1
_geom_angle_site_symmetry_3
K1 Mo1 O1 52.93(9) yes 2_554 .
K1 Mo1 O2 124.04(6) yes 2_554 .
K1 Mo1 O2 124.04(6) yes 2_554 3_565
K1 Mo1 O3 53.26(9) yes 2_554 1_455
O1 Mo1 O2 110.52(7) yes . .
O1 Mo1 O2 110.52(7) yes . 3_565
O1 Mo1 O3 106.19(13) yes . 1_455
O2 Mo1 O2 111.88(9) yes . 3_565
O2 Mo1 O3 108.77(7) yes . 1_455
O2 Mo1 O3 108.77(7) yes 3_565 1_455
O2 Cu1 O2 180.00(10) yes 2_544 6_555
O2 Cu1 O4 90.02(10) yes 2_544 .
O2 Cu1 O4 89.98(10) yes 2_544 5_655
O2 Cu1 O4 89.98(10) yes 6_555 .
O2 Cu1 O4 90.02(10) yes 6_555 5_655
O4 Cu1 O4 180.00(15) yes . 5_655
Mo1 K1 O1 29.69(5) yes 2_545 2_545
Mo1 K1 O2 96.76(4) yes 2_545 .
Mo1 K1 O2 96.76(4) yes 2_545 3_555
Mo1 K1 O2 116.37(4) yes 2_545 6_555
Mo1 K1 O2 116.37(4) yes 2_545 8_555
Mo1 K1 O3 29.35(5) yes 2_545 2_645
Mo1 K1 O4 177.36(6) yes 2_545 .
O1 K1 O2 73.42(6) yes 2_545 .
O1 K1 O2 73.42(6) yes 2_545 3_555
O1 K1 O2 135.74(5) yes 2_545 6_555
O1 K1 O2 135.74(5) yes 2_545 8_555
O1 K1 O3 59.03(7) yes 2_545 2_645
O1 K1 O4 152.95(8) yes 2_545 .
O2 K1 O2 75.35(6) yes . 3_555
O2 K1 O2 146.65(6) yes . 6_555
O2 K1 O2 95.97(5) yes . 8_555
O2 K1 O3 119.09(6) yes . 2_645
O2 K1 O4 85.32(6) yes . .
O2 K1 O2 95.97(5) yes 3_555 6_555
O2 K1 O2 146.65(6) yes 3_555 8_555
O2 K1 O3 119.09(6) yes 3_555 2_645
O2 K1 O4 85.32(6) yes 3_555 .
O2 K1 O2 73.49(6) yes 6_555 8_555
O2 K1 O3 93.46(6) yes 6_555 2_645
O2 K1 O4 61.68(6) yes 6_555 .
O2 K1 O3 93.46(6) yes 8_555 2_645
O2 K1 O4 61.68(6) yes 8_555 .
O3 K1 O4 148.02(8) yes 2_645 .
Mo1 O1 K1 97.38(10) yes . 2_554
Mo1 O2 Cu1 124.39(10) yes . 2_555
Mo1 O2 K1 122.10(8) yes . .
Mo1 O2 K1 104.95(8) yes . 6_455
Cu1 O2 K1 101.78(7) yes 2_555 .
Cu1 O2 K1 97.49(7) yes 2_555 6_455
K1 O2 K1 100.98(7) yes . 6_455
Mo1 O3 K1 97.40(10) yes 1_655 2_654
Cu1 O4 Cu1 110.61(12) yes . 3_555
Cu1 O4 K1 105.97(9) yes . .
Cu1 O4 K1 105.97(9) yes 3_555 .
loop_
_geom_bond_atom_site_label_1
_geom_bond_atom_site_label_2
_geom_bond_distance
_geom_bond_publ_flag
_geom_bond_site_symmetry_2
Mo1 K1 3.5312(10) yes 2_554
Mo1 O1 1.764(3) yes .
Mo1 O2 1.784(2) yes .
Mo1 O2 1.784(2) yes 3_565
Mo1 O3 1.745(3) yes 1_455
Cu1 O2 2.0443(18) yes 2_544
Cu1 O2 2.0443(18) yes 6_555
Cu1 O4 1.9204(14) yes .
Cu1 O4 1.9204(14) yes 5_655
K1 O1 2.841(3) yes 2_545
K1 O2 2.7481(19) yes .
K1 O2 2.7481(19) yes 3_555
K1 O2 2.8074(19) yes 6_555
K1 O2 2.8074(19) yes 8_555
K1 O3 2.853(3) yes 2_645
K1 O4 2.657(3) yes .
