#------------------------------------------------------------------------------
#$Date: 2015-06-04 13:59:15 +0300 (Thu, 04 Jun 2015) $
#$Revision: 137924 $
#$URL: svn://www.crystallography.net/cod/cif/4/34/31/4343169.cif $
#------------------------------------------------------------------------------
#
# This file is available in the Crystallography Open Database (COD),
# http://www.crystallography.net/
#
# All data on this site have been placed in the public domain by the
# contributors.
#
data_4343169
loop_
_publ_author_name
'Yamamoto, Ayako'
'Hashizume, Daisuke'
'Bahramy, Mohammad Saeed'
'Tokura, Yoshinori'
_publ_section_title
;
 Coexistence of Monochalocogen and Dichalocogen Ions in BiSe2 and BiS2
 Crystals Prepared at High Pressure.
;
_journal_issue                   8
_journal_name_full               'Inorganic chemistry'
_journal_page_first              4114
_journal_page_last               4119
_journal_paper_doi               10.1021/acs.inorgchem.5b00349
_journal_volume                  54
_journal_year                    2015
_chemical_formula_moiety         'Bi S0.91 Se1.09'
_chemical_formula_sum            'Bi S0.91 Se1.09'
_chemical_formula_weight         324.10
_chemical_name_systematic
;
 ?
;
_space_group_crystal_system      monoclinic
_space_group_IT_number           12
_space_group_name_Hall           '-C 2y'
_space_group_name_H-M_alt        'C 1 2/m 1'
_symmetry_space_group_name_Hall  '-C 2y'
_symmetry_space_group_name_H-M   'C 1 2/m 1'
_atom_sites_solution_primary     direct
_atom_sites_solution_secondary   direct
_audit_creation_method           SHELXL-2013
_cell_angle_alpha                90
_cell_angle_beta                 127.401(4)
_cell_angle_gamma                90
_cell_formula_units_Z            8
_cell_length_a                   16.3670(12)
_cell_length_b                   4.1040(4)
_cell_length_c                   11.6772(13)
_cell_measurement_reflns_used    5918
_cell_measurement_temperature    300
_cell_measurement_theta_max      31.028
_cell_measurement_theta_min      2.195
_cell_volume                     623.10(11)
_computing_cell_refinement       HKL2000
_computing_data_collection       CrystalClear
_computing_data_reduction        HKL2000
_computing_molecular_graphics    'ORTEP-3 for Windows'
_computing_publication_material  'SHELXL-2013 (Sheldrick, 2013)'
_computing_structure_refinement  'SHELXL-2013 (Sheldrick, 2013)'
_computing_structure_solution    SIR2004
_diffrn_ambient_temperature      300
_diffrn_detector_area_resol_mean 7.31
_diffrn_measured_fraction_theta_full 0.998
_diffrn_measured_fraction_theta_max 0.975
_diffrn_measurement_device_type  'Rigaku AFC-8 with Saturn70 CCD'
_diffrn_measurement_method       \w-scan
_diffrn_radiation_type           MoK\a
_diffrn_radiation_wavelength     0.71073
_diffrn_reflns_av_R_equivalents  0.0775
_diffrn_reflns_av_unetI/netI     0.0406
_diffrn_reflns_laue_measured_fraction_full 0.998
_diffrn_reflns_laue_measured_fraction_max 0.975
_diffrn_reflns_limit_h_max       23
_diffrn_reflns_limit_h_min       -23
_diffrn_reflns_limit_k_max       5
_diffrn_reflns_limit_k_min       -5
_diffrn_reflns_limit_l_max       16
_diffrn_reflns_limit_l_min       -16
_diffrn_reflns_number            5918
_diffrn_reflns_point_group_measured_fraction_full 0.998
_diffrn_reflns_point_group_measured_fraction_max 0.975
_diffrn_reflns_theta_full        25.242
_diffrn_reflns_theta_max         31.028
_diffrn_reflns_theta_min         2.195
_exptl_absorpt_coefficient_mu    69.578
_exptl_absorpt_correction_T_max  0.02832
_exptl_absorpt_correction_T_min  0.00686
_exptl_absorpt_correction_type   multi-scan
_exptl_absorpt_process_details
;
 MULABS
;
_exptl_crystal_colour            black
_exptl_crystal_density_diffrn    6.910
_exptl_crystal_description       needle
_exptl_crystal_F_000             1077
_exptl_crystal_size_max          0.180
_exptl_crystal_size_mid          0.012
_exptl_crystal_size_min          0.009
_refine_diff_density_max         2.641
_refine_diff_density_min         -1.293
_refine_diff_density_rms         0.365
_refine_ls_extinction_method     none
_refine_ls_goodness_of_fit_ref   1.051
_refine_ls_hydrogen_treatment    undef
_refine_ls_matrix_type           full
_refine_ls_number_parameters     41
_refine_ls_number_reflns         1081
_refine_ls_number_restraints     0
_refine_ls_restrained_S_all      1.051
_refine_ls_R_factor_all          0.0570
_refine_ls_R_factor_gt           0.0417
_refine_ls_shift/su_max          0.000
_refine_ls_shift/su_mean         0.000
_refine_ls_structure_factor_coef Fsqd
_refine_ls_weighting_details
'w=1/[\s^2^(Fo^2^)+(0.0562P)^2^+3.9359P] where P=(Fo^2^+2Fc^2^)/3'
_refine_ls_weighting_scheme      calc
_refine_ls_wR_factor_gt          0.1040
_refine_ls_wR_factor_ref         0.1130
_reflns_Friedel_coverage         0.000
_reflns_number_gt                813
_reflns_number_total             1081
_reflns_threshold_expression     'I > 2\s(I)'
_cod_data_source_file            ic5b00349_si_002.cif
_cod_data_source_block           BiSeS
_cod_database_code               4343169
_shelx_space_group_comment
;
The symmetry employed for this shelxl refinement is uniquely defined
by the following loop, which should always be used as a source of
symmetry information in preference to the above space-group names.
They are only intended as comments.
;
_shelx_estimated_absorpt_t_min   0.028
_shelx_estimated_absorpt_t_max   0.573
_shelxl_version_number           2013-3
_shelx_res_file
;
TITL 130617_yamamoto_BiSe
CELL 0.71073 16.3670 4.1040 11.6772 90 127.4012 90
ZERR 8 0.0012 0.0004 0.0013 0 0.0041 0
LATT 7
SYMM -x, y, -z
SFAC Bi Se S
UNIT 8 8.7 7.3
L.S. 10
FMAP 2
PLAN 10
TEMP 27
SIZE 0.180 0.012 0.009
REM needle, black
EADP Se1 S1
EADP Se2 S2
EADP Se3 S3
EADP Se4 S4
EXYZ Se1 S1
EXYZ Se2 S2
EXYZ Se3 S3
EXYZ Se4 S4
BOND
CONF
ACTA
WGHT    0.056200    3.935900
FVAR       0.45403   0.82415   0.47889   0.32791   0.54517
MOLE 1
BI1   1    0.701414    0.000000    0.098501    10.50000    0.05394    0.04831 =
         0.05611    0.00000    0.03896    0.00000
SE1   2    0.534984    0.500000   -0.061483    20.50000    0.04341    0.05349 =
         0.05342    0.00000    0.03079    0.00000
SE2   2    0.653806    0.000000   -0.164935    30.50000    0.04393    0.04155 =
         0.04869    0.00000    0.03050    0.00000
S1    3    0.534984    0.500000   -0.061483   -20.50000    0.04341    0.05349 =
         0.05342    0.00000    0.03079    0.00000
S2    3    0.653806    0.000000   -0.164935   -30.50000    0.04393    0.04155 =
         0.04869    0.00000    0.03050    0.00000
MOLE 2
BI2   1    0.389511    0.000000   -0.391054    10.50000    0.04595    0.05280 =
         0.05669    0.00000    0.03220    0.00000
SE3   2    0.212199    0.000000   -0.654804    40.50000    0.04213    0.04541 =
         0.04731    0.00000    0.02860    0.00000
SE4   2    0.417441   -0.500000   -0.541563    50.50000    0.04350    0.04841 =
         0.04926    0.00000    0.03164    0.00000
S3    3    0.212199    0.000000   -0.654804   -40.50000    0.04213    0.04541 =
         0.04731    0.00000    0.02860    0.00000
S4    3    0.417441   -0.500000   -0.541563   -50.50000    0.04350    0.04841 =
         0.04926    0.00000    0.03164    0.00000
HKLF 4

REM  130617_yamamoto_BiSe
REM R1 =  0.0417 for     813 Fo > 4sig(Fo)  and  0.0570 for all    1081 data
REM     41 parameters refined using      0 restraints

END

WGHT      0.0562      3.9203

REM Highest difference peak  2.641,  deepest hole -1.293,  1-sigma level  0.365
Q1    1   0.4372  0.0000 -0.2779  10.50000  0.05    2.64
Q2    1   0.6528  0.0000  0.0054  10.50000  0.05    2.64
Q3    1   0.7459  0.0000  0.2027  10.50000  0.05    2.41
Q4    1   0.3360  0.0000 -0.4859  10.50000  0.05    2.16
Q5    1   0.2524  0.0000 -0.5627  10.50000  0.05    1.70
Q6    1   0.3768 -0.5000 -0.6353  10.50000  0.05    1.69
Q7    1   0.6994  0.0000 -0.0617  10.50000  0.05    1.59
Q8    1   0.4875  0.5000 -0.1661  10.50000  0.05    1.51
Q9    1   0.5518  0.5000 -0.2225  10.50000  0.05    1.29
Q10   1   0.1738  0.0000 -0.7542  10.50000  0.05    1.26
;
_shelx_res_checksum              20266
_shelx_hkl_file
;
  23  -1  -8  -18.66   30.64
 -23   1   9  120.45   63.45
  23  -1 -10    6.69   47.89
  23  -1 -11  279.93   81.23
 -23   1  11  246.99   39.72
 -23  -1  11  240.82   52.59
  23   1 -12   52.26   40.16
 -23   1  12    9.31   27.64
  22   0  -6   94.21   33.27
 -22   0   7    4.36   24.23
  22   0  -7   -0.79   31.48
 -22   0   8  193.31   72.91
 -22   0   8  164.02   36.99
  22   0  -8  161.29   48.68
 -22   0   9   62.03   54.35
  22   0 -10 1432.03  140.58
 -22   0  10 1014.44   90.68
  22   0 -11   58.72   49.79
  22   0 -12  258.23   72.91
 -22   0  12  204.72   47.37
 -22   0  13   35.92   34.51
 -22   0  14  408.60   73.62
 -22  -2   8   92.83   36.09
  22   2  -8  162.24   51.22
 -22   2   8   74.51   33.47
  22  -2  -9  -28.88   45.51
  22   2  -9   43.13   39.75
 -22   2   9   26.11   49.48
 -22   2   9   13.70   28.02
 -22  -2   9   31.06   32.03
  22  -2 -10  761.29  128.03
  22   2 -10  503.21   75.26
  22   2 -10  472.81   74.47
 -22  -2  10  544.00   83.97
 -22   2  10  496.11   83.04
  22   2 -11   99.55   41.36
 -22   2  11  102.49   52.30
  21   1  -4   30.32   52.84
  21  -1  -4    8.44   29.42
 -21   1   4    4.34   40.80
 -21  -1   4    8.79   48.12
 -21   1   4  -25.30   34.01
  21  -1  -4    6.88   45.51
 -21   1   5  219.42   67.64
 -21  -1   5  194.48   58.05
 -21  -1   5  135.29   39.49
  21  -1  -5  183.39   39.62
  21   1  -5  221.30   69.02
 -21   1   6   58.62   50.11
  21  -1  -6  102.09   49.63
 -21  -1   7 1781.68  141.92
 -21  -1   7 1705.17  147.04
  21  -1  -7 1905.67  138.52
  21   1  -7 1923.41  136.25
 -21   1   7 1978.95  178.96
 -21   1   8  168.70   83.70
  21  -1  -8  129.05   53.40
 -21   1   8  113.47   34.46
  21   1  -8  228.57   81.97
  21   1  -8   99.08   45.18
 -21  -1   8  110.40   49.57
  21  -1  -9   76.04   46.59
  21   1  -9   40.08   32.42
  21   1  -9   40.88   56.58
 -21   1   9   -7.16   49.81
 -21  -1   9   34.29   39.05
 -21   1  10   44.86   60.23
  21   1 -10   49.63   46.79
 -21  -1  10   18.30   39.25
 -21   1  10   93.29   32.27
  21   1 -10   74.75   44.23
  21  -1 -10   36.14   50.75
 -21  -1  11 1583.89  131.00
  21  -1 -11 1916.24  193.46
 -21   1  11 1059.68   98.85
  21   1 -11 1423.81  146.58
 -21   1  11 1293.47  100.71
  21   1 -11 1328.02  105.47
  21   1 -12  132.18   58.53
 -21   1  12  154.04   46.63
 -21   1  12   70.62   66.03
  21  -1 -12  200.31   69.59
 -21  -1  12  160.03   56.28
 -21  -1  13  308.11   57.27
 -21   1  13  211.08   48.13
 -21   1  13   95.28   55.20
  21   1 -13  342.08   72.55
  21  -1 -13  431.50   98.62
  21  -1 -14  180.30   75.60
 -21   1  14  192.94   50.79
  21   1 -14  142.13   71.70
 -21  -1  14  245.65   54.71
 -20   0   2  125.35   54.49
  20   0  -3  230.59   42.61
 -20   0   3  355.87   77.58
  20   0  -4  187.86   76.81
  20   0  -4  219.67   41.69
  20   0  -5   21.51   36.56
  20   0  -5  131.85   78.06
 -20   0   5    9.38   25.31
  20   0  -6   99.30   44.15
 -20   0   6    2.82   60.69
  20   0  -6    8.65   63.31
 -20   0   7  322.11   86.99
 -20   0   7  320.56   45.85
  20   0  -7  401.97   78.97
  20   0  -7  428.71   63.63
 -20   0   8  124.95   46.44
  20   0  -8  172.16   55.90
 -20   0   8   47.05   66.73
 -20   0   9  102.27   63.09
 -20   0   9   41.51   34.30
  20   0  -9   -2.24   38.91
 -20   0  10  157.88   58.00
  20   0 -10  176.59   64.92
 -20   0  11  943.49   91.59
  20   0 -11  853.02  117.91
 -20   0  11  681.51   90.20
  20   0 -12   -5.71   64.43
 -20   0  12   -8.68   63.24
 -20   0  12   -1.51   63.06
  20   0 -13  -37.93   60.26
 -20   0  13    7.96   59.45
 -20   0  14  356.23   71.22
  20   0 -14  362.46   93.60
  20   0 -15  614.41  119.81
 -20   0  15  860.41  112.39
 -20   2   3   55.58   48.30
  20  -2  -3  103.45   44.11
 -20   2   4   37.72   48.02
 -20  -2   4   50.80   76.96
  20   2  -5   -7.63   49.00
 -20  -2   5   40.27   32.80
  20  -2  -5   24.45   34.85
 -20   2   5   11.12   45.86
  20  -2  -6   18.70   43.06
 -20  -2   6  -28.84   32.17
 -20   2   6   43.25   48.63
  20   2  -7  255.97   64.46
  20  -2  -7  176.09   66.89
 -20  -2   7  177.34   56.11
 -20   2   7  194.04   66.73
 -20  -2   8  108.11   42.28
  20   2  -8   39.04   41.88
  20  -2  -8  116.39   65.34
 -20   2   8   30.07   57.01
 -20   2   9   22.35   27.21
  20   2  -9    7.64   38.67
 -20   2   9   28.05   46.26
  20  -2  -9   -3.03   58.41
 -20  -2  10  155.97   50.91
  20  -2 -10  153.86   69.69
  20   2 -10  121.76   51.59
 -20   2  10   -5.41   48.22
 -20   2  10   79.17   35.85
  20   2 -10  111.39   46.28
 -20   2  11  249.84   64.09
 -20   2  11  523.31   75.85
 -20   2  11  356.78   63.25
 -20  -2  11  539.13   94.02
  20   2 -11  314.00   72.64
 -20  -2  11  306.86   67.49
  20  -2 -11  607.74  109.41
 -20  -2  12   42.75   40.06
  20   2 -12  -31.24   41.33
 -20   2  12  -57.73   41.77
 -20   2  12   24.74   41.85
  20   2 -12   18.81   41.65
 -20  -2  13  -14.77   26.78
  20  -2 -13  -21.15   27.57
 -20   2  13  -17.52   28.16
  20   2 -14   59.94   41.45
  20   2 -14  112.40   46.88
 -20   2  14   41.83   39.30
 -19  -1   1  -31.25   58.71
 -19   1   1  -18.29   44.98
 -19  -1   1   31.82   48.65
  19   1  -1   49.95   42.29
 -19  -1   2   23.59   48.09
 -19  -1   2   60.85   63.08
  19   1  -2   94.08   56.90
  19  -1  -2   27.53   58.48
 -19   1   2   51.74   54.49
  19  -1  -2   68.57   37.31
 -19   1   2  103.66   64.82
 -19   1   3  196.38   68.49
  19   1  -3  173.54   70.66
 -19  -1   3  273.66   61.18
  19  -1  -3  172.06   80.56
 -19  -1   3   85.09   71.96
  19  -1  -3  182.71   44.45
 -19   1   3   54.54   56.58
  19  -1  -4 1173.97  135.74
  19   1  -4 1243.99  152.99
  19  -1  -4  990.80  102.47
 -19   1   4 1220.86  151.25
 -19  -1   4 1428.74  152.77
 -19  -1   4 1144.81  103.91
 -19  -1   4 1249.02  121.91
  19  -1  -5  -20.21   44.17
  19   1  -5   19.71   27.79
  19   1  -5   39.85   63.31
 -19   1   5  -57.61   55.42
 -19  -1   5   27.45   71.82
 -19  -1   5   53.99   39.25
  19  -1  -5  -12.20   54.95
 -19   1   6   23.02   59.65
  19  -1  -6   -2.61   51.12
 -19  -1   6  -10.43   62.23
 -19  -1   6  -34.22   35.34
  19   1  -6    0.36   38.59
  19   1  -6   67.99   64.63
  19  -1  -6   24.35   58.61
 -19   1   6   10.38   24.32
 -19   1   7 -103.25   33.21
 -19  -1   7   61.00   33.08
  19  -1  -7   17.10   35.11
  19   1  -7   -0.29   33.70
  19  -1  -7   27.90   33.39
  19   1  -7  -26.46   33.04
 -19   1   7  -32.85   32.09
  19   1  -8 1846.62  143.47
  19   1  -8 1683.79  157.72
 -19   1   8 1468.00  170.66
 -19   1   8 1829.57  145.02
 -19  -1   8 1598.38  185.22
  19  -1  -8 2044.22  216.12
  19   1  -9  180.31   70.10
  19   1  -9  492.19   94.13
 -19  -1   9  241.46   76.60
  19  -1  -9  169.66   78.53
 -19   1   9  184.23   48.99
 -19   1   9  449.79   90.37
 -19  -1   9  173.30   66.74
  19   1 -10  231.76   61.47
  19  -1 -10  318.48   95.06
 -19   1  10  269.11   75.14
 -19   1  10  245.03   49.03
  19   1 -10  334.81   61.60
 -19  -1  10  326.63   55.67
 -19   1  11  189.73   56.17
  19   1 -11  118.05   46.85
  19  -1 -11  226.74   75.52
  19   1 -11  194.08   72.65
 -19   1  11   94.96   66.20
 -19  -1  11  103.82   49.64
 -19  -1  12  754.84  108.20
  19   1 -12  563.56   73.03
 -19   1  12  422.10   76.44
  19  -1 -12  725.54  134.06
  19   1 -12  638.01  100.26
 -19  -1  13  273.51   64.41
 -19   1  13  157.59   58.07
  19   1 -13  122.94   55.73
  19  -1 -13  333.37   85.32
 -19   1  13  169.09   61.83
 -19  -1  14  690.92  108.95
 -19   1  14  607.66   92.40
  19   1 -14  665.93  109.81
  19  -1 -14  760.51  120.54
 -19   1  15   -2.13   47.93
 -19   1  15   21.32   43.07
 -19  -1  15  -21.89   39.55
  19   1 -15   66.96   61.73
 -19  -3   4  397.88   68.59
 -19  -3   4  316.82   69.61
 -19   3   5   43.77   59.01
  19   3  -5   -7.39   37.89
  19   3  -6   14.35   37.44
 -19   3   6  -20.40   36.32
  19  -3  -6  -10.20   36.61
  19   3  -7   -9.95   26.40
  19  -3  -7   -2.72   49.96
 -19   3   7    3.79   42.91
 -19  -3   7   25.41   41.48
 -19  -3   8  463.22  102.40
  19  -3  -8  440.55   87.20
 -19   3   8  422.38   82.79
 -19  -3   9   78.18   46.29
  19   3  -9  241.10   60.88
  19  -3  -9   18.57   52.33
  19  -3 -10   84.48   58.69
 -19  -3  10   85.72   54.26
  19   3 -10  109.55   48.07
  19   3 -10   59.81   38.21
  19   3 -11   47.64   40.57
 -19   3  11   66.34   45.37
 -19   3  11   45.28   32.35
  19   3 -11    8.10   28.20
  19  -3 -11   33.83   55.02
 -19   3  12  212.97   58.56
  19   3 -12  137.16   43.35
 -19  -3  12  126.33   64.74
  19   3 -12  215.62   58.40
 -19   3  12  132.48   45.54
 -18   0   1  504.17   95.68
  18   0  -1  805.85  113.66
  18   0  -1  329.83   57.84
 -18   0   1  585.56  100.99
 -18   0   2   59.43   66.10
  18   0  -2  -17.41   58.58
 -18   0   2   16.14   54.63
  18   0  -3   49.12   34.81
  18   0  -3  -21.14   70.64
 -18   0   3   52.55   66.22
 -18   0   3   78.01   34.21
 -18   0   4  577.33  108.04
 -18   0   4  566.45   55.06
  18   0  -4  599.31   70.82
  18   0  -5 2706.28  182.68
  18   0  -5 2977.28  226.12
 -18   0   5 2696.95  236.65
  18   0  -6  381.31   65.63
  18   0  -6  401.36   88.40
 -18   0   6  347.67   55.90
 -18   0   6  389.05  101.39
  18   0  -7 1402.88  142.31
 -18   0   7 1055.12  129.34
 -18   0   7 1204.35  104.81
  18   0  -8 4118.74  328.49
 -18   0   8 4031.32  242.66
  18   0  -8 4339.75  257.52
 -18   0   8 3609.54  276.50
  18   0  -9 1691.48  158.41
  18   0  -9 1445.77  169.11
 -18   0   9 1336.06  129.29
 -18   0   9 1762.07  170.26
  18   0 -10   95.13   50.90
 -18   0  10   66.98   51.05
 -18   0  10   12.38   45.06
  18   0 -11 2383.18  253.38
 -18   0  11 2512.37  204.19
 -18   0  11 1845.37  144.08
  18   0 -12  976.51  138.65
 -18   0  12 1019.82  119.45
 -18   0  13   51.88   51.02
  18   0 -13   42.33   63.46
 -18   0  14   42.95   51.42
  18   0 -14   -6.14   62.27
 -18   0  15   15.51   55.29
 -18   0  15   79.07   52.43
  18   0 -16   42.63   63.64
 -18   0  16   27.23   48.04
 -18   2   1  263.11   70.52
  18  -2  -1  181.56   67.75
 -18   2   1  242.79   67.89
  18   2  -1  276.49   65.78
  18  -2  -2   25.10   58.63
  18  -2  -2    2.53   44.69
 -18   2   2    9.50   39.70
 -18  -2   2  -14.29   28.00
 -18  -2   2   21.18   52.02
  18   2  -2   74.89   52.07
 -18   2   2   33.42   58.19
 -18   2   3   -0.06   43.58
 -18   2   3    4.33   49.31
 -18  -2   3  -16.82   32.35
 -18  -2   3   68.35   58.55
  18  -2  -3   67.59   61.16
 -18  -2   3    2.96   73.03
 -18  -2   4  366.32   69.75
  18  -2  -4  306.31   68.30
 -18  -2   4  242.22  101.75
 -18   2   4  488.97   86.41
  18   2  -4  497.91   84.03
  18   2  -5 1439.02  123.98
  18  -2  -5 1425.75  164.52
 -18   2   5 1579.59  142.34
 -18  -2   5 1358.20  136.10
  18   2  -6  191.55   58.17
  18  -2  -6  266.70   84.74
  18   2  -6   98.86   37.22
 -18  -2   6  238.58   67.72
 -18  -2   7  656.62   89.23
 -18   2   7  664.97  106.37
  18   2  -7  571.81  101.15
  18  -2  -7  767.01  132.90
  18   2  -7  567.34   86.58
 -18  -2   8 2264.63  222.63
  18  -2  -8 2263.89  257.10
 -18   2   8 1919.72  193.75
 -18   2   8 1945.97  162.80
  18   2  -8 2214.89  197.60
  18   2  -8 2031.84  174.14
  18   2  -9 1331.92  127.37
  18   2  -9  915.52  114.16
 -18   2   9  718.61  103.70
  18  -2  -9  753.46  121.82
 -18  -2   9  737.43  106.86
  18   2 -10  101.66   54.45
  18   2 -10    7.49   48.54
 -18   2  10  -20.17   38.58
  18  -2 -10   19.21   55.33
 -18  -2  10   46.16   50.96
 -18   2  11 1015.12  123.18
 -18  -2  11 1377.44  147.31
  18   2 -11 1103.70  116.16
 -18   2  11 1099.65  141.53
  18   2 -12  368.07   75.31
 -18  -2  12  393.94   78.29
 -18   2  12  282.90   79.29
  18  -2 -12  614.99  119.27
  18   2 -12  430.31   92.16
 -18   2  12  482.15   78.11
  18   2 -13   18.86   52.56
  18   2 -13   -5.30   53.61
 -18   2  13   -7.01   53.94
 -18  -2  13   -8.74   52.11
 -18  -2  14   -4.92   38.24
 -18   2  14  -21.58   43.95
  18  -2 -14   53.99   64.88
  18   2 -14  -18.05   37.22
  18   2 -14   11.80   58.83
 -18   2  14   41.39   44.21
  18   2 -15    5.79   37.23
  18   2 -15    2.09   57.45
 -18   2  15   23.23   47.52
 -17   1   1  453.23  106.37
 -17  -1   1  326.81   56.86
  17  -1  -1  481.81  110.20
 -17  -1   1  460.12   81.83
 -17   1   1  578.26   96.36
 -17  -1   1  775.89  108.75
  17  -1  -1  440.43   73.48
 -17  -1   2  731.83  114.12
 -17   1   2  617.76  107.51
  17   1  -2  797.18  143.24
 -17  -1   2  460.17   71.25
 -17  -1   2  564.77   95.03
  17  -1  -2  524.64  122.31
 -17   1   2  539.00  100.64
  17  -1  -3  245.26   57.47
  17   1  -3  186.07   41.42
  17   1  -3  380.59   84.52
 -17  -1   3  192.96   91.68
 -17   1   3  201.33   83.10
  17  -1  -3  339.68   92.46
 -17  -1   3  168.70   47.84
  17  -1  -4   40.66   74.33
 -17   1   4  407.07  126.25
 -17   1   4  -11.55   25.25
  17  -1  -4   96.92   46.89
 -17  -1   4  -28.01   62.67
 -17  -1   4    8.84   37.56
  17   1  -4   45.72   67.01
  17  -1  -5  694.26  139.36
 -17  -1   5  983.29  135.35
 -17  -1   5  874.47   89.30
 -17   1   5  971.04  125.38
  17   1  -5  962.56  132.04
 -17   1   5  776.78   73.80
  17   1  -5 1112.36  114.25
  17  -1  -5 1214.49  134.83
 -17   1   6 1090.85  136.67
  17  -1  -6  798.89  138.06
  17  -1  -6 1121.79  131.48
 -17   1   6  827.34   80.96
 -17  -1   6  915.13  120.58
  17   1  -6 1043.03  128.11
 -17  -1   6  820.22  148.25
  17   1  -6 1120.73  100.87
  17   1  -7  282.87   71.68
 -17   1   7  139.40   43.47
  17  -1  -7  229.30   91.80
 -17  -1   7  209.26   85.80
 -17   1   7  209.66   66.58
 -17   1   8 1274.35  127.23
  17   1  -8 1406.09  141.32
  17  -1  -8 1063.81  151.69
  17   1  -8 1163.98  127.85
 -17   1   8 1006.84  154.08
  17  -1  -8 1440.08  154.52
 -17  -1   8 1164.84  137.21
 -17  -1   8 1576.72  157.34
  17   1  -9 1199.02  121.82
  17   1  -9 1125.46  137.20
 -17   1   9 1065.23  148.76
  17  -1  -9  999.54  152.46
 -17  -1   9  902.38  115.25
 -17  -1   9 1280.98  128.55
 -17   1   9 1028.53  127.38
 -17  -1  10  310.92   62.12
  17   1 -10  247.95   83.19
 -17  -1  10  305.52   66.51
 -17  -1  10  271.46   73.04
  17   1 -10  416.93   61.85
 -17   1  10  301.83   70.50
  17  -1 -10  269.36   85.57
  17   1 -11 1391.64  139.50
 -17  -1  11 1536.73  125.83
 -17   1  11 1118.36  132.15
 -17   1  11 1413.38  125.51
  17   1 -11 1195.51  104.86
  17  -1 -12   61.65   68.68
 -17   1  12    3.10   53.17
 -17  -1  12   92.91   63.88
 -17  -1  12   20.67   49.85
 -17   1  12   74.63   57.84
  17   1 -12   75.27   69.96
  17   1 -12   13.67   35.72
  17   1 -13  764.03  119.84
 -17  -1  13  676.97   97.21
 -17   1  13  232.63   59.82
 -17   1  13  548.90   97.90
  17  -1 -13  720.64  137.62
  17  -1 -14  218.94   73.44
 -17  -1  14  221.63   58.82
 -17   1  14  176.35   71.93
  17   1 -14  189.63   54.25
  17   1 -14  150.69   83.26
  17  -1 -15 1414.59  143.45
 -17  -1  15 1525.51  157.95
  17   1 -15 1760.88  169.28
 -17   1  15 1443.80  148.67
 -17   1  16    6.25   51.14
  17  -1 -16   12.07   55.99
  17   1 -16   44.60   80.04
 -17  -1  16   24.95   41.37
 -17  -3   1  116.39   51.20
  17  -3  -1  140.56   65.26
 -17  -3   1   -8.62   29.77
 -17   3   2  146.29   52.54
  17   3  -2  199.03   55.71
 -17  -3   3  -13.34   41.90
  17   3  -3   44.41   49.34
  17  -3  -3   49.89   51.54
 -17   3   3   51.28   53.40
 -17  -3   3   75.73   42.16
 -17  -3   4   -0.42   40.32
  17  -3  -4  -17.32   39.86
 -17   3   4   15.36   39.26
  17   3  -4   -9.47   40.55
 -17   3   5  252.83   84.51
  17   3  -5  269.87   55.53
  17  -3  -5  156.34   83.81
 -17  -3   5  407.41   72.33
 -17  -3   5  361.31   85.37
  17   3  -6  311.91   64.30
 -17  -3   6  270.85   67.65
  17  -3  -6  214.32   70.06
 -17   3   6  186.52   59.88
 -17  -3   7   -9.82   49.94
  17   3  -7   37.26   54.16
  17  -3  -7  112.07   62.28
 -17   3   7  115.42   54.20
  17  -3  -8  251.30   87.55
  17   3  -8  263.63   61.37
 -17  -3   8  373.20   79.37
 -17   3   8  361.05   76.74
 -17   3   8  297.21   67.61
  17   3  -8  510.19   80.44
  17  -3  -9  323.02   85.33
 -17   3   9  272.89   57.46
 -17  -3   9  335.11   71.29
  17   3  -9  332.39   70.06
  17   3  -9  246.82   51.91
  17  -3 -10   64.39   67.39
 -17   3  10   65.89   50.12
  17   3 -10   31.13   44.89
  17   3 -10   27.09   38.93
  17   3 -11  201.41   55.71
  17   3 -11  245.41   64.47
 -17   3  11  302.34   59.77
  17  -3 -11  406.62   95.80
 -17  -3  11  349.97   73.30
 -17   3  12   10.82   37.43
 -17   3  12   90.69   51.06
 -17  -3  12  -20.87   45.56
  17  -3 -12   -1.80   56.66
  17   3 -12  -10.76   40.89
 -17   3  13   56.63   40.44
  17   3 -13  155.16   59.34
  17  -3 -13  163.82   64.08
  17   3 -13   63.96   55.11
 -16   0   1   18.54   32.09
  16   0  -1   -0.62   35.77
 -16   0   1  135.23   77.41
 -16   0   1   65.01   54.71
  16   0  -1  118.78   75.36
 -16   0   2 1985.77  146.61
 -16   0   2 2203.30  213.98
  16   0  -2 2818.23  236.76
 -16   0   3   72.59   78.14
 -16   0   3    2.88   35.81
  16   0  -3  -15.70   42.80
  16   0  -4 2616.76  203.81
  16   0  -4 2548.25  194.67
 -16   0   4 2595.14  230.81
 -16   0   5   77.74   37.31
  16   0  -5   52.43   51.33
  16   0  -5   36.27   67.53
 -16   0   5  -97.62   80.73
 -16   0   6 2585.80  185.25
 -16   0   6 2205.70  197.03
  16   0  -6 2497.86  195.78
  16   0  -6 2514.54  185.55
 -16   0   7  480.34  127.62
 -16   0   7  217.68   61.17
  16   0  -7  311.77   90.81
 -16   0   8 1751.51  147.47
 -16   0   8 1198.98  149.71
  16   0  -8 1523.08  133.84
  16   0  -8 1731.00  201.36
 -16   0   9  247.10   68.67
 -16   0   9  121.03   66.27
  16   0  -9  277.14   81.04
  16   0 -10 3012.28  282.70
 -16   0  10 2928.00  225.18
  16   0 -11  214.48   60.49
 -16   0  11  399.73   86.37
  16   0 -11  387.82  101.33
 -16   0  11  331.56   71.83
  16   0 -12 1769.13  148.97
  16   0 -12 2424.62  221.60
 -16   0  12 2088.41  209.26
  16   0 -13  144.69   82.03
 -16   0  13   93.21   53.78
 -16   0  14   69.70   53.77
  16   0 -14  -33.10   52.79
 -16   0  15  149.71   58.14
  16   0 -15   90.22   66.90
 -16   0  16  281.13   82.40
 -16  -2   1  -19.60   48.51
 -16  -2   1   11.72   97.20
 -16  -2   1  -15.53   38.72
 -16   2   1   31.82   54.63
  16   2  -1   52.09   63.98
 -16   2   1   70.21   59.90
  16  -2  -1   -4.16   70.05
 -16  -2   2 1215.61  161.19
 -16  -2   2 1237.47  101.59
 -16   2   2 1195.60  117.43
  16  -2  -2 1183.32  100.39
 -16   2   2 1065.21  131.37
 -16  -2   2 1155.07  102.09
  16   2  -2 1396.62  144.96
 -16  -2   3  141.06   80.86
 -16  -2   3  -37.23   43.99
 -16  -2   3    3.18   47.85
  16  -2  -3  -10.44   52.29
 -16   2   3   33.80   62.27
 -16  -2   4  979.58  134.64
  16  -2  -4 1606.12  176.94
 -16   2   4 1488.36  157.62
  16   2  -4 1143.99   87.46
  16   2  -4 1445.32  142.16
 -16  -2   4 1336.68  133.02
 -16   2   5   29.58   25.06
 -16  -2   5   79.78   60.90
  16  -2  -5  -17.59   54.37
  16  -2  -5   -7.84   55.29
  16   2  -5   37.74   50.04
 -16  -2   5   19.88   43.74
 -16  -2   6 1376.66  150.71
  16   2  -6 1171.16  144.25
  16   2  -6 1340.74  122.95
 -16   2   6 1181.47  148.75
  16  -2  -6 1462.34  203.08
 -16   2   6 1176.19  121.86
  16   2  -7  193.13   63.71
 -16  -2   7   74.02   51.55
 -16   2   7  132.25   51.19
  16  -2  -7   60.28   66.04
 -16   2   7  550.62  101.21
  16  -2  -8  941.16  163.63
  16   2  -8 1001.30   97.84
  16   2  -8  745.42   97.72
 -16   2   8  848.54  105.70
 -16  -2   8  831.18  123.66
  16  -2  -9   54.87   72.07
 -16   2   9  126.06   65.74
 -16   2   9  114.57   52.44
 -16  -2   9  103.49   61.18
  16   2  -9   95.42   51.40
  16   2  -9  149.55   57.46
  16  -2 -10 1803.20  205.70
  16   2 -10 1338.22  118.99
  16   2 -10 1313.23  121.42
 -16   2  10 1320.29  140.37
 -16  -2  10 1534.37  181.86
 -16  -2  10 1392.51  125.31
  16   2 -11  123.73   65.00
 -16   2  11  202.86   66.34
  16   2 -11  123.59   62.56
 -16   2  11   49.98   63.75
 -16  -2  11  204.48   61.61
  16  -2 -11  174.41   85.98
  16  -2 -12 1287.69  169.05
 -16  -2  12 1034.81  141.32
 -16  -2  12 1105.70  121.14
  16   2 -12  905.43  114.82
  16   2 -12 1040.49  114.34
 -16   2  12 1009.37  121.71
 -16   2  12  981.22  134.05
  16   2 -13   54.40   64.48
  16   2 -13   60.72   55.59
 -16  -2  13   40.87   53.72
 -16   2  13   72.94   57.39
 -16  -2  14   36.31   53.76
  16  -2 -14   61.10   59.59
  16   2 -14  -15.78   45.93
 -16   2  14   18.83   48.45
  16   2 -14  -34.48   57.02
 -16   2  15   91.50   54.67
  16   4  -4  310.64   64.68
 -16  -4   4  225.32   58.52
  16  -4  -4  221.40   80.19
 -16   4   4  341.92   92.03
  16  -4  -5  -41.91   36.52
 -16  -4   5    4.24   36.95
  16   4  -5  -23.49   37.01
  16  -4  -6  158.11   61.32
 -16  -4   6  247.24   66.79
 -16   4   6  123.27   53.60
  16   4  -6  240.16   59.64
  16   4  -7   31.46   41.27
 -16  -4   7   26.58   49.51
  16   4  -8  150.29   52.71
 -16  -4   8  170.44   55.60
  16  -4  -9   20.18   49.72
 -16   4   9    9.16   54.66
  16   4  -9   20.27   35.78
 -16  -4   9   -7.56   42.01
  16  -4 -10  155.89   76.68
  16   4 -10  263.27   58.99
 -16  -4  10  156.50   51.32
 -16   4  10  104.65   49.10
 -15  -1   1  278.86   61.55
  15  -1  -1  250.79   63.28
 -15   1   1  207.39   79.43
  15  -1  -1  332.84   97.97
 -15  -1   1  192.20   99.87
 -15   1   1  193.84   60.20
  15   1  -1  375.58   86.43
 -15   1   2 1062.99   80.80
  15   1  -2 1624.59  147.30
 -15  -1   2 1319.84  164.23
  15   1  -2 1128.21  117.30
  15  -1  -2 1274.11  159.80
  15  -1  -2 1222.52  149.21
 -15  -1   2 1248.34  111.41
 -15   1   2 1514.56  159.40
 -15  -1   2 1336.15  134.71
  15  -1  -3  678.41  123.52
 -15  -1   3  900.36   73.20
 -15  -1   3 1079.48  150.08
 -15   1   3  840.81  124.79
  15   1  -3 1060.38  118.34
  15  -1  -3  835.42  114.27
  15   1  -3  868.09   99.94
 -15  -1   4   17.69   41.60
  15  -1  -4 -106.55   44.57
 -15   1   4   50.81   41.94
  15  -1  -4  -16.99   41.92
  15   1  -4  -14.45   42.12
 -15  -1   4   14.73   42.95
  15  -1  -5  615.65  105.58
  15  -1  -5  906.50  126.92
 -15   1   5  755.42   81.07
  15   1  -5  853.55  112.04
 -15  -1   5  709.64  116.51
  15   1  -5  728.37   81.74
 -15  -1   5  828.23  104.37
  15  -1  -6 6611.64  376.34
 -15  -1   6 6780.15  398.84
 -15  -1   6 7571.76  501.55
 -15   1   6 7087.85  521.50
  15   1  -6 7704.30  431.23
 -15   1   6 8315.02  465.17
  15  -1  -6 9218.54  650.39
  15   1  -7 1025.12  157.27
 -15  -1   7 1804.93  233.38
  15  -1  -7  687.01  144.19
  15  -1  -7  936.23  139.13
 -15  -1   7  527.11   94.77
 -15  -1   8 2765.54  203.03
  15  -1  -8 2511.18  227.66
  15  -1  -8 3804.78  314.07
 -15   1   8 3254.18  255.43
  15   1  -8 2891.90  217.47
  15   1  -8 3368.26  273.44
 -15  -1   8 3302.43  263.40
 -15  -1   9 1880.31  147.00
 -15   1   9 1306.83  144.77
  15   1  -9 1565.66  134.68
 -15  -1   9 1427.06  132.72
 -15   1   9 1448.75  120.47
  15   1  -9 1282.90  146.53
 -15   1  10 1114.40  136.80
  15   1 -10  804.87   84.24
 -15  -1  10  985.96  103.02
 -15  -1  10 1229.39  133.48
 -15   1  10  840.17  107.79
 -15  -1  10 1588.99  152.19
  15  -1 -10 1233.16  174.83
  15   1 -10 1070.70  139.38
 -15   1  11  586.28  105.77
  15   1 -11  649.02  125.87
  15   1 -11  427.45   66.78
 -15  -1  11  601.88  103.79
  15  -1 -11  662.08  134.36
 -15   1  12 1059.01  141.58
  15   1 -12 1119.19  151.28
  15   1 -12  761.20  100.11
 -15  -1  12 1106.37  126.65
  15  -1 -12  930.19  151.94
  15   1 -13  540.74   79.79
  15  -1 -13  643.51  114.02
 -15   1  13  409.82  101.83
  15   1 -13  511.96  113.90
 -15  -1  13  479.58  102.24
 -15  -1  14   25.62   73.01
  15   1 -14   55.23   73.78
 -15   1  14   29.45   71.88
 -15   1  14  -66.80   71.34
  15   1 -14   21.89   71.38
  15  -1 -14  -98.51   70.77
 -15  -1  15  122.97   61.80
  15   1 -15  176.10   57.47
  15  -1 -15  164.14   90.08
  15   1 -15  126.65   83.33
 -15  -1  15  162.87   68.81
 -15   1  15  207.44   69.15
 -15   1  16   86.93   60.64
  15   3  -1  145.54   56.52
 -15  -3   1  133.22   58.46
 -15   3   1  110.69   56.73
  15  -3  -1  109.38   48.97
 -15   3   1   89.06   56.95
 -15   3   2  467.31   82.35
 -15   3   2  235.96   82.46
  15  -3  -2  488.26  106.08
 -15  -3   2  274.23   86.93
  15   3  -2  279.59   65.16
 -15  -3   2  459.71   99.69
 -15   3   3  180.32   76.55
 -15  -3   3  187.68   62.23
  15  -3  -3  269.33   75.20
 -15   3   3  156.23   54.76
 -15  -3   3  279.35   88.66
  15   3  -3  305.11   60.06
 -15  -3   4  -17.09   56.49
  15  -3  -4   45.03   42.72
 -15   3   4   50.77   50.29
  15   3  -5  218.85   56.87
 -15  -3   5  267.12   72.84
  15  -3  -6 2433.91  253.69
 -15  -3   6 2512.64  220.52
  15   3  -6 2268.35  173.30
  15   3  -6 2380.91  186.22
 -15   3   6 1853.25  168.13
  15   3  -7  215.41   87.17
  15   3  -7   31.64   40.66
 -15   3   7  526.62  110.87
  15  -3  -7   39.72   81.40
 -15   3   7  141.67   41.76
 -15  -3   7   -5.17   53.34
  15   3  -8  917.91   99.52
 -15   3   8  635.06   79.97
 -15  -3   8  769.47  115.09
  15   3  -8  876.76  114.91
 -15   3   8  689.22  130.03
  15  -3  -8  865.01  165.54
  15   3  -9  311.35   73.13
 -15   3   9  403.56   73.12
  15   3  -9  476.23   66.23
 -15   3   9  355.13   81.13
  15  -3  -9  519.07  133.01
 -15   3  10  320.99   85.85
 -15   3  10   79.70   87.57
 -15  -3  10  515.12   99.87
  15  -3 -10  260.57   91.64
  15   3 -10  329.37   71.64
  15   3 -10  218.82   50.94
  15  -3 -11  182.31   84.96
 -15   3  11   61.62   85.64
 -15   3  11  245.38   76.03
  15   3 -11  171.69   62.98
 -15  -3  11  124.09   64.22
  15   3 -11  199.29   65.68
  15   3 -12  307.29   84.24
 -15   3  12  363.29   79.22
  15   3 -12  259.13   77.30
  15  -3 -12  408.01  104.42
 -15  -3  12  213.58   78.80
  15   3 -13  122.42   52.48
  15  -3 -13   83.37   65.10
 -14   0   1  229.71   52.74
  14   0  -1  179.87   87.08
 -14   0   1  157.04   78.62
  14   0  -1  157.38   44.43
 -14   0   1  252.93   89.99
 -14   0   2 1165.03  168.93
  14   0  -2 1303.44  172.38
 -14   0   2 1068.50   79.84
  14   0  -2 1130.86   96.20
 -14   0   3 7117.73  508.32
  14   0  -3 7432.58  410.45
  14   0  -3 7591.15  474.45
  14   0  -4  148.71   53.49
  14   0  -4  265.40   82.53
 -14   0   4  153.53   84.48
  14   0  -5 3418.36  263.03
 -14   0   5 3340.70  290.67
 -14   0   5 3541.00  203.35
 -14   0   6 4526.65  324.45
 -14   0   6 4408.11  381.54
  14   0  -6 4949.04  317.95
  14   0  -6 4537.10  366.21
 -14   0   7 2341.13  212.70
 -14   0   7 2137.39  232.39
  14   0  -7 2260.91  223.66
  14   0  -7 2305.28  209.95
 -14   0   8  349.56   73.62
 -14   0   8  523.23   84.57
  14   0  -8  480.84   73.19
  14   0  -8  593.52  103.97
  14   0  -9 8288.82  435.16
  14   0  -910297.01  602.05
 -14   0   9 9815.98  536.42
  14   0 -10   59.87   77.33
  14   0 -10  -40.18   78.72
 -14   0  10  -35.12   76.33
 -14   0  11  388.77   81.97
  14   0 -11  713.76  128.80
  14   0 -11  301.26   59.78
 -14   0  12   10.01   89.59
  14   0 -12  -34.99   89.89
  14   0 -12  -17.44   91.55
  14   0 -13 3235.80  283.56
  14   0 -13 2391.38  179.69
 -14   0  13 2478.11  225.79
  14   0 -14  458.98  126.60
 -14   0  14  298.45   84.61
 -14   0  15  189.47   76.05
  14   0 -16  256.87   92.34
 -14   0  16   87.45   57.44
  14   2  -1  188.66   73.09
 -14   2   1  152.58   73.12
 -14   2   1  145.66   63.75
 -14  -2   1  135.10   47.72
  14  -2  -1   18.02   64.87
 -14  -2   1  139.74  106.91
 -14  -2   1  116.63   59.93
 -14   2   2  695.21  111.26
 -14   2   2  674.97  102.97
  14  -2  -2  726.19  112.44
  14   2  -2  675.59  105.93
 -14  -2   2  695.14   96.79
 -14  -2   2  667.90  120.41
  14   2  -3 3539.13  206.34
 -14   2   3 3920.28  306.26
 -14   2   3 4014.29  341.17
  14   2  -3 3722.31  260.13
  14  -2  -3 3743.58  298.53
 -14  -2   3 4082.64  300.69
  14   2  -4  168.30   43.98
  14  -2  -4   50.68   64.31
 -14   2   4  103.20   30.89
  14  -2  -4   59.22   50.77
 -14  -2   4  228.44   64.75
 -14   2   4  175.62   74.48
 -14  -2   4   40.30   77.99
  14  -2  -5 1924.44  231.77
  14  -2  -5 1491.66  143.62
 -14  -2   5 2020.30  206.58
 -14   2   5 1835.90  158.19
 -14   2   5 1449.53  176.96
  14   2  -6 2240.39  172.72
  14  -2  -6 2590.40  141.77
 -14   2   6 2237.36  206.99
 -14   2   6 2593.89  245.59
 -14  -2   6 2170.98  249.05
  14  -2  -6 2720.51  353.56
  14   2  -6 2357.93  204.43
 -14  -2   7  790.50   84.99
 -14   2   7 1188.57  133.37
 -14   2   7  939.34  107.37
 -14  -2   7  905.44  127.51
  14   2  -7  788.97  102.70
  14   2  -7  769.84  102.88
  14  -2  -7 1288.76  188.45
  14   2  -8  167.39   63.66
 -14   2   8  152.66   72.57
  14  -2  -8  227.92   89.29
  14   2  -8  179.90   54.08
 -14   2   8  153.66   59.61
 -14  -2   8  223.28   69.46
 -14  -2   9 4889.92  412.46
  14   2  -9 4534.31  311.19
 -14   2   9 3317.32  324.38
  14  -2  -9 5340.36  407.27
 -14   2   9 4615.13  292.84
  14   2  -9 4837.60  330.22
 -14   2  10  -17.95   56.19
 -14   2  10  -27.70   54.23
  14   2 -10  -41.17   54.67
  14  -2 -10  -60.81   52.97
 -14   2  10  -27.11   53.88
 -14  -2  10  -28.42   55.46
  14   2 -10   26.14   53.26
 -14  -2  10  -33.14   52.77
 -14   2  11  236.75   70.72
  14   2 -11  310.57   81.47
  14  -2 -11  184.88   88.31
  14   2 -11  147.76   73.63
 -14  -2  11  198.50   60.11
 -14   2  12  -24.22   67.22
  14   2 -12  -22.17   66.57
  14  -2 -12   37.41   66.28
  14   2 -12   -9.01   68.18
  14   2 -13 1798.73  203.05
  14  -2 -13 1762.79  213.57
  14  -2 -13 1513.03  177.77
  14   2 -13 1221.13  149.98
 -14   2  13 1620.81  225.07
  14  -2 -14  213.24   87.39
 -14   2  14  212.15   78.75
 -14  -2  14  166.12   58.95
  14   2 -14  190.41   89.84
  14   2 -15  107.12   80.17
 -14  -2  15   80.23   57.37
 -14   2  15  133.55   59.89
 -14  -2  15   36.10   40.49
 -14  -4   1   34.28   44.09
  14   4  -1   32.43   38.49
  14  -4  -1    5.39   49.64
 -14  -4   2   14.99   56.38
  14  -4  -2   72.30   54.30
 -14  -4   3  902.90  124.71
  14  -4  -3  767.66  115.55
  14   4  -3  686.99   91.71
  14  -4  -4   60.66   54.50
 -14   4   4   63.88   50.30
  14   4  -4  -14.89   37.70
 -14  -4   4  -20.31   46.45
 -14   4   5  301.08   73.53
  14   4  -5  387.28   64.13
  14  -4  -5  169.45   73.97
 -14  -4   5  323.74   66.39
 -14  -4   6  444.33  100.20
  14   4  -6  499.24   82.73
 -14   4   6  310.69   83.92
  14  -4  -6  493.50  114.83
  14  -4  -7   71.18   56.07
  14   4  -7  113.30   47.52
 -14  -4   7  152.23   62.05
 -14   4   7  186.80   64.95
 -14   4   8  -38.05   50.11
  14   4  -8    7.73   35.34
  14   4  -8  149.54   45.35
 -14  -4   8    9.22   49.40
  14  -4  -8  153.45   60.37
 -14   4   8   31.44   34.53
 -14   4   9  683.88  110.40
 -14  -4   9  707.52  118.15
  14   4  -9  696.17   88.66
 -14   4   9  585.54   81.56
  14  -4  -9  720.48  124.69
  14   4 -10   -1.46   39.19
 -14   4  10  172.55   85.75
 -14   4  10  -13.44   45.92
 -14   4  11   43.62   48.36
  13   1  -1 1476.69  116.56
 -13   1   1 1532.30  171.89
 -13  -1   1 1306.05  127.09
  13  -1  -1 1678.83  225.96
 -13  -1   1 1562.47  205.11
 -13   1   1 1512.92   98.81
  13  -1  -1 1360.29  137.98
 -13   1   1 1664.75  195.79
  13   1  -1 1788.46  195.69
 -13  -1   2 4721.11  245.65
  13   1  -2 4913.55  315.18
 -13  -1   2 4902.17  342.27
  13  -1  -2 5487.28  374.25
  13  -1  -2 4916.70  393.30
 -13   1   2 5347.17  382.57
  13   1  -2 5102.51  338.15
 -13   1   3   20.21   74.48
  13   1  -3   53.08   62.03
 -13   1   3  100.21   31.75
 -13  -1   3   88.29   46.73
 -13  -1   3  101.11   87.35
  13   1  -3  108.45   40.55
  13  -1  -3   56.26   77.03
  13  -1  -3  127.41   61.22
 -13   1   4 1277.63  136.86
 -13  -1   4 1258.57  137.39
  13  -1  -4 1463.40  160.11
  13   1  -4 1158.49   97.54
 -13  -1   4 1176.27  157.07
  13   1  -4 1160.43  139.50
  13  -1  -4 1072.31  137.60
  13  -1  -5  182.59   91.57
  13   1  -5  272.43   64.93
 -13   1   5  144.46   68.27
  13  -1  -5  144.84   73.70
 -13  -1   5  110.77   87.78
 -13  -1   5  150.20   59.03
  13   1  -6 8586.83  574.92
 -13   1   6 8946.51  386.37
 -13  -1   610493.76  624.87
 -13   1   610176.07  591.26
  13  -1  -611981.24  758.44
  13  -1  -6 8999.77  570.20
  13   1  -610665.04  658.36
 -13  -1   6 8687.18  624.14
  13   1  -7 1269.14  142.30
 -13   1   7 1317.13  194.39
 -13  -1   7 1017.81  136.15
  13  -1  -7 1689.12  199.11
 -13  -1   7 1408.07  165.35
  13  -1  -7 1303.48  135.97
 -13  -1   7 1252.63  127.24
 -13   1   7 1698.17  218.79
  13  -1  -8  310.25   46.89
 -13  -1   8  485.28   87.37
  13   1  -8  503.14   68.46
  13  -1  -8  663.46  104.35
  13  -1  -8  560.12   68.71
 -13   1   8  686.30  119.99
 -13  -1   8  438.86   52.51
 -13  -1   8  673.60   91.56
  13   1  -8  643.32  120.98
 -13   1   9   27.32   75.28
 -13  -1   9   93.00   49.71
 -13   1   9   93.84   78.40
  13   1  -9   80.57   89.12
  13   1  -9   53.99   46.34
  13  -1  -9   84.35   75.00
 -13  -1  10 5222.12  351.87
  13  -1 -10 5542.10  429.34
  13   1 -10 4806.76  273.81
  13   1 -10 4909.08  357.35
 -13   1  10 5056.88  366.83
  13   1 -11 1134.91  173.60
 -13   1  11 1138.64  138.13
 -13   1  11 1218.63  143.06
 -13  -1  11 1311.47  161.93
 -13  -1  11 1214.20  123.96
  13   1 -11 1283.38  130.11
  13   1 -12  109.00   83.86
 -13   1  12   91.51   72.43
 -13  -1  12   82.38   61.79
  13  -1 -12  166.28   85.33
 -13   1  13  951.25  135.17
 -13  -1  13  568.81  102.56
  13   1 -13  763.37  124.74
  13  -1 -13  945.50  159.32
 -13  -1  13  576.86  115.74
 -13  -1  14  259.71   71.34
 -13  -1  14  255.53   80.20
  13  -1 -14  379.20  101.22
 -13  -1  14  310.27   56.81
  13  -1 -14  239.17   84.73
 -13   1  14  339.90   90.63
  13   1 -14  330.76   99.64
 -13  -1  15   15.88   35.42
 -13  -1  15   40.28   45.84
  13  -1 -15   43.54   60.75
  13   1 -15   -8.37   57.65
  13   1 -16  206.84   70.06
 -13  -1  16  214.34   70.68
  13  -1 -16  386.99   78.89
 -13   1  16  281.92   89.64
 -13   3   1  449.75   74.53
 -13  -3   1  416.87   81.90
 -13  -3   1  514.99   77.98
 -13   3   1  463.60  106.22
  13   3  -1  356.19   73.30
  13  -3  -1  426.38   92.39
 -13  -3   1  336.15  100.75
 -13   3   2 1421.65  180.92
 -13  -3   2 1556.97  167.37
 -13  -3   2 1471.22  130.47
 -13  -3   2 1848.13  158.09
  13   3  -2 1467.68  135.87
  13   3  -3   20.32   42.05
 -13   3   3  -37.55   48.44
 -13  -3   3   21.66   55.64
  13  -3  -3    5.94   46.87
  13  -3  -3   -9.32   41.39
 -13   3   3   84.44   44.19
 -13  -3   3   67.56   61.01
  13  -3  -4  161.70   99.23
 -13  -3   4  244.45   73.92
  13   3  -4  382.15   71.59
 -13   3   4  365.36   88.83
 -13  -3   5  117.88   65.95
  13  -3  -5   41.67   61.12
  13   3  -5   -9.14   51.01
 -13   3   5   61.54   34.88
 -13   3   5   55.01   67.79
 -13   3   6 2725.70  247.11
  13  -3  -6 3165.32  322.10
 -13  -3   6 3166.43  316.57
 -13   3   6 2149.50  199.51
  13   3  -6 3101.61  238.15
  13   3  -6 2650.62  212.36
  13  -3  -7  511.07  109.31
 -13  -3   7  484.40   96.22
 -13   3   7  458.76   86.08
  13   3  -7  340.41   64.51
 -13   3   7  744.63  120.01
  13   3  -7  449.58   82.72
  13   3  -8  147.95   60.42
 -13   3   8   77.15   95.90
  13   3  -8  145.98   61.56
  13  -3  -8  149.80   78.65
 -13  -3   8  159.16   68.92
  13   3  -9  -32.88   40.15
 -13   3   9    9.17   40.78
  13  -3  -9   32.73   40.62
 -13   3   9  -31.84   40.77
  13   3  -9   27.77   40.39
 -13  -3   9    3.83   41.00
 -13  -3  10 1382.96  155.72
  13   3 -10 1610.10  156.77
  13  -3 -10 1191.31  181.87
  13   3 -10 1530.68  150.76
 -13   3  10 1894.17  168.86
 -13   3  10 1175.23  137.51
 -13   3  11  394.04   67.87
  13   3 -11  349.98   87.88
 -13  -3  11  351.91   81.01
  13   3 -11  302.52   89.69
  13  -3 -11  352.26  110.62
  13  -3 -12   -9.40   77.36
 -13   3  12   55.66   60.35
  13   3 -12  -10.80   54.52
 -13   3  13  218.10   68.09
  13   3 -13  176.22   76.12
 -13   3  14   97.74   57.64
  12   0  -1  189.45   51.86
 -12   0   1  167.94   77.23
 -12   0   1  235.95   98.52
 -12   0   1   96.63   39.33
  12   0  -2 1214.98  138.80
 -12   0   2  945.99  135.12
  12   0  -2  881.74  122.40
 -12   0   2 1014.89  106.00
  12   0  -3  468.87   78.75
 -12   0   3  461.41   96.65
  12   0  -3  818.11  128.38
 -12   0   4 2685.19  184.93
  12   0  -4 2690.59  204.35
 -12   0   4 2476.04  232.88
  12   0  -4 2827.95  201.07
  12   0  -5    6.91   48.25
 -12   0   5   99.31   57.10
 -12   0   5  -36.99   86.46
  12   0  -6 7562.30  469.28
  12   0  -6 8529.83  533.93
  12   0  -6 7071.48  585.54
 -12   0   6 7448.95  434.77
 -12   0   6 8277.71  522.04
 -12   0   6 7185.25  440.21
 -12   0   7  406.05   68.89
  12   0  -7  219.00   86.62
  12   0  -7  229.90   56.10
  12   0  -8   -1.88   46.92
 -12   0   8  134.22   59.34
  12   0  -8   22.82   24.54
  12   0  -9  601.81   75.09
 -12   0   9  674.73   92.75
 -12   0   9  716.36  122.66
  12   0  -9  648.47  129.14
 -12   0  10 7060.20  597.40
  12   0 -10 6477.92  492.18
  12   0 -11  856.35  106.77
 -12   0  11  808.82  141.95
  12   0 -11  790.08  130.95
 -12   0  12  490.45  115.52
 -12   0  12  441.16   66.47
  12   0 -12  485.34  119.04
  12   0 -13 1856.35  157.04
 -12   0  13 1733.62  190.50
 -12   0  13 1585.00  167.56
 -12   0  13 1472.72   96.62
  12   0 -13 1710.48  204.38
  12   0 -14  682.61   93.49
  12   0 -14  825.63  135.01
 -12   0  14  434.28   74.80
 -12   0  14  745.12  125.66
 -12   0  15  -47.86   48.36
  12   0 -16  117.89   82.32
 -12   0  16   76.29   60.21
 -12  -2   1  -11.09   88.04
 -12   2   1   34.58   72.82
  12   2  -1  -18.92   55.75
  12  -2  -1   55.52   58.60
  12  -2  -1  -19.45   69.71
  12   2  -1   39.72   24.30
 -12  -2   1   68.39   58.02
 -12   2   1  119.08   66.80
 -12  -2   1  212.27   76.94
 -12   2   2  433.91   37.69
  12   2  -2  445.97   52.44
 -12  -2   2  392.86   85.73
 -12  -2   2  419.47  101.55
  12   2  -2  495.43   84.17
  12  -2  -2  340.59   85.11
  12  -2  -2  490.73  118.19
 -12  -2   3  235.48   70.73
 -12  -2   3   99.53   76.33
  12  -2  -3  268.98   79.44
  12  -2  -3  400.58   93.38
  12   2  -3  252.97   41.39
 -12   2   3  315.88   93.77
  12   2  -3  171.24   59.86
 -12   2   4 1344.00  118.83
 -12   2   4 1280.80  160.21
  12  -2  -4 1331.95  129.44
 -12  -2   4 1061.91  140.47
 -12  -2   4 1478.01  149.76
  12  -2  -4 1348.42  205.57
 -12   2   5  109.44   50.75
  12   2  -5    2.56   48.14
  12  -2  -5   42.93   60.96
 -12  -2   5   19.53   65.73
  12   2  -5   48.25   38.07
  12   2  -6 3950.39  255.89
 -12   2   6 3799.25  302.17
 -12  -2   6 4328.60  366.17
 -12  -2   6 3424.01  183.02
  12   2  -6 3271.64  261.98
  12  -2  -6 4552.81  459.50
 -12   2   7    8.46   55.82
 -12  -2   7  106.46   54.56
 -12   2   7  318.06  118.21
  12   2  -7  126.91   55.26
  12   2  -7   50.66   47.73
 -12  -2   7   83.75   61.92
  12  -2  -7   35.03   78.04
  12  -2  -8  110.34   64.95
  12   2  -8   49.06   65.15
 -12  -2   8  -67.36   64.20
  12   2  -8  -46.78   67.21
 -12   2   8  -14.02   65.51
 -12   2   8   69.22   66.44
  12   2  -9  318.50   93.87
  12  -2  -9  319.54   95.70
  12   2  -9  431.98   79.94
 -12  -2   9  333.95   67.31
  12   2 -10 3423.20  253.09
  12  -2 -10 3805.50  337.92
  12   2 -10 3215.61  284.59
 -12   2  10 3386.93  309.83
  12  -2 -10 4306.96  306.21
  12  -2 -11  533.57  105.31
 -12  -2  11  446.86   92.32
 -12   2  11  320.98   81.84
  12   2 -11  448.70  113.57
  12  -2 -12  163.15   94.89
  12   2 -12  304.67  104.66
 -12   2  12  181.04   82.00
 -12  -2  12  212.40   64.55
 -12  -2  12  231.29   62.27
  12  -2 -13 1230.43  156.21
 -12  -2  13  801.24  127.11
  12  -2 -13  919.61  154.33
 -12   2  13 1017.61  137.97
  12   2 -13 1029.16  156.34
 -12  -2  13  872.59  107.81
 -12  -2  13  699.00  106.42
  12  -2 -14  424.23   91.76
  12   2 -14  363.29  108.10
 -12  -2  14  442.22   73.81
 -12  -2  14  309.18   78.85
  12  -2 -14  510.24  118.38
  12   2 -15  -40.20   64.10
 -12  -2  15  -39.93   68.09
 -12   2  15   38.86   64.86
 -12   4   1   88.07   53.90
 -12  -4   1  126.64   86.93
  12   4  -1   60.26   44.04
  12  -4  -1   20.29   59.66
 -12  -4   2   51.50   53.71
  12  -4  -2   17.20   58.86
 -12  -4   2   -9.37   40.57
 -12  -4   3   22.12   38.80
 -12  -4   3    4.86   41.22
  12  -4  -3   94.81   60.47
 -12   4   3   25.14   47.29
  12   4  -3   20.42   37.09
 -12   4   4  279.02   74.16
  12   4  -4  275.95   60.40
  12  -4  -4  194.40   81.35
 -12  -4   4  352.20   75.09
 -12  -4   5   -5.80   47.96
 -12   4   5  151.33   49.26
  12  -4  -5  -69.46   47.33
  12   4  -5    1.09   47.42
  12   4  -6  744.86   93.91
 -12   4   6  455.13   70.90
 -12  -4   6  703.49  118.16
  12   4  -7  -19.65   43.60
  12  -4  -7  -21.67   38.16
 -12   4   7   14.84   34.82
 -12   4   7  150.14   71.77
 -12  -4   7  -33.51   47.65
  12   4  -8  -16.28   44.73
 -12   4   8  -34.57   45.18
 -12  -4   8   -9.05   46.47
 -12   4   8  -35.22   45.07
  12   4  -8  -15.33   44.08
  12  -4  -8   55.46   45.41
 -12   4   9  161.12   81.44
  12   4  -9   68.47   47.80
 -12   4   9   40.85   43.87
  12  -4  -9   80.35   72.99
  12   4  -9   30.04   55.98
 -12   4  10  432.76   78.97
  12   4 -10  724.51   94.22
  12   4 -10  547.58   86.61
 -12   4  11   -9.48   36.18
  12   4 -11   44.68   52.59
  12   4 -12   19.68   42.45
 -11   1   1 7078.41  500.54
 -11   1   1 6419.38  465.25
  11  -1  -1 6330.89  437.31
 -11   1   1 5616.22  273.72
  11   1  -1 6493.56  369.81
 -11  -1   1 5846.65  347.01
 -11  -1   1 5601.04  335.41
 -11  -1   1 6465.41  447.63
 -11  -1   2 1147.67  174.83
  11   1  -2 1272.69  101.79
  11   1  -2 1423.21  138.89
 -11  -1   2 1325.03  147.09
  11  -1  -2 1255.14  210.70
  11  -1  -2 1503.84  171.19
 -11   1   2 1178.77  140.03
 -11   1   319892.98  838.29
 -11   1   319844.84 1023.80
  11   1  -321033.06  979.92
  11  -1  -323035.50 1087.57
  11  -1  -321448.34  995.23
  11   1  -319877.71  869.68
 -11  -1   4  472.14  134.64
  11  -1  -4  485.48  119.17
  11   1  -4  308.93   73.18
 -11   1   4  665.82  164.33
  11   1  -4  227.16   59.86
  11   1  -4  342.92   56.73
 -11   1   4  366.80   68.69
 -11  -1   4  301.57   70.76
  11   1  -5  376.92   71.02
 -11   1   5  361.27   79.95
 -11   1   5  293.16   48.81
 -11  -1   5  482.12   85.91
  11   1  -5  221.29   69.37
  11  -1  -5  450.86   85.88
 -11  -1   5  114.33   88.16
  11  -1  -5  511.87  109.91
 -11   1   5  162.88   65.22
 -11  -1   6  -39.09   62.26
 -11  -1   6  -24.56   66.35
 -11   1   6  -68.87   63.24
 -11  -1   6  -37.96   65.28
  11   1  -6   88.07   64.29
  11  -1  -6  -67.14   72.79
  11   1  -6   85.99   65.83
  11   1  -719437.81 1147.65
  11   1  -718335.00 1034.32
 -11  -1   719296.87  805.36
 -11   1   721969.39 1108.42
 -11   1   722996.32 1133.83
 -11  -1   722190.90 1082.50
  11  -1  -725123.60 1223.15
 -11  -1   719487.54  836.36
 -11  -1   721178.31 1125.90
 -11  -1   8  396.07   91.65
 -11   1   8  402.27   98.54
  11  -1  -8  610.18   95.61
 -11  -1   8  423.27   58.90
 -11  -1   8  458.99   51.93
  11  -1  -8  420.03   44.22
  11   1  -8  427.49  102.90
  11   1  -8  394.89   77.44
 -11  -1   9 4040.35  326.30
  11   1  -9 4426.27  308.87
  11  -1  -9 3491.38  174.05
 -11   1   9 4241.04  316.22
 -11  -1   9 4284.13  311.24
  11   1  -9 3687.40  288.82
  11   1 -10  709.14  138.12
  11  -1 -10  529.81  100.23
 -11  -1  10  394.34   83.12
 -11  -1  10  403.89   62.61
 -11   1  10  474.26   93.74
  11  -1 -10  375.65   45.00
  11   1 -11  931.45  161.69
 -11   1  11  733.08  117.30
  11  -1 -11  828.79  104.29
 -11   1  11  758.11  106.27
 -11  -1  11  897.12  102.09
 -11  -1  11  749.15  123.49
  11   1 -12  -31.07   87.50
 -11   1  12   15.81   86.23
 -11  -1  12  -59.54   92.60
 -11  -1  12   -3.15   91.16
 -11  -1  12  -54.18   89.18
  11  -1 -12  -91.74   86.36
  11  -1 -12   41.61   89.21
 -11  -1  13  801.41   88.92
 -11   1  13  681.68  114.73
  11   1 -13  913.06  147.35
 -11  -1  13  559.75  116.34
  11  -1 -13  879.81  124.54
  11   1 -14  359.44  101.59
 -11   1  14  323.96   99.51
 -11  -1  14  432.63   73.55
  11  -1 -14  477.75  116.29
 -11  -1  15   23.57   39.48
  11  -1 -15  -68.91   61.14
 -11   1  15   95.66   58.41
 -11  -1  16   12.28   32.74
  11   3  -1 1918.05  152.63
 -11  -3   1 1658.26  178.76
 -11  -3   1 1877.70  185.06
 -11   3   1 1641.98  191.19
  11  -3  -1 2258.35  179.20
 -11  -3   1 2016.21  179.52
  11  -3  -1 1963.47  199.78
 -11   3   1 1928.61  187.74
 -11   3   2  438.72   95.37
 -11  -3   2  523.17   95.22
  11  -3  -2  329.08  111.40
  11  -3  -2  400.44   78.28
  11   3  -3 5466.74  277.67
 -11  -3   3 6636.06  479.28
 -11  -3   3 6296.70  394.88
 -11   3   3 5228.44  287.20
  11  -3  -3 5609.33  367.04
  11  -3  -3 6160.79  536.83
  11   3  -3 5767.77  360.22
  11   3  -4   56.82   51.78
  11  -3  -4   70.50   30.31
  11   3  -4  108.44   39.16
 -11  -3   4   65.43   66.06
 -11   3   4   93.93   45.91
 -11   3   4  716.85  138.71
  11   3  -5  116.99   49.22
 -11  -3   5   87.63   55.32
 -11  -3   5   57.94   27.85
  11  -3  -5  147.90   63.93
 -11   3   5  139.83   66.65
  11   3  -5  111.28   52.23
 -11   3   5   67.90   43.07
  11   3  -6   19.91   48.50
 -11   3   6   29.08   45.71
  11  -3  -6  151.41   82.62
 -11  -3   6  -56.12   54.57
  11   3  -6   22.67   45.79
  11   3  -7 6131.56  347.06
 -11   3   7 7218.98  485.76
  11   3  -7 6650.35  437.53
 -11  -3   7 5573.36  420.52
  11  -3  -7 6114.83  563.57
 -11  -3   8  135.08   60.26
  11  -3  -8   46.91   83.27
 -11   3   8  128.03   64.55
  11   3  -8   89.48   57.29
  11   3  -8  122.30   63.35
  11   3  -9 1265.14  145.70
 -11   3   9 1086.66  122.17
  11  -3  -9 1118.45  161.53
 -11  -3   9 1075.57  140.04
  11  -3  -9 1605.27  193.43
  11   3 -10  186.67   77.79
 -11   3  10  152.07   64.33
 -11  -3  10  147.48   67.37
  11   3 -10  159.67   70.65
 -11   3  11  247.16   90.14
 -11   3  11  271.54   68.50
 -11  -3  11  206.05   69.24
  11   3 -11  283.79   88.10
  11  -3 -11  258.45  101.24
 -11   3  12   73.33   65.81
  11  -3 -12  -58.59   65.61
 -11  -3  12   15.01   48.65
  11   3 -12  -17.23   64.34
  11   3 -13  206.98   74.55
 -11  -3  13  296.15   68.92
  11  -3 -13  298.88   80.36
 -11   3  13  175.66   72.05
 -11  -3  13  211.48   71.41
 -11  -3  14  107.58   47.21
  11  -3 -14  129.95   80.88
  11  -5  -3  677.85  101.36
  11   5  -4   38.26   39.47
 -11  -5   4   23.65   47.89
  11  -5  -4   15.06   47.40
 -11   5   5  -18.34   45.02
  11   5  -5    0.58   43.30
 -11   5   6   28.71   47.71
  11   5  -7  716.66   93.26
 -11   5   7  610.87  107.79
 -11  -5   7  486.83   95.30
 -11   5   8   28.17   77.22
 -10   0   1   63.90   85.42
  10   0  -1  343.85  104.79
  10   0  -1  165.95   44.66
 -10   0   1  158.56   42.58
 -10   0   2  812.76  130.58
  10   0  -2 1096.36  121.23
  10   0  -2 1113.12  133.31
 -10   0   2 1006.89  110.13
  10   0  -2  939.42  122.95
  10   0  -3 5705.10  355.47
 -10   0   3 5256.03  297.15
  10   0  -3 5677.59  373.19
 -10   0   3 4408.15  331.04
 -10   0   425950.12 1165.54
 -10   0   427087.16 1425.74
  10   0  -426939.87 1354.68
 -10   0   428490.35 1329.91
  10   0  -427443.12 1337.39
 -10   0   5 3864.81  330.43
  10   0  -5 3791.33  367.70
 -10   0   5 3309.20  289.18
 -10   0   5 4307.87  250.93
  10   0  -6 7847.72  418.55
 -10   0   6 9289.81  538.03
  10   0  -6 8938.02  444.73
 -10   0   6 6846.72  431.41
 -10   0   6 8383.53  485.83
  10   0  -7 3404.16  231.07
 -10   0   7 3030.87  188.20
  10   0  -7 3665.80  200.39
 -10   0   7 4271.46  316.13
 -10   0   7 4113.10  272.21
  10   0  -7 3939.54  351.14
  10   0  -8 4413.09  334.34
  10   0  -8 3558.04  249.29
 -10   0   8 4001.20  310.96
  10   0  -8 3275.98  194.42
 -10   0   9 3054.69  263.41
 -10   0   9 3001.05  194.54
  10   0 -10 4235.17  294.45
  10   0 -10 4477.90  361.57
 -10   0  10 3888.08  297.00
 -10   0  10 4500.67  336.95
 -10   0  11 3441.85  294.36
  10   0 -11 3653.57  354.92
 -10   0  11 3089.89  201.86
  10   0 -12   48.82   86.63
  10   0 -12   12.53   53.59
 -10   0  12   74.10   74.36
 -10   0  12    9.00   40.36
  10   0 -13  167.85   59.21
  10   0 -13  202.64   94.69
 -10   0  13  218.66   48.86
 -10   0  13  365.18   87.33
 -10   0  14  310.43   53.58
  10   0 -14  365.53   69.91
  10   0 -14  425.66  112.68
 -10   0  14  266.29   84.48
 -10  -2   1  178.20   70.45
  10   2  -1   44.62   23.55
  10   2  -1  141.70   63.32
  10  -2  -1   73.50   63.34
 -10   2   1  111.08   67.84
 -10   2   1  -30.74   55.39
 -10  -2   1   35.99   84.08
  10  -2  -1  122.17   70.36
  10  -2  -2  456.37  122.60
 -10   2   2  326.04   43.47
 -10  -2   2  479.39  105.32
 -10  -2   2  474.06  112.97
  10   2  -2  522.55   85.31
 -10  -2   2  323.44   76.84
 -10   2   2  449.94   88.80
  10  -2  -2  496.62   93.36
  10  -2  -3 2354.09  279.09
 -10   2   3 2439.24  205.01
  10   2  -3 2404.24  188.82
  10   2  -3 2426.79  143.13
 -10  -2   3 2580.55  256.49
 -10  -2   3 2018.47  167.53
  10  -2  -3 2633.70  206.54
 -10  -2   3 2329.20  215.78
 -10   2   3 2408.52  238.28
  10   2  -414078.29  616.28
  10   2  -412114.57  679.79
 -10   2   412122.57  737.04
 -10   2   411536.87  718.25
  10  -2  -414467.09  626.54
 -10  -2   412406.61  668.83
  10   2  -412417.29  710.41
 -10  -2   415101.96  964.66
  10  -2  -414267.74 1029.55
  10   2  -5 1626.93  149.30
 -10  -2   5 1742.00  125.86
  10   2  -5 1486.92  145.64
 -10  -2   5 1708.17  222.28
  10  -2  -5 2997.61  294.80
  10  -2  -6 4812.53  438.96
 -10   2   6 4192.23  373.73
  10   2  -6 4438.27  271.92
  10   2  -6 3880.42  289.37
 -10   2   6 4364.13  331.79
 -10  -2   6 4432.41  371.10
  10   2  -7 2081.50  175.07
 -10  -2   7 1937.49  215.92
  10  -2  -7 2231.69  232.92
 -10  -2   7 2195.46  193.38
  10   2  -7 2009.43  177.23
 -10   2   7 1749.81  221.67
 -10   2   8 1698.03  177.52
  10   2  -8 1868.41  181.85
 -10  -2   8 1791.95  176.30
  10   2  -8 1939.12  202.44
  10  -2  -8 2176.19  255.08
  10  -2  -8 1670.45  203.39
  10  -2  -9 1790.70  203.60
  10   2  -9 1731.83  207.03
  10  -2  -9 1568.21  196.41
 -10   2   9 1587.28  188.27
 -10  -2   9 1716.31  186.14
 -10  -2   9 1698.47  166.92
  10  -2 -10 2015.85  243.88
 -10  -2  10 2407.29  195.82
 -10  -2  10 2269.37  203.58
  10   2 -10 2613.69  251.90
 -10   2  10 2045.94  252.13
 -10  -2  10 2080.65  187.47
  10  -2 -10 2740.85  261.74
  10  -2 -11 1617.86  205.33
 -10  -2  11 1785.27  187.48
  10  -2 -11 1829.29  182.93
  10   2 -11 1541.02  209.23
 -10   2  11 1862.96  192.47
 -10  -2  11 1672.38  154.59
 -10  -2  11 1935.48  164.92
 -10  -2  12  -60.64   83.92
 -10  -2  12   15.91   82.27
  10   2 -12   -4.12   80.93
 -10  -2  12  -20.62   93.03
  10  -2 -12   83.09   84.86
 -10   2  12   -1.29   80.27
 -10   2  13   59.63   52.92
 -10   2  13  200.16   74.56
  10   2 -13  199.89   69.72
 -10  -2  13  204.47   51.91
  10  -2 -13  108.20   76.96
 -10  -2  13  137.63   83.65
  10  -2 -14   32.85   54.36
 -10  -2  14  149.93   78.42
 -10  -2  14  209.12   60.32
  10  -2 -14  205.24   85.72
  10   2 -14  317.92   85.76
 -10  -2  15   40.97   52.36
 -10  -2  15   37.63   39.70
  10  -2 -15    6.08   32.71
  10  -4  -1   78.55   58.47
 -10  -4   1   35.39   47.07
  10   4  -1   23.56   31.49
 -10  -4   1   73.98   53.95
 -10  -4   2   59.24   54.75
 -10  -4   2   32.09   46.70
  10  -4  -2   50.05   69.25
  10  -4  -2   11.71   32.43
 -10   4   2   74.42   56.38
  10  -4  -3  227.28   81.16
  10   4  -3  460.86   86.77
 -10   4   3  547.76  104.36
 -10  -4   3  437.27   83.20
 -10  -4   3  575.93  102.21
  10   4  -4 2435.16  199.21
 -10  -4   4 2352.53  265.97
  10  -4  -4 2087.51  271.74
 -10   4   4 1566.66  145.89
 -10   4   4 2217.39  213.96
 -10   4   5  741.47  104.17
 -10   4   5  214.52   58.46
  10  -4  -5  418.64   99.73
  10   4  -5  447.08   68.32
  10   4  -5  316.57   62.10
 -10  -4   5  521.69   90.74
 -10  -4   6  850.85  131.40
 -10   4   6  666.74  126.56
  10  -4  -6  746.90  165.57
 -10   4   6  652.15   82.94
  10   4  -6  607.12   88.29
  10   4  -6  931.22  119.98
 -10   4   7  263.58  100.96
  10   4  -7  521.96   96.76
  10   4  -7  378.91   76.06
 -10   4   7  224.04   61.16
  10   4  -8  280.79   72.60
  10   4  -8  364.87   81.90
 -10  -4   8  334.49   91.18
 -10   4   8  220.95   69.62
  10  -4  -8  338.94   80.29
 -10   4   9  264.00   65.87
  10  -4  -9  334.73  105.20
  10   4  -9  273.68   78.72
  10   4  -9  292.37   72.63
  10  -4  -9  232.85   87.89
  10   4 -10  322.56   81.63
  10  -4 -10  467.57  135.27
  10   4 -10  321.44   99.90
 -10   4  10  407.83   85.20
  10  -4 -11  395.41  131.53
 -10   4  11  260.23   68.32
  10   4 -11  249.38   71.25
  10   4 -12   20.96   47.20
 -10   4  12   15.47   46.66
   9   1  -1 3743.49  272.44
  -9  -1   1 3309.14  302.04
   9   1  -1 3277.58  235.48
  -9   1   1 3374.39  189.80
  -9   1   1 3511.06  281.41
  -9  -1   1 3574.39  263.80
   9  -1  -1 3967.46  315.33
   9  -1  -1 3457.72  351.97
   9  -1  -2   16.24  101.27
   9  -1  -2   46.46   57.89
  -9   1   2   50.19   28.43
  -9   1   2   -6.55   76.44
  -9   1   2    0.81   44.56
  -9  -1   2   76.74   45.78
  -9  -1   2   90.32  105.72
   9  -1  -2  116.74   80.42
  -9  -1   3  791.31  138.11
   9  -1  -3  878.35  116.73
   9  -1  -3  657.43   88.16
  -9   1   3  954.08   94.05
  -9   1   3  777.05  105.97
   9   1  -3  765.59   96.02
   9   1  -3  657.47   89.63
  -9  -1   3  830.87  115.28
  -9  -1   3  922.88  132.58
   9  -1  -3 1117.77  159.43
  -9  -1   4 3218.17  282.14
  -9   1   4 3570.69  287.30
  -9   1   4 2272.84  211.28
   9  -1  -4 2887.41  270.12
   9  -1  -4 2253.92  207.90
   9   1  -4 2850.03  218.74
   9   1  -4 2420.25  206.71
  -9  -1   4 2705.15  267.22
   9  -1  -4 2928.69  321.37
   9   1  -4 2888.92  255.65
   9  -1  -5  826.90   95.48
   9   1  -5  997.19  132.23
  -9   1   5 1319.98  162.26
  -9  -1   5 1198.47  125.47
   9  -1  -5 1269.76  136.92
   9   1  -5 1055.03  150.75
  -9  -1   5 1098.91  108.87
  -9  -1   6  416.36   56.08
  -9  -1   6  419.21   81.68
   9   1  -6  370.80   74.53
  -9  -1   6  416.24   45.98
   9  -1  -6  325.44   82.27
   9  -1  -6  421.93   47.93
   9   1  -6  484.89  114.05
  -9   1   6  457.96  102.61
  -9  -1   7  502.55   56.44
   9   1  -7  725.45  126.88
  -9  -1   7  688.06  101.97
   9  -1  -7  580.98   44.04
  -9  -1   7  586.52   86.19
   9  -1  -7  808.78  140.56
   9   1  -8 8690.41  556.96
  -9   1   8 8641.52  657.52
   9  -1  -8 9302.53  566.37
  -9  -1   8 8365.15  473.36
  -9  -1   8 6892.63  364.44
  -9  -1   8 9018.43  569.79
   9  -1  -8 8777.37  337.29
  -9  -1   9  188.75   67.38
   9  -1  -9  170.23   79.95
  -9  -1   9  205.96   65.65
  -9   1   9  215.05   90.43
   9   1  -9  182.29   97.22
  -9   1   9  189.91   31.75
  -9  -1   9  178.22   51.66
   9  -1  -9  191.83   76.42
  -9   1  10 4438.44  233.46
   9   1 -10 5022.68  407.67
  -9   1  10 4822.59  419.08
   9  -1 -10 5806.81  413.39
  -9  -1  10 4954.59  375.17
   9   1 -10 4232.01  291.83
  -9  -1  10 4567.25  347.28
  -9  -1  10 3611.11  221.06
  -9  -1  10 4886.26  320.60
   9  -1 -10 4979.37  350.37
  -9  -1  11 1101.54  117.82
  -9   1  11  923.35   73.87
   9   1 -11  871.34  110.06
  -9   1  11 1144.32  151.61
   9  -1 -11 1057.69  160.62
  -9  -1  11 1412.19  147.56
   9  -1 -11 1142.86  134.47
   9   1 -12 2230.81  254.81
   9  -1 -12 2129.71  222.46
   9   1 -12 1562.84  158.02
  -9   1  12 1762.06  220.99
  -9  -1  12 1973.20  215.87
  -9  -1  12 1648.76  137.03
   9  -1 -12 1946.71  207.94
   9  -1 -13  146.82   70.55
  -9  -1  13  121.91   72.26
   9   1 -13   17.64   88.67
  -9  -1  13  167.20   52.39
  -9  -1  14 1590.24  130.15
   9  -1 -14 1735.00  216.66
   9   1 -14 1772.99  198.08
  -9  -1  14 1736.10  209.42
   9  -1 -14 1601.28  159.22
   9  -1 -15   20.09   53.03
   9   1 -15  102.56   76.74
  -9   1  15    4.86   45.61
  -9  -1  15   41.90   43.46
   9  -1 -15  -11.95   70.62
  -9  -1  16  -27.40   38.13
   9  -1 -16  -21.02   37.91
  -9   1  16    7.36   35.66
  -9  -1  16   -7.36   37.62
   9  -1 -16   22.50   37.47
   9   3  -1  821.02  102.63
  -9   3   1  817.25   69.77
  -9   3   1 1109.25  120.92
  -9   3   1  958.26  121.61
  -9  -3   1  868.39  121.43
  -9  -3   1  967.80  123.52
  -9  -3   1  962.98  101.43
   9  -3  -1  952.95  120.58
   9  -3  -1 1099.02  141.78
   9   3  -2    9.21   23.86
   9   3  -2   -8.77   50.56
  -9   3   2   17.87   69.55
  -9  -3   2   68.70   69.37
  -9  -3   2   28.15   52.74
   9  -3  -2   72.23   65.62
   9  -3  -2   -4.98   36.96
  -9   3   2  -10.69   39.16
   9   3  -3  203.77   48.52
   9   3  -3  336.55   74.50
  -9   3   3  160.05   53.05
  -9   3   3  330.79   81.77
  -9  -3   3  325.66   79.04
  -9  -3   3  290.36   66.64
   9  -3  -3  318.75   54.39
  -9   3   4  548.92   85.17
   9  -3  -4  649.22  127.48
   9   3  -4  670.57   96.89
   9   3  -4  739.67   97.95
  -9   3   4  611.60  108.10
  -9  -3   4  733.65  124.32
  -9  -3   4  849.75   80.31
   9  -3  -4  835.14   67.16
  -9   3   5  464.70  100.45
   9   3  -5  200.38   63.34
   9   3  -5  312.35   75.73
  -9   3   5  202.38   64.07
  -9  -3   5  354.90   83.76
   9   3  -6  117.20   55.43
   9   3  -6  268.10   77.03
  -9   3   6    8.70   47.48
  -9  -3   6  183.49   57.97
   9  -3  -6  107.19   74.82
   9   3  -7  301.30   69.89
   9   3  -7  164.77   69.29
  -9   3   7   92.64   61.00
   9  -3  -7  155.88   97.43
   9  -3  -7  256.70   88.85
  -9   3   8 2287.45  182.59
   9   3  -8 2466.41  212.23
   9  -3  -8 3684.15  374.40
   9  -3  -8 2125.96  250.54
   9   3  -9   93.55   70.32
  -9   3   9   35.81   62.23
  -9   3   9   28.78   51.26
  -9  -3   9    4.44   50.88
  -9  -3   9   75.12   60.30
   9  -3  -9  -70.14   67.76
   9  -3  -9  -24.48   70.24
   9  -3 -10 1839.46  223.13
  -9  -3  10 1655.53  170.32
   9   3 -10 1490.47  159.00
  -9   3  10 1396.98  173.14
  -9  -3  10 1736.29  149.23
   9  -3 -10 1236.10  148.47
  -9  -3  11  274.89   64.11
   9   3 -11  293.99   84.27
  -9   3  11  400.37   80.46
  -9  -3  11  319.92   65.49
   9  -3 -11  427.75  105.93
   9   3 -12  524.77  108.05
  -9   3  12  533.90   91.97
  -9  -3  12  594.63  100.82
   9  -3 -12  737.96  137.79
  -9  -3  13  -19.88   41.01
   9   3 -13   76.53   70.88
  -9   3  13   52.05   51.94
   9   3 -14  373.57  106.09
  -9   3  14  417.02   89.60
  -9  -3  14  425.02   69.67
  -9  -5   1  139.08   62.89
  -9   5   2   18.61   45.65
   9   5  -2    2.39   36.06
   9  -5  -3   95.05   60.64
   9   5  -3    5.76   42.17
  -9  -5   3  -30.03   44.43
   9   5  -4   47.67   44.66
  -9   5   4  117.26   61.70
  -9  -5   4  161.80   59.02
   9  -5  -4   96.11   62.01
  -9  -5   5   33.82   51.32
   9   5  -5   14.68   35.99
  -9   5   5   24.39   54.39
   9  -5  -5  -29.21   41.14
   9   5  -7   84.57   48.70
   9   5  -7   55.52   44.93
  -9  -5   7   47.71   45.94
   9   5  -8  197.31   73.79
   8   0  -140335.04 1710.18
  -8   0   140268.80 1842.59
  -8   0   136044.51 1775.96
   8   0  -138460.39 1639.06
   8   0  -142223.74 1927.96
  -8   0   2 3174.90  223.16
  -8   0   2 3299.36  264.94
   8   0  -2 3140.08  248.46
   8   0  -2 3406.83  268.76
  -8   0   2 2889.62  272.67
  -8   0   2 3085.18  253.73
   8   0  -2 3312.35  219.31
   8   0  -3 7038.20  504.63
   8   0  -3 6475.03  414.34
  -8   0   3 5721.15  394.44
  -8   0   3 7092.31  415.58
  -8   0   3 7363.31  428.80
  -8   0   3 6750.46  482.84
   8   0  -3 8386.21  441.13
   8   0  -3 5981.27  438.80
   8   0  -4 5294.53  414.66
   8   0  -4 4905.04  321.85
  -8   0   4 5658.12  440.57
  -8   0   4 4918.85  294.60
  -8   0   4 5413.56  351.11
   8   0  -538245.84 1996.78
  -8   0   542719.30 1776.60
  -8   0   534627.67 1600.65
  -8   0   538095.29 1524.63
  -8   0   536667.42 1910.91
   8   0  -540998.45 1522.56
  -8   0   6 2181.89  227.97
  -8   0   6 1654.06  114.50
   8   0  -6 1618.73  120.46
   8   0  -6 2005.64  198.65
   8   0  -6 1865.70  148.14
   8   0  -711929.94  707.46
  -8   0   7 8752.35  517.35
  -8   0   711181.13  639.36
   8   0  -711822.78  668.73
  -8   0   710383.52  477.44
  -8   0   711051.54  650.63
   8   0  -8  400.97   78.47
  -8   0   8  459.85   64.58
  -8   0   8  477.20  109.00
   8   0  -8  519.26  111.04
   8   0  -9 2060.74  204.90
  -8   0   9 1968.72  193.60
  -8   0   9 1693.78  116.21
   8   0  -9 1642.95  157.12
   8   0 -10  478.95  127.68
  -8   0  10  940.65  136.42
  -8   0  10  777.57   72.37
   8   0 -10  795.25   88.56
   8   0 -11 1652.95  131.20
  -8   0  11 1820.23  192.73
  -8   0  11 1863.79  178.73
   8   0 -11 1906.25  225.33
  -8   0  11 1549.55  126.39
   8   0 -12   83.70   55.48
   8   0 -12   86.68   91.39
  -8   0  12  169.44   45.39
  -8   0  12   49.81   70.51
  -8   0  12   55.35   66.13
   8   0 -13   33.69   91.19
  -8   0  13   57.71   63.64
  -8   0  13  -49.66   60.97
   8   0 -13   80.12   63.01
  -8   0  14   15.83   36.67
   8   0 -14  -10.97   38.59
   8   0 -15  123.74   46.37
  -8   0  15   73.92   26.89
  -8   0  15  190.90   79.34
  -8   2   117399.70  731.37
   8  -2  -119294.85 1058.93
   8   2  -114903.19  594.20
   8   2  -117422.54  807.42
  -8   2   115783.57  612.06
  -8   2   116741.53  859.61
  -8  -2   118171.99 1179.08
  -8  -2   118672.96 1065.98
   8  -2  -120106.01  982.19
  -8   2   2 1168.49  141.42
   8   2  -2 1216.83   97.01
   8   2  -2 1262.42  160.25
   8   2  -2 1436.97  165.79
  -8   2   2 1356.70  110.31
  -8   2   2 1552.38  183.21
  -8  -2   2 1800.26  204.07
  -8  -2   2 1704.85  183.06
   8  -2  -2 1547.64  202.69
   8  -2  -2  770.00  128.34
   8  -2  -3 2355.60  170.94
   8   2  -3 2937.27  226.86
   8   2  -3 3091.19  260.63
   8   2  -3 2999.84  234.97
  -8   2   3 2831.83  227.20
  -8   2   3 2785.48  241.02
  -8   2   3 2547.24  227.64
  -8  -2   3 3630.08  322.67
  -8  -2   3 3256.23  244.73
  -8  -2   3 2669.37  225.77
   8  -2  -3 2960.47  321.93
   8  -2  -3 3162.66  216.07
  -8   2   4 2138.39  188.06
  -8  -2   4 2418.41  146.99
   8   2  -4 2256.98  204.48
   8   2  -4 2546.03  228.01
  -8   2   4 2647.12  260.21
  -8   2   4 2547.00  135.05
  -8  -2   4 2366.39  254.49
   8  -2  -4 2482.32  277.93
   8  -2  -4 2079.90  113.22
   8   2  -520259.53  983.54
   8   2  -519393.50  867.91
  -8   2   517611.36 1097.73
  -8   2   518980.77  878.28
  -8  -2   519046.63 1003.04
   8  -2  -518575.84 1199.70
  -8   2   6  858.70  125.82
   8   2  -6  744.69  106.15
  -8  -2   6  798.32   97.38
   8  -2  -6 1036.72  168.14
   8  -2  -6  757.68  112.03
  -8  -2   7 4875.68  395.49
   8   2  -7 5555.89  380.79
  -8   2   7 5261.96  409.35
  -8  -2   7 4954.58  326.27
   8  -2  -7 5577.15  511.88
   8  -2  -7 5344.38  416.67
  -8   2   8  194.97   61.92
   8   2  -8  422.44  115.89
  -8   2   8  307.84   98.27
  -8  -2   8  240.66   74.96
  -8  -2   8  272.70   68.76
   8  -2  -8  369.63   91.46
   8  -2  -8  243.32   71.59
   8   2  -9  951.28  148.52
  -8   2   9 1155.89  150.28
  -8  -2   9  902.99  130.18
  -8  -2   9 1098.73  119.13
  -8  -2   9  767.59  114.72
   8  -2  -9  912.93  136.24
   8  -2  -9 1089.39  154.93
  -8   2   9  857.88  115.62
  -8   2  10  460.73   96.21
  -8   2  10  555.07   97.57
  -8  -2  10  427.53   81.26
   8  -2 -10  240.48   86.13
   8  -2 -10  568.04  114.31
   8   2 -10  634.10  126.17
  -8   2  11  928.54  141.26
  -8  -2  11 1067.14  116.73
   8  -2 -11 1053.98  154.59
   8  -2 -11  881.20  150.26
  -8  -2  11  865.86  121.30
   8   2 -11 1202.58  190.89
   8   2 -12   76.93   74.54
   8  -2 -12  111.58   70.28
  -8   2  12  -60.76   57.36
  -8  -2  12   49.98   44.16
   8  -2 -12   11.18   58.19
  -8  -2  13  -17.31   80.40
  -8  -2  13   24.95   70.30
   8  -2 -13  -14.55   69.49
   8  -2 -13   -8.01   76.12
   8   2 -13  -13.00   67.82
  -8   2  13   45.26   66.90
  -8   2  13  -29.10   69.47
   8   2 -14   69.19   60.81
  -8   2  14   39.24   52.26
   8  -2 -14   65.37   64.53
  -8  -2  14    8.55   42.63
  -8   2  14   69.14   57.95
   8  -2 -15   67.35   53.38
   8  -4  -1 3170.33  290.65
  -8  -4   1 3567.26  286.83
   8   4  -1 3146.26  209.92
  -8  -4   1 3635.41  357.00
  -8  -4   1 3024.78  179.21
   8   4  -2  246.61   61.93
  -8  -4   2  361.20   79.38
  -8  -4   2  156.49   61.03
  -8   4   2  238.84   71.17
   8  -4  -2  285.07   56.00
   8  -4  -2  234.12   82.67
   8   4  -3  538.26   87.84
  -8   4   3  442.21   83.98
  -8  -4   3  485.58  102.37
   8  -4  -3  389.17   94.16
   8  -4  -4  233.33  103.03
  -8  -4   4  345.42   74.42
   8   4  -4  442.08   76.86
  -8   4   4  365.62   90.58
  -8   4   4  241.46   65.31
   8   4  -5 3304.74  235.72
   8   4  -5 4547.80  322.63
  -8  -4   5 3647.90  362.39
   8  -4  -5 2611.75  337.54
  -8   4   5 4477.28  306.67
   8   4  -6  113.18   59.30
   8   4  -6  173.15   71.48
  -8   4   6   60.50   61.94
   8  -4  -6  112.25   66.29
  -8  -4   6   56.09   56.33
   8  -4  -7 1094.88  181.05
   8  -4  -7  649.88  144.77
  -8  -4   7  823.77  138.62
   8   4  -7 1129.34  139.85
   8   4  -7  774.17  101.88
   8  -4  -8  -94.58   82.54
   8   4  -8  145.79   73.38
  -8  -4   8   19.30   49.66
   8  -4  -8   49.82   47.60
  -8   4   8   -8.11   49.58
   8  -4  -9  198.00   96.42
   8   4  -9  137.79   72.79
  -8   4   9  118.46   60.17
  -8  -4   9  209.16   64.15
  -8  -4   9   94.44   48.42
  -8  -4  10   42.41   56.34
   8   4 -10   -1.89   60.48
   8  -4 -10   45.14   75.81
  -8   4  10   43.25   52.02
  -8  -4  11  253.29   70.06
   8   4 -11   85.89   64.98
  -8   4  11  107.15   56.70
   8  -4 -11  136.58   75.39
  -8   4  12  -41.41   42.96
   8   4 -12   93.18   64.44
  -8  -4  12   34.47   44.71
   7   1  -115112.52  802.26
   7   1  -113749.30  623.26
  -7   1   114424.33  850.56
  -7   1   114198.43  736.95
  -7  -1   115147.76  848.49
  -7  -1   114252.89  924.49
  -7  -1   115167.01  676.95
   7  -1  -116446.50 1004.41
   7  -1  -113765.31  882.69
   7   1  -115647.78  749.01
   7   1  -218661.50  979.59
   7   1  -216272.01  745.09
   7   1  -217637.36  920.28
  -7   1   216215.64  837.48
  -7   1   218609.52  909.74
  -7  -1   220418.98 1196.03
  -7  -1   218586.30  808.23
  -7  -1   220743.01 1032.80
   7  -1  -217300.11  956.38
   7  -1  -217355.26 1017.06
   7  -1  -219121.11 1151.13
  -7  -1   218150.78 1012.29
   7   1  -3   11.60   38.12
   7   1  -3   43.60   55.95
  -7   1   3   37.40   42.58
  -7   1   3   10.22   62.22
  -7   1   3  111.85   54.15
  -7   1   3   54.62   35.44
  -7  -1   3   51.83   68.38
  -7  -1   3   76.16   57.17
  -7  -1   3   28.94   43.49
   7  -1  -3   19.28   64.62
   7   1  -3   28.25   56.82
   7  -1  -3   54.80   63.79
  -7  -1   3   19.44   56.50
   7   1  -423971.46 1275.24
   7   1  -421741.10 1045.91
   7   1  -428132.33 1323.62
  -7   1   421730.11 1227.51
  -7   1   419626.21 1124.31
  -7   1   421414.12  772.26
  -7  -1   425312.02 1213.28
  -7  -1   422256.12  957.12
   7  -1  -421499.83  995.69
   7  -1  -425157.35 1238.40
  -7   1   422315.16 1086.14
  -7   1   424488.26 1228.58
   7   1  -519745.23 1107.62
   7   1  -521626.20 1001.53
  -7   1   522027.49 1092.62
  -7   1   518924.54 1192.92
  -7  -1   520647.06 1025.54
   7  -1  -518127.38  979.65
   7   1  -6 1358.55  177.80
  -7   1   6 1375.82  175.34
  -7  -1   6 1053.99  111.27
   7  -1  -6 1483.08  186.40
   7  -1  -6  816.76  137.93
  -7  -1   6 1393.29  143.85
   7   1  -7 2100.49  144.07
   7   1  -7 2266.18  236.21
  -7   1   7 1977.65  128.07
  -7  -1   7 2304.52  211.35
   7  -1  -7 1933.65  205.26
   7  -1  -7 1634.01  167.42
  -7   1   7 2135.76  205.10
   7   1  -8 7932.52  419.37
   7   1  -8 8436.12  535.22
  -7   1   8 7854.52  350.59
  -7  -1   8 7359.22  404.09
  -7  -1   8 7980.28  518.50
   7  -1  -8 7803.01  608.85
   7  -1  -8 7778.57  555.39
  -7   1   8 7960.78  569.53
   7   1  -9 2948.23  237.67
   7   1  -9 3242.77  293.39
  -7   1   9 2871.47  279.33
  -7   1   9 2936.17  302.37
  -7  -1   9 2518.37  192.71
  -7  -1   9 2968.88  232.68
   7  -1  -9 2655.57  271.41
   7  -1  -9 1956.71  187.19
   7  -1  -9 3258.94  267.60
  -7  -1   9 2862.20  237.22
   7   1 -10 1398.43  114.91
  -7   1  10 1635.31  203.01
  -7  -1  10 1655.35  146.99
   7  -1 -10 1801.09  213.55
  -7   1  10 1393.92  107.01
  -7  -1  10 1497.43  157.49
   7  -1 -10 1604.67  164.59
  -7  -1  10 1471.01  130.20
   7   1 -10 1360.04  178.76
   7   1 -11 1245.13  131.52
   7   1 -11 1269.36  185.90
  -7   1  11 1491.91  165.29
  -7   1  11 1169.98  102.62
  -7  -1  11 1185.87  177.36
  -7  -1  11 1374.66  134.71
   7  -1 -11 1522.83  159.90
   7  -1 -11 1419.60  178.41
  -7  -1  11 1282.12  146.50
   7  -1 -12  312.19   68.88
  -7   1  12  288.24   50.67
   7   1 -12  221.42   57.15
   7   1 -12  353.49  103.35
  -7   1  12  338.71   80.67
  -7  -1  12  255.74   77.62
  -7  -1  12  409.79   67.61
  -7  -1  12  267.88   81.61
   7  -1 -12  289.57   97.78
   7   1 -13   17.93   49.00
  -7   1  13   78.78   58.67
  -7   1  13   17.50   36.12
  -7  -1  13  -37.60   52.13
  -7  -1  13   -4.75   34.72
   7  -1 -13  -42.31   46.56
   7  -1 -13   18.18   68.21
   7  -1 -14   39.90   53.22
  -7  -1  14    6.65   52.35
  -7  -1  14  -11.10   33.05
  -7  -1  14   13.68   56.87
   7  -1 -14  -16.41   62.29
   7   1 -15  267.31   95.46
  -7  -1  15  161.99   69.20
  -7  -1  15  291.52   60.78
   7  -1 -15  223.50   65.24
   7   3  -1 2897.16  184.16
   7   3  -1 3720.73  256.76
  -7   3   1 4061.08  320.53
  -7   3   1 3455.25  251.98
  -7  -3   1 3897.96  310.41
  -7  -3   1 3821.57  276.02
   7  -3  -1 4091.88  345.34
   7  -3  -1 3752.24  272.19
   7   3  -2 3837.63  241.54
  -7   3   2 3807.44  263.07
   7   3  -2 4230.08  258.88
   7   3  -2 4302.00  268.57
  -7   3   2 3747.28  266.92
  -7   3   2 4054.14  338.92
  -7  -3   2 4877.97  385.89
   7  -3  -2 4172.95  384.23
   7  -3  -2 4010.53  278.80
   7   3  -3   41.35   41.89
   7   3  -3   53.55   35.38
   7   3  -3   23.16   41.88
  -7   3   3  415.99   92.22
  -7   3   3   98.38   40.63
  -7  -3   3   16.82   53.91
   7  -3  -3  121.80   80.35
   7  -3  -3   74.47   35.69
  -7   3   4 4998.43  248.22
   7   3  -4 5717.39  248.22
   7   3  -4 6783.37  387.92
  -7   3   4 5261.98  325.88
  -7  -3   4 6101.81  443.53
   7  -3  -4 5518.79  414.28
   7  -3  -5 5362.87  483.80
   7   3  -5 5718.26  329.98
   7   3  -5 6618.34  400.76
  -7   3   5 4837.57  343.78
  -7  -3   5 5376.87  427.48
  -7  -3   5 7767.49  381.33
   7  -3  -5 5851.53  543.99
   7  -3  -6  364.51  114.53
   7   3  -6  333.36   76.82
  -7   3   6  237.40   79.16
  -7  -3   6  330.92   80.64
   7  -3  -6  213.88   83.40
   7  -3  -7  366.93  101.99
   7   3  -7  439.95   93.77
  -7   3   7  416.26  100.80
  -7  -3   7  430.52   77.25
   7  -3  -7  634.92  129.78
   7   3  -8 2275.04  207.51
  -7   3   8 2273.35  231.29
  -7  -3   8 2146.12  206.87
  -7  -3   8 2686.12  237.40
  -7  -3   8 2288.26  189.84
   7  -3  -8 2864.64  269.99
   7  -3  -8 2328.24  244.61
   7  -3  -9  858.78  137.04
   7   3  -9  868.60  151.14
  -7   3   9 1167.48  163.78
  -7  -3   9 1051.47  120.04
   7  -3 -10  603.66  130.03
   7   3 -10  400.50  109.97
  -7   3  10  476.32   93.57
  -7  -3  10  479.21   91.61
  -7  -3  10  480.34   75.66
   7   3 -11  471.82  101.53
  -7   3  11  417.78   90.43
  -7  -3  11  387.66   89.43
   7  -3 -11  464.13  108.29
   7   3 -12  146.84   89.18
  -7   3  12  121.87   61.62
  -7  -3  12  156.89   54.60
   7  -3 -12  170.79   77.58
   7   3 -13   39.17   63.95
  -7   3  13  -17.72   38.28
  -7  -3  13   34.65   47.25
   7  -3 -13  -36.53   60.26
   7   5  -1  445.56   71.87
  -7   5   1  436.00   84.83
  -7  -5   1  241.66   89.01
   7   5  -2  406.90   78.81
  -7  -5   2  259.68   71.27
   7   5  -3  -36.56   31.91
  -7  -5   3   -2.12   32.01
  -7   5   4  280.70   56.08
  -7   5   4  521.04   94.20
  -7  -5   4  357.95   86.49
   7  -5  -4  299.74   88.61
  -7   5   5  362.15   65.61
  -7   5   5  325.83  100.47
  -7  -5   5  378.43   97.96
   7  -5  -5  471.60   87.56
   7   5  -5  588.74   95.40
   7   5  -6   42.13   49.45
  -7   5   6   -7.29   47.95
  -7  -5   6   28.46   58.12
   7   5  -7  106.06   65.61
  -7   5   7   59.45   49.66
   7   5  -8  286.71   86.34
  -7   5   8  190.14   58.99
   7  -5  -8  193.94   92.27
   6   0  -123016.71  977.71
   6   0  -120993.97  994.58
   6   0  -121969.44 1060.33
  -6   0   118905.29  917.67
  -6   0   120019.01  960.97
  -6   0   121021.05 1088.09
  -6   0   121241.03  947.30
   6   0  -213896.42  699.73
  -6   0   213806.28  726.37
  -6   0   215235.56  757.86
  -6   0   214021.73  634.09
   6   0  -3 2917.26  214.17
  -6   0   3 2719.55  226.20
  -6   0   3 2271.62  167.71
  -6   0   3 2435.53  171.25
  -6   0   3 2181.24  138.13
   6   0  -3 2093.90  220.46
   6   0  -3 2511.82  238.63
   6   0  -4 5377.66  273.51
  -6   0   4 5722.72  425.90
  -6   0   4 4764.09  305.87
  -6   0   4 5124.39  308.10
   6   0  -4 4852.65  312.75
   6   0  -4 4361.09  279.54
   6   0  -511715.03  556.04
   6   0  -510782.08  610.33
   6   0  -510204.52  713.76
  -6   0   510393.12  615.81
  -6   0   5 8495.81  607.95
  -6   0   510291.93  563.58
  -6   0   510595.82  493.65
  -6   0   5 9327.50  557.02
   6   0  -610158.38  572.73
   6   0  -610482.95  691.19
   6   0  -6 9888.94  510.41
  -6   0   610053.38  581.79
  -6   0   6 8257.85  410.06
  -6   0   610181.84  475.48
   6   0  -7  -30.74   45.02
   6   0  -7  -60.28   96.64
   6   0  -7   34.74   31.78
  -6   0   7   -0.97   74.96
  -6   0   7   34.87   35.01
  -6   0   7   29.62   34.75
   6   0  -815819.30  755.90
   6   0  -817440.30  954.70
   6   0  -814031.26  764.32
  -6   0   814884.45  860.25
  -6   0   815360.79  871.86
   6   0  -9   56.09   53.66
   6   0  -9  160.29   99.55
  -6   0   9   49.78   42.65
   6   0 -10  431.82   86.32
   6   0 -10  328.78  118.14
  -6   0  10  528.60   97.81
  -6   0  10  367.06   64.17
  -6   0  10  155.68   75.99
   6   0 -11    9.92   59.72
   6   0 -11   24.86   93.05
  -6   0  11   36.65  120.39
  -6   0  11   25.82   68.98
  -6   0  11  542.46  141.84
   6   0 -12 5515.98  390.55
   6   0 -12 6755.74  458.23
  -6   0  12 6029.60  427.95
  -6   0  12 5228.68  372.20
  -6   0  12 5148.38  358.78
   6   0 -13  127.65   96.47
  -6   0  13  102.84   71.25
  -6   0  13   77.13   44.48
   6   0 -13  112.79   58.15
  -6   0  14  199.81   51.85
  -6  -2   1 8553.92  456.40
   6   2  -1 9418.15  514.54
  -6   2   1 8788.54  457.79
  -6   2   1 8402.91  479.89
  -6   2   1 8433.04  493.19
  -6   2   1 8051.95  485.55
  -6   2   1 8665.05  558.92
  -6  -2   1 9858.43  697.50
  -6  -2   1 9846.29  602.85
   6  -2  -1 7626.12  819.13
   6   2  -2 6948.21  385.47
   6   2  -2 6757.72  384.49
   6   2  -2 6353.84  406.78
  -6   2   2 6239.65  453.05
  -6   2   2 5646.19  414.46
  -6   2   2 6179.36  374.50
  -6  -2   2 6416.41  482.90
   6  -2  -2 5396.92  394.40
   6  -2  -2 6795.28  510.23
   6  -2  -2 5959.83  452.65
   6   2  -3 1039.13   87.05
   6   2  -3 1117.71  124.47
  -6   2   3  988.68  119.78
  -6   2   3  879.94   81.06
  -6  -2   3 1001.71  128.39
  -6  -2   3  969.47   94.14
   6  -2  -3  924.36  148.63
   6  -2  -3  785.29   63.47
   6   2  -4 2544.72  201.12
   6   2  -4 2820.39  210.03
  -6   2   4 2529.97  225.38
  -6  -2   4 2413.45  239.18
   6  -2  -4 3449.93  302.72
   6  -2  -4 2357.21  250.67
   6   2  -5 5009.86  350.21
  -6   2   5 4340.05  289.07
  -6  -2   5 4056.80  307.66
  -6  -2   5 4662.82  357.00
   6  -2  -5 4606.51  362.81
   6  -2  -5 4144.88  330.38
   6   2  -6 5108.69  366.63
  -6   2   6 4500.51  353.94
  -6  -2   6 4577.76  303.65
  -6  -2   6 4452.03  362.94
   6  -2  -6 4990.46  424.52
   6   2  -7  -11.85   93.60
  -6   2   7  -31.10   42.19
  -6  -2   7   28.49   54.38
  -6  -2   7   98.95   54.00
   6  -2  -7   27.12   67.22
   6  -2  -7   35.12   57.93
   6   2  -8 6892.90  207.18
   6   2  -8  428.45  159.28
   6   2  -8 9030.18  482.52
  -6   2   8 6857.17  267.05
  -6   2   8 7776.26  502.76
  -6  -2   8 7595.81  423.03
  -6  -2   8 8290.48  569.20
   6  -2  -8 8606.18  560.61
   6  -2  -8 8366.46  485.59
   6  -2  -8 7811.71  246.73
   6   2  -9   -6.14   21.27
   6   2  -9  180.19   84.49
  -6   2   9   28.03   77.26
  -6   2   9   54.82   30.82
  -6   2   9  -64.72   49.00
  -6  -2   9   56.41   51.57
  -6  -2   9    5.81   60.06
   6  -2  -9   26.93   68.34
   6  -2  -9  101.02   73.35
   6  -2 -10  252.35   76.26
  -6  -2  10  153.18   59.29
   6  -2 -10  164.24   82.83
   6   2 -10  262.00  101.83
  -6   2  10   79.93   80.38
  -6   2  10  155.59   66.91
  -6  -2  10  121.68   67.55
  -6  -2  10  169.70   72.05
  -6   2  11  104.66   60.25
   6   2 -11  -55.39   70.22
  -6   2  11  -44.71   55.01
  -6   2  11   -6.22   25.37
  -6  -2  11   88.73   56.44
   6  -2 -11   17.24   78.32
   6  -2 -11   36.83   77.91
   6   2 -12 3281.74  269.72
  -6   2  12 3214.89  321.53
  -6   2  12 3177.21  235.87
  -6  -2  12 3435.27  293.99
  -6  -2  12 3048.42  272.57
   6  -2 -12 3988.96  298.37
   6  -2 -12 2375.80  221.89
  -6   2  13  118.55   63.25
  -6   2  13   45.43   55.61
  -6  -2  13    0.97   47.67
   6  -2 -13  145.42   73.99
  -6   2  14  156.07   66.63
  -6  -2  14  131.40   53.98
   6  -2 -14  147.79   72.39
   6   4  -1 1591.74  145.68
  -6   4   1 1622.06  161.68
  -6  -4   1 1718.40  215.86
  -6  -4   1 1753.43  176.81
   6  -4  -1 1504.41  172.21
   6   4  -2 1433.80  140.65
  -6   4   2  890.20  105.45
  -6   4   2 1423.17  141.55
  -6  -4   2 1323.68  166.85
   6  -4  -2 1108.24  157.88
   6   4  -3   65.05   53.18
   6   4  -3   65.96   55.01
  -6   4   3  239.89   73.98
  -6   4   3  228.16   83.05
  -6   4   3  248.99   53.15
  -6  -4   3  108.98   61.54
   6  -4  -3  139.27   52.69
   6   4  -4  765.25  112.60
  -6   4   4  326.22   69.64
  -6   4   4  214.95   51.67
  -6  -4   4  403.73   95.86
   6  -4  -4  230.66   69.42
   6   4  -5  623.68  104.90
   6   4  -5  908.79  133.70
  -6   4   5  620.91   95.14
  -6  -4   5  760.01  130.27
   6  -4  -5  925.27  149.72
   6  -4  -5  577.10  112.39
   6   4  -6  595.06   92.86
   6   4  -6  807.71  135.46
  -6   4   6  593.06   96.93
  -6  -4   6  645.62  107.81
   6  -4  -6 1139.12  236.70
   6  -4  -6  664.15  107.19
   6   4  -7   44.82   57.19
  -6   4   7    3.19   55.59
  -6  -4   7   -7.78   57.44
  -6  -4   7  -70.27   56.52
   6  -4  -7  -21.95   55.14
   6   4  -8 1202.44  130.67
  -6   4   8 1380.57  149.25
  -6  -4   8 1602.82  177.79
   6  -4  -8 1802.62  218.28
   6  -4  -8 1127.13  143.49
  -6  -4   8 1308.96  152.06
  -6   4   9   -0.79   55.14
  -6  -4   9   -4.70   58.19
  -6  -4   9    9.90   56.32
   6  -4  -9  -21.81   55.31
   6   4 -10   52.64   70.15
  -6   4  10   -7.29   54.12
  -6  -4  10   14.90   47.20
  -6   4  11   54.73   47.85
  -6  -4  11  -37.38   48.93
   6  -4 -11  -51.32   48.49
  -5  -1   123366.45 1179.18
  -5  -1   123471.79  921.21
  -5  -1   125138.64 1109.07
   5  -1  -123553.40 1065.96
   5  -1  -128085.62 1303.25
   5  -1  -124435.18 1345.89
   5  -1  -121662.67 1240.52
   5   1  -123767.83 1224.19
   5   1  -124672.97 1104.37
   5   1  -120721.22  895.23
   5   1  -122996.46 1082.52
  -5   1   119675.73  934.05
  -5   1   120171.89 1021.87
  -5   1   123215.53 1062.34
  -5  -1   125014.34 1321.99
   5   1  -218186.69  874.50
   5   1  -220393.11  904.76
   5   1  -216759.38  911.91
   5   1  -214629.37  724.95
  -5   1   215605.55  895.18
  -5   1   219267.33  931.59
  -5   1   216920.65  899.76
  -5  -1   216620.82  875.62
  -5  -1   216561.34  796.56
  -5  -1   217938.99  920.90
  -5  -1   219109.09  847.53
   5  -1  -215897.07  857.09
   5  -1  -217547.33  996.70
   5  -1  -217654.68  804.77
   5   1  -313543.49  723.53
   5   1  -315419.47  514.94
   5   1  -313791.03  857.49
   5   1  -313670.05  675.05
   5   1  -315142.87  767.39
  -5   1   313491.74  754.07
  -5   1   312987.88  732.05
  -5   1   312611.92  460.40
  -5  -1   313435.66  580.18
  -5  -1   313573.26  780.36
   5  -1  -313690.14  686.57
   5  -1  -315649.19  839.79
   5  -1  -311482.05  718.47
   5   1  -4 1295.28  163.13
   5   1  -4 1238.46  105.50
   5   1  -4 1276.06  122.19
  -5   1   4 1409.17  157.80
  -5   1   4 1184.29  130.89
  -5   1   4 1026.69  108.83
  -5  -1   4 1445.38  137.95
  -5  -1   4 1151.07  147.57
  -5  -1   4 1465.94  158.38
   5  -1  -4 1186.70  120.86
   5  -1  -4 1244.28  200.24
   5  -1  -4 1405.41  149.13
   5  -1  -519330.67  876.23
   5   1  -518561.96  747.36
   5   1  -516767.93  623.19
   5   1  -516796.00 1014.10
   5   1  -517531.12  948.36
  -5   1   519316.54 1198.22
  -5   1   516592.13  973.21
  -5   1   518723.67  695.22
  -5  -1   516826.04  750.66
  -5  -1   517353.59  925.13
  -5  -1   519713.05  906.95
   5  -1  -519189.05  983.14
   5  -1  -519084.47 1113.00
   5  -1  -512013.96  618.46
   5   1  -6 2795.74  177.31
   5   1  -6 2524.89  251.60
  -5   1   6 2835.17  281.69
  -5   1   6 2398.33  180.43
  -5   1   6 2732.32  194.34
  -5  -1   6 2732.93  224.61
  -5  -1   6 2477.11  157.53
  -5  -1   6 2912.39  238.28
   5  -1  -6 2811.66  267.72
   5   1  -7 3114.83  236.40
  -5   1   7 3280.10  252.40
  -5   1   7 2456.20  254.89
  -5   1   7 3330.18  324.28
  -5  -1   7 3041.80  267.80
  -5  -1   7 3345.90  238.07
   5  -1  -7 2909.40  268.97
   5   1  -8  555.91   66.81
   5   1  -8  637.41  114.87
  -5   1   8  645.29   75.35
  -5   1   8  431.46   99.91
  -5  -1   8  420.54  100.51
  -5  -1   8  597.68  102.30
   5  -1  -8  563.52  101.83
   5  -1  -8  635.51  125.82
   5  -1  -8  426.54   93.26
   5   1  -9 6392.75  342.32
   5   1  -9 7197.08  573.63
  -5   1   9 6168.03  462.59
  -5   1   9 5933.37  356.81
  -5   1   9 5987.80  418.73
  -5  -1   9 5503.09  413.47
  -5  -1   9 6939.78  424.41
  -5  -1   9 5900.27  536.18
   5  -1  -9 7245.35  634.22
   5   1 -10   15.67   50.43
   5   1 -10  -56.60   49.17
  -5   1  10   48.49   48.39
  -5   1  10  -47.81   50.96
  -5  -1  10  -45.01   55.38
  -5  -1  10   -3.11   50.40
   5  -1 -10   -1.81   50.54
   5   1 -11  501.22   83.99
   5   1 -11  430.57  105.20
  -5   1  11  370.66   99.10
  -5   1  11  285.74   64.30
  -5   1  11  451.91  104.60
  -5  -1  11  399.48   85.12
  -5  -1  11  447.61   89.51
  -5  -1  11  339.73  100.47
   5  -1 -11  551.29  121.75
   5   1 -12  -17.48   36.83
   5   1 -12  -84.22   69.61
  -5   1  12  -51.91   54.78
  -5   1  12   64.95   37.06
  -5  -1  12   39.54   56.63
  -5  -1  12  197.25  133.29
   5  -1 -12   38.51   58.91
   5   1 -13   76.24   46.26
  -5   1  13  105.81   57.76
  -5   1  13   95.03   41.11
  -5  -1  13  168.28   65.00
  -5  -1  13  148.00   49.85
  -5  -1  14  -24.99   53.32
   5   1 -15   83.57   65.56
   5   3  -1 5112.76  303.55
   5   3  -1 5212.41  328.49
  -5   3   1 4937.50  284.48
  -5   3   1 4113.43  291.57
  -5   3   1 6119.95  362.54
  -5  -3   1 5387.61  406.38
   5  -3  -1 5094.98  449.75
   5  -3  -1 4715.69  211.39
   5  -3  -1 4446.28  190.38
   5   3  -2 3350.10  197.27
   5   3  -2 4360.84  273.65
   5   3  -2 3228.81  252.67
  -5   3   2 3291.76  219.17
  -5   3   2 2631.50  231.50
  -5  -3   2 3941.58  340.41
  -5  -3   2 4173.91  244.48
   5  -3  -2 3604.54  347.11
   5  -3  -2 3440.29  238.40
   5   3  -3 3082.02  171.09
   5   3  -3 4091.28  243.97
  -5   3   3 2666.80  224.72
  -5   3   3 3029.55  157.02
  -5   3   3 2692.62  193.26
  -5  -3   3 3763.38  304.35
   5  -3  -3 2793.97  309.50
   5   3  -4  221.88   32.70
   5   3  -4  171.52   31.49
   5   3  -4  324.14   71.09
  -5   3   4  153.05   67.88
  -5   3   4  186.89   37.17
  -5  -3   4  288.31   80.91
   5  -3  -4  237.45  102.58
   5   3  -5 5060.94  356.94
  -5   3   5 4625.69  303.85
  -5   3   5 3521.49  242.89
  -5  -3   5 5143.44  404.99
  -5  -3   5 5436.02  401.14
   5  -3  -5 5284.87  553.04
   5  -3  -5 4696.73  389.09
  -5   3   6  666.84   70.66
  -5  -3   6  922.69  110.99
  -5  -3   6 1025.48  102.55
   5  -3  -6  629.89  112.90
  -5   3   6  767.68   56.49
  -5   3   6  770.12  120.76
   5   3  -6  795.38  124.14
  -5  -3   6  893.05  113.14
   5   3  -7  979.54  147.49
  -5   3   7  948.22  107.82
  -5  -3   7  779.36  110.36
  -5  -3   7  776.77  113.50
   5  -3  -7  920.74  167.10
   5  -3  -7  583.34  128.21
  -5   3   7  936.72  138.50
   5   3  -8  199.31   88.67
  -5   3   8  139.15   82.13
  -5  -3   8   20.94   47.10
  -5  -3   8  103.43   58.58
   5  -3  -8  244.90   87.31
   5  -3  -8  110.67   64.68
   5   3  -9 1804.52  176.87
  -5   3   9 1740.71  174.67
  -5  -3   9 1731.03  144.91
  -5  -3   9 1839.62  200.04
   5  -3  -9 2135.52  258.22
   5  -3  -9 1628.36  177.13
   5   3 -10   23.71   74.54
  -5   3  10   -9.80   64.81
  -5  -3  10   15.97   38.51
  -5  -3  10   17.09   50.21
   5  -3 -10  -18.72   61.01
  -5   3  11  128.22   57.96
  -5   3  11  146.59   63.89
   5   3 -12  -33.70   52.53
  -5   3  12   76.62   57.69
  -5   3  13  -19.19   38.99
   5   5  -1  748.77  105.31
  -5   5   1  460.70  104.23
  -5  -5   1  484.01   93.13
   5   5  -2  554.33   70.87
  -5   5   2  287.00   59.82
  -5   5   2  381.81   86.72
  -5  -5   2  368.86   79.38
   5   5  -3  370.25   72.49
  -5   5   3  265.27   58.32
  -5   5   3   79.36   78.90
  -5  -5   3  218.16   65.04
   5   5  -4   81.23   50.39
  -5   5   4   44.89   51.60
  -5   5   4   56.68   68.61
  -5  -5   4  -40.64   39.23
   5   5  -5  596.49   99.83
  -5   5   5  335.87   80.84
  -5  -5   5  502.05   88.83
   5   5  -6   44.53   65.13
  -5   5   6   75.09   51.27
  -5  -5   6  137.18   50.73
   5  -5  -6   51.76   68.08
   5   5  -7   42.37   50.81
   5   5  -7   72.45   64.36
  -5   5   7  112.25   51.88
   5  -5  -7  205.22   94.97
   5   5  -8    8.07   44.72
  -5   5   8  -38.57   43.51
  -5  -5   8    6.86   44.15
   5  -5  -8   32.07   43.37
   4   0  -1 7713.68  410.14
   4   0  -1 7618.58  399.69
  -4   0   1 7043.73  375.62
  -4   0   1 6940.01  382.08
  -4   0   1 8250.51  465.95
   4   0  -213428.19  749.88
   4   0  -212022.03  521.84
  -4   0   215123.27  674.03
  -4   0   212127.86  598.13
  -4   0   214606.89  623.56
  -4   0   213344.37  593.82
   4   0  -318597.71  800.73
   4   0  -320123.02  908.66
   4   0  -316824.71  872.67
   4   0  -315716.28  675.64
  -4   0   318784.98  896.67
  -4   0   316230.70  717.87
  -4   0   316889.00  864.65
  -4   0   318501.87  787.03
   4   0  -4 4424.44  315.94
   4   0  -4 3542.85  220.51
   4   0  -4 3891.08  300.36
   4   0  -4 3894.68  218.79
  -4   0   4 4501.04  298.52
  -4   0   4 4125.61  263.20
  -4   0   4 3246.07  193.31
  -4   0   4 3973.25  235.10
   4   0  -541046.12 1834.49
   4   0  -541095.62 1778.91
   4   0  -538106.42 1743.65
   4   0  -540877.50 1704.61
  -4   0   543158.70 1825.17
  -4   0   535778.67 1821.32
  -4   0   544390.36 1911.17
   4   0  -6 4386.29  341.63
   4   0  -6 4104.82  323.94
   4   0  -6 4283.39  385.34
   4   0  -6 4322.48  305.48
  -4   0   6 4367.38  348.10
  -4   0   6 3864.47  290.19
  -4   0   6 3704.24  240.55
  -4   0   6 4322.29  301.51
  -4   0   6 4264.47  325.05
   4   0  -7  515.80   79.84
  -4   0   7  526.41  106.11
  -4   0   7  432.44   83.79
  -4   0   7  526.89   81.56
   4   0  -8 4840.72  364.91
   4   0  -8 4401.00  351.17
  -4   0   8 4381.48  385.10
  -4   0   8 4578.11  324.97
  -4   0   8 4961.64  429.40
   4   0  -9 5130.96  362.82
   4   0  -9 4107.83  380.24
  -4   0   9 4343.41  403.57
  -4   0   9 5058.82  331.02
  -4   0   9 4712.46  354.47
   4   0 -10  230.65   72.42
   4   0 -10  277.27  105.30
  -4   0  10  311.42   96.03
  -4   0  10  147.24   58.32
  -4   0  10  350.42   86.12
   4   0 -11    0.79   57.43
   4   0 -11  161.10   94.10
  -4   0  11   42.30   67.71
  -4   0  11  120.44   51.70
   4   0 -12  129.13   90.18
  -4   0  12  157.90   54.54
   4   0 -13  437.91   87.62
   4   0 -13  726.67  152.77
  -4   0  13  671.66  102.31
  -4   0  13  401.23   75.23
  -4   0  13  504.43   88.40
  -4   0  14   22.04   42.06
   4   2  -1 3014.05  218.31
   4   2  -1 3062.79  228.55
  -4   2   1 3086.67  214.72
  -4   2   1 2820.60  226.35
  -4   2   1 3139.70  218.70
  -4  -2   1 2838.87  259.13
  -4  -2   1 3526.04  284.29
  -4  -2   1 3250.01  248.77
   4  -2  -1 2681.66  272.55
   4  -2  -1 2859.22  206.82
   4   2  -2 7314.35  408.30
   4   2  -2 8067.42  513.28
  -4   2   2 6559.11  331.75
  -4   2   2 6165.12  473.83
  -4   2   2 5428.73  443.79
  -4   2   2 6901.36  440.47
  -4  -2   2 6461.21  452.58
  -4  -2   2 6987.25  336.93
   4  -2  -2 6477.97  522.81
   4   2  -3 6871.48  428.10
   4   2  -3 7637.32  339.66
  -4   2   3 7444.92  466.65
  -4   2   3 6443.29  455.17
  -4   2   3 6272.80  409.01
  -4   2   3 7784.38  349.83
  -4  -2   3 8238.72  511.90
  -4  -2   3 7145.81  460.00
   4  -2  -3 7254.41  505.50
   4  -2  -3 7624.50  606.35
   4   2  -4 1386.40  127.50
   4   2  -4 1879.13   79.22
   4   2  -4 1826.82  163.22
  -4   2   4 1801.81  188.82
  -4   2   4 1449.41  125.26
  -4   2   4 1593.25  113.78
  -4  -2   4 1794.73  162.18
  -4  -2   4 1730.53  173.14
   4  -2  -4 1731.17  203.02
   4   2  -516730.58  601.55
   4   2  -517569.13  610.01
   4   2  -519027.21  967.92
  -4   2   521029.88 1118.07
  -4   2   517558.26  772.80
  -4  -2   517936.62  978.07
  -4  -2   518357.32  942.80
   4  -2  -518558.28 1071.46
   4  -2  -517978.47 1043.17
   4   2  -6 1862.05  109.70
   4   2  -6 2121.78  210.68
  -4   2   6 1575.50  248.48
  -4   2   6 1554.95  141.03
  -4   2   6 1901.18  135.72
  -4  -2   6 1763.80  157.14
  -4  -2   6 2168.06  237.15
   4  -2  -6 1828.46  215.23
   4  -2  -6 1748.78  177.99
   4  -2  -6 1740.43  110.01
   4   2  -7  272.50   41.27
   4   2  -7  253.35   99.97
  -4   2   7  246.83  100.45
  -4   2   7  248.34   54.29
  -4   2   7  269.01   65.99
  -4  -2   7  319.83   76.54
  -4  -2   7  216.48   74.04
   4  -2  -7  233.88   83.91
   4  -2  -7  202.99   71.66
   4   2  -8 2418.00  269.27
  -4   2   8 2618.90  247.20
  -4   2   8 2719.66  205.34
  -4  -2   8 2024.19  170.11
  -4  -2   8 2731.29  226.60
   4  -2  -8 3057.13  291.86
   4  -2  -8 2462.14  217.36
   4   2  -9 2269.78  149.66
   4   2  -9 3127.95  272.13
  -4   2   9 3043.26  266.96
  -4   2   9 2543.61  201.83
  -4   2   9 2841.82  249.94
  -4  -2   9 1907.65  182.78
  -4  -2   9 2575.36  207.48
   4  -2  -9 3175.31  291.32
   4  -2  -9 2170.16  217.63
   4   2 -10   99.67   87.38
  -4   2  10  124.50   76.07
  -4   2  10   80.78   43.43
  -4  -2  10  224.75   67.44
  -4  -2  10  207.59   77.48
   4  -2 -10   97.28   79.13
   4  -2 -10  152.33   80.89
   4   2 -11  115.33   82.98
  -4   2  11   -3.70   59.87
  -4   2  11   32.63   33.47
  -4   2  11  131.42   61.67
  -4  -2  11   22.99   42.38
   4  -2 -11   32.30   81.54
   4   2 -12  119.46   86.58
  -4   2  12   63.75   65.88
  -4  -2  12  114.08   59.48
  -4  -2  12  152.54   62.50
   4  -2 -12  187.72   77.61
   4   2 -13  322.57   93.65
  -4   2  13  352.09   78.27
  -4   2  14   53.18   41.97
  -4  -2  14   36.40   29.09
   4   4  -1  357.85   72.67
   4   4  -1  412.09   60.00
  -4   4   1  280.42   72.44
  -4   4   1  420.87   88.45
  -4  -4   1  344.61   92.58
  -4  -4   1  424.05   85.25
   4   4  -2 1244.82  128.94
  -4   4   2  759.76  104.65
  -4   4   2 1022.96  114.02
  -4  -4   2 1140.18  144.79
   4  -4  -2  845.77  131.89
   4   4  -3 1631.54  113.11
   4   4  -3 1525.29  125.97
   4   4  -3 1865.76  167.16
  -4   4   3 1079.11  105.54
  -4   4   3  824.57   83.47
  -4  -4   3 1082.16  146.60
   4  -4  -3 1007.82  133.94
   4   4  -4  356.91   81.81
   4   4  -4  224.61   83.93
  -4   4   4  387.13   90.84
  -4   4   4  218.14   44.72
  -4  -4   4  390.01   73.61
   4  -4  -4  467.56  118.44
   4  -4  -4  144.38   65.83
   4   4  -5 2418.04  204.98
  -4   4   5 2758.73  205.16
  -4  -4   5 3025.76  250.97
  -4  -4   5 2999.60  275.44
   4  -4  -5 3738.43  345.61
   4  -4  -5 2175.01  233.49
   4   4  -6  346.68   81.77
  -4   4   6  346.89   79.59
  -4  -4   6  234.52   68.60
  -4  -4   6  308.93   82.37
   4  -4  -6  203.32   91.28
   4  -4  -6  204.33   56.83
   4   4  -7   72.92   69.14
  -4   4   7   17.09   58.89
  -4  -4   7   45.67   41.58
  -4  -4   7   24.55   50.92
   4   4  -8  574.29  101.26
  -4   4   8  327.36   95.79
  -4  -4   8  317.02   72.86
  -4  -4   8  493.15   87.90
   4  -4  -8  631.92  107.41
   4   4  -9  430.03   91.09
  -4   4   9  522.84  103.51
   4  -4  -9  686.21  126.47
   4   4 -10   -0.06   59.92
  -4   4  10   70.77   57.26
  -4  -4  10    5.65   39.98
   4  -4 -10  -26.69   51.12
  -4  -4  11  -38.40   36.81
   4  -4 -11  -13.00   37.09
   3   1  -1 1816.49  143.02
   3   1  -1 1631.06  147.63
   3   1  -1 1484.75  133.91
  -3   1   1 1589.09  171.38
  -3   1   1  953.33  162.70
  -3   1   1 1650.47  146.91
  -3   1   1 1424.47  139.03
  -3   1   1 1680.85  131.83
  -3  -1   1 1408.65  141.48
  -3  -1   1 1690.41  180.46
  -3  -1   1 1911.43  149.24
   3  -1  -1 1396.73   80.55
   3  -1  -1 1426.86  115.12
   3  -1  -1 1168.47   97.75
   3   1  -262983.96 2362.86
   3   1  -264828.06 2543.81
   3   1  -259279.61 2413.46
  -3   1   275029.87 2855.37
  -3   1   252056.69 2223.84
  -3   1   261883.54 2415.52
  -3   1   265728.41 2214.38
  -3  -1   261801.90 2387.40
  -3  -1   264954.05 2162.28
  -3  -1   261155.01 2378.45
   3  -1  -270729.55 2596.25
   3  -1  -253569.79 2496.54
   3  -1  -256200.41 2367.79
   3  -1  -256575.53 2027.02
   3   1  -312349.79  516.50
   3   1  -312017.40  631.04
   3   1  -310760.44  529.59
  -3   1   312607.43  798.96
  -3   1   310937.61  720.52
  -3   1   312070.91  465.24
  -3  -1   312059.70  594.40
  -3  -1   312338.77  795.21
  -3  -1   310252.24  581.89
   3  -1  -313176.48  690.40
   3  -1  -311698.95  691.99
   3  -1  -311477.43  551.06
   3   1  -4 2765.40  168.11
   3   1  -4 2518.89  143.65
   3   1  -4 2446.33  228.23
   3   1  -4 2403.64  218.37
  -3   1   4 2978.44  270.93
  -3   1   4 2321.45  216.28
  -3   1   4 2880.26  172.97
  -3  -1   4 2642.91  206.34
  -3  -1   4 2397.23  190.55
   3  -1  -4 2481.95  241.96
   3  -1  -4 2473.71  234.34
   3  -1  -4 2765.32  224.71
   3   1  -5 1112.97   97.34
   3   1  -5 1209.50  167.91
   3   1  -5 1285.98  133.00
  -3   1   5 1277.96  179.84
  -3   1   5  909.26  130.48
  -3   1   5  980.48  101.88
  -3  -1   5 1090.43  135.26
  -3  -1   5 1350.15  147.82
   3  -1  -5 1674.60  239.32
   3  -1  -5 1009.25  154.12
   3  -1  -5 1114.66  128.62
   3   1  -621257.03 1021.06
   3   1  -620693.62  962.58
   3   1  -620346.07 1154.89
  -3   1   621430.49 1155.67
  -3   1   620317.44  993.04
  -3   1   620916.65 1175.30
  -3  -1   620745.81 1028.32
  -3  -1   623728.18 1308.34
  -3  -1   621152.30 1102.27
   3   1  -7  742.59   91.37
   3   1  -7  812.41  130.42
  -3   1   7  827.35  141.28
  -3   1   7  662.37   93.89
  -3   1   7  803.05  134.81
  -3  -1   7  606.00  116.98
  -3  -1   7  766.55  117.40
   3  -1  -7  665.99  130.90
   3  -1  -7  489.92  119.56
   3  -1  -7  364.34   89.43
  -3   1   8  906.27  133.00
  -3   1   8  761.50  104.30
  -3  -1   8  667.07  105.60
  -3  -1   8  886.99  121.44
   3  -1  -8  829.00  133.40
   3  -1  -8  651.83  114.44
   3   1  -9 1948.17  177.29
   3   1  -9 1855.48  234.79
  -3   1   9 1777.42  190.10
  -3   1   9 1827.60  175.71
  -3   1   9 1706.92  228.57
  -3  -1   9 1277.19  139.51
  -3  -1   9 1764.52  187.40
  -3  -1   9 1891.99  169.54
   3  -1  -9 2200.14  199.63
   3   1 -10 2604.39  227.72
   3   1 -10 2235.55  254.30
  -3   1  10 2355.51  253.70
  -3   1  10 2241.65  213.25
  -3   1  10 1961.85  256.39
  -3  -1  10 2213.04  214.17
  -3  -1  10 2497.02  191.02
   3  -1 -10 2998.00  284.46
   3  -1 -10 2138.75  204.88
   3   1 -11   20.59   66.53
   3   1 -11  141.36   75.07
  -3   1  11   53.70   59.82
  -3   1  11   72.22   43.64
  -3  -1  11   66.32   64.95
  -3  -1  11  -22.53   47.42
  -3  -1  11    7.41   64.04
   3  -1 -11   16.34   61.70
   3   1 -12  934.53  103.41
   3   1 -12 1030.88  136.05
  -3  -1  12  843.14  108.41
  -3  -1  12  912.03  130.39
   3  -1 -12  717.33  112.86
  -3   1  12 1049.82  105.65
   3   1 -13  232.43   64.26
  -3   1  13  198.66   71.39
  -3  -1  13  242.24   69.67
   3   3  -1  274.38   61.24
   3   3  -1  545.67   80.01
   3   3  -1  312.53   65.94
   3   3  -1  569.43   49.25
  -3   3   1  356.96   70.44
  -3   3   1  839.82  136.16
  -3  -3   1  486.30   87.87
  -3  -3   1  429.12   53.59
   3  -3  -1  384.56  105.22
   3  -3  -1  264.44   54.25
   3   3  -1  543.70   81.51
   3   3  -213345.57  726.06
  -3   3   213543.69  751.64
  -3   3   211911.84  825.61
  -3  -3   216466.89 1003.03
  -3  -3   220386.74  788.87
  -3  -3   219178.85  600.11
   3  -3  -219197.39 1154.40
   3  -3  -214741.21  837.18
   3   3  -3 3006.63  227.20
  -3   3   3 2309.89  236.97
  -3   3   3 1857.53  134.86
  -3   3   3 1858.89  164.86
  -3  -3   3 2359.41  232.37
  -3  -3   3 2430.41  231.44
   3  -3  -3 2420.26  245.50
   3  -3  -3 2460.91  249.51
   3   3  -4  712.48   63.29
   3   3  -4  706.26  112.24
  -3   3   4  530.63  102.24
  -3   3   4  623.94   71.40
  -3   3   4  371.08   74.99
  -3  -3   4  656.60  102.75
  -3  -3   4  461.55   77.71
   3  -3  -4  621.10  106.07
   3  -3  -4  580.04  106.28
   3   3  -4  530.70   79.59
   3   3  -5  339.98   48.22
   3   3  -5  194.49   34.59
  -3   3   5  246.32   87.29
  -3   3   5  175.90   45.05
  -3  -3   5  324.15   65.23
  -3  -3   5  354.13   75.98
   3  -3  -5  248.68   74.09
   3  -3  -5  309.78   66.82
   3   3  -6 5218.01  282.30
   3   3  -6 6275.02  432.04
  -3   3   6 5840.68  435.84
  -3   3   6 4616.22  307.92
  -3   3   6 5910.14  403.47
  -3  -3   6 6274.49  387.35
  -3  -3   6 6059.06  486.18
   3  -3  -6 7069.48  497.28
   3  -3  -6 5680.21  392.14
   3   3  -7  135.09   47.83
   3   3  -7  200.23   84.84
  -3   3   7  203.79   78.66
  -3  -3   7  155.58   55.34
  -3  -3   7  256.72   79.55
   3  -3  -7  206.90   88.21
   3  -3  -7  133.42   59.11
  -3   3   8  185.88   93.42
  -3   3   8  236.80   51.23
  -3  -3   8  112.03   47.26
  -3  -3   8  231.22   71.68
  -3  -3   8  205.40   55.57
   3  -3  -8  221.32   87.79
   3   3  -8  155.39   94.82
   3   3  -9  439.29  110.02
  -3   3   9  663.28  106.17
  -3   3   9  495.09   87.84
  -3  -3   9  444.63   79.96
  -3  -3   9  635.89  100.31
  -3  -3   9  476.94   79.79
   3  -3  -9  718.14  130.96
   3   3 -10  623.40  113.49
  -3   3  10  840.48  109.64
  -3  -3  10  911.86  126.31
   3  -3 -10  848.32  150.96
   3   3 -11   46.75   50.99
  -3   3  11   35.97   52.72
  -3  -3  11   -7.21   51.52
   3  -3 -11   48.43   80.08
  -3  -3  12  207.89   70.66
   3  -3 -12  257.02   87.70
   3   5  -1  117.05   48.72
  -3   5   1   23.14   46.42
  -3   5   1  153.03   63.54
  -3   5   1   47.85   55.47
  -3   5   1   65.76   38.95
  -3  -5   1   18.34   48.83
   3   5  -2 1511.36  131.01
  -3   5   2 1191.48  119.39
  -3   5   2 1121.38  140.53
  -3   5   2  599.65  119.83
  -3  -5   2 1584.15  159.65
   3   5  -3  305.13   74.67
  -3   5   3  182.22   65.41
  -3  -5   3  158.58   52.27
   3   5  -4   46.93   56.40
  -3   5   4   20.94   57.84
  -3  -5   4   32.52   47.02
   3  -5  -4  123.31   87.91
   3   5  -5   20.61   51.94
   3   5  -5   33.99   60.47
  -3   5   5   53.25   56.90
   3  -5  -5   15.89   79.08
   3   5  -6  383.50   70.81
  -3   5   6  615.92   91.23
  -3  -5   6  667.89  114.59
   3  -5  -6  717.45  136.26
   3   5  -7   35.75   47.81
  -3   5   7  -14.53   51.41
  -3  -5   7   48.21   48.93
   3  -5  -7   68.29   69.76
   3   5  -8   41.33   42.90
  -3  -5   8  -12.67   31.16
   3  -5  -8  -25.72   58.65
   2   0  -1  332.15   45.93
   2   0  -1  306.06   32.83
  -2   0   1  362.77   39.90
  -2   0   1  278.77   40.40
  -2   0   1  336.44   32.61
   2   0  -2 4636.48  266.37
   2   0  -2 3850.84  208.75
   2   0  -2 4275.80  216.81
  -2   0   2 3862.87  238.35
  -2   0   2 4159.35  254.78
  -2   0   2 3286.86  277.20
  -2   0   2 4091.18  170.94
   2   0  -328465.46 1290.91
   2   0  -326169.07 1113.91
   2   0  -324213.18 1025.73
   2   0  -325687.87 1127.31
  -2   0   325774.06 1067.50
  -2   0   325426.71 1082.12
  -2   0   322979.08 1072.95
  -2   0   326564.98 1366.31
   2   0  -417013.26  772.13
   2   0  -415886.81  788.32
   2   0  -412186.78  729.78
   2   0  -414562.74  768.00
  -2   0   415086.35  746.46
  -2   0   415818.21  829.64
  -2   0   414418.57  794.82
  -2   0   414421.07  793.50
  -2   0   416604.22  930.42
   2   0  -5  863.98  125.83
   2   0  -5  871.22  122.03
   2   0  -5  938.31  115.35
  -2   0   5  826.78  131.57
  -2   0   5  885.16  126.61
  -2   0   5  667.86  116.47
  -2   0   5  970.27  116.43
  -2   0   5  885.88  129.28
   2   0  -6 3155.54  262.25
   2   0  -6 3903.52  318.03
   2   0  -6 2986.68  330.72
  -2   0   6 3882.86  282.42
  -2   0   6 3233.01  263.55
  -2   0   6 3492.03  270.95
  -2   0   6 3770.52  306.12
   2   0  -711832.38  825.91
   2   0  -711982.32  864.04
  -2   0   712212.53  763.29
  -2   0   712712.40  782.06
  -2   0   713253.66  872.55
   2   0  -8  409.16   90.73
   2   0  -8  548.29  124.19
  -2   0   8  321.81   92.17
  -2   0   8  494.42   91.73
  -2   0   8  419.84  100.37
   2   0  -9 5008.21  327.33
   2   0  -9 4708.44  330.62
  -2   0   9 3755.91  278.97
  -2   0   9 4375.44  366.68
  -2   0   9 4034.23  379.77
   2   0 -10  674.01  120.50
  -2   0  10  698.05  106.02
   2   0 -11  162.07   57.77
   2   0 -11  161.36   69.73
  -2   0  11   93.94   53.42
  -2   0  11   67.44   56.74
   2   0 -12  212.38   71.76
  -2   0  12  110.38   48.19
  -2   0  12  170.77   70.60
   2   0 -12  226.86   90.68
   2   0 -13  410.08   80.29
   2   0 -13  401.13  107.87
  -2   0  13  512.77   84.86
  -2   0  13  401.56   77.29
  -2   0  14  -31.10   30.49
   2   2  -1   96.20   40.22
   2   2  -1   24.78   31.75
   2   2  -1  108.35   43.66
   2   2  -1  189.63   54.82
  -2   2   1  191.23   60.97
  -2   2   1   46.25   27.51
  -2   2   1   16.31   21.44
  -2  -2   1  193.47   69.64
   2  -2  -1   92.80   86.63
   2  -2  -1  101.92   70.20
   2  -2  -1   70.02   32.03
   2   2  -2 1623.78  149.74
   2   2  -2 1447.21  148.07
   2   2  -2 1842.00  171.32
   2   2  -2 1608.76  130.70
   2   2  -2 2008.31  140.72
  -2   2   2 1839.43  204.77
  -2   2   2 1465.53  165.50
  -2   2   2 1279.50  145.64
  -2   2   2 1375.78  143.69
  -2   2   2 1363.59   98.00
  -2   2   2 1524.01  133.11
  -2  -2   2 1787.18  171.78
  -2  -2   2 1526.81  155.75
   2  -2  -2 1643.60  162.65
   2   2  -311251.22  606.05
   2   2  -314553.62  499.70
   2   2  -311766.13  487.57
  -2   2   313268.50  813.79
  -2   2   312439.60  580.88
  -2  -2   311991.51  694.91
  -2  -2   310462.25  635.79
   2  -2  -311095.84  723.47
   2   2  -4 6095.24  318.83
   2   2  -4 7577.73  338.23
   2   2  -4 9943.30  433.08
   2   2  -4 7119.81  514.99
  -2   2   4 6813.14  471.44
  -2   2   4 5382.67  294.78
  -2  -2   4 6652.44  438.73
  -2  -2   4 7174.55  478.50
  -2  -2   4 6860.81  405.41
   2  -2  -4 7342.58  487.05
   2  -2  -4 7457.92  376.04
   2  -2  -4 6404.08  401.26
   2   2  -5  473.93   60.95
   2   2  -5  476.07  124.23
  -2   2   5  548.86  118.51
  -2   2   5  372.40   82.47
  -2  -2   5  454.50   84.01
   2  -2  -5  724.78  131.46
   2  -2  -5  181.66   53.03
   2   2  -6 1678.60  150.51
   2   2  -6 1942.98  217.10
  -2   2   6 1959.80  211.27
  -2   2   6 1430.10  143.05
  -2   2   6 1714.46  173.88
  -2  -2   6 1466.24  142.34
  -2  -2   6 1829.28  231.79
  -2  -2   6 1815.33  175.88
   2  -2  -6 2274.92  266.55
   2   2  -7 5253.75  335.90
   2   2  -7 6375.31  383.75
  -2   2   7 6231.95  465.44
  -2   2   7 6088.90  410.68
  -2  -2   7 5359.62  325.79
  -2  -2   7 7106.99  461.15
  -2  -2   7 6316.00  441.08
   2  -2  -7 7598.36  584.18
   2  -2  -7 6033.16  333.22
   2   2  -8  306.87   73.86
   2   2  -8   87.10   96.04
  -2   2   8  227.92   79.11
  -2   2   8  217.78   62.64
  -2   2   8  343.18   85.78
  -2  -2   8  118.94   63.67
  -2  -2   8  335.34   74.31
  -2  -2   8  265.28   81.29
   2  -2  -8  352.53   92.90
   2  -2  -8  170.60   86.11
   2   2  -9 2445.38  202.46
   2   2  -9 2262.45  229.62
  -2   2   9 2141.24  227.48
  -2   2   9 2145.12  204.67
  -2   2   9 1975.03  188.62
  -2  -2   9 1471.66  148.54
  -2  -2   9 2440.45  228.57
  -2  -2   9 1966.25  201.00
   2  -2  -9 2659.77  288.97
   2   2 -10  231.20   65.55
   2   2 -10  319.44   93.79
  -2   2  10  540.61   92.47
  -2   2  10  227.64   69.90
  -2   2  10  313.12   66.12
  -2  -2  10  153.34   59.94
  -2  -2  10  368.83   79.99
   2  -2 -10  481.39  114.07
   2   2 -11   50.72   76.15
  -2   2  11   55.40   61.04
  -2   2  11   56.79   38.68
  -2   2  11   77.12   59.96
  -2  -2  11  107.38   48.91
  -2  -2  11   -1.93   51.67
   2  -2 -11   51.16   80.95
  -2   2  12  102.83   58.90
  -2   2  12   88.69   47.17
  -2  -2  12   64.17   50.69
   2  -2 -12   24.41   67.50
   2   2 -13  132.80   66.41
  -2   2  13  279.89   65.09
   2   4  -1   16.15   62.19
   2   4  -1  110.21   59.92
  -2   4   1  -16.59   55.83
  -2   4   1    0.47   39.91
  -2  -4   1   33.27   65.90
   2   4  -2  184.53   67.69
   2   4  -2  543.72   79.57
  -2   4   2  188.69   65.75
  -2   4   2  183.75   43.97
  -2  -4   2  270.68   70.75
  -2   4   3 1729.17  145.08
  -2  -4   3 1799.03  196.97
   2  -4  -3 2341.35  251.68
   2   4  -3 2485.78  168.03
   2   4  -3 1727.55  196.02
  -2   4   3 1639.76  178.46
   2   4  -4 1310.08  165.95
  -2   4   4 1038.35  135.99
  -2  -4   4  944.34  129.48
   2  -4  -4 1496.20  184.67
   2   4  -5   92.84   67.21
  -2   4   5   92.89   72.50
  -2   4   5   58.49   41.85
  -2  -4   5   63.55   37.76
  -2  -4   5   94.10   47.35
   2   4  -6  185.55   74.91
  -2   4   6  127.14   74.14
  -2  -4   6  191.80   56.58
  -2  -4   6  220.91   69.37
   2  -4  -6  427.79   87.07
  -2   4   7 1106.27  152.42
  -2  -4   7  994.28  136.83
   2  -4  -7 1492.76  188.75
  -2   4   8    3.25   57.29
   2   4  -8   26.62   66.29
  -2  -4   8  -27.06   40.47
   2  -4  -8   87.04   75.59
   2   4  -9  330.38   92.75
  -2   4   9  297.22  101.09
  -2  -4   9  307.73   80.05
   2   4 -10  110.36   70.54
  -2   4  10   55.01   54.58
   1   1  -1 1810.04  107.19
   1   1  -1 1473.11  110.50
   1   1  -1 1976.37  226.17
  -1   1   1 1682.33  223.23
  -1   1   1 1158.83  118.54
  -1   1   1 1322.41   83.05
  -1  -1   1 1631.56  133.20
  -1  -1   1 1285.48  146.17
   1  -1  -1 1344.09  119.31
   1  -1  -1 1843.52  149.31
   1   1  -1 1652.18  125.78
   1   1  -2   40.61   33.56
   1   1  -2   50.08   40.72
   1   1  -2   65.13   36.50
  -1   1   2   20.20   60.07
  -1   1   2   16.03   44.03
  -1   1   2   59.63   41.37
  -1  -1   2   27.87   37.39
  -1  -1   2   42.76   58.93
  -1  -1   2   86.81   40.36
   1  -1  -2   26.64   44.29
   1  -1  -2   35.48   43.31
   1  -1  -2   46.21   32.91
   1   1  -331658.52 1232.87
   1   1  -334959.97 1679.58
  -1   1   336821.25 1620.45
  -1   1   327642.92 1546.03
  -1  -1   333363.56 1210.69
  -1  -1   332186.97 1669.36
  -1  -1   332499.04 1557.75
  -1  -1   332969.74 1475.81
   1  -1  -333237.20 1429.82
   1  -1  -329686.93 1439.43
   1  -1  -330404.82 1210.05
   1   1  -4 5856.31  304.71
   1   1  -4 4642.06  382.21
   1   1  -4 5487.37  396.90
   1   1  -4 5696.77  390.49
  -1   1   4 6153.77  468.42
  -1   1   4 4741.04  362.52
  -1   1   4 5426.27  390.77
  -1  -1   4 5049.06  320.44
  -1  -1   4 5674.27  320.73
  -1  -1   4 5277.57  467.35
  -1  -1   4 5581.33  396.01
  -1  -1   4 5690.16  379.90
   1  -1  -4 5665.44  346.26
   1  -1  -4 5254.09  473.70
   1   1  -5 9574.13  527.39
   1   1  -5 8808.72  499.19
   1   1  -5 9185.76  596.39
  -1   1   510353.75  680.99
  -1   1   5 8930.89  531.23
  -1   1   5 9945.15  651.40
  -1  -1   5 8327.48  447.29
  -1  -1   5 8379.43  486.33
  -1  -1   5 9181.45  628.65
   1  -1  -5 9028.93  697.80
  -1   1   6  753.97  127.39
  -1   1   6 1268.14  142.05
  -1   1   6 1043.93  152.14
  -1  -1   6  919.29  116.48
  -1  -1   6  897.85  120.08
  -1  -1   6 1195.05  165.67
   1  -1  -6 1386.88  182.22
   1  -1  -6 1034.72  130.94
   1   1  -7 5669.62  428.74
   1   1  -7 4609.59  469.52
  -1   1   7 6211.52  423.13
  -1   1   7 5569.56  390.03
  -1   1   7 5757.39  600.18
  -1  -1   7 6188.81  458.61
   1  -1  -7 6761.54  465.63
   1  -1  -7 5566.06  384.22
   1   1  -7 4752.72  356.20
   1   1  -8  376.67   86.63
  -1   1   8  194.59   66.84
  -1   1   8  316.07   79.26
  -1  -1   8  279.03   79.90
  -1  -1   8  367.30   79.13
   1  -1  -8  314.76  100.68
   1  -1  -8  350.05   96.27
   1   1  -9 2207.91  258.71
   1   1  -9 2010.72  249.47
  -1   1   9 2055.65  224.03
  -1   1   9 1936.18  181.48
  -1   1   9 2300.59  196.88
  -1  -1   9 1836.57  180.08
  -1  -1   9 2393.48  235.41
   1  -1  -9 2333.88  256.77
   1  -1  -9 2221.17  202.05
   1   1 -10  578.32  120.90
  -1   1  10  602.96  122.51
  -1   1  10  466.73   97.92
  -1  -1  10  474.57   93.36
  -1  -1  10  629.95  102.64
   1  -1 -10  607.48  118.91
   1  -1 -10  451.83  104.67
   1   1 -11  699.29  122.85
   1   1 -11  667.39  123.05
  -1   1  11  780.71  135.41
  -1   1  11  791.29  121.01
  -1  -1  11  738.95  101.28
  -1  -1  11  811.37  121.34
   1  -1 -11  681.50  128.94
   1  -1 -11  471.30  122.11
   1   1 -12   48.23   44.86
   1   1 -12   64.82   44.83
  -1   1  12  -28.62   44.09
  -1   1  12  -55.25   45.07
  -1   1  12    0.06   45.29
  -1  -1  12   46.28   44.94
   1   1 -13   10.86   57.22
  -1  -1  13  135.25   56.08
   1  -1 -13  177.35   70.40
   1   3  -1  777.29  100.81
  -1   3   1  545.09  102.09
  -1   3   1  648.76   73.39
  -1  -3   1  567.92  107.87
   1  -3  -1  538.08  116.16
   1  -3  -1  274.62   81.30
   1   3  -2  -33.07   41.25
   1   3  -2    9.23   29.05
  -1   3   2   32.75   64.90
  -1   3   2   47.40   38.68
  -1  -3   2   10.07   56.57
  -1  -3   2  -23.81   34.12
   1  -3  -2   -8.73   50.77
   1  -3  -2   87.48   57.44
   1   3  -3 6725.69  451.85
   1   3  -3 8186.08  543.34
  -1   3   3 8059.47  499.37
  -1  -3   3 7406.87  526.83
  -1  -3   3 7422.93  498.72
  -1  -3   3 8298.06  322.49
   1  -3  -3 8613.26  596.19
   1  -3  -3 7430.63  508.20
   1  -3  -4 1378.52  124.27
   1   3  -4  988.04  103.43
  -1   3   4 1526.81  183.69
  -1   3   4 1145.31  103.21
  -1   3   4  917.63   98.72
  -1  -3   4 1258.95  134.16
  -1  -3   4 1217.22  134.97
  -1  -3   4  666.32   99.70
   1  -3  -4 1323.25  176.79
   1   3  -5 1949.47  123.17
   1   3  -5 2560.73  184.83
   1   3  -5 2747.31  324.40
  -1   3   5 2411.52  236.63
  -1   3   5 2170.74  198.69
  -1  -3   5 2354.53  184.58
  -1  -3   5 2844.43  236.32
  -1  -3   5 2276.05  183.59
  -1  -3   5 1432.15  129.28
   1  -3  -5 2846.18  277.03
   1  -3  -5 2289.19  163.42
   1   3  -6  454.37   98.85
  -1   3   6  345.09   90.70
  -1   3   6  232.59   66.28
  -1   3   6  360.70   84.28
  -1  -3   6  380.53   69.48
  -1  -3   6  385.09   83.81
   1  -3  -6  475.71  105.90
   1  -3  -6  342.85   49.06
   1   3  -7 1406.73  139.29
   1   3  -7 1997.27  228.27
  -1   3   7 1708.43  186.98
  -1   3   7 1607.68  185.79
  -1  -3   7 1562.32  148.93
  -1  -3   7 2051.67  209.50
   1  -3  -7 2229.41  262.02
   1   3  -8   46.27   43.13
  -1   3   8  -36.30   65.26
  -1   3   8   86.38   48.45
  -1   3   8   77.51   61.66
  -1  -3   8   52.32   56.30
   1  -3  -8   91.49   82.96
   1   3  -9  593.43  111.82
  -1   3   9  492.43  100.07
  -1   3   9  633.85   92.95
  -1   3   9  476.17  111.82
  -1  -3   9  727.87   96.50
  -1  -3   9  467.06   82.91
   1  -3  -9  851.88  164.30
   1   3 -10  119.30   72.83
  -1   3  10  103.19   60.27
  -1  -3  10  208.55   66.19
   1  -3 -10  300.57   89.20
   1   3 -11  249.42   81.61
  -1   3  11  222.99   61.80
  -1  -3  11  359.94   82.49
   1  -3 -11  331.04  106.98
  -1   3  12   26.68   38.33
   1   5  -1   40.52   53.69
   1   5  -1   61.68   49.13
   1   5  -1  108.99   48.79
  -1   5   1   20.39   43.39
  -1   5   1   66.35   59.86
  -1   5   1   58.28   31.77
   1   5  -2   83.42   54.00
   1   5  -2   30.11   53.63
  -1   5   2   15.07   52.21
  -1   5   2   28.76   35.15
   1   5  -3  538.98   76.24
   1   5  -3  800.91  127.51
  -1   5   3  505.67   92.73
   1  -5  -3 1199.06  174.91
   1   5  -4  102.26   59.40
  -1   5   4  167.80   65.90
   1  -5  -4  109.39   88.20
   1   5  -5  179.48   72.37
  -1   5   5  220.81   69.86
  -1  -5   5  323.97   78.84
   1  -5  -5  164.60   76.51
   1   5  -6   -6.88   43.30
  -1  -5   6   21.69   40.74
   0   0  -1  185.26   34.97
   0   0   1  200.46   46.17
   0   0   1  154.14   32.67
   0   0  -1  257.24   43.29
   0   0  -1  265.02   36.93
   0   0  -1  226.62   36.33
   0   0   1  184.17   39.57
   0   0   211927.20  653.27
   0   0   211136.94  611.81
   0   0   211113.02  515.44
   0   0   212305.60  690.91
   0   0  -212538.76  559.03
   0   0  -211618.58  552.12
   0   0  -212662.82  558.56
   0   0  -213636.34  675.80
   0   0   3   66.99   59.78
   0   0   3   76.60   64.73
   0   0   3   55.94   50.58
   0   0   3   70.20   78.10
   0   0  -3   10.85   75.29
   0   0  -3  131.89   57.54
   0   0  -3   96.00   49.88
   0   0   432530.40 1517.28
   0   0   427867.55 1448.72
   0   0   433159.59 1682.62
   0   0  -433083.37 1466.93
   0   0  -431489.75 1543.15
   0   0  -432242.59 1375.24
   0   0  -433745.22 1600.37
   0   0   5  212.92   83.18
   0   0  -5  237.02   99.40
   0   0  -5  110.52   87.53
   0   0   5  177.77   73.84
   0   0   5  101.97   51.07
   0   0   6 5165.45  382.86
   0   0   6 5501.27  415.03
   0   0   6 5580.01  399.85
   0   0  -6 4662.79  351.73
   0   0  -6 6185.98  443.22
   0   0  -6 4543.41  391.28
   0   0   7 1770.05  184.08
   0   0   7 1502.81  189.30
   0   0   7 1492.21  183.11
   0   0  -7 1396.39  193.88
   0   0   8  199.26   64.51
   0   0   8   83.33   67.05
   0   0   8  205.70   83.07
   0   0  -8  229.99   86.69
   0   0  -8  225.72   78.00
   0   0   9   79.15   55.38
   0   0   9  119.88   65.74
   0   0  -9  160.24   77.53
   0   0  -9  164.65   77.03
   0   0  10  432.22   77.33
   0   0  10  489.31   96.72
   0   0  10  389.70  106.85
   0   0 -10  489.85   92.65
   0   0 -10  286.14   94.01
   0   0 -11  317.72   84.10
   0   0  12    1.24   44.27
   0   0 -13  -13.20   24.30
   0   2   099999.00 3760.38
   0   2   087284.89 3229.07
   0  -2   092522.52 4103.84
   0  -2   086626.30 3432.84
   0  -2   086731.94 3317.12
   0   2   088900.95 3555.64
   0   2   087398.02 3687.49
   0   2   1   46.82   42.80
   0   2   1   89.99   41.42
   0   2   1   76.69   41.54
   0   2   1   36.78   29.78
   0   2  -1  170.62   58.65
   0   2  -1   94.22   81.32
   0  -2  -1  237.84   73.93
   0  -2  -1   31.11   62.06
   0  -2  -1   52.08   48.55
   0  -2   1  139.45   58.53
   0  -2   1   20.01   46.69
   0  -2   1  100.15   19.30
   0   2   2 5755.64  412.53
   0   2   2 3473.23  306.88
   0   2   2 4226.41  280.90
   0   2   2 4125.16  263.76
   0   2  -2 5051.48  297.13
   0   2  -2 4749.73  339.72
   0   2  -2 4757.86  420.03
   0   2  -2 4943.29  386.26
   0   2  -2 4196.86  295.44
   0  -2  -2 4445.83  332.79
   0  -2  -2 4626.47  305.59
   0  -2   2 4304.05  334.98
   0  -2   2 3901.92  300.24
   0  -2   2 4572.40  277.98
   0   2   3    2.87   79.34
   0   2   3   65.54   39.94
   0   2  -3  -73.86   41.12
   0  -2  -3   26.17   72.24
   0  -2  -3  -35.36   50.54
   0  -2   3    9.03   38.84
   0  -2   3   87.19   40.74
   0  -2   3   32.00   34.79
   0  -2   3   -1.88   32.90
   0   2   417555.72  902.20
   0   2   414607.68  717.01
   0   2   415866.40  904.91
   0   2   412703.60  744.29
   0   2  -414297.68  596.50
   0   2  -415913.84  696.93
   0   2  -416141.89 1031.95
   0  -2  -415923.80  576.93
   0  -2   413875.46  626.25
   0  -2   414568.83  818.54
   0  -2   415634.15  918.82
   0  -2   413182.90  653.63
   0   2   5   84.70   70.48
   0   2   5  114.21   56.36
   0   2  -5  108.77   30.38
   0   2  -5   14.86   46.20
   0   2  -5   68.32   83.74
   0  -2  -5  113.97   34.18
   0  -2   5   91.51   40.35
   0  -2   5  128.21   52.32
   0  -2   5   86.91   57.56
   0   2  -6 2664.30  209.20
   0   2  -6 2651.79  289.80
   0  -2  -6 2858.67  291.82
   0  -2   6 2400.46  169.54
   0  -2   6 2994.86  301.94
   0   2   6 2535.36  282.89
   0   2   6 2434.14  229.39
   0   2  -6 2225.69  160.13
   0   2   7  860.65  142.67
   0   2   7  928.52  127.02
   0   2  -7  822.92  112.02
   0   2  -7  642.47  114.43
   0  -2  -7  944.36  137.06
   0  -2  -7  551.45   84.23
   0  -2   7  709.13   81.50
   0  -2   7  861.50  128.10
   0   2   8   40.00   67.34
   0   2   8  147.69   66.45
   0   2  -8  190.93   63.24
   0   2  -8   49.21   68.70
   0  -2  -8   61.70   78.16
   0  -2  -8    3.18   55.49
   0  -2   8   19.66   41.71
   0  -2   8  328.67   82.52
   0   2   9    0.49   51.71
   0   2   9  127.52   55.94
   0   2  -9  131.63   74.80
   0   2  -9   53.35   70.98
   0  -2  -9  187.10   84.10
   0  -2   9   96.67   59.65
   0   2  10  108.23   62.47
   0   2 -10  184.74   60.95
   0   2 -10  277.12   93.15
   0  -2 -10  310.40  101.35
   0  -2  10  182.10   72.13
   0  -2  10  174.77   65.45
   0   2  11  177.18   49.30
   0   2  11  148.57   68.17
   0   2 -11  104.83   61.96
   0   2 -11  149.58   76.47
   0  -2 -11  190.90   76.04
   0   2  11  143.66   58.90
   0  -2  11  117.65   53.38
   0   2  12   21.44   45.80
   0   2  12    5.55   32.33
   0   2 -12  -13.47   53.22
   0   4   014748.00  758.03
   0   4   014024.57  718.66
   0   4   1   57.24   52.42
   0   4   1   50.49   34.84
   0   4  -1   60.81   65.14
   0   4  -1   52.28   46.52
   0  -4  -1   51.50   71.27
   0  -4   1  115.64   52.25
   0   4   2  657.60  104.30
   0   4   2  493.82   76.14
   0   4   2  717.68   82.58
   0   4  -2  896.12  105.33
   0   4  -2  616.02  114.03
   0  -4   2  607.24   96.19
   0  -4   2  745.70  122.55
   0   4   3   84.91   67.37
   0   4  -3   62.94   44.22
   0  -4   3  -27.78   38.66
   0  -4   3  -23.71   51.99
   0   4   4 2547.94  308.33
   0   4   4 2285.63  192.67
   0   4  -4 2865.43  180.30
   0  -4  -4 3155.90  324.14
   0  -4   4 2079.91  166.14
   0  -4   4 2737.50  253.77
   0   4   5  -20.50   63.89
   0   4   5  -25.56   66.07
   0   4  -5   17.74   63.11
   0  -4  -5   19.67   64.28
   0  -4   5  -32.37   63.01
   0   4   6  452.27   73.79
   0   4  -6  472.21  107.72
   0  -4  -6  404.19  116.02
   0  -4   6  519.93   98.91
   0   4   7   42.47   65.92
   0   4  -7   64.58   79.23
   0  -4  -7  169.52   75.03
   0  -4   7  211.40   64.89
   0   4   8   19.07   45.01
   0   4  -8  -68.59   58.32
   0  -4   8   68.09   51.00
   0   4  -9  -20.90   33.57
   0  -4  -9   18.84   55.06
   0  -4   9   26.65   41.65
   1   1   0 5162.47  356.38
   1   1   0 4999.25  259.67
   1   1   0 5776.09  277.63
   1   1   0 5380.54  277.00
   1   1   0 4990.40  235.55
  -1   1   0 4247.69  271.18
  -1   1   0 4740.94  318.16
  -1   1   0 5142.81  334.48
  -1   1   0 4985.72  283.40
  -1   1   0 5148.94  202.81
  -1  -1   0 4735.79  323.55
  -1  -1   0 4983.87  294.50
   1  -1   0 4769.56  333.97
   1  -1   0 4020.82  255.22
   1   1   113143.09  714.89
   1   1   110943.44  643.40
   1   1   112979.09  629.55
   1   1   112350.03  569.65
  -1   1  -111077.56  651.92
  -1  -1  -112740.81  779.90
  -1  -1  -111075.50  634.17
  -1  -1  -112780.47  468.06
  -1  -1  -114265.52  563.81
  -1  -1  -112949.95  603.21
   1  -1   110992.05  514.76
   1  -1   114254.55  853.08
   1  -1   110742.30  595.78
   1  -1   113384.80  647.22
   1  -1   110774.09  549.10
   1   1   2 3590.88  258.21
   1   1   2 3293.14  225.63
   1   1   2 3870.05  262.91
   1   1   2 3976.45  301.82
   1   1   2 4179.51  304.31
  -1   1  -2 3423.34  149.76
  -1   1  -2 3622.06  234.53
  -1   1  -2 3647.56  285.94
  -1   1  -2 4680.67  421.72
  -1   1  -2 3698.98  273.64
  -1  -1  -2 3956.37  314.93
  -1  -1  -2 4049.70  175.74
   1  -1   2 3252.18  361.60
   1  -1   2 3681.64  278.23
   1   1   319734.26  972.76
   1   1   319615.53  996.25
   1   1   317322.58  914.63
   1   1   319789.88  991.81
   1   1   319032.50  912.28
  -1   1  -318660.90  840.41
  -1   1  -318073.85 1034.22
  -1   1  -320850.59 1202.58
  -1   1  -319201.52 1029.00
  -1  -1  -321454.16 1151.70
   1  -1   322235.69 1067.33
   1  -1   322113.51 1066.18
   1  -1   318841.94 1024.48
   1   1   413729.56  830.55
   1   1   411505.82  929.95
   1   1   413963.99  769.25
   1   1   411164.07  611.15
  -1   1  -413153.23  586.36
  -1   1  -411792.66  821.07
  -1   1  -412685.58  808.02
  -1  -1  -413106.07  869.77
  -1  -1  -410698.25  589.83
   1  -1   414287.23  667.60
   1  -1   412830.41  768.36
   1  -1   411407.01  694.92
   1   1   5  121.88   84.54
   1   1   5   99.85   74.21
   1   1   5  283.01  103.72
  -1   1  -5  154.52   38.84
  -1   1  -5  163.53   85.02
  -1  -1  -5  188.51   97.24
  -1  -1  -5  163.04   63.22
   1  -1   5   82.24   56.45
   1  -1   5  172.48   75.23
   1   1   6  159.31   72.24
   1   1   6  117.37   65.66
  -1   1  -6   21.30   26.12
  -1   1  -6  136.80   73.22
  -1   1  -6   98.06   86.71
  -1  -1  -6   46.54   86.13
  -1  -1  -6  194.57   68.33
   1  -1   6    2.00   55.72
   1  -1   6  155.15   81.08
   1   1   7 5861.27  493.92
   1   1   7 7101.89  469.81
  -1   1  -7 7493.44  488.59
  -1   1  -7 6428.11  472.50
  -1  -1  -7 7243.40  573.78
  -1  -1  -7 5725.93  416.28
   1  -1   7 6891.39  430.53
   1   1   8 2697.60  263.05
   1   1   8 3004.30  282.52
   1   1   8 2834.11  255.40
  -1   1  -8 3012.37  285.78
  -1  -1  -8 3389.98  307.10
  -1  -1  -8 2205.86  231.00
   1  -1   8 2187.73  215.68
   1  -1   8 3301.00  284.34
   1  -1   8 2694.27  212.87
   1   1   9   -6.86   51.46
   1   1   9   47.52   47.02
  -1   1  -9  -15.17   58.63
  -1   1  -9 -114.51   85.97
  -1  -1  -9   74.79   91.38
  -1  -1  -9   19.72   75.08
   1  -1   9   91.50   57.54
   1  -1   9   27.68   72.61
   1   1  10 1385.10  162.69
   1   1  10 1359.45  168.30
  -1   1 -10 1322.80  157.98
  -1   1 -10 1047.80  143.99
  -1  -1 -10 1703.31  217.17
   1  -1  10  780.82  142.90
   1  -1  10 1387.65  162.35
   1   1  11  527.68   97.47
   1   1  11  641.16  108.06
  -1   1 -11  465.71  122.14
  -1  -1 -11  544.76  119.20
   1   1  12    9.09   33.72
   1   1  12   -4.71   40.07
  -1   1 -12   24.27   49.49
  -1   1 -12   62.34   52.98
   1  -1  12   51.44   47.81
   1   3   0 1642.44  147.15
   1   3   0 1033.40  105.44
  -1   3   0 1417.43  185.19
  -1  -3   0 1125.57  162.53
  -1  -3   0 1352.95  160.32
   1  -3   0 1116.58  174.86
   1  -3   0 1261.69  143.29
   1   3   1 2398.05  176.35
   1   3   1 2359.02  170.40
   1   3   1 2417.75  150.35
  -1   3  -1 3048.03  325.57
  -1  -3  -1 2379.47  255.33
  -1  -3  -1 2764.27  252.53
   1  -3   1 2116.40  208.21
   1  -3   1 2622.42  211.72
   1   3   2  788.27   86.98
  -1   3  -2  587.40   75.92
  -1   3  -2  919.94   98.48
  -1   3  -2  780.65  148.15
  -1  -3  -2  823.66  121.88
   1  -3   2  792.65  104.24
   1  -3   2  959.49  112.47
   1   3   3 4958.62  392.46
  -1   3  -3 3994.44  212.80
  -1   3  -3 5008.45  544.69
  -1  -3  -3 5693.87  440.53
   1  -3   3 4141.70  301.84
   1  -3   3 5010.37  357.22
   1  -3   3 3474.34  219.58
   1   3   4 3769.98  350.81
   1   3   4 3214.32  254.39
   1   3   4 3888.85  265.04
  -1   3  -4 3823.50  219.69
  -1  -3  -4 4434.14  392.83
   1  -3   4 3111.96  228.09
   1  -3   4 4036.67  314.39
   1   3   5    9.07   61.45
   1   3   5   83.15   46.67
  -1   3  -5   70.97   58.73
  -1  -3  -5  -15.77   73.70
   1  -3   5   26.94   27.33
   1  -3   5   21.42   42.94
   1   3   6   13.88   56.62
   1   3   6   21.91   55.88
  -1  -3  -6   23.70   83.82
   1  -3   6   16.14   52.40
   1   3   7 1993.29  186.39
   1   3   7 1765.55  159.17
   1   3   7 1912.22  164.92
  -1   3  -7 1898.56  190.38
  -1  -3  -7 2360.69  267.12
   1  -3   7 2246.66  239.73
   1   3   8 1006.85  146.63
   1   3   8  645.50  110.23
  -1   3  -8  857.92   97.08
  -1   3  -8  894.62  158.60
  -1  -3  -8  880.68  163.25
   1  -3   8  649.13  116.90
  -1  -3  -9  -54.28   68.35
   1  -3   9   43.42   67.53
   1   3  10  254.03   67.23
   1   3  10  288.38   62.30
  -1   3 -10  255.40   92.62
  -1  -3 -10  295.25   92.91
   1  -3  10  318.66   78.20
   1   5   0  166.38   65.66
   1   5   0  111.87   51.09
  -1   5   0   93.28   41.58
  -1   5   0   93.09   52.03
  -1   5   0  144.73   52.36
   1   5   1  225.16   75.28
   1   5   1  224.52   49.45
  -1   5  -1   90.32   43.74
  -1   5  -1  230.38   64.19
  -1   5  -1  383.93   80.56
   1   5   2   59.43   32.91
  -1   5  -2   20.35   53.00
  -1   5  -2   60.43   45.92
  -1  -5  -2   38.59   68.78
  -1   5  -3  294.96   94.24
  -1  -5  -3  678.52  130.92
   1   5   4  488.98   79.72
  -1  -5  -4  446.98  114.84
   1  -5   4  308.08   76.97
   1   5   5    1.60   50.31
   1  -5   5   -3.27   33.81
  -1   5  -5   18.26   58.91
   2   0   0 4583.01  224.01
   2   0   0 4838.11  253.24
   2   0   0 4643.42  261.06
  -2   0   0 4589.51  256.62
  -2   0   0 4872.98  264.72
  -2   0   0 5850.10  342.66
   2   0   127340.03 1034.47
   2   0   124169.35 1100.43
   2   0   127517.66 1216.83
   2   0   129087.94 1219.05
   2   0   124043.39 1032.75
  -2   0  -128273.95 1217.13
  -2   0  -125016.65 1186.65
  -2   0  -128222.86 1190.92
  -2   0  -128690.26 1286.68
  -2   0  -125268.19 1030.41
   2   0   213629.83  666.12
   2   0   215296.66  749.88
   2   0   212848.03  682.30
   2   0   213406.80  691.49
   2   0   212620.86  794.87
  -2   0  -212962.40  944.07
  -2   0  -214605.77  597.00
  -2   0  -214322.16  730.26
  -2   0  -213531.61  762.67
   2   0   3 7334.98  459.64
   2   0   3 7426.00  415.16
   2   0   3 7707.03  508.39
   2   0   3 8249.25  532.42
   2   0   3 8771.00  564.18
   2   0   3 6915.98  534.94
  -2   0  -3 7883.12  599.92
  -2   0  -3 7840.00  559.21
  -2   0  -3 7534.78  559.22
   2   0   4 1192.68  163.39
   2   0   4 1025.24   92.51
   2   0   4 1362.82  199.39
   2   0   4 1267.57  162.33
  -2   0  -4 1169.17  178.67
  -2   0  -4 1190.52  119.73
   2   0   5 7333.22  498.92
   2   0   5 5741.18  399.62
   2   0   5 7833.93  546.81
  -2   0  -5 8413.73  578.57
  -2   0  -5 7309.57  557.58
  -2   0  -5 6687.91  471.83
   2   0   6 1393.06  153.65
   2   0   6 1386.52  177.04
   2   0   6 1147.65  173.50
  -2   0  -6 1332.22  182.89
   2   0   7 7181.26  456.62
   2   0   7 8510.76  561.04
  -2   0  -7 9459.21  627.94
  -2   0  -7 7380.33  513.17
   2   0   8  289.25   75.39
   2   0   8  173.21   71.83
  -2   0  -8  172.31   74.58
  -2   0  -8  202.41   76.56
   2   0   9   78.15   54.05
   2   0   9  223.43   88.49
  -2   0  -9  249.45   78.95
  -2   0  -9  198.80   79.86
   2   0  10  165.60   52.56
   2   0  10   82.66   61.71
  -2   0 -10   99.38   66.11
  -2   0 -10   49.21   55.97
   2   0  11  884.12  124.00
  -2   0 -11  972.11  136.05
   2   0  12   57.04   37.57
   2   0  12   -0.05   47.29
   2   2   0 1827.54  174.99
   2   2   0 2190.64  150.15
   2   2   0 2455.46  164.74
   2   2   0 2115.16  176.26
  -2   2   0 1934.78  175.93
  -2   2   0 1672.68  169.07
  -2   2   0 2290.41  194.26
  -2   2   0 1716.96  150.03
  -2   2   0 1732.42  178.02
  -2   2   0 1689.98  166.14
  -2  -2   0 2061.03  235.10
  -2  -2   0 2137.90  186.37
   2  -2   0 2042.32  263.71
   2  -2   0 1822.09  184.35
   2  -2   0 1714.75   82.32
   2   2   110109.63  549.24
   2   2   111713.28  458.71
   2   2   111619.82  543.45
  -2   2  -111100.50  502.02
  -2   2  -113183.55  623.91
  -2   2  -114479.47  707.58
  -2  -2  -113027.12  973.10
  -2  -2  -111812.02  844.21
  -2  -2  -112248.92  620.83
   2  -2   110962.35  521.63
   2  -2   111338.47  777.92
   2  -2   1 9649.27  640.53
   2  -2   112047.43  587.03
   2   2   2 4053.29  167.26
   2   2   2 5494.36  336.31
  -2   2  -2 4380.01  198.41
  -2   2  -2 5239.03  296.75
  -2   2  -2 6428.89  556.63
  -2  -2  -2 5607.58  453.04
  -2  -2  -2 5556.53  450.41
  -2  -2  -2 6049.49  356.23
   2  -2   2 4773.63  288.96
   2  -2   2 4996.11  419.34
   2   2   3 3616.68  275.19
   2   2   3 3638.45  210.76
  -2   2  -3 3470.68  241.36
  -2   2  -3 4009.51  375.40
  -2  -2  -3 3500.31  337.42
   2  -2   3 3057.00  155.91
   2  -2   3 3093.53  294.75
   2  -2   3 3074.35  253.83
   2   2   4  489.25   94.46
   2   2   4  520.63   99.37
  -2   2  -4  646.22  100.90
  -2   2  -4  476.81  132.90
  -2  -2  -4  788.11  127.50
   2  -2   4  554.69   89.82
   2   2   5 4150.45  321.23
   2   2   5 4108.59  319.86
   2   2   5 4069.17  294.82
  -2   2  -5 3479.93  328.98
  -2   2  -5 3925.46  370.83
  -2  -2  -5 4120.96  341.80
   2  -2   5 3632.88  159.61
   2  -2   5 4108.52  370.80
   2   2   6  677.54  122.89
  -2   2  -6  651.82  100.58
  -2   2  -6  615.12  126.24
  -2  -2  -6  588.58  122.26
  -2  -2  -6  482.63   28.45
   2  -2   6  541.74   48.06
   2  -2   6  518.94  101.85
   2   2   7 4481.74  358.29
   2   2   7 4371.08  331.46
  -2   2  -7 4485.58  364.77
  -2  -2  -7 4806.82  446.82
   2  -2   7 4576.22  404.50
   2   2   8   74.61   59.59
   2   2   8  148.04   68.06
  -2   2  -8  217.57   80.23
  -2   2  -8  196.87   81.64
  -2  -2  -8   90.80   81.68
   2  -2   8   35.57   60.36
   2  -2   8   93.02   76.38
   2   2   9   81.61   60.23
   2   2   9  110.59   69.18
  -2   2  -9   30.29   60.51
  -2   2  -9  136.96   68.27
  -2  -2  -9  104.76   82.94
   2  -2   9   50.30   60.77
   2   2  10   90.69   57.93
   2   2  10  108.18   46.49
  -2   2 -10   22.03   47.33
  -2   2 -10   94.35   61.12
  -2  -2 -10  163.72   78.48
   2  -2  10   -6.52   44.46
   2   2  11  504.26   86.68
   2   2  11  340.37   68.73
   2   2  11  281.78   67.47
  -2   2 -11  519.56   89.95
  -2  -2 -11  539.00  120.39
   2   4   0  393.20   61.74
  -2   4   0  239.35   82.82
  -2   4   0  506.72   82.53
  -2   4   0  338.18   94.09
  -2   4   0  325.06   69.52
  -2  -4   0  342.50   91.08
  -2  -4   0  506.62   87.34
   2   4   1 1165.66  127.45
   2   4   1 1625.95  147.89
  -2   4  -1 1481.25  143.74
  -2   4  -1 2533.39  185.29
  -2   4  -1 1499.73  171.02
  -2  -4  -1 2148.67  198.46
   2  -4   1 1786.93  177.28
   2   4   2  976.78  122.05
  -2   4  -2  855.95  103.41
  -2   4  -2  861.13  137.41
  -2  -4  -2  907.01  124.00
   2  -4   2  746.43  104.45
   2   4   3  635.63  123.64
  -2   4  -3  520.36   92.53
  -2   4  -3  696.26  123.22
  -2  -4  -3  587.07  115.57
   2  -4   3  540.10   94.41
   2   4   4   82.71   73.64
   2   4   4   99.39   55.36
  -2   4  -4   49.51   50.83
  -2   4  -4   60.32   75.23
  -2  -4  -4  120.32   78.91
   2  -4   4   29.11   51.94
   2   4   5  692.96  119.13
  -2   4  -5  675.62   98.36
  -2  -4  -5  800.75  144.56
   2  -4   5  504.93   93.72
   2   4   6   56.30   56.79
   2   4   6  119.41   40.71
  -2  -4  -6  139.52   78.29
   2  -4   6  130.97   58.33
   2   4   7  668.64  106.17
  -2   4  -7  777.37  135.39
  -2  -4  -7  889.77  152.73
   2  -4   7  899.76  127.51
   2   4   8  -55.81   48.45
  -2   4  -8    7.98   47.79
  -2  -4  -8   23.29   48.74
   2  -4   8   21.60   48.74
   3   1   041710.02 1931.60
   3   1   038607.71 1729.84
   3   1   039961.37 1556.49
  -3   1   037299.63 1385.09
  -3   1   042134.69 1599.20
  -3   1   033726.82 1558.19
  -3   1   038606.56 1937.33
  -3   1   040471.43 1802.08
  -3  -1   041186.43 2018.51
  -3  -1   041188.52 1861.86
  -3  -1   043975.00 1560.51
   3  -1   041092.66 2020.46
   3  -1   035779.59 1634.67
   3   1   117738.24 1041.34
   3   1   117455.80 1005.78
   3   1   116721.28  865.51
  -3   1  -117345.91 1149.22
  -3   1  -117005.50  915.18
  -3   1  -117790.28  859.77
  -3  -1  -116768.49  924.64
  -3  -1  -115588.03  901.17
  -3  -1  -119672.63  764.64
  -3  -1  -117822.92  901.73
   3  -1   119419.28 1109.92
   3  -1   116028.83  854.51
   3   1   212751.46  805.61
   3   1   211937.93  667.58
  -3   1  -211748.82  622.80
  -3   1  -211873.28  740.41
  -3   1  -211504.89  722.94
  -3   1  -212533.68  702.53
  -3  -1  -212084.85  831.57
  -3  -1  -212928.22  827.33
  -3  -1  -212261.47  679.62
   3  -1   213112.70  919.31
   3  -1   211271.74  667.26
   3   1   3  649.73  112.38
   3   1   3  468.29   88.15
   3   1   3  776.27  123.83
   3   1   3  998.41  148.19
  -3   1  -3  581.32  115.24
  -3   1  -3  532.66  121.41
  -3  -1  -3  670.67  138.78
  -3  -1  -3  554.26   62.99
  -3  -1  -3  672.10   60.92
   3  -1   3  625.61   51.15
   3  -1   3  664.86   44.88
   3  -1   3  618.95  127.25
   3  -1   3  543.03  106.86
   3  -1   3  789.87  114.70
   3  -1   3  640.10  104.01
   3   1   411740.02  637.74
   3   1   411854.21  806.65
  -3   1  -4 9728.36  658.04
  -3   1  -412702.88  862.29
  -3  -1  -413871.72  912.74
   3  -1   4 9256.52  464.20
   3  -1   412539.46  778.41
   3   1   5   39.49   59.18
   3   1   5   75.47   74.62
  -3   1  -5   53.23   72.78
  -3   1  -5   36.38   63.39
  -3  -1  -5  115.21  101.94
  -3  -1  -5   85.62   48.90
   3  -1   5   24.07   37.89
   3  -1   5   88.96   23.16
   3  -1   5    4.79   74.37
   3   1   6   -7.35   72.75
   3   1   6  -42.38   72.05
  -3   1  -6  -47.71   71.08
  -3  -1  -6   23.03   74.47
   3  -1   6  -16.49   74.38
   3  -1   6  -59.44   72.58
   3  -1   6  -31.25   75.06
   3   1   7  114.92   65.66
   3   1   7   11.63   61.06
  -3   1  -7   25.95   68.80
  -3   1  -7    7.72   83.53
  -3  -1  -7  -64.02   63.82
   3  -1   7   34.49   51.84
   3  -1   7   74.81   68.70
   3   1   8  314.82   80.28
   3   1   8  360.90   88.22
  -3   1  -8  234.33   79.78
   3  -1   8  347.50   67.96
   3  -1   8  465.09   94.23
   3  -1   8  454.08   92.08
   3   1   9  210.85   63.85
   3   1   9   81.74   52.22
  -3   1  -9   82.40   71.23
  -3   1  -9   22.22   80.25
  -3  -1  -9    4.57   76.05
   3  -1   9   63.00   59.02
   3   1  10   89.93   53.69
   3   1  10   89.04   52.18
  -3   1 -10   34.32   68.25
  -3   1 -10  205.55   77.57
  -3  -1 -10  113.46   74.37
   3  -1  10   41.24   62.02
   3   1  11   51.22   42.72
   3   1  11   45.21   46.95
  -3   1 -11   69.17   51.41
  -3   1 -11   12.15   51.97
  -3  -1 -11   34.88   61.37
   3   3   0 7764.54  428.27
   3   3   0 8212.26  387.70
  -3   3   0 7680.89  473.07
  -3  -3   0 7811.67  550.04
  -3  -3   0 8603.87  484.28
   3  -3   0 7986.01  632.22
   3  -3   0 8441.31  495.55
   3   3   1 3477.54  257.17
   3   3   1 3690.23  199.64
  -3   3  -1 3339.53  216.69
  -3   3  -1 3764.79  264.97
  -3  -3  -1 3546.38  345.37
  -3  -3  -1 4378.02  355.71
   3  -3   1 3165.64  353.02
   3  -3   1 3753.68  304.86
   3  -3   1 3603.21  142.77
   3   3   2 2692.84  184.65
  -3   3  -2 2961.85  174.51
  -3   3  -2 2565.85  138.56
  -3   3  -2 3020.63  231.33
  -3   3  -2 3549.78  326.62
  -3  -3  -2 3231.11  286.14
  -3  -3  -2 3537.79  359.27
   3  -3   2 2814.22  262.13
   3   3   3  134.65   67.34
   3   3   3   56.83   51.40
  -3   3  -3  120.09   29.26
  -3   3  -3   84.59   59.12
  -3   3  -3  299.61  105.21
  -3  -3  -3  163.00   78.00
   3  -3   3  152.47   57.27
   3  -3   3  118.61   50.74
   3   3   4 3641.73  312.70
  -3   3  -4 3331.20  275.81
  -3   3  -4 3943.42  384.07
   3  -3   4 3387.85  313.47
   3  -3   4 2660.19  194.59
   3   3   5  108.38   58.96
   3   3   5   25.53   48.19
  -3   3  -5   21.08   53.30
  -3  -3  -5   45.66   67.64
   3  -3   5   52.52   48.36
   3  -3   5   -1.46   48.58
   3   3   6    4.64   54.74
   3   3   6  -19.80   55.85
  -3   3  -6   61.72   54.53
  -3   3  -6   52.19   53.74
  -3  -3  -6  -69.17   53.97
   3  -3   6  -15.19   54.20
   3   3   7   51.47   57.93
   3   3   7   76.78   60.45
  -3   3  -7   41.80   53.43
  -3   3  -7    4.13   69.96
  -3  -3  -7   87.41   76.36
   3  -3   7  114.82   64.29
   3   3   8  154.51   68.48
   3   3   8  139.50   59.45
  -3   3  -8  138.93   54.74
  -3   3  -8   96.38   79.78
  -3  -3  -8  157.04   84.33
   3  -3   8   55.99   65.29
   3   3   9   22.75   46.10
   3   3   9   46.31   54.62
   3  -3   9   44.53   45.01
   3   3  10   14.39   38.00
   3   5   0 1035.88  160.10
   3   5   0 1125.03  118.76
  -3   5   0 1061.05  119.09
  -3   5   0 1111.52  124.18
  -3  -5   0  905.73  116.89
   3   5   1  328.07   85.88
  -3   5  -1  481.16   86.60
  -3   5  -1  182.97   90.95
  -3   5  -1  207.84   65.93
  -3  -5  -1  419.80   97.17
   3   5   2  316.33   89.44
   3   5   2  170.01   43.35
  -3   5  -2  171.21   72.94
  -3  -5  -2  302.74   79.55
   3   5   3   -7.62   33.27
   3  -5   3  -33.26   32.66
   3   5   4  332.44   77.37
  -3   5  -4  308.25   88.00
   3   5   5  -18.60   49.33
   4   0   0 5056.31  227.36
   4   0   0 4831.75  324.59
   4   0   0 4902.39  334.98
   4   0   0 4950.25  382.88
  -4   0   0 4930.66  281.96
  -4   0   0 4805.30  333.94
  -4   0   0 4869.50  314.04
  -4   0   0 5461.43  339.43
   4   0   129967.54 1347.90
   4   0   133247.55 1213.77
   4   0   132913.74 1458.87
  -4   0  -131750.42 1238.90
  -4   0  -130127.71 1442.76
  -4   0  -129720.98 1282.06
  -4   0  -131201.34 1415.73
  -4   0  -128856.83 1302.62
   4   0   2 7075.61  431.36
   4   0   2 7239.73  495.67
   4   0   2 7798.08  546.10
   4   0   2 6915.78  470.95
  -4   0  -2 7450.20  542.87
  -4   0  -2 7497.76  562.19
  -4   0  -2 6965.89  401.94
  -4   0  -2 6705.40  484.21
  -4   0  -2 7739.51  535.89
   4   0   3 6010.99  380.03
   4   0   3 5683.10  343.85
   4   0   3 6611.90  505.58
  -4   0  -3 6479.85  498.19
  -4   0  -3 6577.40  462.24
  -4   0  -3 5757.95  466.30
  -4   0  -3 6989.60  457.43
   4   0   410406.74  549.99
   4   0   4 8268.01  452.99
   4   0   411257.95  737.43
  -4   0  -410828.14  725.02
  -4   0  -4 8280.21  515.67
   4   0   5 1248.34  160.73
   4   0   5 1115.71   98.88
   4   0   5 1835.42  208.84
  -4   0  -5 1800.43  215.13
   4   0   6  855.59  120.07
   4   0   6  956.51  122.49
  -4   0  -6  903.99  140.57
  -4   0  -6  783.74  121.62
   4   0   7  562.04  120.19
  -4   0  -7  597.42  135.35
  -4   0  -7  281.65   72.11
   4   0   8 3344.36  267.60
   4   0   8 3562.71  302.89
  -4   0  -8 3726.15  335.27
  -4   0  -8 3016.73  261.45
   4   0   9  270.89   93.77
  -4   0  -9  265.00   90.37
  -4   0  -9  180.53   63.67
   4   0  10  225.64   72.68
  -4   0 -10   76.14   57.77
  -4   0 -11   -3.74   47.15
   4   2   0 1717.94  156.20
   4   2   0 2045.63  136.42
   4   2   0 2191.52  160.40
  -4   2   0 1957.47  147.69
  -4   2   0 1939.14  137.03
  -4   2   0 1845.33  167.79
  -4   2   0 1619.23  187.40
  -4   2   0 2079.82  179.12
  -4  -2   0 2301.20  255.74
  -4  -2   0 2279.68  222.19
  -4  -2   0 2378.91  204.81
   4  -2   0 2154.28  240.34
   4  -2   0 1981.07  207.75
  -4   2  -112753.35  589.75
  -4  -2  -115431.21  960.84
  -4  -2  -113308.61  894.43
  -4  -2  -115736.54  749.45
   4  -2   113893.65 1008.64
   4  -2   113162.44  787.40
   4   2   2 3224.65  280.64
  -4   2  -2 3490.58  232.60
  -4  -2  -2 4095.86  344.12
  -4  -2  -2 3948.73  327.66
  -4  -2  -2 3810.86  376.83
   4  -2   2 4334.89  440.58
   4  -2   2 3503.30  321.43
   4  -2   2 3367.92  292.33
   4  -2   2 2469.72  217.33
   4   2   3 3200.66  263.68
   4   2   3 3519.61  260.39
  -4   2  -3 3699.07  259.35
  -4   2  -3 3618.17  349.06
  -4  -2  -3 3277.29  333.79
  -4  -2  -3 3728.61  303.35
   4  -2   3 3111.45  265.13
   4  -2   3 3176.61  244.39
   4   2   4 5306.44  416.10
   4   2   4 5349.82  430.32
   4   2   4 5000.13  328.21
  -4   2  -4 5274.31  353.11
  -4   2  -4 5372.42  481.65
  -4  -2  -4 5720.45  451.38
   4  -2   4 5014.68  379.06
   4  -2   4 4953.03  360.02
   4   2   5  639.16   98.95
   4   2   5  991.18  154.74
   4   2   5  921.58  141.60
  -4   2  -5  777.60  109.67
  -4   2  -5  660.82  126.56
  -4  -2  -5  682.23  146.17
   4  -2   5  715.53  123.84
   4   2   6  577.33   97.99
   4   2   6  479.41  107.81
  -4   2  -6  346.63   83.13
  -4   2  -6  272.06   98.88
  -4  -2  -6  753.22  151.00
   4  -2   6  401.16   95.38
   4   2   7  309.58   86.31
   4   2   7  403.93   82.87
  -4   2  -7  250.33   74.56
  -4   2  -7  120.55   84.23
  -4  -2  -7  386.69  109.49
   4  -2   7  182.49   79.04
   4   2   8 1858.73  184.23
   4   2   8 1809.71  189.23
  -4   2  -8 1658.25  189.47
  -4   2  -8 1781.42  219.96
  -4  -2  -8 2331.79  250.28
   4  -2   8 2095.04  227.96
   4  -2   8 1749.59  187.24
   4   2   9  169.89   58.53
   4   2   9   69.62   56.21
   4   2   9   72.12   68.45
  -4   2  -9   79.15   58.12
  -4  -2  -9  132.32   82.48
   4  -2   9  160.25   72.87
  -4   2 -10   33.74   44.92
  -4  -2 -10   17.98   55.93
   4  -2  10   24.34   50.29
   4   4   0  170.21   42.34
   4   4   0  384.52   63.26
  -4   4   0  245.37   60.21
  -4   4   0  289.26   71.41
  -4   4   0  147.00   77.59
  -4  -4   0  206.79   74.67
   4  -4   0  233.89   54.48
   4   4   1 1852.44  158.87
  -4   4  -1 1791.87  127.28
  -4   4  -1 2728.57  190.72
  -4   4  -1 1963.39  192.06
  -4  -4  -1 2109.10  191.38
  -4  -4  -1 2573.57  270.02
   4  -4   1 1983.50  215.12
   4   4   2  674.38  117.46
   4   4   2  378.73   78.53
  -4   4  -2  696.64   98.63
  -4   4  -2  543.63  135.38
  -4  -4  -2  587.34  126.80
   4  -4   2  491.86   95.83
   4   4   3  482.77   97.91
   4   4   3  654.56   95.14
  -4   4  -3  643.35  108.32
  -4   4  -3  677.89  141.33
  -4  -4  -3  738.28  125.13
   4  -4   3  582.18  108.83
   4   4   4  942.92  111.65
   4   4   4  725.62  120.32
  -4   4  -4  800.09  115.37
  -4   4  -4 1159.22  171.64
  -4  -4  -4  636.33  148.39
   4  -4   4  921.91  137.83
   4   4   5  143.64   69.77
   4   4   5   66.37   43.03
  -4   4  -5   60.57   52.32
  -4   4  -5  177.04   92.19
  -4  -4  -5  217.56   92.42
   4  -4   5  175.82   57.36
   4   4   6   33.91   48.30
  -4  -4  -6  104.91   71.06
   4   4   7   44.38   42.04
   5   1   0  -38.13   44.14
   5   1   0  100.98   60.92
   5   1   0   14.31   27.30
  -5   1   0   46.97   16.97
  -5   1   0  108.61   85.43
  -5   1   0   28.19   58.63
  -5   1   0    5.32   53.38
  -5  -1   0  170.25   60.78
  -5  -1   0  195.16  112.05
  -5  -1   0  148.87   43.52
   5  -1   0  -47.37   56.29
   5  -1   0   75.33   77.33
   5   1   1 8056.49  532.38
   5   1   1 9675.90  388.81
   5   1   110533.11  612.75
  -5   1  -1 9242.26  535.93
  -5   1  -1 9466.25  686.93
  -5   1  -1 9576.83  693.31
  -5   1  -110163.17  726.80
  -5  -1  -110060.12  653.65
  -5  -1  -110564.82  658.17
  -5  -1  -1 9750.99  391.54
  -5  -1  -110184.10  554.28
   5  -1   110906.63  806.31
   5  -1   1 8823.43  678.23
   5   1   2 1247.00  168.30
  -5   1  -2 1508.19  191.70
  -5   1  -2 1665.03  197.29
  -5  -1  -2 1496.37  169.64
  -5  -1  -2 1544.04  194.67
  -5  -1  -2 1562.97  102.63
  -5  -1  -2 1939.68  178.32
   5  -1   2 1650.83  195.77
   5  -1   2 1452.08  174.45
   5   1   3 7990.30  518.43
  -5   1  -3 7256.79  535.47
  -5   1  -3 6046.48  492.39
  -5  -1  -3 7226.74  627.25
  -5  -1  -3 7205.94  363.07
  -5  -1  -3 7759.80  536.02
   5  -1   3 5956.77  228.42
   5  -1   3 6665.75  477.13
   5  -1   3 6225.16  451.37
   5   1   4  308.96   91.70
   5   1   4  364.27  120.60
   5   1   4  194.68   99.89
  -5   1  -4  318.30   93.23
  -5   1  -4  406.79  105.28
  -5  -1  -4  341.81  100.24
  -5  -1  -4  309.44   50.57
   5  -1   4  212.79   43.63
   5  -1   4  229.82   30.74
   5  -1   4  319.54   95.82
   5  -1   4  311.32   78.93
   5   1   5 8085.21  518.66
   5   1   5 9538.64  597.93
  -5   1  -5 8895.78  519.72
  -5   1  -5 7896.39  585.97
  -5  -1  -5 9910.94  713.32
  -5  -1  -5 7541.96  450.43
   5  -1   5 5859.71  348.80
   5  -1   5 8763.77  597.33
   5   1   6    7.00   51.52
   5   1   6  -74.10   69.19
  -5  -1  -6  -22.71   89.90
  -5  -1  -6   26.92   51.60
   5  -1   6    9.15   32.77
   5  -1   6   93.11   79.35
   5   1   7  213.58   60.80
   5   1   7  259.80   86.58
   5   1   7  375.90  108.06
  -5   1  -7  271.71   85.32
  -5   1  -7  186.26   87.42
  -5  -1  -7  260.04  106.82
   5  -1   7  133.60   74.69
   5   1   8   30.32   43.56
   5   1   8   77.55   52.15
  -5   1  -8  110.26   70.15
  -5   1  -8   19.97   64.67
   5   1   9  561.11   83.32
   5   1   9  508.70   84.41
  -5   1  -9  610.49  116.07
  -5   1  -9  540.93  102.31
   5  -1   9  603.70  113.17
   5   1  10   -7.25   33.74
  -5   1 -10   49.29   47.26
  -5   1 -10   10.98   56.07
   5  -1  10   22.15   40.70
   5   3   0   11.31   20.46
   5   3   0   37.90   49.46
  -5   3   0   -9.23   32.32
  -5   3   0  -27.16   54.43
  -5  -3   0   27.88   58.84
  -5  -3   0   98.02   63.99
  -5  -3   0   32.66   48.21
   5  -3   0    4.32   59.25
   5  -3   0  -18.74   35.03
   5   3   1 2355.17  195.78
  -5   3  -1 2302.77  141.12
  -5  -3  -1 2463.27  256.52
  -5  -3  -1 2583.94  256.54
   5  -3   1 2860.64  295.08
   5  -3   1 2293.82  211.94
   5   3   2  384.83   70.64
   5   3   2  377.88   74.99
  -5   3  -2  302.23   81.48
  -5   3  -2  412.89  122.44
  -5  -3  -2  532.68  121.07
  -5  -3  -2  420.57  104.76
   5  -3   2  297.44   73.55
   5  -3   2  320.04   73.26
   5   3   3 1934.54  193.53
   5   3   3 2016.77  178.56
  -5   3  -3 2004.47  173.68
  -5   3  -3 2151.09  280.92
  -5  -3  -3 2161.06  254.55
   5  -3   3 2102.91  204.74
   5   3   4   91.86   69.32
   5   3   4   92.11   55.06
   5   3   4  202.31   67.80
  -5   3  -4  185.54   59.61
  -5   3  -4  102.91   83.96
   5  -3   4  172.28   63.98
   5   3   5 2361.60  210.36
   5   3   5 2151.07  207.46
   5   3   5 2823.86  233.99
  -5   3  -5 2761.93  242.10
  -5   3  -5 2181.45  277.72
  -5  -3  -5 2746.39  278.69
   5  -3   5 2526.47  226.58
   5  -3   5 2157.92  197.65
   5   3   6  -15.19   49.81
   5   3   6  -30.34   50.60
   5   3   6  -20.00   50.16
  -5   3  -6  -23.95   49.37
  -5   3  -6  -19.23   48.94
  -5  -3  -6  -29.77   49.27
   5  -3   6  -63.17   51.09
   5  -3   6  -40.07   49.50
   5   3   7   44.97   46.90
   5   3   7   64.33   50.21
  -5   3  -7   61.54   49.38
   5  -3   7  235.67   87.36
  -5   3  -8  -67.38   57.89
  -5  -3  -8  -56.80   58.62
   5  -3   8   49.62   60.07
   5   5   0   17.23   35.28
  -5   5   0   93.38   65.98
  -5  -5   0  -16.64   43.85
   5   5   1  250.55   71.31
  -5   5  -1  168.56   78.36
  -5  -5  -1  242.88   84.66
   5  -5   1  201.60   61.70
   5   5   2  -16.24   52.57
  -5   5  -2  134.44   76.02
   5  -5   2   24.87   40.65
   5   5   4  -16.29   31.37
   6   0   0  672.31   87.32
   6   0   0  839.58  112.84
   6   0   0  727.83   93.22
   6   0   0  798.08  146.67
  -6   0   0  695.17   70.43
  -6   0   0  916.78  144.21
  -6   0   0  649.70   94.00
   6   0   1 6498.94  371.28
   6   0   1 6389.77  380.09
   6   0   1 7307.41  468.96
  -6   0  -1 6563.52  402.12
  -6   0  -1 6567.14  505.09
  -6   0  -1 6810.22  543.20
  -6   0  -1 7038.33  482.51
   6   0   213291.74  698.11
   6   0   215145.27  727.09
   6   0   215214.79  806.92
  -6   0  -215428.72  729.94
  -6   0  -215287.14  947.86
  -6   0  -213768.29  718.58
  -6   0  -215908.82  969.95
   6   0   3  140.69   54.26
   6   0   3   63.76   33.21
   6   0   3   71.10   99.75
  -6   0  -3  156.22  108.54
  -6   0  -3   56.99   63.58
  -6   0  -3  139.09   86.50
   6   0   4  629.70   98.65
   6   0   4  943.25  154.62
   6   0   4  837.15  129.31
  -6   0  -4  888.21  151.41
  -6   0  -4  603.15  105.18
   6   0   5   14.59   52.23
   6   0   5   82.35   87.92
  -6   0  -5   78.18   91.77
   6   0   6 1936.63  193.94
   6   0   6 2661.74  227.94
  -6   0  -6 2774.57  271.67
  -6   0  -6 2060.24  221.63
  -6   0  -7  191.66   86.83
   6   0   8  573.96  112.79
  -6   0  -8  742.14  134.42
  -6   0  -8  249.20   80.71
   6   0   9   -2.36   50.64
   6   0   9  -54.87   53.71
  -6   0  -9   17.60   50.39
   6   2   0  134.16   24.52
   6   2   0  267.77   72.46
  -6   2   0  246.70   28.93
  -6   2   0  311.70   63.11
  -6  -2   0  277.13   79.43
  -6  -2   0  381.62  109.22
   6  -2   0  320.65   83.85
   6   2   1 2695.00  222.12
  -6   2  -1 2867.27  242.41
  -6   2  -1 2838.46  261.71
  -6  -2  -1 2990.66  337.50
  -6  -2  -1 2960.47  316.12
  -6  -2  -1 3416.54  272.98
   6  -2   1 2602.79  311.80
   6  -2   1 2405.17  323.12
  -6   2  -2 7905.98  475.11
  -6  -2  -2 8187.83  529.41
  -6  -2  -2 7898.81  638.37
  -6  -2  -2 8415.34  501.79
   6  -2   2 7663.12  599.15
   6  -2   2 8092.27  550.65
   6  -2   2 6188.90  466.89
  -6   2  -3  202.59   83.66
  -6   2  -3  -59.18   85.19
  -6  -2  -3  107.25   70.45
  -6  -2  -3  185.74   84.26
   6  -2   3   13.08   66.86
   6  -2   3  -10.88   62.87
   6   2   4  410.77   90.79
   6   2   4  402.00  101.45
   6   2   4  397.62   93.37
  -6   2  -4  521.76  111.82
  -6   2  -4  525.14  111.66
  -6  -2  -4  460.75  124.60
   6  -2   4  618.14  106.98
   6   2   5    6.20   53.33
   6   2   5   57.56   66.96
  -6   2  -5   70.15   60.57
  -6  -2  -5    9.72   75.92
   6  -2   5   35.01   79.23
   6   2   6 1293.16  128.84
   6   2   6 1346.59  162.22
  -6   2  -6 1346.68  154.73
  -6  -2  -6 1739.90  230.68
   6  -2   6 1024.83  154.59
   6   2   7  -40.78   51.74
  -6   2  -7  -86.48   49.65
  -6   2  -7 -124.11   50.93
  -6  -2  -7  -31.60   51.09
   6  -2   7  -38.41   52.37
   6   2   8  208.38   70.66
  -6   2  -8  271.37   79.75
  -6   2  -8  252.32   77.62
  -6  -2  -8  141.91   76.46
   6  -2   8  196.16   73.57
  -6  -2  -9  -62.65   67.91
   6  -2   9    6.93   68.40
   6   4   0  -27.34   38.49
  -6   4   0   23.13   39.22
  -6  -4   0  -24.58   38.37
  -6  -4   0    7.19   39.54
   6   4   1  265.05   55.09
  -6   4  -1  330.23   76.10
  -6   4  -1  198.70   92.05
  -6  -4  -1  373.64  104.72
  -6  -4  -1  512.03   97.57
   6  -4   1  291.83   62.23
   6   4   2 1062.36  118.80
  -6   4  -2 1590.93  155.89
  -6   4  -2 1614.05  199.48
  -6  -4  -2 1430.50  189.33
  -6  -4  -2 1138.07  205.19
   6  -4   2 1465.50  168.89
   6   4   3   43.84   60.04
  -6   4  -3   64.69   59.92
  -6   4  -3    5.13   79.72
  -6  -4  -3   47.74   77.42
   6  -4   3  123.62   57.26
   6   4   4   60.98   53.01
   6   4   4  126.24   51.40
  -6   4  -4   85.58   55.55
  -6   4  -4  164.46   98.34
  -6  -4  -4   57.25   40.38
   6  -4   4  107.28   56.70
   6   4   5  -15.14   55.14
   6   4   5   11.40   34.71
  -6   4  -5  -16.83   67.42
   6  -4   5   34.94   44.40
   6   4   6  225.57   49.52
   6  -4   6  132.87   70.52
   7   1   0   95.18   38.57
   7   1   0  108.96   77.56
  -7   1   0   78.30   23.95
  -7   1   0  178.85   97.90
  -7  -1   0  106.45   55.60
  -7  -1   0   80.29  107.95
  -7  -1   0   68.36   44.43
   7  -1   0   46.61   37.48
   7  -1   0   77.32   73.38
   7  -1   0  225.12   87.34
   7   1   1 1913.68  119.99
   7   1   1 1948.78  193.38
  -7   1  -1 2219.63  202.43
  -7   1  -1 2399.05  231.56
  -7  -1  -1 2117.33  199.00
  -7  -1  -1 1972.07  236.94
  -7  -1  -1 1936.73  140.94
  -7  -1  -1 1942.13  176.29
   7  -1   1 2176.19  219.65
   7  -1   1 1698.65  207.91
   7   1   212970.60  737.92
  -7   1  -212111.97  687.73
  -7   1  -211817.91  680.37
  -7  -1  -212699.18  689.68
  -7  -1  -213094.77  780.59
  -7  -1  -210732.13  562.46
  -7  -1  -211423.45  536.42
  -7  -1  -212686.01  596.24
   7  -1   211442.79  419.01
   7  -1   210709.18  726.66
   7  -1   212047.86  709.81
   7   1   3  188.88   90.40
  -7   1  -3  201.98   77.92
  -7  -1  -3  199.94   61.20
  -7  -1  -3  353.45  113.05
  -7  -1  -3  226.38   79.01
   7  -1   3  264.62   98.88
   7   1   4 1538.06  149.94
   7   1   4 1489.53  195.97
   7   1   4 1601.11  170.70
  -7   1  -4 1307.66  173.07
  -7  -1  -4 1669.37  231.49
  -7  -1  -4 1189.63  136.56
  -7  -1  -4  989.20   87.99
   7  -1   4 1197.21   73.16
   7  -1   4 1735.83  201.60
   7  -1   4 1405.00  167.47
   7   1   5   16.51   43.46
   7   1   5   24.73   77.65
   7   1   5  228.25   84.90
  -7   1  -5  111.90   76.48
  -7   1  -5  -21.07   59.28
  -7  -1  -5  106.04  107.98
   7  -1   5   44.16   75.21
   7   1   6 1676.99  134.44
   7   1   6 2260.91  233.52
  -7   1  -6 2193.69  240.16
  -7  -1  -6 2194.01  258.97
   7  -1   6 2276.89  272.84
   7   1   7    5.12   64.27
  -7   1  -7   66.75   59.26
  -7  -1  -7   69.80   72.96
   7   1   8   97.56   45.09
   7   1   8  160.51   55.37
   7   1   8  160.77   78.28
  -7   1  -8  117.00   62.72
  -7   1  -9  -35.46   35.30
   7  -1   9    0.70   35.80
   7   3   0   18.49   46.79
  -7   3   0    9.27   16.08
  -7   3   0   -1.00   53.13
  -7  -3   0   35.05   72.87
  -7  -3   0   66.72   58.42
  -7  -3   0   29.47   51.87
   7  -3   0    8.08   56.57
   7  -3   0   47.14   37.38
   7  -3   0   19.78   32.32
   7   3   1  654.45   86.69
  -7   3  -1  676.56  102.46
  -7  -3  -1  614.73  103.15
  -7  -3  -1  646.86  115.37
  -7  -3  -1  674.58  111.09
   7  -3   1  646.44  123.87
   7  -3   1  607.56   93.22
   7   3   2 3119.39  244.51
  -7   3  -2 3396.95  278.90
  -7  -3  -2 4019.74  354.80
  -7  -3  -2 3596.03  311.74
   7  -3   2 3523.14  328.90
   7  -3   2 3604.84  286.89
   7  -3   2 2956.23  212.07
   7   3   3   53.49   54.25
  -7   3  -3   59.68   70.69
  -7   3  -3  -44.35   85.16
  -7  -3  -3   16.25   80.76
   7  -3   3   76.50   66.12
   7  -3   3   80.73   56.11
   7   3   4  407.55   86.99
   7   3   4  473.92   86.64
  -7   3  -4  532.26  131.15
  -7  -3  -4  503.57  126.69
   7  -3   4  431.47   88.94
   7   3   5   17.42   49.54
   7   3   5  -40.33   48.31
  -7   3  -5   17.82   64.97
  -7  -3  -5   79.89   77.23
   7  -3   5  -16.63   59.80
   7  -3   5    5.68   40.09
   7   3   6  455.08   80.72
   7   3   6  449.03   99.69
  -7   3  -6  639.55  101.11
  -7   3  -6  491.47   98.66
  -7  -3  -6  642.88  142.75
   7  -3   6  515.42  122.75
  -7  -3  -7  -15.08   56.52
   7  -3   7  -26.71   58.80
  -7   5   0  100.56   74.15
  -7  -5   0  -32.84   46.03
   7   5   1   22.02   52.04
  -7   5  -1   52.76   43.14
  -7   5  -1   48.76   71.63
   7   5   2  244.60   95.09
  -7   5  -2   30.03   59.96
   7   5   3   11.52   34.17
  -7   5  -3   59.15   60.76
   8   0   0  300.89   59.31
   8   0   0  328.93   66.24
  -8   0   0  330.32   59.72
  -8   0   0  381.63  111.67
  -8   0   0  304.63   85.68
   8   0   1  236.05   40.93
   8   0   1  225.70   52.34
   8   0   1  163.42   86.39
  -8   0  -1  254.27   56.68
  -8   0  -1  341.76   98.63
  -8   0  -1  292.90   87.12
   8   0   2  -26.33   28.41
   8   0   2  -35.25   29.58
   8   0   2  -21.87   29.12
  -8   0  -2  -17.46   29.71
  -8   0  -2  147.41   29.08
  -8   0  -2  -85.64   29.81
   8   0   3 6422.43  354.30
   8   0   3 7783.20  581.69
  -8   0  -3 7834.10  520.68
  -8   0  -3 6490.79  433.75
  -8   0  -3 7004.35  532.22
   8   0   4  168.63   52.90
   8   0   4  294.02   99.48
   8   0   4  221.79   78.89
  -8   0  -4  285.72  107.62
   8   0   5  632.49   96.13
   8   0   5  884.09  128.73
   8   0   5  761.31  141.02
  -8   0  -5  619.31  137.60
   8   0   6  314.60   67.75
   8   0   6  645.42  128.31
  -8   0  -6  519.76  116.75
  -8   0  -6  519.84   84.74
   8   0   7   42.31   60.73
  -8   0  -7   33.00   66.07
   8   0   8  118.46   60.29
  -8   0  -8   85.47   63.79
   8   2   0  140.07   69.58
  -8   2   0   36.49   63.40
  -8   2   0  156.30   62.60
  -8  -2   0  153.68   71.94
  -8  -2   0 1133.62  337.84
  -8  -2   0  314.96   88.84
   8   2   1   94.78   66.13
  -8   2  -1  196.43   81.47
  -8   2  -1  244.91   67.25
  -8  -2  -1  124.56   64.86
  -8  -2  -1  200.96   86.93
  -8  -2  -1  297.21   81.35
   8  -2   1  166.63   77.01
   8  -2   1   15.24   70.57
   8   2   2    7.12   61.82
  -8   2  -2   90.82   62.26
  -8   2  -2   89.58   62.25
  -8  -2  -2  -52.17   62.44
  -8  -2  -2 -107.65   64.24
  -8  -2  -2   -1.41   61.34
   8  -2   2  -21.22   62.62
   8  -2   2  -41.17   68.03
   8   2   3 3728.21  307.15
  -8   2  -3 4273.71  319.53
  -8   2  -3 3832.70  382.56
  -8  -2  -3 3569.98  315.26
  -8  -2  -3 3775.51  388.48
  -8  -2  -3 4144.50  290.48
   8  -2   3 3603.72  331.04
   8  -2   3 3883.77  244.26
   8   2   4  103.15   61.11
   8   2   4    8.92   60.04
   8   2   4   15.28   60.25
  -8   2  -4   78.91   69.60
  -8   2  -4  161.76   79.38
  -8  -2  -4  176.70  100.00
   8  -2   4   34.97   68.57
   8   2   5  403.17   85.09
   8   2   5  349.68   94.13
   8   2   5  305.06   77.13
  -8   2  -5  459.09   89.53
  -8  -2  -5  219.16  102.14
   8  -2   5  288.18   86.80
   8   2   6  185.80   68.09
   8   2   6  268.80   74.42
   8   2   6  271.72   72.44
  -8   2  -6  313.40   92.86
  -8   2  -6  201.61   73.93
   8  -2   6  251.35   95.96
   8   2   7   56.26   53.98
   8   2   7    0.62   45.27
  -8   2  -7   90.36   58.00
  -8  -2  -7   40.84   71.68
   8  -2   7  -37.32   52.07
   8   2   8  -21.92   36.01
  -8   2  -8   10.67   36.11
   8  -2   8   -5.86   36.43
   8   4   0   25.94   35.95
  -8   4   0   24.13   41.89
  -8  -4   0   22.39   60.64
  -8  -4   0   73.24   49.66
   8  -4   0   -5.15   50.29
   8  -4   0    4.95   32.84
   8   4   1   -5.41   39.04
  -8   4  -1    2.60   51.84
  -8   4  -1   17.78   62.59
  -8  -4  -1   53.40   56.55
   8  -4   1   35.18   47.40
   8   4   2  -37.80   37.60
  -8   4  -2    6.21   55.16
  -8   4  -2  -19.02   83.45
  -8  -4  -2   32.93   47.29
   8  -4   2   55.45   50.39
   8   4   3  669.89  103.21
  -8   4  -3  648.74  105.28
  -8   4  -3  563.07  115.43
  -8  -4  -3  440.46  108.56
   8  -4   3  706.97  107.95
   8   4   4   19.28   34.22
   8   4   4   35.24   30.98
  -8   4  -4  -56.95   63.47
  -8  -4  -4   37.07   59.44
   8  -4   4  -14.18   27.29
   8   4   5   -1.24   44.31
  -8  -4  -5    5.14   50.41
   8  -4   5   52.53   33.26
   9   1   0 4027.54  215.13
   9   1   0 4434.47  317.16
  -9   1   0 4312.52  198.38
  -9   1   0 3741.18  293.56
  -9   1   0 4732.74  341.76
  -9  -1   0 4143.30  286.55
  -9  -1   0 4288.63  379.78
  -9  -1   0 3949.79  215.09
  -9  -1   0 4716.87  270.94
   9  -1   0 4123.82  359.11
   9  -1   0 3887.40  325.67
   9   1   1   60.79   31.50
   9   1   1   52.33   75.02
  -9   1  -1  125.28   91.48
  -9   1  -1   61.89   79.09
  -9  -1  -1   73.19   46.60
  -9  -1  -1  -20.50   84.63
  -9  -1  -1  -37.58   55.08
   9  -1   1   74.98   53.73
   9  -1   1  -47.09   92.85
   9   1   2 3242.79  333.14
  -9   1  -2 3245.15  300.41
  -9   1  -2 3212.20  261.49
  -9  -1  -2 3125.12  256.82
  -9  -1  -2 2841.79  307.66
  -9  -1  -2 2409.91  159.97
  -9  -1  -2 2915.12  233.32
   9  -1   2 2713.02  136.32
   9  -1   2 2643.09  213.25
   9  -1   2 3039.99  283.52
   9   1   3 1534.12  188.97
  -9   1  -3 1545.51  176.52
  -9  -1  -3 1743.80  228.44
  -9  -1  -3 1688.18  177.17
   9  -1   3 1821.80  225.24
   9   1   4  977.73  119.09
   9   1   4 1534.67  176.77
   9   1   4 1381.69  145.37
  -9   1  -4 1341.29  172.85
  -9   1  -4  976.48  165.21
  -9  -1  -4 1314.83  196.36
  -9  -1  -4  859.75  127.81
   9  -1   4 1234.38  187.74
   9  -1   4 1018.44  142.37
   9   1   5  137.05   50.77
   9   1   5   73.77   82.45
   9   1   5   48.19   80.02
  -9   1  -5   57.27   77.87
  -9   1  -5  137.97   73.12
  -9  -1  -5   81.34   73.02
   9  -1   5  123.91   59.87
   9   1   6 1410.10  144.13
   9   1   6 2007.91  186.40
  -9   1  -6 2170.27  211.09
  -9  -1  -6 2025.54  251.89
   9  -1   6 1891.20  240.59
   9   1   7   81.44   57.89
  -9   1  -7   49.24   61.11
  -9  -1  -7   96.78   61.25
   9  -1   7   74.74   59.45
   9   3   0 1176.08  131.82
  -9   3   0 1295.60  145.04
  -9   3   0 1161.93  127.14
  -9  -3   0 1247.30  151.20
  -9  -3   0 1089.31  143.13
  -9  -3   0 1273.36  159.43
   9  -3   0 1074.22  189.50
   9  -3   0 1301.55  162.22
   9   3   1  -14.79   60.27
  -9   3  -1   56.35   64.17
  -9  -3  -1   21.91   59.03
  -9  -3  -1   23.17   66.56
  -9  -3  -1   28.21   53.51
   9  -3   1   21.03   56.54
   9  -3   1   36.36   60.21
   9  -3   1   71.00   51.43
   9   3   2 1070.88  119.56
  -9   3  -2  928.16  130.87
  -9  -3  -2  984.50  160.70
  -9  -3  -2  895.34  162.13
  -9  -3  -2  973.43  112.26
   9  -3   2  862.31  118.86
   9  -3   2  875.28  140.15
   9   3   3  388.72   88.87
   9   3   3  418.85   81.19
  -9   3  -3  544.32   90.68
  -9   3  -3  493.80   94.88
  -9  -3  -3  585.98  126.57
   9   3   4  355.34   61.68
   9   3   4  486.83   87.18
   9   3   4  316.74   81.36
  -9   3  -4  515.85  108.73
  -9  -3  -4  272.42  108.42
   9   3   5   40.84   45.90
   9   3   5   54.39   60.45
   9   3   5   -9.98   44.91
  -9   3  -5  -12.41   59.81
  -9  -3  -5  -50.33   61.21
   9  -3   5   81.44   63.33
   9   3   6  227.50   57.83
   9   3   6  524.80   89.44
  -9   3  -6  511.67   98.47
  -9  -3  -6  421.96  105.05
   9  -3   6  365.15   86.35
  -9   5   0   23.15   66.63
  -9  -5   0   24.32   46.62
  -9   5  -1   29.05   54.89
  10   0   0 7125.27  364.31
  10   0   0 8036.33  571.72
 -10   0   0 7337.68  352.59
 -10   0   0 7927.91  544.05
 -10   0   0 7033.42  465.86
  10   0   1 2531.86  208.39
  10   0   1 2556.88  262.56
 -10   0  -1 2416.66  138.47
 -10   0  -1 2524.50  246.92
 -10   0  -1 2256.52  259.41
  10   0   2 3140.15  231.54
  10   0   2 3900.79  364.61
 -10   0  -2 3291.09  251.28
 -10   0  -2 3794.76  337.20
 -10   0  -2 3808.79  289.97
  10   0   3   35.99   40.60
  10   0   3   33.99   85.12
 -10   0  -3   63.67   90.75
 -10   0  -3    9.00   52.07
 -10   0  -3   84.40   68.82
  10   0   4  186.27   53.27
  10   0   4  235.70   91.33
  10   0   4  410.48   96.40
 -10   0  -4  496.79  122.86
 -10   0  -4  206.83   70.54
  10   0   5   26.49   65.70
  10   0   5    9.87   62.92
 -10   0  -5   18.09   68.29
  10   0   6  269.93   88.86
 -10   0  -6  394.77  110.25
  10   0   7  -30.73   34.67
 -10   0  -7    4.81   34.63
  10   2   0 3281.74  155.93
  10   2   0 3891.65  285.70
 -10   2   0 4091.00  317.25
 -10   2   0 4148.01  276.68
 -10  -2   0 4008.38  276.56
 -10  -2   0 3645.80  315.90
 -10  -2   0 3898.03  302.10
  10  -2   0 3926.03  329.91
  10  -2   0 3163.67  290.95
  10   2   1 1443.14  148.46
 -10   2  -1 1262.24  176.05
 -10   2  -1 1393.05  140.16
 -10  -2  -1 1196.77  164.98
 -10  -2  -1 1235.91  166.68
 -10  -2  -1 1395.20  166.51
  10  -2   1 1450.98  183.10
  10  -2   1 1241.72  182.72
  10   2   2 1748.90  193.08
 -10   2  -2 2098.67  227.99
 -10   2  -2 1751.60  177.81
 -10  -2  -2 1892.68  205.25
 -10  -2  -2 1911.87  227.44
 -10  -2  -2 2062.08  213.21
  10  -2   2 1659.00  177.82
  10  -2   2 1668.68  203.31
  10   2   3   -0.88   57.51
 -10   2  -3   80.89   58.47
 -10  -2  -3   44.50   60.32
 -10  -2  -3   22.39   57.14
  10  -2   3  -95.80   63.14
  10  -2   3  -44.03   58.14
  10   2   4   63.77   54.11
  10   2   4  243.45   80.97
  10   2   4  163.50   61.12
 -10   2  -4  140.34   79.82
 -10  -2  -4  155.97   92.95
  10  -2   4  168.61   75.40
  10  -2   4   96.43   72.46
  10   2   5   -1.61   42.10
  10   2   5   40.34   51.13
  10   2   5   95.70   63.50
 -10   2  -5   15.39   56.07
  10  -2   5   89.68   56.33
  10   2   6  101.32   45.93
 -10   2  -6  202.31   74.69
  10  -2   6  169.73   67.83
  10   4   0  683.23   83.29
 -10   4   0  696.46  108.59
 -10  -4   0  779.17  125.57
  10  -4   0  754.36  142.17
  10  -4   0  584.89   84.06
  10   4   1  172.46   54.55
 -10   4  -1  161.62   66.52
 -10  -4  -1  141.66   68.07
 -10   4  -2  275.41   67.79
 -10   4  -2  286.00   88.33
  10  -4   2  288.57   70.54
  10   4   3   -6.54   37.93
 -10   4  -3   33.31   55.46
  10  -4   3   14.18   27.40
  11   1   0  384.59   49.98
  11   1   0  253.78   85.10
 -11   1   0  286.56   41.60
 -11   1   0  587.94  115.85
 -11   1   0  445.59   83.50
 -11  -1   0  290.29   62.40
 -11  -1   0  534.02  112.34
 -11  -1   0  234.58   58.63
 -11  -1   0  342.05   91.38
  11  -1   0  137.58   50.30
  11  -1   0  375.25   84.30
  11  -1   0  452.37  111.37
  11   1   1  897.00   75.25
  11   1   1  962.49  147.14
 -11   1  -1 1110.26  150.41
 -11   1  -1  909.51  132.24
 -11  -1  -1 1030.31  102.27
 -11  -1  -1 1105.22  166.46
 -11  -1  -1 1068.32  117.91
  11  -1   1 1081.43  114.40
  11  -1   1  968.89  178.31
  11   1   2  140.35   84.31
 -11   1  -2  116.56   75.05
 -11   1  -2   99.13   90.23
 -11  -1  -2  133.49   52.01
 -11  -1  -2  143.00  104.30
 -11  -1  -2   58.52   50.56
 -11  -1  -2  149.02   79.82
  11  -1   2  160.40   48.45
  11  -1   2  215.61   91.80
  11   1   3  738.07   85.76
  11   1   3 1068.61  146.76
 -11   1  -3  960.42  142.86
 -11   1  -3  577.43  124.50
 -11   1  -3  934.57  127.42
 -11  -1  -3  626.66  165.21
 -11  -1  -3  947.60  126.88
  11  -1   3  982.52  169.55
  11   1   4  156.28   42.03
  11   1   4   89.40   73.88
  11   1   4  193.01   74.62
 -11   1  -4  187.20   78.82
 -11   1  -4   53.57   65.49
 -11  -1  -4  159.37   92.54
  11  -1   4  116.46   71.74
  11  -1   4  145.91   63.35
  11   1   5   28.77   32.20
  11   1   5  -21.89   31.12
  11   1   5  -15.17   32.82
 -11   1  -5  -36.29   30.81
 -11  -1  -5  -61.20   31.41
  11  -1   5    4.78   32.94
  11   1   6  137.46   63.99
 -11   1  -6  125.10   65.90
 -11  -1  -6  135.77   77.37
  11  -1   6  121.81   64.50
  11  -1   6  116.79   67.10
  11   3   0  223.58   61.61
 -11   3   0   96.62   70.80
 -11  -3   0  123.14   67.33
 -11  -3   0  185.87   69.63
 -11  -3   0  211.31   70.05
  11  -3   0  114.17   70.68
  11   3   1  326.64   79.81
 -11   3  -1  292.31   79.99
 -11  -3  -1  231.98   92.05
 -11  -3  -1  211.83  100.16
 -11  -3  -1  357.46   82.10
  11  -3   1  395.09   97.10
  11   3   2   27.45   47.74
 -11   3  -2    6.08   57.67
 -11  -3  -2    9.42   54.82
 -11  -3  -2   79.58   86.11
 -11  -3  -2   64.31   65.05
  11  -3   2   43.92   53.13
  11   3   3  257.23   68.42
  11   3   3  270.87   73.91
  11   3   3  176.87   62.81
 -11   3  -3  179.93   71.29
 -11   3  -3   99.83   67.76
  11  -3   3  178.22   72.70
  11   3   4   35.76   30.58
  11   3   4   44.67   47.41
  11   3   4   18.48   46.52
  11   3   5   -6.11   35.02
  11   3   5    4.81   34.52
 -11   3  -5   -1.41   34.23
 -12   0   0 2764.22  165.35
 -12   0   0 2886.02  232.10
  12   0   1 2300.93  134.45
  12   0   1 2715.27  281.88
 -12   0  -1 2499.44  226.51
 -12   0  -1 2608.33  267.15
 -12   0  -1 2939.16  218.43
  12   0   2    6.77   37.36
  12   0   2  -13.12   37.16
  12   0   2  -86.36   35.97
 -12   0  -2  -72.38   36.07
 -12   0  -2  -61.59   37.88
  12   0   3 1972.32  208.93
 -12   0  -3 1645.35  195.32
 -12   0  -3 1332.04  124.12
 -12   0  -3 1608.62  193.89
  12   0   4 1190.73  167.19
  12   0   4 1012.30  117.94
 -12   0  -4 1389.08  150.16
 -12   0  -4  476.24   94.46
  12   0   5   89.63   60.71
  12   0   5  127.05   64.36
 -12   0  -5  136.21   75.84
  12   2   0 1505.29  155.53
 -12   2   0 1624.55  181.70
 -12   2   0 1427.62  170.02
 -12  -2   0 1742.63  161.54
 -12  -2   0 1429.34  192.15
 -12  -2   0 1624.85  154.71
  12  -2   0 1751.56  193.18
  12  -2   0 1322.75  166.09
 -12   2  -1 1691.29  200.28
 -12   2  -1 1632.12  173.78
 -12  -2  -1 1234.72  179.32
 -12  -2  -1 1343.51  202.81
 -12  -2  -1 1130.67  152.09
  12  -2   1 1413.76  162.09
  12   2   2  -18.63   60.10
 -12   2  -2  -19.16   60.37
 -12   2  -2    3.35   60.57
 -12  -2  -2   29.87   61.64
 -12  -2  -2 -153.90   64.26
 -12  -2  -2   29.64   59.64
  12  -2   2   60.76   66.85
  12   2   3  620.11   99.80
 -12   2  -3  845.16  120.62
 -12   2  -3  889.71  130.17
 -12  -2  -3 1087.39  158.18
  12  -2   3 1085.94  144.40
  12  -2   3  719.90  114.49
  12   2   4  420.96   94.86
  12   2   4  530.38   99.00
  12   2   4  560.41   91.04
 -12   2  -4  765.84  102.79
 -12  -2  -4  469.92  113.25
  12  -2   4  625.72  104.90
  12   2   5   47.61   52.84
  12   4   0  214.94   64.05
 -12   4   0  308.80   76.15
 -12  -4   0  386.04   80.50
  12  -4   0  292.09   89.51
  12   4   1  254.00   62.95
 -12  -4  -1  196.75   69.82
  12  -4   1   63.69   34.05
  13   1   0 1231.55  114.75
  13   1   0 1671.98  187.96
 -13   1   0 1643.67  170.64
 -13   1   0 1678.14  193.53
 -13  -1   0 1610.77  131.28
 -13  -1   0 1342.62  179.44
 -13  -1   0 1587.15  159.99
  13  -1   0 1452.74  138.97
  13  -1   0 1466.48  183.60
  13   1   1  223.96   44.45
  13   1   1  340.56  102.31
 -13   1  -1  452.59  107.79
 -13   1  -1  553.95  106.66
 -13  -1  -1  399.02   86.24
 -13  -1  -1  423.11  110.89
 -13  -1  -1  397.78   77.68
  13  -1   1  488.31   69.20
  13  -1   1  366.94   86.11
 -13   1  -2   76.41   73.45
 -13   1  -2  178.31   75.39
 -13  -1  -2   83.41   50.32
 -13  -1  -2  129.25   91.68
 -13  -1  -2  144.04   79.92
  13  -1   2  155.47   56.71
  13  -1   2   97.65   81.10
  13   1   3   73.60   49.31
 -13   1  -3   38.69   71.36
 -13   1  -3   67.89   60.35
 -13  -1  -3    9.00   72.87
 -13  -1  -3   52.12   67.32
  13  -1   3   46.08   58.15
  13   1   4  253.85   90.39
  13   1   4  165.51   67.52
  13  -1   4  229.12   80.97
  13   1   5  -43.57   39.22
 -13   1  -5   -9.96   39.16
  13   3   0  492.99   75.21
 -13   3   0  320.75   73.79
 -13   3   0  335.69   80.17
 -13  -3   0  463.12   97.30
 -13  -3   0  345.95  105.67
 -13  -3   0  407.93   91.74
  13  -3   0  522.89   89.36
 -13   3  -1   96.22   58.94
 -13  -3  -1   99.04   41.77
 -13  -3  -1   76.57   84.06
  13  -3   1   60.86   53.81
  13   3   2   61.41   49.43
 -13   3  -2   68.78   46.61
 -13   3  -2  110.36   66.17
  13   3   3    2.68   41.97
  13   3   3   49.60   55.53
  13   3   3   -5.61   45.56
  14   0   0  110.84   49.76
  14   0   0  152.00   76.02
 -14   0   0  117.69   43.20
 -14   0   0  122.81   86.06
 -14   0   0   90.46   75.51
  14   0   1  974.81   92.82
  14   0   1 1277.18  185.05
 -14   0  -1 1471.27  173.85
 -14   0  -1 1155.09  136.85
  14   0   2  -54.26   68.20
 -14   0  -2   56.39   68.73
 -14   0  -2  -15.14   72.68
  14   0   3  103.16   70.76
 -14   0  -3  102.17   65.31
 -14   0  -3  100.85   74.57
  14   0   4   78.88   60.44
 -14   0  -4   38.34   64.84
  14   2   0   91.77   54.27
 -14   2   0   22.20   69.45
 -14   2   0  155.65   64.78
 -14  -2   0  124.31   44.57
 -14  -2   0  167.68  102.56
 -14  -2   0   56.22   66.46
  14  -2   0   69.54   45.67
  14  -2   0    5.78   81.43
  14   2   1  590.02   91.41
 -14   2  -1  607.84  102.87
 -14   2  -1  439.50   89.73
 -14  -2  -1  623.91  103.74
 -14  -2  -1  567.36  151.79
 -14  -2  -1  712.35   99.92
  14  -2   1  698.07   99.23
  14  -2   1  740.35  131.25
  14   2   2  -39.43   55.27
 -14   2  -2  -13.82   55.28
 -14  -2  -2    3.17   58.42
 -14  -2  -2   45.98   55.20
  14  -2   2  -43.56   60.03
 -14   2  -3   44.18   51.80
 -14   2  -3   94.43   47.65
 -14  -2  -3   15.62   60.83
  14  -2   3   11.47   50.32
  15   1   0  141.27   75.87
 -15   1   0   16.58   70.03
 -15   1   0   18.04   63.65
 -15  -1   0   62.80   44.04
 -15  -1   0   89.92   81.05
 -15  -1   0  -44.79   61.27
  15  -1   0   55.33   46.07
  15  -1   0   97.42   80.85
 -15   1  -1 1758.10  190.15
 -15   1  -1 1775.20  175.64
 -15  -1  -1 1425.17   93.22
 -15  -1  -1 1880.91  208.13
 -15  -1  -1 1780.82  190.78
  15  -1   1 1427.42  143.91
  15  -1   1 1934.11  203.49
  15   1   2   42.98   39.81
 -15   1  -2  -12.42   54.82
 -15   1  -2   -0.44   53.31
 -15  -1  -2   27.17   62.51
 -15  -1  -2    6.29   49.98
  15   1   3   23.83   50.57
  15  -1   3    6.73   42.87
  15  -1   3    3.19   42.54
  15   3   0    4.45   42.52
 -15  -3   0   11.87   38.58
 -15  -3   0   20.08   43.41
  15  -3   0   -2.60   37.37
  15   3   1  418.64   70.24
 -15   3  -1  315.40   80.68
  15  -3   1  358.94   73.39
  16   0   0  120.06   40.27
  16   0   0  216.24   87.08
 -16   0   0  200.71   71.53
 -16   0   0  124.65   76.64
  16   0   1  -16.07   52.11
 -16   0  -1   27.65   56.47
  16   0   2  415.03   91.92
 -16   0  -2  550.20  108.66
 -16   0  -2  597.07  108.24
  16   2   0   90.90   59.82
 -16   2   0   61.93   57.11
 -16   2   0  169.65   53.84
 -16  -2   0   28.94   36.45
 -16  -2   0  118.45   76.32
 -16  -2   0   68.73   58.36
  16  -2   0   44.44   49.36
  16  -2   0   66.18   71.32
  16   2   1  -10.34   59.12
 -16  -2  -1    5.50   60.68
 -16  -2  -1  -11.34   62.24
 -16  -2  -1   -9.72   59.04
  16  -2   1   -0.28   60.73
  16  -2   1  -17.39   63.72
 -17   1   0   36.23   54.52
 -17  -1   0  -25.45   68.01
 -17  -1   0   19.33   55.18
  17  -1   0   11.87   33.58
  17  -1   0   63.88   57.49
 -17   1  -1  258.19   76.11
 -17   1  -1  134.04   71.01
 -17  -1  -1  182.92   65.49
 -17  -1  -1  235.91   82.38
  18   0   0   43.17   46.16
 -18   0   0   -0.34   51.63

;
_shelx_hkl_checksum              83017
loop_
_space_group_symop_operation_xyz
'x, y, z'
'-x, y, -z'
'x+1/2, y+1/2, z'
'-x+1/2, y+1/2, -z'
'-x, -y, -z'
'x, -y, z'
'-x+1/2, -y+1/2, -z'
'x+1/2, -y+1/2, z'
loop_
_atom_site_label
_atom_site_type_symbol
_atom_site_fract_x
_atom_site_fract_y
_atom_site_fract_z
_atom_site_U_iso_or_equiv
_atom_site_adp_type
_atom_site_occupancy
_atom_site_site_symmetry_order
_atom_site_calc_flag
_atom_site_refinement_flags_posn
_atom_site_refinement_flags_adp
_atom_site_refinement_flags_occupancy
Bi1 Bi 0.70141(5) 0.0000 0.09850(7) 0.0492(2) Uani 1 2 d S T P
Se1 Se 0.53498(15) 0.5000 -0.0615(2) 0.0492(7) Uani 0.824(14) 2 d S T P
Se2 Se 0.65381(18) 0.0000 -0.1649(3) 0.0432(8) Uani 0.479(14) 2 d S T P
S1 S 0.53498(15) 0.5000 -0.0615(2) 0.0492(7) Uani 0.176(14) 2 d S T P
S2 S 0.65381(18) 0.0000 -0.1649(3) 0.0432(8) Uani 0.521(14) 2 d S T P
Bi2 Bi 0.38951(5) 0.0000 -0.39105(8) 0.0511(2) Uani 1 2 d S T P
Se3 Se 0.2122(2) 0.0000 -0.6548(3) 0.0440(9) Uani 0.328(14) 2 d S T P
Se4 Se 0.41744(18) -0.5000 -0.5416(3) 0.0448(8) Uani 0.545(13) 2 d S T P
S3 S 0.2122(2) 0.0000 -0.6548(3) 0.0440(9) Uani 0.672(14) 2 d S T P
S4 S 0.41744(18) -0.5000 -0.5416(3) 0.0448(8) Uani 0.455(13) 2 d S T P
loop_
_atom_site_aniso_label
_atom_site_aniso_U_11
_atom_site_aniso_U_22
_atom_site_aniso_U_33
_atom_site_aniso_U_23
_atom_site_aniso_U_13
_atom_site_aniso_U_12
Bi1 0.0539(4) 0.0483(4) 0.0561(4) 0.000 0.0390(3) 0.000
Se1 0.0434(10) 0.0535(12) 0.0534(12) 0.000 0.0308(9) 0.000
Se2 0.0439(13) 0.0416(14) 0.0487(14) 0.000 0.0305(11) 0.000
S1 0.0434(10) 0.0535(12) 0.0534(12) 0.000 0.0308(9) 0.000
S2 0.0439(13) 0.0416(14) 0.0487(14) 0.000 0.0305(11) 0.000
Bi2 0.0459(4) 0.0528(4) 0.0567(4) 0.000 0.0322(3) 0.000
Se3 0.0421(14) 0.0454(16) 0.0473(16) 0.000 0.0286(13) 0.000
Se4 0.0435(12) 0.0484(14) 0.0493(14) 0.000 0.0316(11) 0.000
S3 0.0421(14) 0.0454(16) 0.0473(16) 0.000 0.0286(13) 0.000
S4 0.0435(12) 0.0484(14) 0.0493(14) 0.000 0.0316(11) 0.000
loop_
_atom_type_symbol
_atom_type_description
_atom_type_scat_dispersion_real
_atom_type_scat_dispersion_imag
_atom_type_scat_source
Bi Bi -4.1077 10.2566 'International Tables Vol C Tables 4.2.6.8 and 6.1.1.4'
Se Se -0.0929 2.2259 'International Tables Vol C Tables 4.2.6.8 and 6.1.1.4'
S S 0.1246 0.1234 'International Tables Vol C Tables 4.2.6.8 and 6.1.1.4'
loop_
_geom_angle_atom_site_label_1
_geom_angle_atom_site_label_2
_geom_angle_atom_site_label_3
_geom_angle
_geom_angle_site_symmetry_1
_geom_angle_site_symmetry_3
Se2 Bi1 S2 85.79(6) . 7_655
Se2 Bi1 Se2 85.79(6) . 7_655
S2 Bi1 Se2 0.00(9) 7_655 7_655
Se2 Bi1 S2 85.79(6) . 7_645
S2 Bi1 S2 91.59(7) 7_655 7_645
Se2 Bi1 S2 91.59(7) 7_655 7_645
Se2 Bi1 Se2 85.79(6) . 7_645
S2 Bi1 Se2 91.59(7) 7_655 7_645
Se2 Bi1 Se2 91.59(7) 7_655 7_645
S2 Bi1 Se2 0.00(12) 7_645 7_645
Se2 Bi1 Se1 76.29(6) . .
S2 Bi1 Se1 88.13(5) 7_655 .
Se2 Bi1 Se1 88.13(5) 7_655 .
S2 Bi1 Se1 162.06(7) 7_645 .
Se2 Bi1 Se1 162.06(7) 7_645 .
Se2 Bi1 S1 76.29(6) . 1_545
S2 Bi1 S1 162.06(7) 7_655 1_545
Se2 Bi1 S1 162.06(7) 7_655 1_545
S2 Bi1 S1 88.13(5) 7_645 1_545
Se2 Bi1 S1 88.13(5) 7_645 1_545
Se1 Bi1 S1 86.68(6) . 1_545
Se2 Bi1 Se1 76.29(6) . 1_545
S2 Bi1 Se1 162.06(7) 7_655 1_545
Se2 Bi1 Se1 162.06(7) 7_655 1_545
S2 Bi1 Se1 88.13(5) 7_645 1_545
Se2 Bi1 Se1 88.13(5) 7_645 1_545
Se1 Bi1 Se1 86.68(6) . 1_545
S1 Bi1 Se1 0.00(16) 1_545 1_545
S1 Se1 Se1 0.00(6) 5_665 5_665
S1 Se1 Bi1 102.61(9) 5_665 .
Se1 Se1 Bi1 102.61(9) 5_665 .
S1 Se1 Bi1 102.61(9) 5_665 1_565
Se1 Se1 Bi1 102.61(9) 5_665 1_565
Bi1 Se1 Bi1 86.68(6) . 1_565
Bi1 Se2 Bi1 94.21(6) . 7_655
Bi1 Se2 Bi1 94.21(6) . 7_645
Bi1 Se2 Bi1 91.59(7) 7_655 7_645
Se3 Bi2 S3 82.42(8) . 7_544
Se3 Bi2 Se3 82.42(8) . 7_544
S3 Bi2 Se3 0.00(10) 7_544 7_544
Se3 Bi2 S3 82.42(8) . 7_554
S3 Bi2 S3 90.48(8) 7_544 7_554
Se3 Bi2 S3 90.48(8) 7_544 7_554
Se3 Bi2 Se3 82.42(8) . 7_554
S3 Bi2 Se3 90.48(8) 7_544 7_554
Se3 Bi2 Se3 90.48(8) 7_544 7_554
S3 Bi2 Se3 0.00(12) 7_554 7_554
Se3 Bi2 Se4 76.21(7) . .
S3 Bi2 Se4 86.03(5) 7_544 .
Se3 Bi2 Se4 86.03(5) 7_544 .
S3 Bi2 Se4 158.62(7) 7_554 .
Se3 Bi2 Se4 158.62(7) 7_554 .
Se3 Bi2 S4 76.21(7) . 1_565
S3 Bi2 S4 158.62(7) 7_544 1_565
Se3 Bi2 S4 158.62(7) 7_544 1_565
S3 Bi2 S4 86.03(5) 7_554 1_565
Se3 Bi2 S4 86.03(5) 7_554 1_565
Se4 Bi2 S4 89.57(7) . 1_565
Se3 Bi2 Se4 76.21(7) . 1_565
S3 Bi2 Se4 158.62(7) 7_544 1_565
Se3 Bi2 Se4 158.62(7) 7_544 1_565
S3 Bi2 Se4 86.03(5) 7_554 1_565
Se3 Bi2 Se4 86.03(5) 7_554 1_565
Se4 Bi2 Se4 89.57(7) . 1_565
S4 Bi2 Se4 0.00(10) 1_565 1_565
Bi2 Se3 Bi2 97.58(8) . 7_544
Bi2 Se3 Bi2 97.58(8) . 7_554
Bi2 Se3 Bi2 90.48(8) 7_544 7_554
S4 Se4 Se4 0.00(12) 5_644 5_644
S4 Se4 Bi2 109.11(10) 5_644 .
Se4 Se4 Bi2 109.11(10) 5_644 .
S4 Se4 Bi2 109.11(10) 5_644 1_545
Se4 Se4 Bi2 109.11(10) 5_644 1_545
Bi2 Se4 Bi2 89.57(7) . 1_545
loop_
_geom_bond_atom_site_label_1
_geom_bond_atom_site_label_2
_geom_bond_distance
_geom_bond_site_symmetry_2
Bi1 Se2 2.676(3) .
Bi1 S2 2.8626(17) 7_655
Bi1 Se2 2.8626(17) 7_655
Bi1 S2 2.8626(17) 7_645
Bi1 Se2 2.8626(17) 7_645
Bi1 Se1 2.9898(15) .
Bi1 S1 2.9898(15) 1_545
Bi1 Se1 2.9898(15) 1_545
Se1 S1 2.317(4) 5_665
Se1 Se1 2.317(4) 5_665
Se1 Bi1 2.9898(15) 1_565
Se2 Bi1 2.8626(17) 7_655
Se2 Bi1 2.8626(17) 7_645
Bi2 Se3 2.655(3) .
Bi2 S3 2.890(2) 7_544
Bi2 Se3 2.890(2) 7_544
Bi2 S3 2.890(2) 7_554
Bi2 Se3 2.890(2) 7_554
Bi2 Se4 2.9128(17) .
Bi2 S4 2.9129(17) 1_565
Bi2 Se4 2.9129(17) 1_565
Se3 Bi2 2.890(2) 7_544
Se3 Bi2 2.890(2) 7_554
Se4 S4 2.249(5) 5_644
Se4 Se4 2.249(5) 5_644
Se4 Bi2 2.9128(17) 1_545
